MODEL        1
REMARK 921   NORMALIZED FREE ENERGY PREDICTED BY IDOCK:   -8.05 KCAL/MOL
REMARK 922        TOTAL FREE ENERGY PREDICTED BY IDOCK:  -15.85 KCAL/MOL
REMARK 923 INTER-LIGAND FREE ENERGY PREDICTED BY IDOCK:  -13.23 KCAL/MOL
REMARK 924 INTRA-LIGAND FREE ENERGY PREDICTED BY IDOCK:   -2.62 KCAL/MOL
REMARK 927      BINDING AFFINITY PREDICTED BY RF-SCORE:    0.00 PKD
ROOT
HETATM    1  C   UNL     1     -13.049  15.474  71.346  1.00  0.00    -0.580 C  
HETATM    2  C   UNL     1     -11.865  15.979  72.150  1.00  0.00    -0.623 C  
HETATM    3  C   UNL     1     -12.469  16.506  73.438  1.00  0.00    -0.319 C  
HETATM    4  O   UNL     1     -13.868  16.226  73.420  1.00  0.00    -0.562 OA 
HETATM    5  C   UNL     1     -14.118  15.278  72.393  1.00  0.00    -0.525 C  
HETATM    6  O   UNL     1     -13.969  13.940  72.865  1.00  0.00    -0.627 OA 
HETATM    7  C   UNL     1     -13.467  13.156  71.778  1.00  0.00    -0.335 C  
HETATM    8  C   UNL     1     -12.918  14.102  70.710  1.00  0.00    -0.271 C  
ENDROOT
BRANCH   8   9
HETATM    9  O   UNL     1     -11.548  13.755  70.449  1.00  0.00    -0.207 OA 
BRANCH   9  10
HETATM   10  C   UNL     1     -11.309  13.078  69.299  1.00  0.00    -0.251 C  
HETATM   11  O   UNL     1     -12.068  12.272  68.790  1.00  0.00    -0.271 OA 
HETATM   12  N   UNL     1     -10.050  13.386  68.871  1.00  0.00    -0.431 N  
HETATM   13  H   UNL     1      -9.557  14.152  69.330  1.00  0.00     0.000 HD 
BRANCH  12  14
HETATM   14  C   UNL     1      -9.366  12.671  67.783  1.00  0.00    -0.198 C  
BRANCH  14  15
HETATM   15  C   UNL     1      -9.442  13.462  66.437  1.00  0.00    -0.230 C  
BRANCH  15  16
HETATM   16  C   UNL     1     -10.459  12.969  65.420  1.00  0.00    -0.308 A  
HETATM   17  C   UNL     1     -11.828  13.192  65.617  1.00  0.00    -0.430 A  
HETATM   18  C   UNL     1     -10.055  12.250  64.284  1.00  0.00    -0.311 A  
HETATM   19  C   UNL     1     -12.768  12.703  64.706  1.00  0.00    -0.460 A  
HETATM   20  C   UNL     1     -12.351  11.996  63.579  1.00  0.00    -0.661 A  
HETATM   21  C   UNL     1     -10.994  11.776  63.364  1.00  0.00    -0.458 A  
ENDBRANCH  15  16
ENDBRANCH  14  15
BRANCH  14  22
HETATM   22  C   UNL     1      -7.888  12.295  68.106  1.00  0.00    -0.148 C  
HETATM   23  O   UNL     1      -7.121  12.161  66.901  1.00  0.00    -0.317 OA 
HETATM   24  H   UNL     1      -6.221  11.932  67.098  1.00  0.00     0.000 HD 
BRANCH  22  25
HETATM   25  C   UNL     1      -7.635  11.107  69.056  1.00  0.00    -0.119 C  
BRANCH  25  26
HETATM   26  N   UNL     1      -8.554   9.891  68.999  1.00  0.00    -0.139 N  
BRANCH  26  27
HETATM   27  C   UNL     1      -8.313   9.079  67.727  1.00  0.00    -0.117 C  
HETATM   28  C   UNL     1      -9.516   8.438  67.004  1.00  0.00    -0.225 C  
HETATM   29  C   UNL     1     -10.536   9.444  66.476  1.00  0.00    -0.199 C  
HETATM   30  C   UNL     1      -9.005   7.622  65.801  1.00  0.00    -0.095 C  
ENDBRANCH  26  27
BRANCH  26  31
HETATM   31  S   UNL     1      -8.322   8.923  70.455  1.00  0.00    -0.178 S  
HETATM   32  O   UNL     1      -8.039   7.563  70.069  1.00  0.00    -0.122 OA 
HETATM   33  O   UNL     1      -7.415   9.675  71.303  1.00  0.00    -0.310 OA 
BRANCH  31  34
HETATM   34  C   UNL     1      -9.925   8.923  71.256  1.00  0.00    -0.288 A  
HETATM   35  C   UNL     1     -11.480   7.958  72.836  1.00  0.00    -0.357 A  
HETATM   36  C   UNL     1     -10.199   7.998  72.263  1.00  0.00    -0.325 A  
HETATM   37  C   UNL     1     -12.502   8.801  72.385  1.00  0.00    -0.352 A  
HETATM   38  N   UNL     1     -13.738   8.826  73.032  1.00  0.00    -0.999 NA 
HETATM   39  C   UNL     1     -12.185   9.777  71.437  1.00  0.00    -0.486 A  
HETATM   40  H1  UNL     1     -14.483   9.440  72.703  1.00  0.00     0.000 HD 
HETATM   41  C   UNL     1     -10.909   9.834  70.859  1.00  0.00    -0.399 A  
HETATM   42  H2  UNL     1     -13.578   9.020  74.020  1.00  0.00     0.000 HD 
ENDBRANCH  31  34
ENDBRANCH  26  31
ENDBRANCH  25  26
ENDBRANCH  22  25
ENDBRANCH  14  22
ENDBRANCH  12  14
ENDBRANCH   9  10
ENDBRANCH   8   9
TORSDOF 11
ENDMDL
MODEL        2
REMARK 921   NORMALIZED FREE ENERGY PREDICTED BY IDOCK:   -7.83 KCAL/MOL
REMARK 922        TOTAL FREE ENERGY PREDICTED BY IDOCK:  -15.49 KCAL/MOL
REMARK 923 INTER-LIGAND FREE ENERGY PREDICTED BY IDOCK:  -13.21 KCAL/MOL
REMARK 924 INTRA-LIGAND FREE ENERGY PREDICTED BY IDOCK:   -2.28 KCAL/MOL
REMARK 927      BINDING AFFINITY PREDICTED BY RF-SCORE:    0.00 PKD
ROOT
HETATM    1  C   UNL     1     -12.937  15.617  71.349  1.00  0.00    -0.555 C  
HETATM    2  C   UNL     1     -11.678  16.069  72.066  1.00  0.00    -0.588 C  
HETATM    3  C   UNL     1     -12.159  16.558  73.418  1.00  0.00    -0.382 C  
HETATM    4  O   UNL     1     -13.560  16.307  73.511  1.00  0.00    -0.642 OA 
HETATM    5  C   UNL     1     -13.918  15.403  72.476  1.00  0.00    -0.543 C  
HETATM    6  O   UNL     1     -13.759  14.045  72.886  1.00  0.00    -0.677 OA 
HETATM    7  C   UNL     1     -13.369  13.293  71.732  1.00  0.00    -0.393 C  
HETATM    8  C   UNL     1     -12.891  14.267  70.656  1.00  0.00    -0.314 C  
ENDROOT
BRANCH   8   9
HETATM    9  O   UNL     1     -11.556  13.904  70.267  1.00  0.00    -0.242 OA 
BRANCH   9  10
HETATM   10  C   UNL     1     -11.158  14.311  69.036  1.00  0.00    -0.259 C  
HETATM   11  O   UNL     1     -11.906  14.638  68.131  1.00  0.00    -0.325 OA 
HETATM   12  N   UNL     1      -9.800  14.200  68.964  1.00  0.00    -0.413 N  
HETATM   13  H   UNL     1      -9.284  14.012  69.823  1.00  0.00     0.000 HD 
BRANCH  12  14
HETATM   14  C   UNL     1      -9.041  14.337  67.711  1.00  0.00    -0.195 C  
BRANCH  14  15
HETATM   15  C   UNL     1      -8.257  15.689  67.658  1.00  0.00    -0.165 C  
BRANCH  15  16
HETATM   16  C   UNL     1      -9.090  16.946  67.467  1.00  0.00    -0.222 A  
HETATM   17  C   UNL     1      -9.193  17.894  68.493  1.00  0.00    -0.288 A  
HETATM   18  C   UNL     1      -9.803  17.166  66.279  1.00  0.00    -0.306 A  
HETATM   19  C   UNL     1      -9.993  19.030  68.337  1.00  0.00    -0.473 A  
HETATM   20  C   UNL     1     -10.689  19.239  67.148  1.00  0.00    -0.584 A  
HETATM   21  C   UNL     1     -10.589  18.311  66.115  1.00  0.00    -0.326 A  
ENDBRANCH  15  16
ENDBRANCH  14  15
BRANCH  14  22
HETATM   22  C   UNL     1      -8.080  13.144  67.421  1.00  0.00    -0.179 C  
HETATM   23  O   UNL     1      -6.742  13.610  67.199  1.00  0.00    -0.437 OA 
HETATM   24  H   UNL     1      -6.156  12.883  67.022  1.00  0.00     0.000 HD 
BRANCH  22  25
HETATM   25  C   UNL     1      -8.497  12.127  66.340  1.00  0.00     0.054 C  
BRANCH  25  26
HETATM   26  N   UNL     1      -9.849  11.429  66.445  1.00  0.00    -0.206 N  
BRANCH  26  27
HETATM   27  C   UNL     1     -10.572  11.428  65.098  1.00  0.00    -0.293 C  
HETATM   28  C   UNL     1     -11.703  12.450  64.851  1.00  0.00    -0.418 C  
HETATM   29  C   UNL     1     -11.248  13.907  64.896  1.00  0.00    -0.356 C  
HETATM   30  C   UNL     1     -12.313  12.198  63.459  1.00  0.00    -0.682 C  
ENDBRANCH  26  27
BRANCH  26  31
HETATM   31  S   UNL     1      -9.610   9.796  67.068  1.00  0.00    -0.180 S  
HETATM   32  O   UNL     1     -10.154   8.853  66.123  1.00  0.00    -0.291 OA 
HETATM   33  O   UNL     1      -8.226   9.725  67.499  1.00  0.00    -0.113 OA 
BRANCH  31  34
HETATM   34  C   UNL     1     -10.631   9.722  68.538  1.00  0.00    -0.221 A  
HETATM   35  C   UNL     1     -12.273  10.722  70.004  1.00  0.00    -0.409 A  
HETATM   36  C   UNL     1     -11.528  10.754  68.815  1.00  0.00    -0.364 A  
HETATM   37  C   UNL     1     -12.102   9.695  70.940  1.00  0.00    -0.300 A  
HETATM   38  N   UNL     1     -12.921   9.618  72.066  1.00  0.00    -0.417 NA 
HETATM   39  C   UNL     1     -11.263   8.629  70.606  1.00  0.00    -0.284 A  
HETATM   40  H1  UNL     1     -12.797   8.870  72.748  1.00  0.00     0.000 HD 
HETATM   41  C   UNL     1     -10.517   8.642  69.420  1.00  0.00    -0.224 A  
HETATM   42  H2  UNL     1     -13.893   9.606  71.754  1.00  0.00     0.000 HD 
ENDBRANCH  31  34
ENDBRANCH  26  31
ENDBRANCH  25  26
ENDBRANCH  22  25
ENDBRANCH  14  22
ENDBRANCH  12  14
ENDBRANCH   9  10
ENDBRANCH   8   9
TORSDOF 11
ENDMDL
MODEL        3
REMARK 921   NORMALIZED FREE ENERGY PREDICTED BY IDOCK:   -7.60 KCAL/MOL
REMARK 922        TOTAL FREE ENERGY PREDICTED BY IDOCK:  -15.11 KCAL/MOL
REMARK 923 INTER-LIGAND FREE ENERGY PREDICTED BY IDOCK:  -13.23 KCAL/MOL
REMARK 924 INTRA-LIGAND FREE ENERGY PREDICTED BY IDOCK:   -1.88 KCAL/MOL
REMARK 927      BINDING AFFINITY PREDICTED BY RF-SCORE:    0.00 PKD
ROOT
HETATM    1  C   UNL     1      -8.077  18.105  66.349  1.00  0.00    -0.291 C  
HETATM    2  C   UNL     1      -6.630  17.863  65.958  1.00  0.00    -0.317 C  
HETATM    3  C   UNL     1      -6.233  19.096  65.169  1.00  0.00    -0.282 C  
HETATM    4  O   UNL     1      -7.325  20.015  65.198  1.00  0.00    -0.330 OA 
HETATM    5  C   UNL     1      -8.226  19.600  66.214  1.00  0.00    -0.347 C  
HETATM    6  O   UNL     1      -7.874  20.148  67.484  1.00  0.00    -0.290 OA 
HETATM    7  C   UNL     1      -8.233  19.185  68.480  1.00  0.00    -0.364 C  
HETATM    8  C   UNL     1      -8.456  17.837  67.794  1.00  0.00    -0.236 C  
ENDROOT
BRANCH   8   9
HETATM    9  O   UNL     1      -7.598  16.862  68.407  1.00  0.00    -0.190 OA 
BRANCH   9  10
HETATM   10  C   UNL     1      -8.214  15.823  69.023  1.00  0.00    -0.234 C  
HETATM   11  O   UNL     1      -7.658  14.995  69.725  1.00  0.00    -0.194 OA 
HETATM   12  N   UNL     1      -9.526  15.815  68.647  1.00  0.00    -0.200 N  
HETATM   13  H   UNL     1      -9.888  16.621  68.138  1.00  0.00     0.000 HD 
BRANCH  12  14
HETATM   14  C   UNL     1     -10.446  14.704  68.938  1.00  0.00    -0.248 C  
BRANCH  14  15
HETATM   15  C   UNL     1     -11.884  15.220  69.270  1.00  0.00    -0.353 C  
BRANCH  15  16
HETATM   16  C   UNL     1     -12.304  15.155  70.730  1.00  0.00    -0.415 A  
HETATM   17  C   UNL     1     -11.813  16.087  71.653  1.00  0.00    -0.582 A  
HETATM   18  C   UNL     1     -13.159  14.142  71.192  1.00  0.00    -0.398 A  
HETATM   19  C   UNL     1     -12.164  16.005  73.004  1.00  0.00    -0.637 A  
HETATM   20  C   UNL     1     -13.019  14.997  73.446  1.00  0.00    -0.622 A  
HETATM   21  C   UNL     1     -13.523  14.070  72.539  1.00  0.00    -0.661 A  
ENDBRANCH  15  16
ENDBRANCH  14  15
BRANCH  14  22
HETATM   22  C   UNL     1     -10.506  13.624  67.815  1.00  0.00    -0.240 C  
HETATM   23  O   UNL     1     -11.852  13.439  67.358  1.00  0.00    -0.353 OA 
HETATM   24  H   UNL     1     -11.889  12.781  66.674  1.00  0.00     0.000 HD 
BRANCH  22  25
HETATM   25  C   UNL     1      -9.823  12.267  68.081  1.00  0.00    -0.212 C  
BRANCH  25  26
HETATM   26  N   UNL     1     -10.623  10.978  67.925  1.00  0.00    -0.193 N  
BRANCH  26  27
HETATM   27  C   UNL     1     -10.623  10.505  66.471  1.00  0.00    -0.174 C  
HETATM   28  C   UNL     1      -9.470  10.938  65.539  1.00  0.00    -0.249 C  
HETATM   29  C   UNL     1      -8.095  10.436  65.973  1.00  0.00    -0.143 C  
HETATM   30  C   UNL     1      -9.737  10.394  64.123  1.00  0.00    -0.387 C  
ENDBRANCH  26  27
BRANCH  26  31
HETATM   31  S   UNL     1      -9.973   9.757  69.018  1.00  0.00    -0.195 S  
HETATM   32  O   UNL     1      -9.822   8.519  68.296  1.00  0.00    -0.159 OA 
HETATM   33  O   UNL     1      -8.854  10.379  69.703  1.00  0.00    -0.142 OA 
BRANCH  31  34
HETATM   34  C   UNL     1     -11.267   9.506  70.232  1.00  0.00    -0.261 A  
HETATM   35  C   UNL     1     -12.973  10.398  71.695  1.00  0.00    -0.581 A  
HETATM   36  C   UNL     1     -12.010  10.593  70.693  1.00  0.00    -0.466 A  
HETATM   37  C   UNL     1     -13.173   9.139  72.273  1.00  0.00    -0.461 A  
HETATM   38  N   UNL     1     -14.204   8.936  73.191  1.00  0.00    -1.200 NA 
HETATM   39  C   UNL     1     -12.482   8.049  71.740  1.00  0.00    -0.355 A  
HETATM   40  H1  UNL     1     -14.350   8.018  73.613  1.00  0.00     0.000 HD 
HETATM   41  C   UNL     1     -11.520   8.225  70.735  1.00  0.00    -0.268 A  
HETATM   42  H2  UNL     1     -15.080   9.231  72.760  1.00  0.00     0.000 HD 
ENDBRANCH  31  34
ENDBRANCH  26  31
ENDBRANCH  25  26
ENDBRANCH  22  25
ENDBRANCH  14  22
ENDBRANCH  12  14
ENDBRANCH   9  10
ENDBRANCH   8   9
TORSDOF 11
ENDMDL
MODEL        4
REMARK 921   NORMALIZED FREE ENERGY PREDICTED BY IDOCK:   -7.49 KCAL/MOL
REMARK 922        TOTAL FREE ENERGY PREDICTED BY IDOCK:  -14.92 KCAL/MOL
REMARK 923 INTER-LIGAND FREE ENERGY PREDICTED BY IDOCK:  -13.05 KCAL/MOL
REMARK 924 INTRA-LIGAND FREE ENERGY PREDICTED BY IDOCK:   -1.87 KCAL/MOL
REMARK 927      BINDING AFFINITY PREDICTED BY RF-SCORE:    0.00 PKD
ROOT
HETATM    1  C   UNL     1      -9.309  18.719  68.210  1.00  0.00    -0.374 C  
HETATM    2  C   UNL     1     -10.324  18.477  67.108  1.00  0.00    -0.433 C  
HETATM    3  C   UNL     1     -10.536  19.838  66.472  1.00  0.00    -0.500 C  
HETATM    4  O   UNL     1      -9.636  20.760  67.085  1.00  0.00    -0.433 OA 
HETATM    5  C   UNL     1      -8.659  20.018  67.801  1.00  0.00    -0.289 C  
HETATM    6  O   UNL     1      -7.555  19.664  66.969  1.00  0.00    -0.236 OA 
HETATM    7  C   UNL     1      -7.072  18.394  67.418  1.00  0.00    -0.204 C  
HETATM    8  C   UNL     1      -8.143  17.751  68.300  1.00  0.00    -0.283 C  
ENDROOT
BRANCH   8   9
HETATM    9  O   UNL     1      -8.469  16.460  67.761  1.00  0.00    -0.165 OA 
BRANCH   9  10
HETATM   10  C   UNL     1      -8.991  15.560  68.631  1.00  0.00    -0.194 C  
HETATM   11  O   UNL     1      -8.483  15.235  69.690  1.00  0.00    -0.233 OA 
HETATM   12  N   UNL     1     -10.117  15.026  68.075  1.00  0.00    -0.222 N  
HETATM   13  H   UNL     1     -10.490  15.458  67.230  1.00  0.00     0.000 HD 
BRANCH  12  14
HETATM   14  C   UNL     1     -10.820  13.859  68.631  1.00  0.00    -0.262 C  
BRANCH  14  15
HETATM   15  C   UNL     1     -12.250  14.236  69.136  1.00  0.00    -0.272 C  
BRANCH  15  16
HETATM   16  C   UNL     1     -12.377  14.576  70.612  1.00  0.00    -0.407 A  
HETATM   17  C   UNL     1     -13.083  13.732  71.479  1.00  0.00    -0.435 A  
HETATM   18  C   UNL     1     -11.826  15.758  71.132  1.00  0.00    -0.471 A  
HETATM   19  C   UNL     1     -13.237  14.063  72.828  1.00  0.00    -0.580 A  
HETATM   20  C   UNL     1     -12.678  15.236  73.331  1.00  0.00    -0.661 A  
HETATM   21  C   UNL     1     -11.966  16.081  72.484  1.00  0.00    -0.649 A  
ENDBRANCH  15  16
ENDBRANCH  14  15
BRANCH  14  22
HETATM   22  C   UNL     1     -10.894  12.644  67.656  1.00  0.00    -0.221 C  
HETATM   23  O   UNL     1     -12.228  12.121  67.595  1.00  0.00    -0.462 OA 
HETATM   24  H   UNL     1     -12.273  11.381  67.001  1.00  0.00     0.000 HD 
BRANCH  22  25
HETATM   25  C   UNL     1      -9.865  11.510  67.836  1.00  0.00    -0.185 C  
BRANCH  25  26
HETATM   26  N   UNL     1     -10.311  10.059  67.691  1.00  0.00    -0.207 N  
BRANCH  26  27
HETATM   27  C   UNL     1      -9.929   9.501  66.321  1.00  0.00    -0.274 C  
HETATM   28  C   UNL     1      -8.887  10.254  65.465  1.00  0.00    -0.191 C  
HETATM   29  C   UNL     1      -7.502  10.340  66.102  1.00  0.00    -0.121 C  
HETATM   30  C   UNL     1      -8.731   9.534  64.112  1.00  0.00    -0.239 C  
ENDBRANCH  26  27
BRANCH  26  31
HETATM   31  S   UNL     1      -9.624   9.108  69.008  1.00  0.00    -0.159 S  
HETATM   32  O   UNL     1      -9.406   7.761  68.543  1.00  0.00    -0.147 OA 
HETATM   33  O   UNL     1      -8.544   9.904  69.563  1.00  0.00    -0.155 OA 
BRANCH  31  34
HETATM   34  C   UNL     1     -10.924   9.039  70.239  1.00  0.00    -0.244 A  
HETATM   35  C   UNL     1     -12.500  10.159  71.691  1.00  0.00    -0.506 A  
HETATM   36  C   UNL     1     -11.532  10.216  70.675  1.00  0.00    -0.432 A  
HETATM   37  C   UNL     1     -12.834   8.948  72.306  1.00  0.00    -0.411 A  
HETATM   38  N   UNL     1     -13.870   8.889  73.239  1.00  0.00    -1.162 NA 
HETATM   39  C   UNL     1     -12.277   7.772  71.799  1.00  0.00    -0.338 A  
HETATM   40  H1  UNL     1     -14.114   8.006  73.688  1.00  0.00     0.000 HD 
HETATM   41  C   UNL     1     -11.315   7.810  70.781  1.00  0.00    -0.291 A  
HETATM   42  H2  UNL     1     -14.712   9.270  72.807  1.00  0.00     0.000 HD 
ENDBRANCH  31  34
ENDBRANCH  26  31
ENDBRANCH  25  26
ENDBRANCH  22  25
ENDBRANCH  14  22
ENDBRANCH  12  14
ENDBRANCH   9  10
ENDBRANCH   8   9
TORSDOF 11
ENDMDL
MODEL        5
REMARK 921   NORMALIZED FREE ENERGY PREDICTED BY IDOCK:   -7.38 KCAL/MOL
REMARK 922        TOTAL FREE ENERGY PREDICTED BY IDOCK:  -14.74 KCAL/MOL
REMARK 923 INTER-LIGAND FREE ENERGY PREDICTED BY IDOCK:  -12.52 KCAL/MOL
REMARK 924 INTRA-LIGAND FREE ENERGY PREDICTED BY IDOCK:   -2.22 KCAL/MOL
REMARK 927      BINDING AFFINITY PREDICTED BY RF-SCORE:    0.00 PKD
ROOT
HETATM    1  C   UNL     1     -13.015  15.310  71.349  1.00  0.00    -0.503 C  
HETATM    2  C   UNL     1     -11.843  15.988  72.034  1.00  0.00    -0.623 C  
HETATM    3  C   UNL     1     -12.232  16.043  73.499  1.00  0.00    -0.523 C  
HETATM    4  O   UNL     1     -13.473  15.357  73.657  1.00  0.00    -0.339 OA 
HETATM    5  C   UNL     1     -13.711  14.596  72.482  1.00  0.00    -0.467 C  
HETATM    6  O   UNL     1     -13.112  13.303  72.562  1.00  0.00    -0.411 OA 
HETATM    7  C   UNL     1     -12.705  12.938  71.240  1.00  0.00    -0.278 C  
HETATM    8  C   UNL     1     -12.693  14.196  70.370  1.00  0.00    -0.279 C  
ENDROOT
BRANCH   8   9
HETATM    9  O   UNL     1     -11.386  14.343  69.793  1.00  0.00    -0.249 OA 
BRANCH   9  10
HETATM   10  C   UNL     1     -11.302  15.122  68.686  1.00  0.00    -0.310 C  
HETATM   11  O   UNL     1     -11.876  16.187  68.535  1.00  0.00    -0.300 OA 
HETATM   12  N   UNL     1     -10.552  14.467  67.753  1.00  0.00    -0.249 N  
HETATM   13  H   UNL     1     -10.045  13.630  68.041  1.00  0.00     0.000 HD 
BRANCH  12  14
HETATM   14  C   UNL     1     -10.435  14.905  66.354  1.00  0.00    -0.299 C  
BRANCH  14  15
HETATM   15  C   UNL     1      -9.220  15.868  66.151  1.00  0.00    -0.384 C  
BRANCH  15  16
HETATM   16  C   UNL     1      -9.433  17.318  66.556  1.00  0.00    -0.286 A  
HETATM   17  C   UNL     1     -10.452  18.079  65.968  1.00  0.00    -0.317 A  
HETATM   18  C   UNL     1      -8.593  17.937  67.495  1.00  0.00    -0.239 A  
HETATM   19  C   UNL     1     -10.622  19.424  66.307  1.00  0.00    -0.569 A  
HETATM   20  C   UNL     1      -9.785  20.023  67.246  1.00  0.00    -0.545 A  
HETATM   21  C   UNL     1      -8.774  19.277  67.846  1.00  0.00    -0.352 A  
ENDBRANCH  15  16
ENDBRANCH  14  15
BRANCH  14  22
HETATM   22  C   UNL     1     -10.372  13.732  65.329  1.00  0.00    -0.361 C  
HETATM   23  O   UNL     1     -10.618  14.205  63.997  1.00  0.00    -0.471 OA 
HETATM   24  H   UNL     1     -10.579  13.491  63.373  1.00  0.00     0.000 HD 
BRANCH  22  25
HETATM   25  C   UNL     1     -11.202  12.467  65.626  1.00  0.00    -0.317 C  
BRANCH  25  26
HETATM   26  N   UNL     1     -10.501  11.206  66.120  1.00  0.00    -0.250 N  
BRANCH  26  27
HETATM   27  C   UNL     1      -9.036  11.185  65.683  1.00  0.00    -0.205 C  
HETATM   28  C   UNL     1      -8.543  10.051  64.758  1.00  0.00    -0.188 C  
HETATM   29  C   UNL     1      -9.219  10.024  63.390  1.00  0.00    -0.317 C  
HETATM   30  C   UNL     1      -7.029  10.215  64.523  1.00  0.00    -0.117 C  
ENDBRANCH  26  27
BRANCH  26  31
HETATM   31  S   UNL     1     -10.669  11.099  67.872  1.00  0.00    -0.235 S  
HETATM   32  O   UNL     1      -9.552  11.771  68.489  1.00  0.00    -0.200 OA 
HETATM   33  O   UNL     1     -12.040  11.472  68.172  1.00  0.00    -0.604 OA 
BRANCH  31  34
HETATM   34  C   UNL     1     -10.501   9.352  68.235  1.00  0.00    -0.217 A  
HETATM   35  C   UNL     1     -10.558   7.046  67.514  1.00  0.00    -0.351 A  
HETATM   36  C   UNL     1     -10.621   8.414  67.210  1.00  0.00    -0.328 A  
HETATM   37  C   UNL     1     -10.420   6.602  68.834  1.00  0.00    -0.212 A  
HETATM   38  N   UNL     1     -10.254   5.245  69.113  1.00  0.00    -0.216 NA 
HETATM   39  C   UNL     1     -10.217   7.555  69.835  1.00  0.00    -0.210 A  
HETATM   40  H1  UNL     1     -10.154   4.921  70.075  1.00  0.00     0.000 HD 
HETATM   41  C   UNL     1     -10.271   8.926  69.548  1.00  0.00    -0.204 A  
HETATM   42  H2  UNL     1      -9.455   4.904  68.577  1.00  0.00     0.000 HD 
ENDBRANCH  31  34
ENDBRANCH  26  31
ENDBRANCH  25  26
ENDBRANCH  22  25
ENDBRANCH  14  22
ENDBRANCH  12  14
ENDBRANCH   9  10
ENDBRANCH   8   9
TORSDOF 11
ENDMDL
MODEL        6
REMARK 921   NORMALIZED FREE ENERGY PREDICTED BY IDOCK:   -7.24 KCAL/MOL
REMARK 922        TOTAL FREE ENERGY PREDICTED BY IDOCK:  -14.52 KCAL/MOL
REMARK 923 INTER-LIGAND FREE ENERGY PREDICTED BY IDOCK:  -12.51 KCAL/MOL
REMARK 924 INTRA-LIGAND FREE ENERGY PREDICTED BY IDOCK:   -2.01 KCAL/MOL
REMARK 927      BINDING AFFINITY PREDICTED BY RF-SCORE:    0.00 PKD
ROOT
HETATM    1  C   UNL     1     -12.188  13.215  65.597  1.00  0.00    -0.521 C  
HETATM    2  C   UNL     1     -11.927  12.077  64.628  1.00  0.00    -0.326 C  
HETATM    3  C   UNL     1     -12.275  12.643  63.265  1.00  0.00    -0.417 C  
HETATM    4  O   UNL     1     -12.603  14.022  63.426  1.00  0.00    -0.845 OA 
HETATM    5  C   UNL     1     -12.162  14.436  64.711  1.00  0.00    -0.446 C  
HETATM    6  O   UNL     1     -10.804  14.876  64.683  1.00  0.00    -0.370 OA 
HETATM    7  C   UNL     1     -10.218  14.532  65.943  1.00  0.00    -0.322 C  
HETATM    8  C   UNL     1     -11.114  13.503  66.631  1.00  0.00    -0.298 C  
ENDROOT
BRANCH   8   9
HETATM    9  O   UNL     1     -10.329  12.338  66.934  1.00  0.00    -0.215 OA 
BRANCH   9  10
HETATM   10  C   UNL     1     -10.229  12.006  68.245  1.00  0.00    -0.206 C  
HETATM   11  O   UNL     1      -9.242  11.521  68.771  1.00  0.00    -0.161 OA 
HETATM   12  N   UNL     1     -11.440  12.218  68.837  1.00  0.00    -0.280 N  
HETATM   13  H   UNL     1     -12.153  12.722  68.311  1.00  0.00     0.000 HD 
BRANCH  12  14
HETATM   14  C   UNL     1     -11.769  11.758  70.195  1.00  0.00    -0.269 C  
BRANCH  14  15
HETATM   15  C   UNL     1     -12.984  12.543  70.790  1.00  0.00     0.032 C  
BRANCH  15  16
HETATM   16  C   UNL     1     -12.665  13.862  71.476  1.00  0.00    -0.440 A  
HETATM   17  C   UNL     1     -13.165  14.137  72.755  1.00  0.00    -0.604 A  
HETATM   18  C   UNL     1     -11.898  14.845  70.831  1.00  0.00    -0.375 A  
HETATM   19  C   UNL     1     -12.909  15.366  73.371  1.00  0.00    -0.662 A  
HETATM   20  C   UNL     1     -12.140  16.330  72.721  1.00  0.00    -0.637 A  
HETATM   21  C   UNL     1     -11.628  16.067  71.453  1.00  0.00    -0.520 A  
ENDBRANCH  15  16
ENDBRANCH  14  15
BRANCH  14  22
HETATM   22  C   UNL     1     -12.016  10.222  70.299  1.00  0.00    -0.264 C  
HETATM   23  O   UNL     1     -13.358   9.950  70.728  1.00  0.00    -0.593 OA 
HETATM   24  H   UNL     1     -13.508   9.014  70.791  1.00  0.00     0.000 HD 
BRANCH  22  25
HETATM   25  C   UNL     1     -11.000   9.380  71.096  1.00  0.00    -0.360 C  
BRANCH  25  26
HETATM   26  N   UNL     1     -10.183   8.309  70.379  1.00  0.00    -0.198 N  
BRANCH  26  27
HETATM   27  C   UNL     1      -8.709   8.387  70.776  1.00  0.00    -0.150 C  
HETATM   28  C   UNL     1      -7.651   7.713  69.876  1.00  0.00    -0.092 C  
HETATM   29  C   UNL     1      -7.568   8.295  68.467  1.00  0.00    -0.100 C  
HETATM   30  C   UNL     1      -6.263   7.871  70.525  1.00  0.00    -0.036 C  
ENDBRANCH  26  27
BRANCH  26  31
HETATM   31  S   UNL     1     -10.878   6.725  70.722  1.00  0.00    -0.263 S  
HETATM   32  O   UNL     1     -10.121   6.104  71.780  1.00  0.00    -0.182 OA 
HETATM   33  O   UNL     1     -12.312   6.925  70.831  1.00  0.00    -0.386 OA 
BRANCH  31  34
HETATM   34  C   UNL     1     -10.584   5.774  69.232  1.00  0.00    -0.306 A  
HETATM   35  C   UNL     1      -9.607   3.859  68.125  1.00  0.00    -0.182 A  
HETATM   36  C   UNL     1      -9.894   4.564  69.304  1.00  0.00    -0.241 A  
HETATM   37  C   UNL     1      -9.961   4.370  66.871  1.00  0.00    -0.177 A  
HETATM   38  N   UNL     1      -9.765   3.614  65.715  1.00  0.00    -0.348 NA 
HETATM   39  C   UNL     1     -10.725   5.539  66.825  1.00  0.00    -0.329 A  
HETATM   40  H1  UNL     1     -10.023   3.986  64.801  1.00  0.00     0.000 HD 
HETATM   41  C   UNL     1     -11.026   6.251  67.994  1.00  0.00    -0.418 A  
HETATM   42  H2  UNL     1     -10.233   2.715  65.838  1.00  0.00     0.000 HD 
ENDBRANCH  31  34
ENDBRANCH  26  31
ENDBRANCH  25  26
ENDBRANCH  22  25
ENDBRANCH  14  22
ENDBRANCH  12  14
ENDBRANCH   9  10
ENDBRANCH   8   9
TORSDOF 11
ENDMDL
MODEL        7
REMARK 921   NORMALIZED FREE ENERGY PREDICTED BY IDOCK:   -7.18 KCAL/MOL
REMARK 922        TOTAL FREE ENERGY PREDICTED BY IDOCK:  -14.42 KCAL/MOL
REMARK 923 INTER-LIGAND FREE ENERGY PREDICTED BY IDOCK:  -12.64 KCAL/MOL
REMARK 924 INTRA-LIGAND FREE ENERGY PREDICTED BY IDOCK:   -1.78 KCAL/MOL
REMARK 927      BINDING AFFINITY PREDICTED BY RF-SCORE:    0.00 PKD
ROOT
HETATM    1  C   UNL     1     -13.021  15.433  71.180  1.00  0.00    -0.545 C  
HETATM    2  C   UNL     1     -11.793  15.980  71.885  1.00  0.00    -0.619 C  
HETATM    3  C   UNL     1     -12.295  16.420  73.247  1.00  0.00    -0.452 C  
HETATM    4  O   UNL     1     -13.670  16.055  73.354  1.00  0.00    -0.532 OA 
HETATM    5  C   UNL     1     -13.967  15.132  72.317  1.00  0.00    -0.530 C  
HETATM    6  O   UNL     1     -13.693  13.789  72.714  1.00  0.00    -0.699 OA 
HETATM    7  C   UNL     1     -13.258  13.079  71.550  1.00  0.00    -0.272 C  
HETATM    8  C   UNL     1     -12.875  14.096  70.475  1.00  0.00    -0.247 C  
ENDROOT
BRANCH   8   9
HETATM    9  O   UNL     1     -11.520  13.845  70.067  1.00  0.00    -0.229 OA 
BRANCH   9  10
HETATM   10  C   UNL     1     -11.341  12.856  69.157  1.00  0.00    -0.273 C  
HETATM   11  O   UNL     1     -12.234  12.194  68.657  1.00  0.00    -0.254 OA 
HETATM   12  N   UNL     1     -10.001  12.674  68.975  1.00  0.00    -0.410 N  
HETATM   13  H   UNL     1      -9.361  13.361  69.375  1.00  0.00     0.000 HD 
BRANCH  12  14
HETATM   14  C   UNL     1      -9.429  11.540  68.233  1.00  0.00    -0.189 C  
BRANCH  14  15
HETATM   15  C   UNL     1      -8.771  12.002  66.892  1.00  0.00    -0.193 C  
BRANCH  15  16
HETATM   16  C   UNL     1      -9.714  12.245  65.725  1.00  0.00    -0.228 A  
HETATM   17  C   UNL     1     -10.265  13.515  65.508  1.00  0.00    -0.308 A  
HETATM   18  C   UNL     1     -10.084  11.199  64.865  1.00  0.00    -0.345 A  
HETATM   19  C   UNL     1     -11.166  13.731  64.461  1.00  0.00    -0.381 A  
HETATM   20  C   UNL     1     -11.518  12.685  63.611  1.00  0.00    -0.563 A  
HETATM   21  C   UNL     1     -10.972  11.420  63.808  1.00  0.00    -0.448 A  
ENDBRANCH  15  16
ENDBRANCH  14  15
BRANCH  14  22
HETATM   22  C   UNL     1      -8.423  10.686  69.062  1.00  0.00    -0.145 C  
HETATM   23  O   UNL     1      -7.202  11.407  69.281  1.00  0.00    -0.176 OA 
HETATM   24  H   UNL     1      -6.589  10.886  69.787  1.00  0.00     0.000 HD 
BRANCH  22  25
HETATM   25  C   UNL     1      -8.136   9.246  68.590  1.00  0.00    -0.105 C  
BRANCH  25  26
HETATM   26  N   UNL     1      -8.533   8.070  69.476  1.00  0.00    -0.130 N  
BRANCH  26  27
HETATM   27  C   UNL     1      -8.634   8.496  70.941  1.00  0.00    -0.158 C  
HETATM   28  C   UNL     1      -8.619   7.414  72.042  1.00  0.00    -0.120 C  
HETATM   29  C   UNL     1      -7.328   6.601  72.100  1.00  0.00    -0.089 C  
HETATM   30  C   UNL     1      -8.803   8.089  73.414  1.00  0.00    -0.334 C  
ENDBRANCH  26  27
BRANCH  26  31
HETATM   31  S   UNL     1     -10.044   7.382  68.882  1.00  0.00    -0.190 S  
HETATM   32  O   UNL     1     -10.404   8.043  67.652  1.00  0.00    -0.217 OA 
HETATM   33  O   UNL     1      -9.889   5.940  68.952  1.00  0.00    -0.132 OA 
BRANCH  31  34
HETATM   34  C   UNL     1     -11.264   7.848  70.109  1.00  0.00    -0.152 A  
HETATM   35  C   UNL     1     -12.413   9.551  71.383  1.00  0.00    -0.450 A  
HETATM   36  C   UNL     1     -11.507   9.196  70.371  1.00  0.00    -0.228 A  
HETATM   37  C   UNL     1     -13.045   8.578  72.164  1.00  0.00    -0.358 A  
HETATM   38  N   UNL     1     -14.021   8.939  73.094  1.00  0.00    -1.215 NA 
HETATM   39  C   UNL     1     -12.854   7.235  71.831  1.00  0.00    -0.299 A  
HETATM   40  H1  UNL     1     -14.482   8.229  73.664  1.00  0.00     0.000 HD 
HETATM   41  C   UNL     1     -11.958   6.863  70.819  1.00  0.00    -0.424 A  
HETATM   42  H2  UNL     1     -14.740   9.476  72.611  1.00  0.00     0.000 HD 
ENDBRANCH  31  34
ENDBRANCH  26  31
ENDBRANCH  25  26
ENDBRANCH  22  25
ENDBRANCH  14  22
ENDBRANCH  12  14
ENDBRANCH   9  10
ENDBRANCH   8   9
TORSDOF 11
ENDMDL
MODEL        8
REMARK 921   NORMALIZED FREE ENERGY PREDICTED BY IDOCK:   -7.11 KCAL/MOL
REMARK 922        TOTAL FREE ENERGY PREDICTED BY IDOCK:  -14.30 KCAL/MOL
REMARK 923 INTER-LIGAND FREE ENERGY PREDICTED BY IDOCK:  -12.23 KCAL/MOL
REMARK 924 INTRA-LIGAND FREE ENERGY PREDICTED BY IDOCK:   -2.07 KCAL/MOL
REMARK 927      BINDING AFFINITY PREDICTED BY RF-SCORE:    0.00 PKD
ROOT
HETATM    1  C   UNL     1     -11.921   8.685  70.761  1.00  0.00    -0.143 C  
HETATM    2  C   UNL     1     -12.290  10.040  71.337  1.00  0.00    -0.512 C  
HETATM    3  C   UNL     1     -13.446   9.759  72.277  1.00  0.00    -0.349 C  
HETATM    4  O   UNL     1     -13.652   8.347  72.320  1.00  0.00    -0.321 OA 
HETATM    5  C   UNL     1     -12.511   7.716  71.756  1.00  0.00    -0.329 C  
HETATM    6  O   UNL     1     -11.499   7.488  72.735  1.00  0.00    -0.334 OA 
HETATM    7  C   UNL     1     -10.233   7.612  72.078  1.00  0.00    -0.197 C  
HETATM    8  C   UNL     1     -10.448   8.321  70.740  1.00  0.00    -0.196 C  
ENDROOT
BRANCH   8   9
HETATM    9  O   UNL     1      -9.603   9.483  70.696  1.00  0.00    -0.258 OA 
BRANCH   9  10
HETATM   10  C   UNL     1      -8.831   9.621  69.590  1.00  0.00    -0.201 C  
HETATM   11  O   UNL     1      -7.665   9.276  69.503  1.00  0.00    -0.075 OA 
HETATM   12  N   UNL     1      -9.551  10.288  68.642  1.00  0.00    -0.161 N  
HETATM   13  H   UNL     1     -10.548  10.430  68.803  1.00  0.00     0.000 HD 
BRANCH  12  14
HETATM   14  C   UNL     1      -8.964  10.814  67.399  1.00  0.00    -0.139 C  
BRANCH  14  15
HETATM   15  C   UNL     1      -9.686  10.244  66.135  1.00  0.00    -0.266 C  
BRANCH  15  16
HETATM   16  C   UNL     1     -10.484  11.239  65.308  1.00  0.00    -0.341 A  
HETATM   17  C   UNL     1     -11.611  11.872  65.849  1.00  0.00    -0.291 A  
HETATM   18  C   UNL     1     -10.136  11.516  63.977  1.00  0.00    -0.366 A  
HETATM   19  C   UNL     1     -12.372  12.755  65.077  1.00  0.00    -0.559 A  
HETATM   20  C   UNL     1     -12.009  13.025  63.759  1.00  0.00    -0.585 A  
HETATM   21  C   UNL     1     -10.887  12.412  63.210  1.00  0.00    -0.300 A  
ENDBRANCH  15  16
ENDBRANCH  14  15
BRANCH  14  22
HETATM   22  C   UNL     1      -8.912  12.371  67.336  1.00  0.00    -0.185 C  
HETATM   23  O   UNL     1      -7.739  12.814  66.639  1.00  0.00    -0.375 OA 
HETATM   24  H   UNL     1      -7.708  13.762  66.600  1.00  0.00     0.000 HD 
BRANCH  22  25
HETATM   25  C   UNL     1      -9.102  13.154  68.650  1.00  0.00     0.040 C  
BRANCH  25  26
HETATM   26  N   UNL     1     -10.044  14.354  68.682  1.00  0.00    -0.239 N  
BRANCH  26  27
HETATM   27  C   UNL     1      -9.965  15.149  67.379  1.00  0.00    -0.226 C  
HETATM   28  C   UNL     1     -10.481  16.603  67.352  1.00  0.00    -0.314 C  
HETATM   29  C   UNL     1      -9.723  17.552  68.277  1.00  0.00    -0.311 C  
HETATM   30  C   UNL     1     -10.357  17.155  65.919  1.00  0.00    -0.294 C  
ENDBRANCH  26  27
BRANCH  26  31
HETATM   31  S   UNL     1     -11.682  13.794  69.017  1.00  0.00    -0.350 S  
HETATM   32  O   UNL     1     -12.582  14.392  68.062  1.00  0.00     0.086 OA 
HETATM   33  O   UNL     1     -11.594  12.354  69.180  1.00  0.00    -0.274 OA 
BRANCH  31  34
HETATM   34  C   UNL     1     -12.076  14.489  70.621  1.00  0.00    -0.322 A  
HETATM   35  C   UNL     1     -11.796  16.225  72.281  1.00  0.00    -0.601 A  
HETATM   36  C   UNL     1     -11.539  15.721  70.997  1.00  0.00    -0.453 A  
HETATM   37  C   UNL     1     -12.545  15.493  73.210  1.00  0.00    -0.499 A  
HETATM   38  N   UNL     1     -12.881  16.049  74.445  1.00  0.00    -0.956 NA 
HETATM   39  C   UNL     1     -13.144  14.304  72.788  1.00  0.00    -0.589 A  
HETATM   40  H1  UNL     1     -13.427  15.516  75.123  1.00  0.00     0.000 HD 
HETATM   41  C   UNL     1     -12.903  13.790  71.507  1.00  0.00    -0.445 A  
HETATM   42  H2  UNL     1     -13.358  16.935  74.278  1.00  0.00     0.000 HD 
ENDBRANCH  31  34
ENDBRANCH  26  31
ENDBRANCH  25  26
ENDBRANCH  22  25
ENDBRANCH  14  22
ENDBRANCH  12  14
ENDBRANCH   9  10
ENDBRANCH   8   9
TORSDOF 11
ENDMDL
MODEL        9
REMARK 921   NORMALIZED FREE ENERGY PREDICTED BY IDOCK:   -7.06 KCAL/MOL
REMARK 922        TOTAL FREE ENERGY PREDICTED BY IDOCK:  -14.21 KCAL/MOL
REMARK 923 INTER-LIGAND FREE ENERGY PREDICTED BY IDOCK:  -11.79 KCAL/MOL
REMARK 924 INTRA-LIGAND FREE ENERGY PREDICTED BY IDOCK:   -2.43 KCAL/MOL
REMARK 927      BINDING AFFINITY PREDICTED BY RF-SCORE:    0.00 PKD
ROOT
HETATM    1  C   UNL     1     -11.086   6.909  72.700  1.00  0.00    -0.306 C  
HETATM    2  C   UNL     1     -10.150   6.790  73.889  1.00  0.00    -0.375 C  
HETATM    3  C   UNL     1     -10.395   5.396  74.435  1.00  0.00    -0.267 C  
HETATM    4  O   UNL     1     -11.314   4.733  73.568  1.00  0.00    -0.332 OA 
HETATM    5  C   UNL     1     -11.393   5.472  72.357  1.00  0.00    -0.234 C  
HETATM    6  O   UNL     1     -10.392   5.065  71.426  1.00  0.00    -0.209 OA 
HETATM    7  C   UNL     1     -10.012   6.221  70.674  1.00  0.00    -0.186 C  
HETATM    8  C   UNL     1     -10.504   7.465  71.414  1.00  0.00    -0.202 C  
ENDROOT
BRANCH   8   9
HETATM    9  O   UNL     1      -9.381   8.329  71.658  1.00  0.00    -0.158 OA 
BRANCH   9  10
HETATM   10  C   UNL     1      -9.197   9.338  70.771  1.00  0.00    -0.253 C  
HETATM   11  O   UNL     1      -8.127   9.869  70.527  1.00  0.00    -0.230 OA 
HETATM   12  N   UNL     1     -10.414   9.708  70.279  1.00  0.00    -0.262 N  
HETATM   13  H   UNL     1     -11.219   9.116  70.485  1.00  0.00     0.000 HD 
BRANCH  12  14
HETATM   14  C   UNL     1     -10.628  10.915  69.466  1.00  0.00    -0.175 C  
BRANCH  14  15
HETATM   15  C   UNL     1     -11.149  10.562  68.035  1.00  0.00    -0.361 C  
BRANCH  15  16
HETATM   16  C   UNL     1     -10.109  10.524  66.927  1.00  0.00    -0.265 A  
HETATM   17  C   UNL     1     -10.489  10.278  65.602  1.00  0.00    -0.152 A  
HETATM   18  C   UNL     1      -8.745  10.697  67.211  1.00  0.00    -0.129 A  
HETATM   19  C   UNL     1      -9.531  10.200  64.588  1.00  0.00    -0.357 A  
HETATM   20  C   UNL     1      -8.181  10.381  64.883  1.00  0.00    -0.145 A  
HETATM   21  C   UNL     1      -7.788  10.637  66.194  1.00  0.00    -0.152 A  
ENDBRANCH  15  16
ENDBRANCH  14  15
BRANCH  14  22
HETATM   22  C   UNL     1     -11.561  11.970  70.135  1.00  0.00    -0.143 C  
HETATM   23  O   UNL     1     -12.507  11.333  71.005  1.00  0.00    -0.382 OA 
HETATM   24  H   UNL     1     -13.076  11.976  71.413  1.00  0.00     0.000 HD 
BRANCH  22  25
HETATM   25  C   UNL     1     -12.256  13.001  69.224  1.00  0.00    -0.089 C  
BRANCH  25  26
HETATM   26  N   UNL     1     -12.110  14.490  69.524  1.00  0.00    -0.315 N  
BRANCH  26  27
HETATM   27  C   UNL     1     -11.861  14.727  71.014  1.00  0.00    -0.329 C  
HETATM   28  C   UNL     1     -12.823  15.643  71.801  1.00  0.00    -0.530 C  
HETATM   29  C   UNL     1     -14.261  15.133  71.860  1.00  0.00    -0.676 C  
HETATM   30  C   UNL     1     -12.319  15.776  73.251  1.00  0.00    -0.611 C  
ENDBRANCH  26  27
BRANCH  26  31
HETATM   31  S   UNL     1     -10.822  15.159  68.523  1.00  0.00    -0.259 S  
HETATM   32  O   UNL     1     -11.032  16.578  68.381  1.00  0.00    -0.331 OA 
HETATM   33  O   UNL     1      -9.579  14.624  69.050  1.00  0.00    -0.207 OA 
BRANCH  31  34
HETATM   34  C   UNL     1     -11.077  14.422  66.910  1.00  0.00    -0.323 A  
HETATM   35  C   UNL     1     -10.228  13.783  64.738  1.00  0.00    -0.362 A  
HETATM   36  C   UNL     1     -10.006  14.296  66.025  1.00  0.00    -0.337 A  
HETATM   37  C   UNL     1     -11.514  13.436  64.308  1.00  0.00    -0.393 A  
HETATM   38  N   UNL     1     -11.708  12.830  63.066  1.00  0.00    -0.789 NA 
HETATM   39  C   UNL     1     -12.558  13.489  65.235  1.00  0.00    -0.517 A  
HETATM   40  H1  UNL     1     -12.645  12.577  62.753  1.00  0.00     0.000 HD 
HETATM   41  C   UNL     1     -12.352  13.993  66.527  1.00  0.00    -0.442 A  
HETATM   42  H2  UNL     1     -11.121  11.997  63.023  1.00  0.00     0.000 HD 
ENDBRANCH  31  34
ENDBRANCH  26  31
ENDBRANCH  25  26
ENDBRANCH  22  25
ENDBRANCH  14  22
ENDBRANCH  12  14
ENDBRANCH   9  10
ENDBRANCH   8   9
TORSDOF 11
ENDMDL
MODEL       10
REMARK 921   NORMALIZED FREE ENERGY PREDICTED BY IDOCK:   -7.04 KCAL/MOL
REMARK 922        TOTAL FREE ENERGY PREDICTED BY IDOCK:  -14.19 KCAL/MOL
REMARK 923 INTER-LIGAND FREE ENERGY PREDICTED BY IDOCK:  -12.73 KCAL/MOL
REMARK 924 INTRA-LIGAND FREE ENERGY PREDICTED BY IDOCK:   -1.46 KCAL/MOL
REMARK 927      BINDING AFFINITY PREDICTED BY RF-SCORE:    0.00 PKD
ROOT
HETATM    1  C   UNL     1     -11.157  13.493  65.162  1.00  0.00    -0.326 C  
HETATM    2  C   UNL     1     -10.092  12.896  64.261  1.00  0.00    -0.251 C  
HETATM    3  C   UNL     1     -10.811  11.813  63.480  1.00  0.00    -0.426 C  
HETATM    4  O   UNL     1     -12.194  11.858  63.824  1.00  0.00    -0.458 OA 
HETATM    5  C   UNL     1     -12.446  13.088  64.489  1.00  0.00    -0.363 C  
HETATM    6  O   UNL     1     -12.754  14.131  63.566  1.00  0.00    -0.794 OA 
HETATM    7  C   UNL     1     -12.243  15.351  64.112  1.00  0.00    -0.057 C  
HETATM    8  C   UNL     1     -11.246  15.007  65.219  1.00  0.00    -0.367 C  
ENDROOT
BRANCH   8   9
HETATM    9  O   UNL     1      -9.989  15.635  64.915  1.00  0.00    -0.331 OA 
BRANCH   9  10
HETATM   10  C   UNL     1      -9.234  16.010  65.977  1.00  0.00    -0.340 C  
HETATM   11  O   UNL     1      -8.026  15.870  66.062  1.00  0.00     0.083 OA 
HETATM   12  N   UNL     1     -10.065  16.477  66.954  1.00  0.00    -0.273 N  
HETATM   13  H   UNL     1     -11.044  16.638  66.719  1.00  0.00     0.000 HD 
BRANCH  12  14
HETATM   14  C   UNL     1      -9.622  16.761  68.328  1.00  0.00    -0.244 C  
BRANCH  14  15
HETATM   15  C   UNL     1      -9.818  18.268  68.696  1.00  0.00    -0.400 C  
BRANCH  15  16
HETATM   16  C   UNL     1      -8.687  19.209  68.314  1.00  0.00    -0.375 A  
HETATM   17  C   UNL     1      -8.736  19.931  67.115  1.00  0.00    -0.397 A  
HETATM   18  C   UNL     1      -7.555  19.347  69.132  1.00  0.00    -0.316 A  
HETATM   19  C   UNL     1      -7.679  20.765  66.741  1.00  0.00    -0.160 A  
HETATM   20  C   UNL     1      -6.564  20.897  67.567  1.00  0.00    -0.413 A  
HETATM   21  C   UNL     1      -6.505  20.193  68.767  1.00  0.00    -0.345 A  
ENDBRANCH  15  16
ENDBRANCH  14  15
BRANCH  14  22
HETATM   22  C   UNL     1     -10.286  15.851  69.405  1.00  0.00    -0.262 C  
HETATM   23  O   UNL     1      -9.300  15.324  70.304  1.00  0.00    -0.322 OA 
HETATM   24  H   UNL     1      -9.705  14.769  70.961  1.00  0.00     0.000 HD 
BRANCH  22  25
HETATM   25  C   UNL     1     -11.243  14.741  68.924  1.00  0.00    -0.266 C  
BRANCH  25  26
HETATM   26  N   UNL     1     -11.447  13.498  69.785  1.00  0.00    -0.219 N  
BRANCH  26  27
HETATM   27  C   UNL     1     -12.813  13.523  70.469  1.00  0.00    -0.061 C  
HETATM   28  C   UNL     1     -12.966  14.254  71.819  1.00  0.00    -0.430 C  
HETATM   29  C   UNL     1     -12.687  15.754  71.752  1.00  0.00    -0.519 C  
HETATM   30  C   UNL     1     -14.408  14.074  72.330  1.00  0.00    -0.520 C  
ENDBRANCH  26  27
BRANCH  26  31
HETATM   31  S   UNL     1     -11.232  12.061  68.785  1.00  0.00    -0.286 S  
HETATM   32  O   UNL     1     -12.347  11.957  67.877  1.00  0.00    -0.367 OA 
HETATM   33  O   UNL     1      -9.863  12.100  68.306  1.00  0.00    -0.204 OA 
BRANCH  31  34
HETATM   34  C   UNL     1     -11.356  10.692  69.934  1.00  0.00    -0.313 A  
HETATM   35  C   UNL     1     -12.661   9.346  71.460  1.00  0.00    -0.444 A  
HETATM   36  C   UNL     1     -12.587  10.375  70.509  1.00  0.00    -0.384 A  
HETATM   37  C   UNL     1     -11.515   8.659  71.877  1.00  0.00    -0.348 A  
HETATM   38  N   UNL     1     -11.616   7.571  72.744  1.00  0.00    -0.557 NA 
HETATM   39  C   UNL     1     -10.308   8.933  71.230  1.00  0.00    -0.355 A  
HETATM   40  H1  UNL     1     -10.781   7.070  73.048  1.00  0.00     0.000 HD 
HETATM   41  C   UNL     1     -10.217   9.953  70.273  1.00  0.00    -0.322 A  
HETATM   42  H2  UNL     1     -12.261   6.895  72.334  1.00  0.00     0.000 HD 
ENDBRANCH  31  34
ENDBRANCH  26  31
ENDBRANCH  25  26
ENDBRANCH  22  25
ENDBRANCH  14  22
ENDBRANCH  12  14
ENDBRANCH   9  10
ENDBRANCH   8   9
TORSDOF 11
ENDMDL
MODEL       11
REMARK 921   NORMALIZED FREE ENERGY PREDICTED BY IDOCK:   -6.97 KCAL/MOL
REMARK 922        TOTAL FREE ENERGY PREDICTED BY IDOCK:  -14.07 KCAL/MOL
REMARK 923 INTER-LIGAND FREE ENERGY PREDICTED BY IDOCK:  -12.07 KCAL/MOL
REMARK 924 INTRA-LIGAND FREE ENERGY PREDICTED BY IDOCK:   -2.00 KCAL/MOL
REMARK 927      BINDING AFFINITY PREDICTED BY RF-SCORE:    0.00 PKD
ROOT
HETATM    1  C   UNL     1     -12.956  15.813  71.351  1.00  0.00    -0.478 C  
HETATM    2  C   UNL     1     -11.996  16.023  72.509  1.00  0.00    -0.649 C  
HETATM    3  C   UNL     1     -12.491  15.085  73.594  1.00  0.00    -0.532 C  
HETATM    4  O   UNL     1     -13.574  14.323  73.065  1.00  0.00    -0.643 OA 
HETATM    5  C   UNL     1     -13.570  14.468  71.652  1.00  0.00    -0.391 C  
HETATM    6  O   UNL     1     -12.729  13.500  71.027  1.00  0.00    -0.343 OA 
HETATM    7  C   UNL     1     -12.164  14.112  69.863  1.00  0.00    -0.359 C  
HETATM    8  C   UNL     1     -12.346  15.626  69.974  1.00  0.00    -0.276 C  
ENDROOT
BRANCH   8   9
HETATM    9  O   UNL     1     -11.059  16.254  69.862  1.00  0.00    -0.336 OA 
BRANCH   9  10
HETATM   10  C   UNL     1     -10.756  16.793  68.655  1.00  0.00    -0.352 C  
HETATM   11  O   UNL     1     -11.128  17.886  68.264  1.00  0.00    -0.097 OA 
HETATM   12  N   UNL     1     -10.055  15.870  67.935  1.00  0.00    -0.232 N  
HETATM   13  H   UNL     1      -9.721  15.034  68.414  1.00  0.00     0.000 HD 
BRANCH  12  14
HETATM   14  C   UNL     1      -9.753  16.019  66.502  1.00  0.00    -0.264 C  
BRANCH  14  15
HETATM   15  C   UNL     1      -8.250  16.374  66.264  1.00  0.00    -0.343 C  
BRANCH  15  16
HETATM   16  C   UNL     1      -7.745  17.650  66.919  1.00  0.00    -0.245 A  
HETATM   17  C   UNL     1      -8.234  18.899  66.515  1.00  0.00    -0.306 A  
HETATM   18  C   UNL     1      -6.755  17.609  67.913  1.00  0.00    -0.191 A  
HETATM   19  C   UNL     1      -7.742  20.076  67.086  1.00  0.00    -0.328 A  
HETATM   20  C   UNL     1      -6.763  20.019  68.077  1.00  0.00    -0.314 A  
HETATM   21  C   UNL     1      -6.275  18.785  68.496  1.00  0.00    -0.233 A  
ENDBRANCH  15  16
ENDBRANCH  14  15
BRANCH  14  22
HETATM   22  C   UNL     1     -10.160  14.785  65.641  1.00  0.00    -0.366 C  
HETATM   23  O   UNL     1     -10.805  15.200  64.429  1.00  0.00    -0.631 OA 
HETATM   24  H   UNL     1     -11.052  14.447  63.904  1.00  0.00     0.000 HD 
BRANCH  22  25
HETATM   25  C   UNL     1     -10.951  13.653  66.328  1.00  0.00    -0.299 C  
BRANCH  25  26
HETATM   26  N   UNL     1     -10.405  12.229  66.300  1.00  0.00    -0.228 N  
BRANCH  26  27
HETATM   27  C   UNL     1      -9.761  11.914  64.950  1.00  0.00    -0.137 C  
HETATM   28  C   UNL     1     -10.610  11.245  63.849  1.00  0.00    -0.455 C  
HETATM   29  C   UNL     1     -11.794  12.085  63.377  1.00  0.00    -0.542 C  
HETATM   30  C   UNL     1      -9.719  10.971  62.622  1.00  0.00    -0.241 C  
ENDBRANCH  26  27
BRANCH  26  31
HETATM   31  S   UNL     1      -9.276  12.017  67.638  1.00  0.00    -0.189 S  
HETATM   32  O   UNL     1      -8.123  11.294  67.162  1.00  0.00    -0.137 OA 
HETATM   33  O   UNL     1      -9.150  13.316  68.273  1.00  0.00    -0.196 OA 
BRANCH  31  34
HETATM   34  C   UNL     1     -10.136  10.943  68.786  1.00  0.00    -0.194 A  
HETATM   35  C   UNL     1     -12.195  10.133  69.760  1.00  0.00     0.018 A  
HETATM   36  C   UNL     1     -11.530  10.925  68.811  1.00  0.00    -0.376 A  
HETATM   37  C   UNL     1     -11.485   9.395  70.714  1.00  0.00    -0.300 A  
HETATM   38  N   UNL     1     -12.153   8.532  71.584  1.00  0.00    -0.303 NA 
HETATM   39  C   UNL     1     -10.092   9.359  70.620  1.00  0.00    -0.356 A  
HETATM   40  H1  UNL     1     -11.635   7.994  72.279  1.00  0.00     0.000 HD 
HETATM   41  C   UNL     1      -9.412  10.138  69.673  1.00  0.00    -0.226 A  
HETATM   42  H2  UNL     1     -12.708   7.883  71.027  1.00  0.00     0.000 HD 
ENDBRANCH  31  34
ENDBRANCH  26  31
ENDBRANCH  25  26
ENDBRANCH  22  25
ENDBRANCH  14  22
ENDBRANCH  12  14
ENDBRANCH   9  10
ENDBRANCH   8   9
TORSDOF 11
ENDMDL
MODEL       12
REMARK 921   NORMALIZED FREE ENERGY PREDICTED BY IDOCK:   -6.96 KCAL/MOL
REMARK 922        TOTAL FREE ENERGY PREDICTED BY IDOCK:  -14.05 KCAL/MOL
REMARK 923 INTER-LIGAND FREE ENERGY PREDICTED BY IDOCK:  -11.87 KCAL/MOL
REMARK 924 INTRA-LIGAND FREE ENERGY PREDICTED BY IDOCK:   -2.18 KCAL/MOL
REMARK 927      BINDING AFFINITY PREDICTED BY RF-SCORE:    0.00 PKD
ROOT
HETATM    1  C   UNL     1     -10.417   8.349  71.051  1.00  0.00    -0.251 C  
HETATM    2  C   UNL     1     -11.047   7.097  70.467  1.00  0.00    -0.299 C  
HETATM    3  C   UNL     1     -11.720   6.419  71.645  1.00  0.00    -0.313 C  
HETATM    4  O   UNL     1     -11.581   7.265  72.786  1.00  0.00    -0.260 OA 
HETATM    5  C   UNL     1     -11.180   8.551  72.337  1.00  0.00    -0.329 C  
HETATM    6  O   UNL     1     -12.303   9.367  72.006  1.00  0.00    -0.366 OA 
HETATM    7  C   UNL     1     -11.911  10.215  70.923  1.00  0.00    -0.365 C  
HETATM    8  C   UNL     1     -10.636   9.648  70.299  1.00  0.00    -0.278 C  
ENDROOT
BRANCH   8   9
HETATM    9  O   UNL     1     -10.868   9.430  68.898  1.00  0.00    -0.204 OA 
BRANCH   9  10
HETATM   10  C   UNL     1      -9.796   9.585  68.081  1.00  0.00    -0.155 C  
HETATM   11  O   UNL     1      -8.903   8.769  67.935  1.00  0.00    -0.135 OA 
HETATM   12  N   UNL     1      -9.848  10.834  67.534  1.00  0.00    -0.170 N  
HETATM   13  H   UNL     1     -10.701  11.381  67.656  1.00  0.00     0.000 HD 
BRANCH  12  14
HETATM   14  C   UNL     1      -8.739  11.434  66.776  1.00  0.00    -0.174 C  
BRANCH  14  15
HETATM   15  C   UNL     1      -8.998  11.380  65.236  1.00  0.00    -0.017 C  
BRANCH  15  16
HETATM   16  C   UNL     1     -10.203  12.154  64.726  1.00  0.00    -0.310 A  
HETATM   17  C   UNL     1     -10.295  13.537  64.922  1.00  0.00    -0.395 A  
HETATM   18  C   UNL     1     -11.264  11.497  64.083  1.00  0.00    -0.393 A  
HETATM   19  C   UNL     1     -11.421  14.245  64.493  1.00  0.00    -0.363 A  
HETATM   20  C   UNL     1     -12.464  13.580  63.850  1.00  0.00    -0.295 A  
HETATM   21  C   UNL     1     -12.383  12.207  63.638  1.00  0.00    -0.673 A  
ENDBRANCH  15  16
ENDBRANCH  14  15
BRANCH  14  22
HETATM   22  C   UNL     1      -8.391  12.890  67.214  1.00  0.00    -0.185 C  
HETATM   23  O   UNL     1      -6.996  13.162  67.015  1.00  0.00    -0.387 OA 
HETATM   24  H   UNL     1      -6.784  14.048  67.282  1.00  0.00     0.000 HD 
BRANCH  22  25
HETATM   25  C   UNL     1      -8.849  13.353  68.612  1.00  0.00     0.020 C  
BRANCH  25  26
HETATM   26  N   UNL     1      -9.657  14.639  68.751  1.00  0.00    -0.214 N  
BRANCH  26  27
HETATM   27  C   UNL     1      -9.395  15.581  67.576  1.00  0.00    -0.206 C  
HETATM   28  C   UNL     1      -9.192  17.087  67.848  1.00  0.00    -0.239 C  
HETATM   29  C   UNL     1      -7.972  17.406  68.708  1.00  0.00    -0.244 C  
HETATM   30  C   UNL     1      -9.019  17.823  66.506  1.00  0.00    -0.280 C  
ENDBRANCH  26  27
BRANCH  26  31
HETATM   31  S   UNL     1     -11.366  14.236  68.908  1.00  0.00    -0.292 S  
HETATM   32  O   UNL     1     -12.122  15.050  67.989  1.00  0.00    -0.230 OA 
HETATM   33  O   UNL     1     -11.445  12.786  68.879  1.00  0.00    -0.264 OA 
BRANCH  31  34
HETATM   34  C   UNL     1     -11.803  14.761  70.564  1.00  0.00    -0.302 A  
HETATM   35  C   UNL     1     -13.042  14.426  72.612  1.00  0.00    -0.564 A  
HETATM   36  C   UNL     1     -12.649  13.973  71.343  1.00  0.00    -0.451 A  
HETATM   37  C   UNL     1     -12.636  15.676  73.094  1.00  0.00    -0.476 A  
HETATM   38  N   UNL     1     -12.947  16.069  74.396  1.00  0.00    -0.929 NA 
HETATM   39  C   UNL     1     -11.722  16.412  72.336  1.00  0.00    -0.459 A  
HETATM   40  H1  UNL     1     -12.651  16.980  74.747  1.00  0.00     0.000 HD 
HETATM   41  C   UNL     1     -11.314  15.971  71.070  1.00  0.00    -0.423 A  
HETATM   42  H2  UNL     1     -12.603  15.354  75.037  1.00  0.00     0.000 HD 
ENDBRANCH  31  34
ENDBRANCH  26  31
ENDBRANCH  25  26
ENDBRANCH  22  25
ENDBRANCH  14  22
ENDBRANCH  12  14
ENDBRANCH   9  10
ENDBRANCH   8   9
TORSDOF 11
ENDMDL
MODEL       13
REMARK 921   NORMALIZED FREE ENERGY PREDICTED BY IDOCK:   -6.93 KCAL/MOL
REMARK 922        TOTAL FREE ENERGY PREDICTED BY IDOCK:  -14.01 KCAL/MOL
REMARK 923 INTER-LIGAND FREE ENERGY PREDICTED BY IDOCK:  -12.42 KCAL/MOL
REMARK 924 INTRA-LIGAND FREE ENERGY PREDICTED BY IDOCK:   -1.59 KCAL/MOL
REMARK 927      BINDING AFFINITY PREDICTED BY RF-SCORE:    0.00 PKD
ROOT
HETATM    1  C   UNL     1     -10.627   8.655  71.894  1.00  0.00    -0.411 C  
HETATM    2  C   UNL     1      -9.209   8.182  72.159  1.00  0.00    -0.258 C  
HETATM    3  C   UNL     1      -9.281   7.485  73.505  1.00  0.00    -0.249 C  
HETATM    4  O   UNL     1     -10.644   7.464  73.924  1.00  0.00    -0.307 OA 
HETATM    5  C   UNL     1     -11.457   7.783  72.804  1.00  0.00    -0.359 C  
HETATM    6  O   UNL     1     -11.787   6.621  72.045  1.00  0.00    -0.302 OA 
HETATM    7  C   UNL     1     -11.875   7.017  70.673  1.00  0.00    -0.330 C  
HETATM    8  C   UNL     1     -11.201   8.380  70.516  1.00  0.00    -0.238 C  
ENDROOT
BRANCH   8   9
HETATM    9  O   UNL     1     -10.176   8.273  69.515  1.00  0.00    -0.200 OA 
BRANCH   9  10
HETATM   10  C   UNL     1      -9.842   9.420  68.873  1.00  0.00    -0.171 C  
HETATM   11  O   UNL     1      -8.715   9.723  68.521  1.00  0.00    -0.118 OA 
HETATM   12  N   UNL     1     -10.956  10.201  68.778  1.00  0.00    -0.270 N  
HETATM   13  H   UNL     1     -11.858   9.789  69.019  1.00  0.00     0.000 HD 
BRANCH  12  14
HETATM   14  C   UNL     1     -10.927  11.607  68.345  1.00  0.00    -0.220 C  
BRANCH  14  15
HETATM   15  C   UNL     1     -11.878  11.856  67.130  1.00  0.00    -0.216 C  
BRANCH  15  16
HETATM   16  C   UNL     1     -11.248  11.767  65.750  1.00  0.00    -0.337 A  
HETATM   17  C   UNL     1     -11.670  12.616  64.718  1.00  0.00    -0.402 A  
HETATM   18  C   UNL     1     -10.260  10.810  65.466  1.00  0.00    -0.330 A  
HETATM   19  C   UNL     1     -11.123  12.508  63.437  1.00  0.00    -0.419 A  
HETATM   20  C   UNL     1     -10.137  11.558  63.173  1.00  0.00    -0.395 A  
HETATM   21  C   UNL     1      -9.700  10.714  64.189  1.00  0.00    -0.378 A  
ENDBRANCH  15  16
ENDBRANCH  14  15
BRANCH  14  22
HETATM   22  C   UNL     1     -11.230  12.625  69.486  1.00  0.00    -0.082 C  
HETATM   23  O   UNL     1     -11.891  11.978  70.583  1.00  0.00    -0.487 OA 
HETATM   24  H   UNL     1     -12.076  12.598  71.279  1.00  0.00     0.000 HD 
BRANCH  22  25
HETATM   25  C   UNL     1     -11.944  13.939  69.111  1.00  0.00    -0.363 C  
BRANCH  25  26
HETATM   26  N   UNL     1     -11.349  15.272  69.554  1.00  0.00    -0.267 N  
BRANCH  26  27
HETATM   27  C   UNL     1     -11.285  15.365  71.078  1.00  0.00    -0.364 C  
HETATM   28  C   UNL     1     -12.452  16.029  71.841  1.00  0.00    -0.475 C  
HETATM   29  C   UNL     1     -13.790  15.309  71.684  1.00  0.00    -0.615 C  
HETATM   30  C   UNL     1     -12.117  16.061  73.345  1.00  0.00    -0.587 C  
ENDBRANCH  26  27
BRANCH  26  31
HETATM   31  S   UNL     1      -9.761  15.471  68.812  1.00  0.00    -0.225 S  
HETATM   32  O   UNL     1      -8.749  15.257  69.816  1.00  0.00    -0.192 OA 
HETATM   33  O   UNL     1      -9.787  14.700  67.583  1.00  0.00    -0.216 OA 
BRANCH  31  34
HETATM   34  C   UNL     1      -9.693  17.202  68.354  1.00  0.00    -0.284 A  
HETATM   35  C   UNL     1     -10.732  19.157  67.383  1.00  0.00    -0.578 A  
HETATM   36  C   UNL     1     -10.815  17.821  67.804  1.00  0.00    -0.238 A  
HETATM   37  C   UNL     1      -9.529  19.869  67.464  1.00  0.00    -0.359 A  
HETATM   38  N   UNL     1      -9.485  21.226  67.140  1.00  0.00    -0.518 NA 
HETATM   39  C   UNL     1      -8.441  19.260  68.094  1.00  0.00    -0.362 A  
HETATM   40  H1  UNL     1      -8.608  21.744  67.199  1.00  0.00     0.000 HD 
HETATM   41  C   UNL     1      -8.510  17.929  68.526  1.00  0.00    -0.303 A  
HETATM   42  H2  UNL     1     -10.181  21.712  67.705  1.00  0.00     0.000 HD 
ENDBRANCH  31  34
ENDBRANCH  26  31
ENDBRANCH  25  26
ENDBRANCH  22  25
ENDBRANCH  14  22
ENDBRANCH  12  14
ENDBRANCH   9  10
ENDBRANCH   8   9
TORSDOF 11
ENDMDL
MODEL       14
REMARK 921   NORMALIZED FREE ENERGY PREDICTED BY IDOCK:   -6.92 KCAL/MOL
REMARK 922        TOTAL FREE ENERGY PREDICTED BY IDOCK:  -14.00 KCAL/MOL
REMARK 923 INTER-LIGAND FREE ENERGY PREDICTED BY IDOCK:  -11.57 KCAL/MOL
REMARK 924 INTRA-LIGAND FREE ENERGY PREDICTED BY IDOCK:   -2.43 KCAL/MOL
REMARK 927      BINDING AFFINITY PREDICTED BY RF-SCORE:    0.00 PKD
ROOT
HETATM    1  C   UNL     1     -11.262   7.550  72.922  1.00  0.00    -0.396 C  
HETATM    2  C   UNL     1      -9.782   7.778  73.170  1.00  0.00    -0.347 C  
HETATM    3  C   UNL     1      -9.204   6.389  73.360  1.00  0.00    -0.131 C  
HETATM    4  O   UNL     1     -10.244   5.439  73.131  1.00  0.00    -0.174 OA 
HETATM    5  C   UNL     1     -11.321   6.106  72.488  1.00  0.00    -0.286 C  
HETATM    6  O   UNL     1     -11.164   6.112  71.070  1.00  0.00    -0.296 OA 
HETATM    7  C   UNL     1     -11.727   7.334  70.582  1.00  0.00    -0.275 C  
HETATM    8  C   UNL     1     -11.890   8.297  71.759  1.00  0.00    -0.306 C  
ENDROOT
BRANCH   8   9
HETATM    9  O   UNL     1     -11.190   9.515  71.456  1.00  0.00    -0.372 OA 
BRANCH   9  10
HETATM   10  C   UNL     1     -11.929  10.511  70.908  1.00  0.00    -0.377 C  
HETATM   11  O   UNL     1     -13.147  10.570  70.924  1.00  0.00    -0.379 OA 
HETATM   12  N   UNL     1     -11.086  11.370  70.266  1.00  0.00    -0.409 N  
HETATM   13  H   UNL     1     -10.082  11.265  70.415  1.00  0.00     0.000 HD 
BRANCH  12  14
HETATM   14  C   UNL     1     -11.548  12.442  69.371  1.00  0.00    -0.307 C  
BRANCH  14  15
HETATM   15  C   UNL     1     -11.054  13.846  69.850  1.00  0.00     0.006 C  
BRANCH  15  16
HETATM   16  C   UNL     1     -11.863  14.504  70.956  1.00  0.00    -0.350 A  
HETATM   17  C   UNL     1     -13.210  14.172  71.147  1.00  0.00    -0.369 A  
HETATM   18  C   UNL     1     -11.292  15.485  71.783  1.00  0.00    -0.463 A  
HETATM   19  C   UNL     1     -13.967  14.806  72.136  1.00  0.00    -0.590 A  
HETATM   20  C   UNL     1     -13.385  15.773  72.954  1.00  0.00    -0.661 A  
HETATM   21  C   UNL     1     -12.044  16.107  72.783  1.00  0.00    -0.653 A  
ENDBRANCH  15  16
ENDBRANCH  14  15
BRANCH  14  22
HETATM   22  C   UNL     1     -11.172  12.220  67.874  1.00  0.00    -0.274 C  
HETATM   23  O   UNL     1     -12.124  11.360  67.232  1.00  0.00    -0.464 OA 
HETATM   24  H   UNL     1     -11.895  11.224  66.320  1.00  0.00     0.000 HD 
BRANCH  22  25
HETATM   25  C   UNL     1      -9.728  11.784  67.549  1.00  0.00    -0.180 C  
BRANCH  25  26
HETATM   26  N   UNL     1      -9.491  10.522  66.725  1.00  0.00    -0.160 N  
BRANCH  26  27
HETATM   27  C   UNL     1      -8.882  10.861  65.365  1.00  0.00    -0.180 C  
HETATM   28  C   UNL     1      -9.701  10.590  64.085  1.00  0.00    -0.388 C  
HETATM   29  C   UNL     1     -10.997  11.392  63.992  1.00  0.00    -0.428 C  
HETATM   30  C   UNL     1      -8.847  10.948  62.854  1.00  0.00    -0.265 C  
ENDBRANCH  26  27
BRANCH  26  31
HETATM   31  S   UNL     1      -8.476   9.413  67.647  1.00  0.00    -0.119 S  
HETATM   32  O   UNL     1      -7.115   9.535  67.184  1.00  0.00    -0.084 OA 
HETATM   33  O   UNL     1      -8.823   9.609  69.042  1.00  0.00    -0.135 OA 
BRANCH  31  34
HETATM   34  C   UNL     1      -9.050   7.782  67.178  1.00  0.00    -0.134 A  
HETATM   35  C   UNL     1      -8.655   5.642  66.125  1.00  0.00    -0.132 A  
HETATM   36  C   UNL     1      -8.179   6.891  66.552  1.00  0.00    -0.117 A  
HETATM   37  C   UNL     1     -10.001   5.290  66.275  1.00  0.00    -0.192 A  
HETATM   38  N   UNL     1     -10.441   4.008  65.942  1.00  0.00    -0.407 NA 
HETATM   39  C   UNL     1     -10.838   6.159  66.979  1.00  0.00    -0.435 A  
HETATM   40  H1  UNL     1     -11.422   3.751  66.052  1.00  0.00     0.000 HD 
HETATM   41  C   UNL     1     -10.376   7.408  67.418  1.00  0.00    -0.340 A  
HETATM   42  H2  UNL     1      -9.875   3.333  66.457  1.00  0.00     0.000 HD 
ENDBRANCH  31  34
ENDBRANCH  26  31
ENDBRANCH  25  26
ENDBRANCH  22  25
ENDBRANCH  14  22
ENDBRANCH  12  14
ENDBRANCH   9  10
ENDBRANCH   8   9
TORSDOF 11
ENDMDL
MODEL       15
REMARK 921   NORMALIZED FREE ENERGY PREDICTED BY IDOCK:   -6.85 KCAL/MOL
REMARK 922        TOTAL FREE ENERGY PREDICTED BY IDOCK:  -13.88 KCAL/MOL
REMARK 923 INTER-LIGAND FREE ENERGY PREDICTED BY IDOCK:  -11.96 KCAL/MOL
REMARK 924 INTRA-LIGAND FREE ENERGY PREDICTED BY IDOCK:   -1.92 KCAL/MOL
REMARK 927      BINDING AFFINITY PREDICTED BY RF-SCORE:    0.00 PKD
ROOT
HETATM    1  C   UNL     1     -11.696   8.593  70.887  1.00  0.00    -0.287 C  
HETATM    2  C   UNL     1     -12.222   9.982  71.197  1.00  0.00    -0.477 C  
HETATM    3  C   UNL     1     -13.341   9.757  72.195  1.00  0.00    -0.431 C  
HETATM    4  O   UNL     1     -13.381   8.367  72.514  1.00  0.00    -0.245 OA 
HETATM    5  C   UNL     1     -12.173   7.773  72.061  1.00  0.00    -0.305 C  
HETATM    6  O   UNL     1     -11.144   7.857  73.046  1.00  0.00    -0.402 OA 
HETATM    7  C   UNL     1      -9.899   7.996  72.354  1.00  0.00    -0.247 C  
HETATM    8  C   UNL     1     -10.190   8.403  70.909  1.00  0.00    -0.194 C  
ENDROOT
BRANCH   8   9
HETATM    9  O   UNL     1      -9.486   9.623  70.625  1.00  0.00    -0.244 OA 
BRANCH   9  10
HETATM   10  C   UNL     1      -9.382   9.966  69.318  1.00  0.00    -0.206 C  
HETATM   11  O   UNL     1      -9.041   9.213  68.422  1.00  0.00    -0.133 OA 
HETATM   12  N   UNL     1      -9.630  11.302  69.201  1.00  0.00    -0.411 N  
HETATM   13  H   UNL     1     -10.004  11.798  70.010  1.00  0.00     0.000 HD 
BRANCH  12  14
HETATM   14  C   UNL     1      -9.387  12.067  67.968  1.00  0.00    -0.196 C  
BRANCH  14  15
HETATM   15  C   UNL     1     -10.713  12.652  67.382  1.00  0.00    -0.251 C  
BRANCH  15  16
HETATM   16  C   UNL     1     -11.019  12.310  65.932  1.00  0.00    -0.338 A  
HETATM   17  C   UNL     1     -10.100  11.584  65.163  1.00  0.00    -0.313 A  
HETATM   18  C   UNL     1     -12.207  12.743  65.323  1.00  0.00    -0.535 A  
HETATM   19  C   UNL     1     -10.360  11.305  63.818  1.00  0.00    -0.453 A  
HETATM   20  C   UNL     1     -11.547  11.736  63.229  1.00  0.00    -0.325 A  
HETATM   21  C   UNL     1     -12.475  12.449  63.983  1.00  0.00    -0.554 A  
ENDBRANCH  15  16
ENDBRANCH  14  15
BRANCH  14  22
HETATM   22  C   UNL     1      -8.322  13.196  68.125  1.00  0.00    -0.161 C  
HETATM   23  O   UNL     1      -7.692  13.125  69.411  1.00  0.00    -0.260 OA 
HETATM   24  H   UNL     1      -7.043  13.813  69.507  1.00  0.00     0.000 HD 
BRANCH  22  25
HETATM   25  C   UNL     1      -8.748  14.641  67.798  1.00  0.00    -0.171 C  
BRANCH  25  26
HETATM   26  N   UNL     1      -8.895  15.656  68.928  1.00  0.00    -0.204 N  
BRANCH  26  27
HETATM   27  C   UNL     1      -7.821  16.739  68.836  1.00  0.00    -0.244 C  
HETATM   28  C   UNL     1      -7.203  17.072  67.460  1.00  0.00    -0.173 C  
HETATM   29  C   UNL     1      -8.203  17.615  66.442  1.00  0.00    -0.298 C  
HETATM   30  C   UNL     1      -6.106  18.137  67.645  1.00  0.00    -0.169 C  
ENDBRANCH  26  27
BRANCH  26  31
HETATM   31  S   UNL     1     -10.523  16.333  68.889  1.00  0.00    -0.295 S  
HETATM   32  O   UNL     1     -10.472  17.694  69.362  1.00  0.00    -0.242 OA 
HETATM   33  O   UNL     1     -11.070  16.002  67.585  1.00  0.00    -0.317 OA 
BRANCH  31  34
HETATM   34  C   UNL     1     -11.435  15.384  70.106  1.00  0.00    -0.317 A  
HETATM   35  C   UNL     1     -12.810  13.481  70.680  1.00  0.00    -0.189 A  
HETATM   36  C   UNL     1     -12.040  14.182  69.739  1.00  0.00    -0.409 A  
HETATM   37  C   UNL     1     -13.020  13.987  71.967  1.00  0.00    -0.363 A  
HETATM   38  N   UNL     1     -13.699  13.232  72.924  1.00  0.00    -0.626 NA 
HETATM   39  C   UNL     1     -12.338  15.147  72.341  1.00  0.00    -0.447 A  
HETATM   40  H1  UNL     1     -13.852  13.601  73.863  1.00  0.00     0.000 HD 
HETATM   41  C   UNL     1     -11.559  15.856  71.416  1.00  0.00    -0.529 A  
HETATM   42  H2  UNL     1     -13.233  12.329  73.009  1.00  0.00     0.000 HD 
ENDBRANCH  31  34
ENDBRANCH  26  31
ENDBRANCH  25  26
ENDBRANCH  22  25
ENDBRANCH  14  22
ENDBRANCH  12  14
ENDBRANCH   9  10
ENDBRANCH   8   9
TORSDOF 11
ENDMDL
MODEL       16
REMARK 921   NORMALIZED FREE ENERGY PREDICTED BY IDOCK:   -6.82 KCAL/MOL
REMARK 922        TOTAL FREE ENERGY PREDICTED BY IDOCK:  -13.83 KCAL/MOL
REMARK 923 INTER-LIGAND FREE ENERGY PREDICTED BY IDOCK:  -11.68 KCAL/MOL
REMARK 924 INTRA-LIGAND FREE ENERGY PREDICTED BY IDOCK:   -2.15 KCAL/MOL
REMARK 927      BINDING AFFINITY PREDICTED BY RF-SCORE:    0.00 PKD
ROOT
HETATM    1  C   UNL     1     -11.895   9.085  72.000  1.00  0.00    -0.426 C  
HETATM    2  C   UNL     1     -11.325   7.927  71.201  1.00  0.00    -0.289 C  
HETATM    3  C   UNL     1     -12.240   6.758  71.509  1.00  0.00    -0.366 C  
HETATM    4  O   UNL     1     -13.308   7.231  72.329  1.00  0.00    -0.023 OA 
HETATM    5  C   UNL     1     -13.315   8.650  72.272  1.00  0.00    -0.375 C  
HETATM    6  O   UNL     1     -14.092   9.128  71.174  1.00  0.00    -0.219 OA 
HETATM    7  C   UNL     1     -13.479  10.335  70.710  1.00  0.00     0.041 C  
HETATM    8  C   UNL     1     -12.061  10.409  71.277  1.00  0.00    -0.362 C  
ENDROOT
BRANCH   8   9
HETATM    9  O   UNL     1     -11.136  10.549  70.185  1.00  0.00    -0.285 OA 
BRANCH   9  10
HETATM   10  C   UNL     1     -11.516  11.373  69.178  1.00  0.00    -0.299 C  
HETATM   11  O   UNL     1     -12.050  11.014  68.143  1.00  0.00    -0.610 OA 
HETATM   12  N   UNL     1     -11.117  12.642  69.485  1.00  0.00    -0.460 N  
HETATM   13  H   UNL     1     -10.772  12.825  70.428  1.00  0.00     0.000 HD 
BRANCH  12  14
HETATM   14  C   UNL     1     -11.158  13.759  68.529  1.00  0.00    -0.267 C  
BRANCH  14  15
HETATM   15  C   UNL     1     -11.988  14.962  69.083  1.00  0.00    -0.313 C  
BRANCH  15  16
HETATM   16  C   UNL     1     -12.313  14.930  70.568  1.00  0.00    -0.400 A  
HETATM   17  C   UNL     1     -11.624  15.756  71.465  1.00  0.00    -0.531 A  
HETATM   18  C   UNL     1     -13.280  14.049  71.077  1.00  0.00    -0.294 A  
HETATM   19  C   UNL     1     -11.891  15.699  72.836  1.00  0.00    -0.564 A  
HETATM   20  C   UNL     1     -12.859  14.824  73.326  1.00  0.00    -0.621 A  
HETATM   21  C   UNL     1     -13.560  14.004  72.446  1.00  0.00    -0.658 A  
ENDBRANCH  15  16
ENDBRANCH  14  15
BRANCH  14  22
HETATM   22  C   UNL     1      -9.750  14.243  68.064  1.00  0.00    -0.223 C  
HETATM   23  O   UNL     1      -9.694  15.675  68.019  1.00  0.00    -0.204 OA 
HETATM   24  H   UNL     1      -8.836  15.970  67.736  1.00  0.00     0.000 HD 
BRANCH  22  25
HETATM   25  C   UNL     1      -9.163  13.627  66.778  1.00  0.00    -0.241 C  
BRANCH  25  26
HETATM   26  N   UNL     1      -9.636  12.252  66.318  1.00  0.00    -0.240 N  
BRANCH  26  27
HETATM   27  C   UNL     1     -10.298  12.331  64.942  1.00  0.00    -0.290 C  
HETATM   28  C   UNL     1     -11.831  12.177  64.835  1.00  0.00    -0.366 C  
HETATM   29  C   UNL     1     -12.619  13.265  65.561  1.00  0.00    -0.505 C  
HETATM   30  C   UNL     1     -12.239  12.223  63.350  1.00  0.00    -0.630 C  
ENDBRANCH  26  27
BRANCH  26  31
HETATM   31  S   UNL     1      -8.271  11.136  66.332  1.00  0.00    -0.145 S  
HETATM   32  O   UNL     1      -7.867  10.878  64.972  1.00  0.00     0.036 OA 
HETATM   33  O   UNL     1      -7.336  11.650  67.317  1.00  0.00    -0.119 OA 
BRANCH  31  34
HETATM   34  C   UNL     1      -8.944   9.608  66.982  1.00  0.00    -0.134 A  
HETATM   35  C   UNL     1      -8.961   7.872  68.665  1.00  0.00    -0.134 A  
HETATM   36  C   UNL     1      -8.479   9.105  68.197  1.00  0.00    -0.125 A  
HETATM   37  C   UNL     1      -9.867   7.116  67.913  1.00  0.00    -0.144 A  
HETATM   38  N   UNL     1     -10.418   5.945  68.435  1.00  0.00    -0.215 NA 
HETATM   39  C   UNL     1     -10.384   7.675  66.742  1.00  0.00    -0.343 A  
HETATM   40  H1  UNL     1     -11.079   5.393  67.887  1.00  0.00     0.000 HD 
HETATM   41  C   UNL     1      -9.919   8.908  66.264  1.00  0.00    -0.337 A  
HETATM   42  H2  UNL     1     -10.854   6.168  69.330  1.00  0.00     0.000 HD 
ENDBRANCH  31  34
ENDBRANCH  26  31
ENDBRANCH  25  26
ENDBRANCH  22  25
ENDBRANCH  14  22
ENDBRANCH  12  14
ENDBRANCH   9  10
ENDBRANCH   8   9
TORSDOF 11
ENDMDL
MODEL       17
REMARK 921   NORMALIZED FREE ENERGY PREDICTED BY IDOCK:   -6.81 KCAL/MOL
REMARK 922        TOTAL FREE ENERGY PREDICTED BY IDOCK:  -13.81 KCAL/MOL
REMARK 923 INTER-LIGAND FREE ENERGY PREDICTED BY IDOCK:  -12.36 KCAL/MOL
REMARK 924 INTRA-LIGAND FREE ENERGY PREDICTED BY IDOCK:   -1.45 KCAL/MOL
REMARK 927      BINDING AFFINITY PREDICTED BY RF-SCORE:    0.00 PKD
ROOT
HETATM    1  C   UNL     1     -12.569  13.047  65.514  1.00  0.00    -0.422 C  
HETATM    2  C   UNL     1     -12.114  11.981  64.534  1.00  0.00    -0.340 C  
HETATM    3  C   UNL     1     -12.188  12.650  63.175  1.00  0.00    -0.244 C  
HETATM    4  O   UNL     1     -12.548  14.017  63.370  1.00  0.00    -0.845 OA 
HETATM    5  C   UNL     1     -12.373  14.330  64.744  1.00  0.00    -0.426 C  
HETATM    6  O   UNL     1     -11.040  14.757  65.019  1.00  0.00    -0.359 OA 
HETATM    7  C   UNL     1     -10.714  14.315  66.341  1.00  0.00    -0.297 C  
HETATM    8  C   UNL     1     -11.724  13.247  66.759  1.00  0.00    -0.385 C  
ENDROOT
BRANCH   8   9
HETATM    9  O   UNL     1     -11.008  12.055  67.124  1.00  0.00    -0.243 OA 
BRANCH   9  10
HETATM   10  C   UNL     1     -10.734  11.900  68.443  1.00  0.00    -0.220 C  
HETATM   11  O   UNL     1      -9.617  11.796  68.919  1.00  0.00    -0.101 OA 
HETATM   12  N   UNL     1     -11.915  11.788  69.119  1.00  0.00    -0.313 N  
HETATM   13  H   UNL     1     -12.780  11.995  68.618  1.00  0.00     0.000 HD 
BRANCH  12  14
HETATM   14  C   UNL     1     -12.006  11.386  70.531  1.00  0.00    -0.356 C  
BRANCH  14  15
HETATM   15  C   UNL     1     -13.096  12.206  71.294  1.00  0.00    -0.210 C  
BRANCH  15  16
HETATM   16  C   UNL     1     -12.698  13.601  71.747  1.00  0.00    -0.359 A  
HETATM   17  C   UNL     1     -13.290  14.179  72.878  1.00  0.00    -0.532 A  
HETATM   18  C   UNL     1     -11.760  14.355  71.025  1.00  0.00    -0.256 A  
HETATM   19  C   UNL     1     -12.957  15.477  73.272  1.00  0.00    -0.654 A  
HETATM   20  C   UNL     1     -12.019  16.211  72.549  1.00  0.00    -0.660 A  
HETATM   21  C   UNL     1     -11.414  15.648  71.429  1.00  0.00    -0.488 A  
ENDBRANCH  15  16
ENDBRANCH  14  15
BRANCH  14  22
HETATM   22  C   UNL     1     -12.236   9.858  70.737  1.00  0.00    -0.291 C  
HETATM   23  O   UNL     1     -13.631   9.536  70.643  1.00  0.00    -0.588 OA 
HETATM   24  H   UNL     1     -13.771   8.604  70.768  1.00  0.00     0.000 HD 
BRANCH  22  25
HETATM   25  C   UNL     1     -11.599   9.192  71.974  1.00  0.00    -0.301 C  
BRANCH  25  26
HETATM   26  N   UNL     1     -10.703   7.971  71.793  1.00  0.00    -0.230 N  
BRANCH  26  27
HETATM   27  C   UNL     1      -9.983   7.621  73.095  1.00  0.00    -0.304 C  
HETATM   28  C   UNL     1      -8.478   7.281  73.055  1.00  0.00    -0.147 C  
HETATM   29  C   UNL     1      -7.592   8.427  72.573  1.00  0.00    -0.134 C  
HETATM   30  C   UNL     1      -8.010   6.897  74.472  1.00  0.00    -0.151 C  
ENDBRANCH  26  27
BRANCH  26  31
HETATM   31  S   UNL     1     -11.671   6.627  71.190  1.00  0.00    -0.351 S  
HETATM   32  O   UNL     1     -12.996   6.719  71.752  1.00  0.00    -0.349 OA 
HETATM   33  O   UNL     1     -11.457   6.583  69.754  1.00  0.00    -0.388 OA 
BRANCH  31  34
HETATM   34  C   UNL     1     -10.901   5.168  71.888  1.00  0.00    -0.101 A  
HETATM   35  C   UNL     1      -9.339   3.331  71.708  1.00  0.00    -0.201 A  
HETATM   36  C   UNL     1      -9.888   4.512  71.187  1.00  0.00    -0.263 A  
HETATM   37  C   UNL     1      -9.819   2.772  72.898  1.00  0.00    -0.123 A  
HETATM   38  N   UNL     1      -9.196   1.657  73.460  1.00  0.00    -0.071 NA 
HETATM   39  C   UNL     1     -10.772   3.486  73.628  1.00  0.00    -0.306 A  
HETATM   40  H1  UNL     1      -9.545   1.249  74.327  1.00  0.00     0.000 HD 
HETATM   41  C   UNL     1     -11.326   4.671  73.125  1.00  0.00    -0.355 A  
HETATM   42  H2  UNL     1      -8.206   1.872  73.585  1.00  0.00     0.000 HD 
ENDBRANCH  31  34
ENDBRANCH  26  31
ENDBRANCH  25  26
ENDBRANCH  22  25
ENDBRANCH  14  22
ENDBRANCH  12  14
ENDBRANCH   9  10
ENDBRANCH   8   9
TORSDOF 11
ENDMDL
MODEL       18
REMARK 921   NORMALIZED FREE ENERGY PREDICTED BY IDOCK:   -6.81 KCAL/MOL
REMARK 922        TOTAL FREE ENERGY PREDICTED BY IDOCK:  -13.81 KCAL/MOL
REMARK 923 INTER-LIGAND FREE ENERGY PREDICTED BY IDOCK:  -11.35 KCAL/MOL
REMARK 924 INTRA-LIGAND FREE ENERGY PREDICTED BY IDOCK:   -2.46 KCAL/MOL
REMARK 927      BINDING AFFINITY PREDICTED BY RF-SCORE:    0.00 PKD
ROOT
HETATM    1  C   UNL     1     -11.367   8.552  70.945  1.00  0.00    -0.304 C  
HETATM    2  C   UNL     1     -11.881   9.965  71.150  1.00  0.00    -0.472 C  
HETATM    3  C   UNL     1     -13.204   9.793  71.871  1.00  0.00    -0.449 C  
HETATM    4  O   UNL     1     -13.381   8.405  72.153  1.00  0.00    -0.336 OA 
HETATM    5  C   UNL     1     -12.133   7.753  71.971  1.00  0.00    -0.311 C  
HETATM    6  O   UNL     1     -11.347   7.781  73.162  1.00  0.00    -0.374 OA 
HETATM    7  C   UNL     1      -9.974   7.860  72.766  1.00  0.00    -0.283 C  
HETATM    8  C   UNL     1      -9.915   8.286  71.299  1.00  0.00    -0.192 C  
ENDROOT
BRANCH   8   9
HETATM    9  O   UNL     1      -9.108   9.470  71.196  1.00  0.00    -0.239 OA 
BRANCH   9  10
HETATM   10  C   UNL     1      -8.283   9.544  70.122  1.00  0.00    -0.177 C  
HETATM   11  O   UNL     1      -7.259   8.897  69.980  1.00  0.00    -0.049 OA 
HETATM   12  N   UNL     1      -8.746  10.521  69.289  1.00  0.00    -0.281 N  
HETATM   13  H   UNL     1      -9.668  10.916  69.472  1.00  0.00     0.000 HD 
BRANCH  12  14
HETATM   14  C   UNL     1      -7.984  11.034  68.140  1.00  0.00    -0.119 C  
BRANCH  14  15
HETATM   15  C   UNL     1      -8.622  10.592  66.783  1.00  0.00    -0.126 C  
BRANCH  15  16
HETATM   16  C   UNL     1      -9.092   9.149  66.696  1.00  0.00    -0.182 A  
HETATM   17  C   UNL     1     -10.377   8.792  67.125  1.00  0.00    -0.364 A  
HETATM   18  C   UNL     1      -8.240   8.138  66.222  1.00  0.00    -0.114 A  
HETATM   19  C   UNL     1     -10.797   7.459  67.086  1.00  0.00    -0.340 A  
HETATM   20  C   UNL     1      -9.942   6.468  66.607  1.00  0.00    -0.204 A  
HETATM   21  C   UNL     1      -8.666   6.808  66.167  1.00  0.00    -0.156 A  
ENDBRANCH  15  16
ENDBRANCH  14  15
BRANCH  14  22
HETATM   22  C   UNL     1      -7.775  12.579  68.160  1.00  0.00    -0.141 C  
HETATM   23  O   UNL     1      -7.352  13.018  69.459  1.00  0.00    -0.304 OA 
HETATM   24  H   UNL     1      -7.225  13.959  69.471  1.00  0.00     0.000 HD 
BRANCH  22  25
HETATM   25  C   UNL     1      -8.913  13.469  67.621  1.00  0.00    -0.200 C  
BRANCH  25  26
HETATM   26  N   UNL     1      -9.686  14.367  68.582  1.00  0.00    -0.220 N  
BRANCH  26  27
HETATM   27  C   UNL     1      -9.685  15.817  68.099  1.00  0.00    -0.211 C  
HETATM   28  C   UNL     1      -8.690  16.818  68.725  1.00  0.00    -0.258 C  
HETATM   29  C   UNL     1      -7.223  16.469  68.490  1.00  0.00    -0.175 C  
HETATM   30  C   UNL     1      -8.936  18.215  68.124  1.00  0.00    -0.298 C  
ENDBRANCH  26  27
BRANCH  26  31
HETATM   31  S   UNL     1     -11.321  13.735  68.776  1.00  0.00    -0.304 S  
HETATM   32  O   UNL     1     -12.173  14.339  67.782  1.00  0.00    -0.325 OA 
HETATM   33  O   UNL     1     -11.188  12.294  68.888  1.00  0.00    -0.241 OA 
BRANCH  31  34
HETATM   34  C   UNL     1     -11.854  14.348  70.373  1.00  0.00    -0.312 A  
HETATM   35  C   UNL     1     -13.208  14.117  72.362  1.00  0.00    -0.566 A  
HETATM   36  C   UNL     1     -12.741  13.598  71.145  1.00  0.00    -0.432 A  
HETATM   37  C   UNL     1     -12.834  15.394  72.797  1.00  0.00    -0.427 A  
HETATM   38  N   UNL     1     -13.220  15.856  74.055  1.00  0.00    -0.842 NA 
HETATM   39  C   UNL     1     -11.880  16.093  72.053  1.00  0.00    -0.615 A  
HETATM   40  H1  UNL     1     -12.948  16.787  74.372  1.00  0.00     0.000 HD 
HETATM   41  C   UNL     1     -11.399  15.586  70.838  1.00  0.00    -0.406 A  
HETATM   42  H2  UNL     1     -12.912  15.179  74.753  1.00  0.00     0.000 HD 
ENDBRANCH  31  34
ENDBRANCH  26  31
ENDBRANCH  25  26
ENDBRANCH  22  25
ENDBRANCH  14  22
ENDBRANCH  12  14
ENDBRANCH   9  10
ENDBRANCH   8   9
TORSDOF 11
ENDMDL
MODEL       19
REMARK 921   NORMALIZED FREE ENERGY PREDICTED BY IDOCK:   -6.72 KCAL/MOL
REMARK 922        TOTAL FREE ENERGY PREDICTED BY IDOCK:  -13.67 KCAL/MOL
REMARK 923 INTER-LIGAND FREE ENERGY PREDICTED BY IDOCK:  -12.03 KCAL/MOL
REMARK 924 INTRA-LIGAND FREE ENERGY PREDICTED BY IDOCK:   -1.64 KCAL/MOL
REMARK 927      BINDING AFFINITY PREDICTED BY RF-SCORE:    0.00 PKD
ROOT
HETATM    1  C   UNL     1     -12.278  13.213  65.628  1.00  0.00    -0.521 C  
HETATM    2  C   UNL     1     -12.000  12.086  64.650  1.00  0.00    -0.326 C  
HETATM    3  C   UNL     1     -12.322  12.669  63.287  1.00  0.00    -0.354 C  
HETATM    4  O   UNL     1     -12.651  14.047  63.459  1.00  0.00    -0.842 OA 
HETATM    5  C   UNL     1     -12.233  14.445  64.757  1.00  0.00    -0.446 C  
HETATM    6  O   UNL     1     -10.875  14.882  64.760  1.00  0.00    -0.394 OA 
HETATM    7  C   UNL     1     -10.313  14.522  66.026  1.00  0.00    -0.309 C  
HETATM    8  C   UNL     1     -11.224  13.486  66.685  1.00  0.00    -0.312 C  
ENDROOT
BRANCH   8   9
HETATM    9  O   UNL     1     -10.446  12.317  66.989  1.00  0.00    -0.215 OA 
BRANCH   9  10
HETATM   10  C   UNL     1     -10.294  12.022  68.303  1.00  0.00    -0.204 C  
HETATM   11  O   UNL     1      -9.257  11.643  68.821  1.00  0.00    -0.143 OA 
HETATM   12  N   UNL     1     -11.510  12.132  68.913  1.00  0.00    -0.272 N  
HETATM   13  H   UNL     1     -12.276  12.556  68.391  1.00  0.00     0.000 HD 
BRANCH  12  14
HETATM   14  C   UNL     1     -11.773  11.671  70.285  1.00  0.00    -0.266 C  
BRANCH  14  15
HETATM   15  C   UNL     1     -12.925  12.487  70.956  1.00  0.00    -0.154 C  
BRANCH  15  16
HETATM   16  C   UNL     1     -12.551  13.853  71.509  1.00  0.00    -0.419 A  
HETATM   17  C   UNL     1     -12.986  14.250  72.780  1.00  0.00    -0.545 A  
HETATM   18  C   UNL     1     -11.796  14.759  70.747  1.00  0.00    -0.370 A  
HETATM   19  C   UNL     1     -12.679  15.521  73.273  1.00  0.00    -0.625 A  
HETATM   20  C   UNL     1     -11.924  16.408  72.508  1.00  0.00    -0.579 A  
HETATM   21  C   UNL     1     -11.475  16.024  71.247  1.00  0.00    -0.475 A  
ENDBRANCH  15  16
ENDBRANCH  14  15
BRANCH  14  22
HETATM   22  C   UNL     1     -12.061  10.142  70.393  1.00  0.00    -0.246 C  
HETATM   23  O   UNL     1     -13.445   9.904  70.687  1.00  0.00    -0.613 OA 
HETATM   24  H   UNL     1     -13.621   8.973  70.752  1.00  0.00     0.000 HD 
BRANCH  22  25
HETATM   25  C   UNL     1     -11.151   9.297  71.307  1.00  0.00    -0.357 C  
BRANCH  25  26
HETATM   26  N   UNL     1     -10.527   8.014  70.768  1.00  0.00    -0.204 N  
BRANCH  26  27
HETATM   27  C   UNL     1      -9.871   8.251  69.408  1.00  0.00    -0.185 C  
HETATM   28  C   UNL     1      -9.697   7.062  68.439  1.00  0.00    -0.139 C  
HETATM   29  C   UNL     1     -11.010   6.431  67.983  1.00  0.00    -0.400 C  
HETATM   30  C   UNL     1      -8.953   7.544  67.179  1.00  0.00    -0.136 C  
ENDBRANCH  26  27
BRANCH  26  31
HETATM   31  S   UNL     1      -9.382   7.385  71.953  1.00  0.00    -0.136 S  
HETATM   32  O   UNL     1      -8.057   7.424  71.386  1.00  0.00    -0.096 OA 
HETATM   33  O   UNL     1      -9.692   8.048  73.207  1.00  0.00    -0.286 OA 
BRANCH  31  34
HETATM   34  C   UNL     1      -9.828   5.660  72.138  1.00  0.00    -0.158 A  
HETATM   35  C   UNL     1     -11.032   3.918  73.304  1.00  0.00    -0.294 A  
HETATM   36  C   UNL     1     -10.742   5.278  73.120  1.00  0.00    -0.314 A  
HETATM   37  C   UNL     1     -10.387   2.930  72.550  1.00  0.00    -0.114 A  
HETATM   38  N   UNL     1     -10.760   1.591  72.669  1.00  0.00    -0.155 NA 
HETATM   39  C   UNL     1      -9.540   3.336  71.516  1.00  0.00    -0.234 A  
HETATM   40  H1  UNL     1     -10.290   0.871  72.119  1.00  0.00     0.000 HD 
HETATM   41  C   UNL     1      -9.245   4.691  71.314  1.00  0.00    -0.191 A  
HETATM   42  H2  UNL     1     -11.762   1.521  72.494  1.00  0.00     0.000 HD 
ENDBRANCH  31  34
ENDBRANCH  26  31
ENDBRANCH  25  26
ENDBRANCH  22  25
ENDBRANCH  14  22
ENDBRANCH  12  14
ENDBRANCH   9  10
ENDBRANCH   8   9
TORSDOF 11
ENDMDL
MODEL       20
REMARK 921   NORMALIZED FREE ENERGY PREDICTED BY IDOCK:   -6.72 KCAL/MOL
REMARK 922        TOTAL FREE ENERGY PREDICTED BY IDOCK:  -13.66 KCAL/MOL
REMARK 923 INTER-LIGAND FREE ENERGY PREDICTED BY IDOCK:  -11.55 KCAL/MOL
REMARK 924 INTRA-LIGAND FREE ENERGY PREDICTED BY IDOCK:   -2.11 KCAL/MOL
REMARK 927      BINDING AFFINITY PREDICTED BY RF-SCORE:    0.00 PKD
ROOT
HETATM    1  C   UNL     1     -11.653   8.668  70.866  1.00  0.00    -0.307 C  
HETATM    2  C   UNL     1     -11.965  10.129  71.132  1.00  0.00    -0.480 C  
HETATM    3  C   UNL     1     -13.167  10.104  72.057  1.00  0.00    -0.430 C  
HETATM    4  O   UNL     1     -13.451   8.744  72.382  1.00  0.00    -0.403 OA 
HETATM    5  C   UNL     1     -12.329   7.956  72.012  1.00  0.00    -0.308 C  
HETATM    6  O   UNL     1     -11.364   7.890  73.061  1.00  0.00    -0.408 OA 
HETATM    7  C   UNL     1     -10.072   7.815  72.449  1.00  0.00    -0.226 C  
HETATM    8  C   UNL     1     -10.202   8.238  70.986  1.00  0.00    -0.191 C  
ENDROOT
BRANCH   8   9
HETATM    9  O   UNL     1      -9.294   9.324  70.740  1.00  0.00    -0.241 OA 
BRANCH   9  10
HETATM   10  C   UNL     1      -8.890   9.490  69.456  1.00  0.00    -0.179 C  
HETATM   11  O   UNL     1      -8.311   8.648  68.790  1.00  0.00    -0.119 OA 
HETATM   12  N   UNL     1      -9.158  10.774  69.082  1.00  0.00    -0.335 N  
HETATM   13  H   UNL     1      -9.737  11.346  69.696  1.00  0.00     0.000 HD 
BRANCH  12  14
HETATM   14  C   UNL     1      -8.655  11.378  67.837  1.00  0.00    -0.140 C  
BRANCH  14  15
HETATM   15  C   UNL     1      -9.803  11.595  66.799  1.00  0.00    -0.222 C  
BRANCH  15  16
HETATM   16  C   UNL     1      -9.530  11.117  65.382  1.00  0.00    -0.253 A  
HETATM   17  C   UNL     1      -9.802  11.946  64.286  1.00  0.00    -0.217 A  
HETATM   18  C   UNL     1      -9.038   9.825  65.137  1.00  0.00    -0.270 A  
HETATM   19  C   UNL     1      -9.593  11.493  62.980  1.00  0.00    -0.371 A  
HETATM   20  C   UNL     1      -9.097  10.211  62.753  1.00  0.00    -0.299 A  
HETATM   21  C   UNL     1      -8.812   9.378  63.832  1.00  0.00    -0.205 A  
ENDBRANCH  15  16
ENDBRANCH  14  15
BRANCH  14  22
HETATM   22  C   UNL     1      -7.865  12.704  68.054  1.00  0.00    -0.149 C  
HETATM   23  O   UNL     1      -7.429  12.821  69.416  1.00  0.00    -0.310 OA 
HETATM   24  H   UNL     1      -6.947  13.629  69.548  1.00  0.00     0.000 HD 
BRANCH  22  25
HETATM   25  C   UNL     1      -8.510  14.017  67.567  1.00  0.00    -0.195 C  
BRANCH  25  26
HETATM   26  N   UNL     1      -8.769  15.143  68.563  1.00  0.00    -0.164 N  
BRANCH  26  27
HETATM   27  C   UNL     1      -8.028  16.416  68.158  1.00  0.00    -0.160 C  
HETATM   28  C   UNL     1      -7.006  17.036  69.136  1.00  0.00    -0.228 C  
HETATM   29  C   UNL     1      -5.814  16.133  69.447  1.00  0.00    -0.141 C  
HETATM   30  C   UNL     1      -6.454  18.339  68.529  1.00  0.00    -0.222 C  
ENDBRANCH  26  27
BRANCH  26  31
HETATM   31  S   UNL     1     -10.508  15.405  68.700  1.00  0.00    -0.245 S  
HETATM   32  O   UNL     1     -11.061  14.405  69.580  1.00  0.00    -0.251 OA 
HETATM   33  O   UNL     1     -10.686  16.823  68.956  1.00  0.00    -0.322 OA 
BRANCH  31  34
HETATM   34  C   UNL     1     -11.144  15.074  67.058  1.00  0.00    -0.334 A  
HETATM   35  C   UNL     1     -12.572  13.803  65.578  1.00  0.00    -0.551 A  
HETATM   36  C   UNL     1     -12.129  14.105  66.876  1.00  0.00    -0.466 A  
HETATM   37  C   UNL     1     -12.010  14.426  64.458  1.00  0.00    -0.472 A  
HETATM   38  N   UNL     1     -12.529  14.195  63.183  1.00  0.00    -1.037 NA 
HETATM   39  C   UNL     1     -11.086  15.453  64.666  1.00  0.00    -0.361 A  
HETATM   40  H1  UNL     1     -12.120  14.649  62.367  1.00  0.00     0.000 HD 
HETATM   41  C   UNL     1     -10.638  15.771  65.955  1.00  0.00    -0.334 A  
HETATM   42  H2  UNL     1     -13.526  14.410  63.201  1.00  0.00     0.000 HD 
ENDBRANCH  31  34
ENDBRANCH  26  31
ENDBRANCH  25  26
ENDBRANCH  22  25
ENDBRANCH  14  22
ENDBRANCH  12  14
ENDBRANCH   9  10
ENDBRANCH   8   9
TORSDOF 11
ENDMDL
MODEL       21
REMARK 921   NORMALIZED FREE ENERGY PREDICTED BY IDOCK:   -6.69 KCAL/MOL
REMARK 922        TOTAL FREE ENERGY PREDICTED BY IDOCK:  -13.62 KCAL/MOL
REMARK 923 INTER-LIGAND FREE ENERGY PREDICTED BY IDOCK:  -12.09 KCAL/MOL
REMARK 924 INTRA-LIGAND FREE ENERGY PREDICTED BY IDOCK:   -1.53 KCAL/MOL
REMARK 927      BINDING AFFINITY PREDICTED BY RF-SCORE:    0.00 PKD
ROOT
HETATM    1  C   UNL     1      -7.747  19.104  67.392  1.00  0.00    -0.261 C  
HETATM    2  C   UNL     1      -6.915  19.470  68.607  1.00  0.00    -0.357 C  
HETATM    3  C   UNL     1      -6.382  20.858  68.306  1.00  0.00    -0.269 C  
HETATM    4  O   UNL     1      -6.949  21.295  67.072  1.00  0.00    -0.456 OA 
HETATM    5  C   UNL     1      -8.041  20.442  66.759  1.00  0.00    -0.228 C  
HETATM    6  O   UNL     1      -9.254  20.903  67.353  1.00  0.00    -0.328 OA 
HETATM    7  C   UNL     1     -10.035  19.748  67.679  1.00  0.00    -0.406 C  
HETATM    8  C   UNL     1      -9.125  18.521  67.647  1.00  0.00    -0.281 C  
ENDROOT
BRANCH   8   9
HETATM    9  O   UNL     1      -9.204  17.857  68.920  1.00  0.00    -0.245 OA 
BRANCH   9  10
HETATM   10  C   UNL     1      -9.237  16.502  68.889  1.00  0.00    -0.258 C  
HETATM   11  O   UNL     1      -8.362  15.770  69.319  1.00  0.00    -0.231 OA 
HETATM   12  N   UNL     1     -10.360  16.113  68.218  1.00  0.00    -0.257 N  
HETATM   13  H   UNL     1     -11.062  16.821  67.999  1.00  0.00     0.000 HD 
BRANCH  12  14
HETATM   14  C   UNL     1     -10.613  14.727  67.795  1.00  0.00    -0.257 C  
BRANCH  14  15
HETATM   15  C   UNL     1      -9.749  14.339  66.551  1.00  0.00    -0.304 C  
BRANCH  15  16
HETATM   16  C   UNL     1     -10.440  13.507  65.483  1.00  0.00    -0.304 A  
HETATM   17  C   UNL     1      -9.978  12.221  65.172  1.00  0.00    -0.236 A  
HETATM   18  C   UNL     1     -11.528  14.019  64.759  1.00  0.00    -0.371 A  
HETATM   19  C   UNL     1     -10.584  11.470  64.161  1.00  0.00    -0.420 A  
HETATM   20  C   UNL     1     -11.668  11.989  63.456  1.00  0.00    -0.566 A  
HETATM   21  C   UNL     1     -12.146  13.261  63.760  1.00  0.00    -0.546 A  
ENDBRANCH  15  16
ENDBRANCH  14  15
BRANCH  14  22
HETATM   22  C   UNL     1     -10.426  13.677  68.931  1.00  0.00    -0.150 C  
HETATM   23  O   UNL     1      -9.211  12.937  68.746  1.00  0.00    -0.396 OA 
HETATM   24  H   UNL     1      -9.096  12.297  69.439  1.00  0.00     0.000 HD 
BRANCH  22  25
HETATM   25  C   UNL     1     -11.604  12.732  69.243  1.00  0.00    -0.314 C  
BRANCH  25  26
HETATM   26  N   UNL     1     -11.977  12.449  70.695  1.00  0.00    -0.233 N  
BRANCH  26  27
HETATM   27  C   UNL     1     -12.972  13.485  71.218  1.00  0.00    -0.304 C  
HETATM   28  C   UNL     1     -12.497  14.529  72.252  1.00  0.00    -0.353 C  
HETATM   29  C   UNL     1     -11.401  15.461  71.739  1.00  0.00    -0.457 C  
HETATM   30  C   UNL     1     -13.693  15.406  72.669  1.00  0.00    -0.640 C  
ENDBRANCH  26  27
BRANCH  26  31
HETATM   31  S   UNL     1     -12.606  10.806  70.821  1.00  0.00    -0.386 S  
HETATM   32  O   UNL     1     -13.405  10.704  72.017  1.00  0.00    -0.440 OA 
HETATM   33  O   UNL     1     -13.150  10.478  69.515  1.00  0.00     0.043 OA 
BRANCH  31  34
HETATM   34  C   UNL     1     -11.154   9.786  71.065  1.00  0.00    -0.361 A  
HETATM   35  C   UNL     1      -9.939   8.143  72.358  1.00  0.00    -0.345 A  
HETATM   36  C   UNL     1     -11.107   8.888  72.132  1.00  0.00    -0.355 A  
HETATM   37  C   UNL     1      -8.803   8.316  71.559  1.00  0.00    -0.168 A  
HETATM   38  N   UNL     1      -7.686   7.497  71.727  1.00  0.00    -0.084 NA 
HETATM   39  C   UNL     1      -8.898   9.156  70.447  1.00  0.00    -0.253 A  
HETATM   40  H1  UNL     1      -6.858   7.624  71.145  1.00  0.00     0.000 HD 
HETATM   41  C   UNL     1     -10.059   9.902  70.203  1.00  0.00    -0.309 A  
HETATM   42  H2  UNL     1      -7.987   6.526  71.647  1.00  0.00     0.000 HD 
ENDBRANCH  31  34
ENDBRANCH  26  31
ENDBRANCH  25  26
ENDBRANCH  22  25
ENDBRANCH  14  22
ENDBRANCH  12  14
ENDBRANCH   9  10
ENDBRANCH   8   9
TORSDOF 11
ENDMDL
MODEL       22
REMARK 921   NORMALIZED FREE ENERGY PREDICTED BY IDOCK:   -6.68 KCAL/MOL
REMARK 922        TOTAL FREE ENERGY PREDICTED BY IDOCK:  -13.59 KCAL/MOL
REMARK 923 INTER-LIGAND FREE ENERGY PREDICTED BY IDOCK:  -11.53 KCAL/MOL
REMARK 924 INTRA-LIGAND FREE ENERGY PREDICTED BY IDOCK:   -2.07 KCAL/MOL
REMARK 927      BINDING AFFINITY PREDICTED BY RF-SCORE:    0.00 PKD
ROOT
HETATM    1  C   UNL     1      -9.229  18.651  68.071  1.00  0.00    -0.329 C  
HETATM    2  C   UNL     1     -10.506  18.412  67.285  1.00  0.00    -0.434 C  
HETATM    3  C   UNL     1     -10.784  19.732  66.591  1.00  0.00    -0.404 C  
HETATM    4  O   UNL     1      -9.700  20.618  66.868  1.00  0.00    -0.410 OA 
HETATM    5  C   UNL     1      -8.623  19.852  67.388  1.00  0.00    -0.335 C  
HETATM    6  O   UNL     1      -7.793  19.339  66.347  1.00  0.00    -0.265 OA 
HETATM    7  C   UNL     1      -7.295  18.070  66.784  1.00  0.00    -0.204 C  
HETATM    8  C   UNL     1      -8.144  17.595  67.964  1.00  0.00    -0.243 C  
ENDROOT
BRANCH   8   9
HETATM    9  O   UNL     1      -8.679  16.298  67.651  1.00  0.00    -0.180 OA 
BRANCH   9  10
HETATM   10  C   UNL     1      -8.970  15.499  68.707  1.00  0.00    -0.204 C  
HETATM   11  O   UNL     1      -8.233  15.299  69.658  1.00  0.00    -0.234 OA 
HETATM   12  N   UNL     1     -10.172  14.896  68.474  1.00  0.00    -0.228 N  
HETATM   13  H   UNL     1     -10.735  15.227  67.691  1.00  0.00     0.000 HD 
BRANCH  12  14
HETATM   14  C   UNL     1     -10.699  13.794  69.294  1.00  0.00    -0.055 C  
BRANCH  14  15
HETATM   15  C   UNL     1     -12.223  13.974  69.589  1.00  0.00    -0.383 C  
BRANCH  15  16
HETATM   16  C   UNL     1     -12.581  14.685  70.884  1.00  0.00    -0.410 A  
HETATM   17  C   UNL     1     -11.586  15.015  71.813  1.00  0.00    -0.425 A  
HETATM   18  C   UNL     1     -13.915  14.991  71.196  1.00  0.00    -0.451 A  
HETATM   19  C   UNL     1     -11.917  15.630  73.024  1.00  0.00    -0.590 A  
HETATM   20  C   UNL     1     -13.246  15.934  73.316  1.00  0.00    -0.698 A  
HETATM   21  C   UNL     1     -14.245  15.622  72.399  1.00  0.00    -0.521 A  
ENDBRANCH  15  16
ENDBRANCH  14  15
BRANCH  14  22
HETATM   22  C   UNL     1     -10.427  12.379  68.699  1.00  0.00    -0.204 C  
HETATM   23  O   UNL     1     -10.255  12.450  67.277  1.00  0.00    -0.214 OA 
HETATM   24  H   UNL     1     -10.089  11.587  66.914  1.00  0.00     0.000 HD 
BRANCH  22  25
HETATM   25  C   UNL     1     -11.389  11.237  69.082  1.00  0.00    -0.282 C  
BRANCH  25  26
HETATM   26  N   UNL     1     -11.027  10.301  70.231  1.00  0.00    -0.303 N  
BRANCH  26  27
HETATM   27  C   UNL     1     -12.251   9.524  70.713  1.00  0.00    -0.196 C  
HETATM   28  C   UNL     1     -12.911   9.913  72.053  1.00  0.00    -0.518 C  
HETATM   29  C   UNL     1     -13.481  11.330  72.079  1.00  0.00    -0.289 C  
HETATM   30  C   UNL     1     -14.071   8.942  72.344  1.00  0.00    -0.493 C  
ENDBRANCH  26  27
BRANCH  26  31
HETATM   31  S   UNL     1      -9.723   9.231  69.717  1.00  0.00    -0.202 S  
HETATM   32  O   UNL     1      -9.931   8.876  68.335  1.00  0.00    -0.166 OA 
HETATM   33  O   UNL     1      -8.489   9.850  70.165  1.00  0.00    -0.191 OA 
BRANCH  31  34
HETATM   34  C   UNL     1      -9.955   7.741  70.686  1.00  0.00    -0.186 A  
HETATM   35  C   UNL     1      -9.716   6.535  72.767  1.00  0.00    -0.166 A  
HETATM   36  C   UNL     1      -9.596   7.725  72.033  1.00  0.00    -0.217 A  
HETATM   37  C   UNL     1     -10.146   5.349  72.160  1.00  0.00    -0.190 A  
HETATM   38  N   UNL     1     -10.360   4.200  72.921  1.00  0.00    -0.167 NA 
HETATM   39  C   UNL     1     -10.581   5.405  70.833  1.00  0.00    -0.283 A  
HETATM   40  H1  UNL     1     -10.674   3.336  72.479  1.00  0.00     0.000 HD 
HETATM   41  C   UNL     1     -10.475   6.588  70.088  1.00  0.00    -0.259 A  
HETATM   42  H2  UNL     1     -11.013   4.430  73.670  1.00  0.00     0.000 HD 
ENDBRANCH  31  34
ENDBRANCH  26  31
ENDBRANCH  25  26
ENDBRANCH  22  25
ENDBRANCH  14  22
ENDBRANCH  12  14
ENDBRANCH   9  10
ENDBRANCH   8   9
TORSDOF 11
ENDMDL
MODEL       23
REMARK 921   NORMALIZED FREE ENERGY PREDICTED BY IDOCK:   -6.67 KCAL/MOL
REMARK 922        TOTAL FREE ENERGY PREDICTED BY IDOCK:  -13.58 KCAL/MOL
REMARK 923 INTER-LIGAND FREE ENERGY PREDICTED BY IDOCK:  -11.68 KCAL/MOL
REMARK 924 INTRA-LIGAND FREE ENERGY PREDICTED BY IDOCK:   -1.90 KCAL/MOL
REMARK 927      BINDING AFFINITY PREDICTED BY RF-SCORE:    0.00 PKD
ROOT
HETATM    1  C   UNL     1      -9.178  18.161  68.042  1.00  0.00    -0.285 C  
HETATM    2  C   UNL     1     -10.243  19.217  67.810  1.00  0.00    -0.492 C  
HETATM    3  C   UNL     1      -9.481  20.431  67.314  1.00  0.00    -0.431 C  
HETATM    4  O   UNL     1      -8.109  20.067  67.169  1.00  0.00    -0.294 OA 
HETATM    5  C   UNL     1      -8.020  18.650  67.208  1.00  0.00    -0.237 C  
HETATM    6  O   UNL     1      -8.195  18.076  65.913  1.00  0.00    -0.517 OA 
HETATM    7  C   UNL     1      -8.849  16.815  66.089  1.00  0.00    -0.263 C  
HETATM    8  C   UNL     1      -9.451  16.772  67.493  1.00  0.00    -0.237 C  
ENDROOT
BRANCH   8   9
HETATM    9  O   UNL     1     -10.858  16.501  67.382  1.00  0.00    -0.294 OA 
BRANCH   9  10
HETATM   10  C   UNL     1     -11.352  15.546  68.207  1.00  0.00    -0.357 C  
HETATM   11  O   UNL     1     -11.827  15.751  69.311  1.00  0.00    -0.365 OA 
HETATM   12  N   UNL     1     -11.140  14.327  67.632  1.00  0.00    -0.283 N  
HETATM   13  H   UNL     1     -10.827  14.298  66.662  1.00  0.00     0.000 HD 
BRANCH  12  14
HETATM   14  C   UNL     1     -11.341  13.051  68.337  1.00  0.00    -0.291 C  
BRANCH  14  15
HETATM   15  C   UNL     1     -12.024  11.986  67.419  1.00  0.00    -0.125 C  
BRANCH  15  16
HETATM   16  C   UNL     1     -11.678  12.049  65.940  1.00  0.00    -0.312 A  
HETATM   17  C   UNL     1     -10.560  11.367  65.441  1.00  0.00    -0.333 A  
HETATM   18  C   UNL     1     -12.444  12.819  65.050  1.00  0.00    -0.572 A  
HETATM   19  C   UNL     1     -10.215  11.457  64.090  1.00  0.00    -0.376 A  
HETATM   20  C   UNL     1     -10.989  12.220  63.217  1.00  0.00    -0.373 A  
HETATM   21  C   UNL     1     -12.109  12.895  63.696  1.00  0.00    -0.611 A  
ENDBRANCH  15  16
ENDBRANCH  14  15
BRANCH  14  22
HETATM   22  C   UNL     1     -10.039  12.467  68.966  1.00  0.00     0.158 C  
HETATM   23  O   UNL     1      -8.878  13.110  68.423  1.00  0.00    -0.230 OA 
HETATM   24  H   UNL     1      -8.085  12.754  68.807  1.00  0.00     0.000 HD 
BRANCH  22  25
HETATM   25  C   UNL     1      -9.867  10.934  68.976  1.00  0.00    -0.180 C  
BRANCH  25  26
HETATM   26  N   UNL     1     -10.066  10.163  70.277  1.00  0.00    -0.167 N  
BRANCH  26  27
HETATM   27  C   UNL     1     -11.459   9.537  70.336  1.00  0.00    -0.242 C  
HETATM   28  C   UNL     1     -12.434   9.973  71.450  1.00  0.00    -0.510 C  
HETATM   29  C   UNL     1     -12.819  11.450  71.399  1.00  0.00    -0.502 C  
HETATM   30  C   UNL     1     -13.732   9.151  71.335  1.00  0.00    -0.326 C  
ENDBRANCH  26  27
BRANCH  26  31
HETATM   31  S   UNL     1      -8.790   8.956  70.435  1.00  0.00    -0.201 S  
HETATM   32  O   UNL     1      -8.538   8.374  69.141  1.00  0.00    -0.131 OA 
HETATM   33  O   UNL     1      -7.731   9.582  71.206  1.00  0.00    -0.322 OA 
BRANCH  31  34
HETATM   34  C   UNL     1      -9.508   7.674  71.460  1.00  0.00    -0.143 A  
HETATM   35  C   UNL     1     -10.584   5.519  71.678  1.00  0.00    -0.294 A  
HETATM   36  C   UNL     1      -9.959   6.489  70.879  1.00  0.00    -0.204 A  
HETATM   37  C   UNL     1     -10.804   5.738  73.043  1.00  0.00    -0.271 A  
HETATM   38  N   UNL     1     -11.330   4.726  73.847  1.00  0.00    -0.368 NA 
HETATM   39  C   UNL     1     -10.270   6.891  73.623  1.00  0.00    -0.372 A  
HETATM   40  H1  UNL     1     -11.490   4.885  74.842  1.00  0.00     0.000 HD 
HETATM   41  C   UNL     1      -9.638   7.867  72.840  1.00  0.00    -0.329 A  
HETATM   42  H2  UNL     1     -10.741   3.899  73.748  1.00  0.00     0.000 HD 
ENDBRANCH  31  34
ENDBRANCH  26  31
ENDBRANCH  25  26
ENDBRANCH  22  25
ENDBRANCH  14  22
ENDBRANCH  12  14
ENDBRANCH   9  10
ENDBRANCH   8   9
TORSDOF 11
ENDMDL
MODEL       24
REMARK 921   NORMALIZED FREE ENERGY PREDICTED BY IDOCK:   -6.66 KCAL/MOL
REMARK 922        TOTAL FREE ENERGY PREDICTED BY IDOCK:  -13.56 KCAL/MOL
REMARK 923 INTER-LIGAND FREE ENERGY PREDICTED BY IDOCK:  -11.76 KCAL/MOL
REMARK 924 INTRA-LIGAND FREE ENERGY PREDICTED BY IDOCK:   -1.80 KCAL/MOL
REMARK 927      BINDING AFFINITY PREDICTED BY RF-SCORE:    0.00 PKD
ROOT
HETATM    1  C   UNL     1      -8.705  18.488  67.311  1.00  0.00    -0.272 C  
HETATM    2  C   UNL     1      -7.926  18.651  68.603  1.00  0.00    -0.356 C  
HETATM    3  C   UNL     1      -7.109  19.913  68.404  1.00  0.00    -0.295 C  
HETATM    4  O   UNL     1      -7.471  20.485  67.149  1.00  0.00    -0.300 OA 
HETATM    5  C   UNL     1      -8.677  19.874  66.714  1.00  0.00    -0.343 C  
HETATM    6  O   UNL     1      -9.823  20.550  67.228  1.00  0.00    -0.453 OA 
HETATM    7  C   UNL     1     -10.840  19.565  67.441  1.00  0.00    -0.414 C  
HETATM    8  C   UNL     1     -10.187  18.182  67.431  1.00  0.00    -0.372 C  
ENDROOT
BRANCH   8   9
HETATM    9  O   UNL     1     -10.504  17.515  68.664  1.00  0.00    -0.356 OA 
BRANCH   9  10
HETATM   10  C   UNL     1     -11.122  16.314  68.554  1.00  0.00    -0.368 C  
HETATM   11  O   UNL     1     -12.071  15.951  69.227  1.00  0.00    -0.329 OA 
HETATM   12  N   UNL     1     -10.445  15.562  67.638  1.00  0.00    -0.273 N  
HETATM   13  H   UNL     1      -9.730  16.019  67.071  1.00  0.00     0.000 HD 
BRANCH  12  14
HETATM   14  C   UNL     1     -10.691  14.127  67.425  1.00  0.00    -0.284 C  
BRANCH  14  15
HETATM   15  C   UNL     1      -9.957  13.600  66.150  1.00  0.00    -0.314 C  
BRANCH  15  16
HETATM   16  C   UNL     1     -10.819  12.888  65.121  1.00  0.00    -0.320 A  
HETATM   17  C   UNL     1     -10.229  12.142  64.092  1.00  0.00    -0.370 A  
HETATM   18  C   UNL     1     -12.219  12.991  65.154  1.00  0.00    -0.507 A  
HETATM   19  C   UNL     1     -11.018  11.521  63.119  1.00  0.00    -0.195 A  
HETATM   20  C   UNL     1     -12.406  11.627  63.169  1.00  0.00    -0.154 A  
HETATM   21  C   UNL     1     -13.008  12.356  64.191  1.00  0.00    -0.267 A  
ENDBRANCH  15  16
ENDBRANCH  14  15
BRANCH  14  22
HETATM   22  C   UNL     1     -10.341  13.238  68.657  1.00  0.00    -0.196 C  
HETATM   23  O   UNL     1      -8.950  13.349  68.986  1.00  0.00    -0.364 OA 
HETATM   24  H   UNL     1      -8.736  12.807  69.737  1.00  0.00     0.000 HD 
BRANCH  22  25
HETATM   25  C   UNL     1     -10.785  11.761  68.631  1.00  0.00    -0.220 C  
BRANCH  25  26
HETATM   26  N   UNL     1     -10.788  10.954  69.925  1.00  0.00    -0.200 N  
BRANCH  26  27
HETATM   27  C   UNL     1     -12.133  10.259  70.136  1.00  0.00    -0.202 C  
HETATM   28  C   UNL     1     -12.810  10.336  71.522  1.00  0.00    -0.557 C  
HETATM   29  C   UNL     1     -13.181  11.751  71.958  1.00  0.00    -0.460 C  
HETATM   30  C   UNL     1     -14.106   9.504  71.496  1.00  0.00    -0.069 C  
ENDBRANCH  26  27
BRANCH  26  31
HETATM   31  S   UNL     1      -9.449   9.806  69.894  1.00  0.00    -0.223 S  
HETATM   32  O   UNL     1      -8.311  10.437  69.273  1.00  0.00    -0.148 OA 
HETATM   33  O   UNL     1      -9.369   9.239  71.227  1.00  0.00    -0.240 OA 
BRANCH  31  34
HETATM   34  C   UNL     1      -9.998   8.504  68.792  1.00  0.00    -0.186 A  
HETATM   35  C   UNL     1     -11.002   6.332  68.449  1.00  0.00    -0.409 A  
HETATM   36  C   UNL     1     -10.638   7.379  69.310  1.00  0.00    -0.220 A  
HETATM   37  C   UNL     1     -10.694   6.376  67.084  1.00  0.00    -0.361 A  
HETATM   38  N   UNL     1     -11.152   5.380  66.221  1.00  0.00    -0.743 NA 
HETATM   39  C   UNL     1     -10.129   7.546  66.571  1.00  0.00    -0.194 A  
HETATM   40  H1  UNL     1     -10.927   5.411  65.227  1.00  0.00     0.000 HD 
HETATM   41  C   UNL     1      -9.766   8.603  67.416  1.00  0.00    -0.227 A  
HETATM   42  H2  UNL     1     -12.165   5.315  66.317  1.00  0.00     0.000 HD 
ENDBRANCH  31  34
ENDBRANCH  26  31
ENDBRANCH  25  26
ENDBRANCH  22  25
ENDBRANCH  14  22
ENDBRANCH  12  14
ENDBRANCH   9  10
ENDBRANCH   8   9
TORSDOF 11
ENDMDL
MODEL       25
REMARK 921   NORMALIZED FREE ENERGY PREDICTED BY IDOCK:   -6.64 KCAL/MOL
REMARK 922        TOTAL FREE ENERGY PREDICTED BY IDOCK:  -13.54 KCAL/MOL
REMARK 923 INTER-LIGAND FREE ENERGY PREDICTED BY IDOCK:  -11.73 KCAL/MOL
REMARK 924 INTRA-LIGAND FREE ENERGY PREDICTED BY IDOCK:   -1.81 KCAL/MOL
REMARK 927      BINDING AFFINITY PREDICTED BY RF-SCORE:    0.00 PKD
ROOT
HETATM    1  C   UNL     1     -13.185  15.485  71.365  1.00  0.00    -0.587 C  
HETATM    2  C   UNL     1     -11.951  16.014  72.073  1.00  0.00    -0.622 C  
HETATM    3  C   UNL     1     -12.446  16.448  73.439  1.00  0.00    -0.432 C  
HETATM    4  O   UNL     1     -13.824  16.097  73.546  1.00  0.00    -0.509 OA 
HETATM    5  C   UNL     1     -14.132  15.185  72.501  1.00  0.00    -0.439 C  
HETATM    6  O   UNL     1     -13.872  13.837  72.887  1.00  0.00    -0.668 OA 
HETATM    7  C   UNL     1     -13.447  13.131  71.717  1.00  0.00    -0.335 C  
HETATM    8  C   UNL     1     -13.054  14.153  70.650  1.00  0.00    -0.151 C  
ENDROOT
BRANCH   8   9
HETATM    9  O   UNL     1     -11.703  13.891  70.237  1.00  0.00    -0.277 OA 
BRANCH   9  10
HETATM   10  C   UNL     1     -11.432  14.070  68.921  1.00  0.00    -0.294 C  
HETATM   11  O   UNL     1     -12.238  13.942  68.016  1.00  0.00    -0.326 OA 
HETATM   12  N   UNL     1     -10.097  14.320  68.786  1.00  0.00    -0.263 N  
HETATM   13  H   UNL     1      -9.552  14.503  69.628  1.00  0.00     0.000 HD 
BRANCH  12  14
HETATM   14  C   UNL     1      -9.404  14.343  67.488  1.00  0.00    -0.198 C  
BRANCH  14  15
HETATM   15  C   UNL     1      -8.300  15.449  67.444  1.00  0.00    -0.204 C  
BRANCH  15  16
HETATM   16  C   UNL     1      -8.775  16.866  67.167  1.00  0.00    -0.219 A  
HETATM   17  C   UNL     1      -7.882  17.835  66.693  1.00  0.00    -0.277 A  
HETATM   18  C   UNL     1     -10.104  17.244  67.414  1.00  0.00    -0.307 A  
HETATM   19  C   UNL     1      -8.305  19.150  66.477  1.00  0.00    -0.324 A  
HETATM   20  C   UNL     1      -9.630  19.509  66.720  1.00  0.00    -0.447 A  
HETATM   21  C   UNL     1     -10.532  18.554  67.182  1.00  0.00    -0.446 A  
ENDBRANCH  15  16
ENDBRANCH  14  15
BRANCH  14  22
HETATM   22  C   UNL     1      -8.805  12.965  67.070  1.00  0.00    -0.208 C  
HETATM   23  O   UNL     1      -9.328  12.547  65.801  1.00  0.00    -0.434 OA 
HETATM   24  H   UNL     1      -8.963  11.708  65.546  1.00  0.00     0.000 HD 
BRANCH  22  25
HETATM   25  C   UNL     1      -8.857  11.813  68.094  1.00  0.00    -0.169 C  
BRANCH  25  26
HETATM   26  N   UNL     1      -8.794  10.369  67.606  1.00  0.00    -0.125 N  
BRANCH  26  27
HETATM   27  C   UNL     1      -7.890   9.526  68.504  1.00  0.00    -0.085 C  
HETATM   28  C   UNL     1      -6.488   9.125  67.997  1.00  0.00    -0.059 C  
HETATM   29  C   UNL     1      -5.557  10.307  67.735  1.00  0.00    -0.041 C  
HETATM   30  C   UNL     1      -5.810   8.225  69.048  1.00  0.00    -0.039 C  
ENDBRANCH  26  27
BRANCH  26  31
HETATM   31  S   UNL     1     -10.430   9.718  67.514  1.00  0.00    -0.262 S  
HETATM   32  O   UNL     1     -11.350  10.803  67.283  1.00  0.00    -0.397 OA 
HETATM   33  O   UNL     1     -10.363   8.576  66.620  1.00  0.00    -0.298 OA 
BRANCH  31  34
HETATM   34  C   UNL     1     -10.756   9.088  69.160  1.00  0.00    -0.157 A  
HETATM   35  C   UNL     1     -11.322   9.473  71.479  1.00  0.00    -0.456 A  
HETATM   36  C   UNL     1     -11.136   9.964  70.177  1.00  0.00    -0.353 A  
HETATM   37  C   UNL     1     -11.089   8.128  71.786  1.00  0.00    -0.270 A  
HETATM   38  N   UNL     1     -11.377   7.631  73.058  1.00  0.00    -0.581 NA 
HETATM   39  C   UNL     1     -10.792   7.252  70.740  1.00  0.00    -0.260 A  
HETATM   40  H1  UNL     1     -11.208   6.650  73.282  1.00  0.00     0.000 HD 
HETATM   41  C   UNL     1     -10.610   7.724  69.433  1.00  0.00    -0.211 A  
HETATM   42  H2  UNL     1     -12.353   7.843  73.270  1.00  0.00     0.000 HD 
ENDBRANCH  31  34
ENDBRANCH  26  31
ENDBRANCH  25  26
ENDBRANCH  22  25
ENDBRANCH  14  22
ENDBRANCH  12  14
ENDBRANCH   9  10
ENDBRANCH   8   9
TORSDOF 11
ENDMDL
MODEL       26
REMARK 921   NORMALIZED FREE ENERGY PREDICTED BY IDOCK:   -6.59 KCAL/MOL
REMARK 922        TOTAL FREE ENERGY PREDICTED BY IDOCK:  -13.46 KCAL/MOL
REMARK 923 INTER-LIGAND FREE ENERGY PREDICTED BY IDOCK:  -11.80 KCAL/MOL
REMARK 924 INTRA-LIGAND FREE ENERGY PREDICTED BY IDOCK:   -1.66 KCAL/MOL
REMARK 927      BINDING AFFINITY PREDICTED BY RF-SCORE:    0.00 PKD
ROOT
HETATM    1  C   UNL     1     -10.454  18.299  67.671  1.00  0.00    -0.431 C  
HETATM    2  C   UNL     1     -10.530  18.291  66.155  1.00  0.00    -0.403 C  
HETATM    3  C   UNL     1     -10.361  19.743  65.753  1.00  0.00    -0.423 C  
HETATM    4  O   UNL     1     -10.099  20.504  66.931  1.00  0.00    -0.427 OA 
HETATM    5  C   UNL     1      -9.759  19.603  67.975  1.00  0.00    -0.396 C  
HETATM    6  O   UNL     1      -8.361  19.314  67.984  1.00  0.00    -0.295 OA 
HETATM    7  C   UNL     1      -8.207  17.963  68.430  1.00  0.00    -0.300 C  
HETATM    8  C   UNL     1      -9.560  17.259  68.324  1.00  0.00    -0.288 C  
ENDROOT
BRANCH   8   9
HETATM    9  O   UNL     1      -9.406  16.088  67.506  1.00  0.00    -0.214 OA 
BRANCH   9  10
HETATM   10  C   UNL     1      -9.715  14.904  68.089  1.00  0.00    -0.214 C  
HETATM   11  O   UNL     1     -10.273  14.778  69.165  1.00  0.00    -0.233 OA 
HETATM   12  N   UNL     1      -9.213  13.898  67.315  1.00  0.00    -0.224 N  
HETATM   13  H   UNL     1      -8.856  14.133  66.389  1.00  0.00     0.000 HD 
BRANCH  12  14
HETATM   14  C   UNL     1      -9.159  12.492  67.747  1.00  0.00    -0.191 C  
BRANCH  14  15
HETATM   15  C   UNL     1     -10.365  11.671  67.185  1.00  0.00    -0.247 C  
BRANCH  15  16
HETATM   16  C   UNL     1     -11.002  12.195  65.908  1.00  0.00    -0.332 A  
HETATM   17  C   UNL     1     -12.029  13.145  65.964  1.00  0.00    -0.488 A  
HETATM   18  C   UNL     1     -10.604  11.713  64.651  1.00  0.00    -0.366 A  
HETATM   19  C   UNL     1     -12.646  13.598  64.794  1.00  0.00    -0.339 A  
HETATM   20  C   UNL     1     -12.236  13.115  63.552  1.00  0.00    -0.552 A  
HETATM   21  C   UNL     1     -11.209  12.178  63.480  1.00  0.00    -0.536 A  
ENDBRANCH  15  16
ENDBRANCH  14  15
BRANCH  14  22
HETATM   22  C   UNL     1      -7.815  11.779  67.408  1.00  0.00    -0.155 C  
HETATM   23  O   UNL     1      -7.804  11.335  66.044  1.00  0.00    -0.336 OA 
HETATM   24  H   UNL     1      -6.985  10.901  65.837  1.00  0.00     0.000 HD 
BRANCH  22  25
HETATM   25  C   UNL     1      -7.330  10.663  68.355  1.00  0.00    -0.091 C  
BRANCH  25  26
HETATM   26  N   UNL     1      -8.280   9.531  68.732  1.00  0.00    -0.110 N  
BRANCH  26  27
HETATM   27  C   UNL     1      -8.171   8.371  67.743  1.00  0.00    -0.126 C  
HETATM   28  C   UNL     1      -9.411   7.491  67.475  1.00  0.00    -0.157 C  
HETATM   29  C   UNL     1     -10.588   8.244  66.858  1.00  0.00    -0.302 C  
HETATM   30  C   UNL     1      -9.025   6.359  66.504  1.00  0.00    -0.153 C  
ENDBRANCH  26  27
BRANCH  26  31
HETATM   31  S   UNL     1      -7.945   9.022  70.387  1.00  0.00    -0.146 S  
HETATM   32  O   UNL     1      -7.386   7.694  70.361  1.00  0.00    -0.068 OA 
HETATM   33  O   UNL     1      -7.248  10.128  71.019  1.00  0.00    -0.233 OA 
BRANCH  31  34
HETATM   34  C   UNL     1      -9.559   8.901  71.156  1.00  0.00    -0.272 A  
HETATM   35  C   UNL     1     -11.829   9.696  71.404  1.00  0.00    -0.484 A  
HETATM   36  C   UNL     1     -10.589   9.750  70.749  1.00  0.00    -0.371 A  
HETATM   37  C   UNL     1     -12.039   8.838  72.489  1.00  0.00    -0.250 A  
HETATM   38  N   UNL     1     -13.305   8.718  73.064  1.00  0.00    -0.903 NA 
HETATM   39  C   UNL     1     -11.026   7.938  72.826  1.00  0.00    -0.456 A  
HETATM   40  H1  UNL     1     -13.458   8.092  73.855  1.00  0.00     0.000 HD 
HETATM   41  C   UNL     1      -9.783   7.973  72.178  1.00  0.00    -0.283 A  
HETATM   42  H2  UNL     1     -13.968   8.471  72.329  1.00  0.00     0.000 HD 
ENDBRANCH  31  34
ENDBRANCH  26  31
ENDBRANCH  25  26
ENDBRANCH  22  25
ENDBRANCH  14  22
ENDBRANCH  12  14
ENDBRANCH   9  10
ENDBRANCH   8   9
TORSDOF 11
ENDMDL
MODEL       27
REMARK 921   NORMALIZED FREE ENERGY PREDICTED BY IDOCK:   -6.59 KCAL/MOL
REMARK 922        TOTAL FREE ENERGY PREDICTED BY IDOCK:  -13.46 KCAL/MOL
REMARK 923 INTER-LIGAND FREE ENERGY PREDICTED BY IDOCK:  -12.72 KCAL/MOL
REMARK 924 INTRA-LIGAND FREE ENERGY PREDICTED BY IDOCK:   -0.74 KCAL/MOL
REMARK 927      BINDING AFFINITY PREDICTED BY RF-SCORE:    0.00 PKD
ROOT
HETATM    1  C   UNL     1     -11.303   9.306  71.521  1.00  0.00    -0.455 C  
HETATM    2  C   UNL     1     -10.883   8.173  70.603  1.00  0.00    -0.246 C  
HETATM    3  C   UNL     1     -11.680   6.974  71.080  1.00  0.00    -0.333 C  
HETATM    4  O   UNL     1     -12.564   7.409  72.112  1.00  0.00    -0.247 OA 
HETATM    5  C   UNL     1     -12.621   8.827  72.079  1.00  0.00    -0.385 C  
HETATM    6  O   UNL     1     -13.625   9.292  71.176  1.00  0.00    -0.292 OA 
HETATM    7  C   UNL     1     -13.156  10.520  70.611  1.00  0.00    -0.206 C  
HETATM    8  C   UNL     1     -11.653  10.631  70.869  1.00  0.00    -0.217 C  
ENDROOT
BRANCH   8   9
HETATM    9  O   UNL     1     -10.983  10.808  69.610  1.00  0.00    -0.243 OA 
BRANCH   9  10
HETATM   10  C   UNL     1     -11.357  11.886  68.877  1.00  0.00    -0.278 C  
HETATM   11  O   UNL     1     -12.019  11.842  67.855  1.00  0.00    -0.575 OA 
HETATM   12  N   UNL     1     -10.791  12.999  69.427  1.00  0.00    -0.444 N  
HETATM   13  H   UNL     1     -10.344  12.913  70.340  1.00  0.00     0.000 HD 
BRANCH  12  14
HETATM   14  C   UNL     1     -10.791  14.317  68.772  1.00  0.00    -0.253 C  
BRANCH  14  15
HETATM   15  C   UNL     1     -11.962  15.215  69.287  1.00  0.00    -0.322 C  
BRANCH  15  16
HETATM   16  C   UNL     1     -12.297  15.106  70.766  1.00  0.00    -0.415 A  
HETATM   17  C   UNL     1     -13.238  14.171  71.216  1.00  0.00    -0.399 A  
HETATM   18  C   UNL     1     -11.702  15.961  71.707  1.00  0.00    -0.575 A  
HETATM   19  C   UNL     1     -13.578  14.097  72.569  1.00  0.00    -0.644 A  
HETATM   20  C   UNL     1     -12.974  14.948  73.493  1.00  0.00    -0.518 A  
HETATM   21  C   UNL     1     -12.030  15.876  73.063  1.00  0.00    -0.596 A  
ENDBRANCH  15  16
ENDBRANCH  14  15
BRANCH  14  22
HETATM   22  C   UNL     1      -9.436  15.078  68.887  1.00  0.00    -0.211 C  
HETATM   23  O   UNL     1      -8.680  14.606  70.011  1.00  0.00    -0.171 OA 
HETATM   24  H   UNL     1      -7.854  15.070  70.080  1.00  0.00     0.000 HD 
BRANCH  22  25
HETATM   25  C   UNL     1      -9.468  16.620  68.852  1.00  0.00    -0.251 C  
BRANCH  25  26
HETATM   26  N   UNL     1      -9.140  17.350  67.554  1.00  0.00    -0.231 N  
BRANCH  26  27
HETATM   27  C   UNL     1      -8.354  18.632  67.829  1.00  0.00    -0.267 C  
HETATM   28  C   UNL     1      -8.386  19.772  66.788  1.00  0.00    -0.354 C  
HETATM   29  C   UNL     1      -9.773  20.366  66.556  1.00  0.00    -0.449 C  
HETATM   30  C   UNL     1      -7.467  20.914  67.263  1.00  0.00    -0.345 C  
ENDBRANCH  26  27
BRANCH  26  31
HETATM   31  S   UNL     1      -8.266  16.257  66.480  1.00  0.00    -0.314 S  
HETATM   32  O   UNL     1      -7.578  17.038  65.482  1.00  0.00     0.029 OA 
HETATM   33  O   UNL     1      -7.556  15.326  67.338  1.00  0.00    -0.167 OA 
BRANCH  31  34
HETATM   34  C   UNL     1      -9.550  15.333  65.637  1.00  0.00    -0.278 A  
HETATM   35  C   UNL     1     -11.684  15.264  64.504  1.00  0.00    -0.306 A  
HETATM   36  C   UNL     1     -10.649  16.002  65.100  1.00  0.00    -0.394 A  
HETATM   37  C   UNL     1     -11.654  13.866  64.477  1.00  0.00    -0.393 A  
HETATM   38  N   UNL     1     -12.635  13.148  63.790  1.00  0.00    -0.716 NA 
HETATM   39  C   UNL     1     -10.507  13.219  64.943  1.00  0.00    -0.387 A  
HETATM   40  H1  UNL     1     -12.613  12.129  63.770  1.00  0.00     0.000 HD 
HETATM   41  C   UNL     1      -9.462  13.941  65.536  1.00  0.00     0.129 A  
HETATM   42  H2  UNL     1     -12.662  13.485  62.827  1.00  0.00     0.000 HD 
ENDBRANCH  31  34
ENDBRANCH  26  31
ENDBRANCH  25  26
ENDBRANCH  22  25
ENDBRANCH  14  22
ENDBRANCH  12  14
ENDBRANCH   9  10
ENDBRANCH   8   9
TORSDOF 11
ENDMDL
MODEL       28
REMARK 921   NORMALIZED FREE ENERGY PREDICTED BY IDOCK:   -6.57 KCAL/MOL
REMARK 922        TOTAL FREE ENERGY PREDICTED BY IDOCK:  -13.41 KCAL/MOL
REMARK 923 INTER-LIGAND FREE ENERGY PREDICTED BY IDOCK:  -10.31 KCAL/MOL
REMARK 924 INTRA-LIGAND FREE ENERGY PREDICTED BY IDOCK:   -3.11 KCAL/MOL
REMARK 927      BINDING AFFINITY PREDICTED BY RF-SCORE:    0.00 PKD
ROOT
HETATM    1  C   UNL     1     -12.964  15.523  71.233  1.00  0.00    -0.565 C  
HETATM    2  C   UNL     1     -11.701  16.087  71.857  1.00  0.00    -0.594 C  
HETATM    3  C   UNL     1     -12.086  16.405  73.289  1.00  0.00    -0.457 C  
HETATM    4  O   UNL     1     -13.425  15.959  73.499  1.00  0.00    -0.497 OA 
HETATM    5  C   UNL     1     -13.778  15.094  72.429  1.00  0.00    -0.496 C  
HETATM    6  O   UNL     1     -13.404  13.744  72.699  1.00  0.00    -0.526 OA 
HETATM    7  C   UNL     1     -13.052  13.140  71.450  1.00  0.00    -0.266 C  
HETATM    8  C   UNL     1     -12.825  14.248  70.421  1.00  0.00    -0.218 C  
ENDROOT
BRANCH   8   9
HETATM    9  O   UNL     1     -11.507  14.099  69.869  1.00  0.00    -0.262 OA 
BRANCH   9  10
HETATM   10  C   UNL     1     -11.353  13.129  68.934  1.00  0.00    -0.289 C  
HETATM   11  O   UNL     1     -12.089  12.957  67.978  1.00  0.00    -0.311 OA 
HETATM   12  N   UNL     1     -10.304  12.338  69.302  1.00  0.00    -0.402 N  
HETATM   13  H   UNL     1      -9.708  12.650  70.068  1.00  0.00     0.000 HD 
BRANCH  12  14
HETATM   14  C   UNL     1      -9.987  11.058  68.649  1.00  0.00    -0.199 C  
BRANCH  14  15
HETATM   15  C   UNL     1      -8.476  10.689  68.810  1.00  0.00    -0.149 C  
BRANCH  15  16
HETATM   16  C   UNL     1      -7.971   9.532  67.963  1.00  0.00    -0.091 A  
HETATM   17  C   UNL     1      -7.891   9.651  66.570  1.00  0.00    -0.108 A  
HETATM   18  C   UNL     1      -7.609   8.309  68.551  1.00  0.00    -0.100 A  
HETATM   19  C   UNL     1      -7.467   8.576  65.785  1.00  0.00    -0.081 A  
HETATM   20  C   UNL     1      -7.105   7.370  66.383  1.00  0.00    -0.074 A  
HETATM   21  C   UNL     1      -7.168   7.239  67.768  1.00  0.00    -0.091 A  
ENDBRANCH  15  16
ENDBRANCH  14  15
BRANCH  14  22
HETATM   22  C   UNL     1     -10.885   9.872  69.117  1.00  0.00    -0.221 C  
HETATM   23  O   UNL     1     -12.229  10.033  68.642  1.00  0.00    -0.243 OA 
HETATM   24  H   UNL     1     -12.776   9.311  68.927  1.00  0.00     0.000 HD 
BRANCH  22  25
HETATM   25  C   UNL     1     -10.870   9.500  70.613  1.00  0.00    -0.306 C  
BRANCH  25  26
HETATM   26  N   UNL     1     -10.117   8.255  71.072  1.00  0.00    -0.187 N  
BRANCH  26  27
HETATM   27  C   UNL     1      -9.548   8.444  72.478  1.00  0.00    -0.288 C  
HETATM   28  C   UNL     1      -8.163   7.853  72.815  1.00  0.00    -0.194 C  
HETATM   29  C   UNL     1      -7.017   8.441  71.995  1.00  0.00    -0.100 C  
HETATM   30  C   UNL     1      -7.851   8.116  74.301  1.00  0.00    -0.291 C  
ENDBRANCH  26  27
BRANCH  26  31
HETATM   31  S   UNL     1     -11.191   6.861  70.974  1.00  0.00    -0.299 S  
HETATM   32  O   UNL     1     -10.875   5.954  72.050  1.00  0.00    -0.233 OA 
HETATM   33  O   UNL     1     -12.531   7.392  70.798  1.00  0.00    -0.218 OA 
BRANCH  31  34
HETATM   34  C   UNL     1     -10.735   6.046  69.445  1.00  0.00    -0.334 A  
HETATM   35  C   UNL     1      -9.534   4.305  68.274  1.00  0.00    -0.212 A  
HETATM   36  C   UNL     1      -9.946   4.897  69.478  1.00  0.00    -0.295 A  
HETATM   37  C   UNL     1      -9.864   4.872  67.038  1.00  0.00    -0.193 A  
HETATM   38  N   UNL     1      -9.540   4.220  65.848  1.00  0.00    -0.174 NA 
HETATM   39  C   UNL     1     -10.724   5.973  67.024  1.00  0.00    -0.412 A  
HETATM   40  H1  UNL     1      -9.780   4.633  64.947  1.00  0.00     0.000 HD 
HETATM   41  C   UNL     1     -11.150   6.572  68.217  1.00  0.00    -0.332 A  
HETATM   42  H2  UNL     1      -9.933   3.279  65.882  1.00  0.00     0.000 HD 
ENDBRANCH  31  34
ENDBRANCH  26  31
ENDBRANCH  25  26
ENDBRANCH  22  25
ENDBRANCH  14  22
ENDBRANCH  12  14
ENDBRANCH   9  10
ENDBRANCH   8   9
TORSDOF 11
ENDMDL
MODEL       29
REMARK 921   NORMALIZED FREE ENERGY PREDICTED BY IDOCK:   -6.57 KCAL/MOL
REMARK 922        TOTAL FREE ENERGY PREDICTED BY IDOCK:  -13.41 KCAL/MOL
REMARK 923 INTER-LIGAND FREE ENERGY PREDICTED BY IDOCK:  -10.81 KCAL/MOL
REMARK 924 INTRA-LIGAND FREE ENERGY PREDICTED BY IDOCK:   -2.60 KCAL/MOL
REMARK 927      BINDING AFFINITY PREDICTED BY RF-SCORE:    0.00 PKD
ROOT
HETATM    1  C   UNL     1     -10.771  13.351  64.785  1.00  0.00    -0.403 C  
HETATM    2  C   UNL     1     -11.520  13.199  66.097  1.00  0.00    -0.366 C  
HETATM    3  C   UNL     1     -12.800  13.988  65.903  1.00  0.00    -0.311 C  
HETATM    4  O   UNL     1     -12.833  14.462  64.558  1.00  0.00    -0.634 OA 
HETATM    5  C   UNL     1     -11.854  13.752  63.814  1.00  0.00    -0.262 C  
HETATM    6  O   UNL     1     -12.378  12.535  63.282  1.00  0.00    -0.559 OA 
HETATM    7  C   UNL     1     -11.311  11.582  63.265  1.00  0.00    -0.109 C  
HETATM    8  C   UNL     1     -10.189  12.091  64.171  1.00  0.00    -0.339 C  
ENDROOT
BRANCH   8   9
HETATM    9  O   UNL     1      -9.906  11.088  65.160  1.00  0.00    -0.233 OA 
BRANCH   9  10
HETATM   10  C   UNL     1      -8.650  11.086  65.670  1.00  0.00    -0.130 C  
HETATM   11  O   UNL     1      -7.806  10.234  65.450  1.00  0.00    -0.141 OA 
HETATM   12  N   UNL     1      -8.532  12.137  66.532  1.00  0.00    -0.380 N  
HETATM   13  H   UNL     1      -9.277  12.834  66.548  1.00  0.00     0.000 HD 
BRANCH  12  14
HETATM   14  C   UNL     1      -7.388  12.319  67.438  1.00  0.00    -0.151 C  
BRANCH  14  15
HETATM   15  C   UNL     1      -7.064  13.832  67.661  1.00  0.00    -0.187 C  
BRANCH  15  16
HETATM   16  C   UNL     1      -8.249  14.784  67.653  1.00  0.00    -0.187 A  
HETATM   17  C   UNL     1      -9.166  14.787  68.712  1.00  0.00    -0.196 A  
HETATM   18  C   UNL     1      -8.472  15.652  66.572  1.00  0.00    -0.311 A  
HETATM   19  C   UNL     1     -10.280  15.631  68.688  1.00  0.00    -0.212 A  
HETATM   20  C   UNL     1     -10.485  16.492  67.611  1.00  0.00    -0.305 A  
HETATM   21  C   UNL     1      -9.577  16.508  66.556  1.00  0.00    -0.292 A  
ENDBRANCH  15  16
ENDBRANCH  14  15
BRANCH  14  22
HETATM   22  C   UNL     1      -7.547  11.593  68.809  1.00  0.00    -0.119 C  
HETATM   23  O   UNL     1      -6.839  12.294  69.841  1.00  0.00    -0.353 OA 
HETATM   24  H   UNL     1      -6.937  11.852  70.676  1.00  0.00     0.000 HD 
BRANCH  22  25
HETATM   25  C   UNL     1      -7.249  10.081  68.865  1.00  0.00    -0.077 C  
BRANCH  25  26
HETATM   26  N   UNL     1      -8.383   9.101  69.147  1.00  0.00    -0.120 N  
BRANCH  26  27
HETATM   27  C   UNL     1      -8.343   7.921  68.177  1.00  0.00    -0.124 C  
HETATM   28  C   UNL     1      -9.669   7.270  67.729  1.00  0.00    -0.167 C  
HETATM   29  C   UNL     1     -10.593   8.206  66.954  1.00  0.00    -0.311 C  
HETATM   30  C   UNL     1      -9.357   6.068  66.816  1.00  0.00    -0.148 C  
ENDBRANCH  26  27
BRANCH  26  31
HETATM   31  S   UNL     1      -8.290   8.578  70.829  1.00  0.00    -0.154 S  
HETATM   32  O   UNL     1      -7.990   7.168  70.862  1.00  0.00    -0.095 OA 
HETATM   33  O   UNL     1      -7.453   9.549  71.511  1.00  0.00    -0.303 OA 
BRANCH  31  34
HETATM   34  C   UNL     1      -9.957   8.778  71.455  1.00  0.00    -0.300 A  
HETATM   35  C   UNL     1     -11.739   8.085  72.935  1.00  0.00    -0.222 A  
HETATM   36  C   UNL     1     -10.410   7.970  72.497  1.00  0.00    -0.374 A  
HETATM   37  C   UNL     1     -12.633   8.966  72.315  1.00  0.00    -0.385 A  
HETATM   38  N   UNL     1     -13.919   9.148  72.824  1.00  0.00    -0.969 NA 
HETATM   39  C   UNL     1     -12.138   9.826  71.331  1.00  0.00    -0.486 A  
HETATM   40  H1  UNL     1     -14.570   9.789  72.373  1.00  0.00     0.000 HD 
HETATM   41  C   UNL     1     -10.812   9.729  70.887  1.00  0.00    -0.399 A  
HETATM   42  H2  UNL     1     -13.839   9.413  73.806  1.00  0.00     0.000 HD 
ENDBRANCH  31  34
ENDBRANCH  26  31
ENDBRANCH  25  26
ENDBRANCH  22  25
ENDBRANCH  14  22
ENDBRANCH  12  14
ENDBRANCH   9  10
ENDBRANCH   8   9
TORSDOF 11
ENDMDL
MODEL       30
REMARK 921   NORMALIZED FREE ENERGY PREDICTED BY IDOCK:   -6.56 KCAL/MOL
REMARK 922        TOTAL FREE ENERGY PREDICTED BY IDOCK:  -13.41 KCAL/MOL
REMARK 923 INTER-LIGAND FREE ENERGY PREDICTED BY IDOCK:  -11.04 KCAL/MOL
REMARK 924 INTRA-LIGAND FREE ENERGY PREDICTED BY IDOCK:   -2.37 KCAL/MOL
REMARK 927      BINDING AFFINITY PREDICTED BY RF-SCORE:    0.00 PKD
ROOT
HETATM    1  C   UNL     1      -8.756  18.509  67.239  1.00  0.00    -0.272 C  
HETATM    2  C   UNL     1      -8.071  18.658  68.586  1.00  0.00    -0.352 C  
HETATM    3  C   UNL     1      -7.268  19.939  68.469  1.00  0.00    -0.296 C  
HETATM    4  O   UNL     1      -7.554  20.531  67.203  1.00  0.00    -0.309 OA 
HETATM    5  C   UNL     1      -8.715  19.907  66.674  1.00  0.00    -0.349 C  
HETATM    6  O   UNL     1      -9.907  20.550  67.121  1.00  0.00    -0.454 OA 
HETATM    7  C   UNL     1     -10.916  19.543  67.244  1.00  0.00    -0.341 C  
HETATM    8  C   UNL     1     -10.237  18.173  67.250  1.00  0.00    -0.367 C  
ENDROOT
BRANCH   8   9
HETATM    9  O   UNL     1     -10.624  17.474  68.445  1.00  0.00    -0.370 OA 
BRANCH   9  10
HETATM   10  C   UNL     1     -10.943  16.165  68.297  1.00  0.00    -0.340 C  
HETATM   11  O   UNL     1     -11.974  15.646  68.689  1.00  0.00    -0.336 OA 
HETATM   12  N   UNL     1      -9.882  15.524  67.726  1.00  0.00    -0.213 N  
HETATM   13  H   UNL     1      -9.120  16.090  67.352  1.00  0.00     0.000 HD 
BRANCH  12  14
HETATM   14  C   UNL     1      -9.779  14.060  67.621  1.00  0.00    -0.228 C  
BRANCH  14  15
HETATM   15  C   UNL     1      -9.353  13.615  66.184  1.00  0.00    -0.093 C  
BRANCH  15  16
HETATM   16  C   UNL     1     -10.447  13.024  65.309  1.00  0.00    -0.318 A  
HETATM   17  C   UNL     1     -10.120  12.284  64.165  1.00  0.00    -0.329 A  
HETATM   18  C   UNL     1     -11.803  13.236  65.604  1.00  0.00    -0.419 A  
HETATM   19  C   UNL     1     -11.123  11.776  63.335  1.00  0.00    -0.448 A  
HETATM   20  C   UNL     1     -12.465  11.989  63.644  1.00  0.00    -0.637 A  
HETATM   21  C   UNL     1     -12.806  12.713  64.783  1.00  0.00    -0.349 A  
ENDBRANCH  15  16
ENDBRANCH  14  15
BRANCH  14  22
HETATM   22  C   UNL     1      -8.841  13.416  68.686  1.00  0.00     0.020 C  
HETATM   23  O   UNL     1      -8.072  14.420  69.363  1.00  0.00    -0.357 OA 
HETATM   24  H   UNL     1      -7.501  14.028  70.012  1.00  0.00     0.000 HD 
BRANCH  22  25
HETATM   25  C   UNL     1      -7.945  12.241  68.244  1.00  0.00    -0.163 C  
BRANCH  25  26
HETATM   26  N   UNL     1      -8.517  10.827  68.217  1.00  0.00    -0.125 N  
BRANCH  26  27
HETATM   27  C   UNL     1      -8.286  10.168  66.857  1.00  0.00    -0.122 C  
HETATM   28  C   UNL     1      -9.138   8.942  66.461  1.00  0.00    -0.206 C  
HETATM   29  C   UNL     1     -10.634   9.230  66.355  1.00  0.00    -0.037 C  
HETATM   30  C   UNL     1      -8.667   8.425  65.088  1.00  0.00    -0.118 C  
ENDBRANCH  26  27
BRANCH  26  31
HETATM   31  S   UNL     1      -7.811   9.892  69.534  1.00  0.00    -0.157 S  
HETATM   32  O   UNL     1      -7.241   8.683  68.993  1.00  0.00    -0.070 OA 
HETATM   33  O   UNL     1      -7.016  10.823  70.313  1.00  0.00    -0.233 OA 
BRANCH  31  34
HETATM   34  C   UNL     1      -9.210   9.410  70.545  1.00  0.00    -0.259 A  
HETATM   35  C   UNL     1     -10.116   8.207  72.436  1.00  0.00    -0.355 A  
HETATM   36  C   UNL     1      -9.009   8.638  71.689  1.00  0.00    -0.305 A  
HETATM   37  C   UNL     1     -11.423   8.499  72.030  1.00  0.00    -0.361 A  
HETATM   38  N   UNL     1     -12.510   8.155  72.834  1.00  0.00    -0.653 NA 
HETATM   39  C   UNL     1     -11.601   9.342  70.931  1.00  0.00    -0.380 A  
HETATM   40  H1  UNL     1     -13.462   8.367  72.538  1.00  0.00     0.000 HD 
HETATM   41  C   UNL     1     -10.506   9.788  70.178  1.00  0.00    -0.338 A  
HETATM   42  H2  UNL     1     -12.365   8.562  73.758  1.00  0.00     0.000 HD 
ENDBRANCH  31  34
ENDBRANCH  26  31
ENDBRANCH  25  26
ENDBRANCH  22  25
ENDBRANCH  14  22
ENDBRANCH  12  14
ENDBRANCH   9  10
ENDBRANCH   8   9
TORSDOF 11
ENDMDL
MODEL       31
REMARK 921   NORMALIZED FREE ENERGY PREDICTED BY IDOCK:   -6.55 KCAL/MOL
REMARK 922        TOTAL FREE ENERGY PREDICTED BY IDOCK:  -13.39 KCAL/MOL
REMARK 923 INTER-LIGAND FREE ENERGY PREDICTED BY IDOCK:  -12.20 KCAL/MOL
REMARK 924 INTRA-LIGAND FREE ENERGY PREDICTED BY IDOCK:   -1.18 KCAL/MOL
REMARK 927      BINDING AFFINITY PREDICTED BY RF-SCORE:    0.00 PKD
ROOT
HETATM    1  C   UNL     1     -11.104   9.388  71.742  1.00  0.00    -0.325 C  
HETATM    2  C   UNL     1     -10.514   8.295  70.869  1.00  0.00    -0.230 C  
HETATM    3  C   UNL     1     -11.146   7.013  71.377  1.00  0.00    -0.245 C  
HETATM    4  O   UNL     1     -12.100   7.355  72.382  1.00  0.00    -0.247 OA 
HETATM    5  C   UNL     1     -12.352   8.750  72.299  1.00  0.00    -0.378 C  
HETATM    6  O   UNL     1     -13.394   9.040  71.368  1.00  0.00    -0.332 OA 
HETATM    7  C   UNL     1     -13.090  10.303  70.766  1.00  0.00    -0.287 C  
HETATM    8  C   UNL     1     -11.622  10.630  71.038  1.00  0.00    -0.129 C  
ENDROOT
BRANCH   8   9
HETATM    9  O   UNL     1     -10.961  10.856  69.783  1.00  0.00    -0.255 OA 
BRANCH   9  10
HETATM   10  C   UNL     1     -11.505  11.803  68.980  1.00  0.00    -0.297 C  
HETATM   11  O   UNL     1     -12.215  11.580  68.014  1.00  0.00    -0.582 OA 
HETATM   12  N   UNL     1     -11.049  13.025  69.383  1.00  0.00    -0.453 N  
HETATM   13  H   UNL     1     -10.543  13.084  70.267  1.00  0.00     0.000 HD 
BRANCH  12  14
HETATM   14  C   UNL     1     -11.248  14.260  68.610  1.00  0.00    -0.264 C  
BRANCH  14  15
HETATM   15  C   UNL     1     -12.424  15.116  69.184  1.00  0.00     0.025 C  
BRANCH  15  16
HETATM   16  C   UNL     1     -12.526  15.191  70.699  1.00  0.00    -0.442 A  
HETATM   17  C   UNL     1     -13.275  14.244  71.410  1.00  0.00    -0.419 A  
HETATM   18  C   UNL     1     -11.908  16.228  71.415  1.00  0.00    -0.394 A  
HETATM   19  C   UNL     1     -13.406  14.335  72.798  1.00  0.00    -0.621 A  
HETATM   20  C   UNL     1     -12.781  15.366  73.496  1.00  0.00    -0.689 A  
HETATM   21  C   UNL     1     -12.025  16.309  72.805  1.00  0.00    -0.636 A  
ENDBRANCH  15  16
ENDBRANCH  14  15
BRANCH  14  22
HETATM   22  C   UNL     1      -9.963  15.132  68.472  1.00  0.00    -0.223 C  
HETATM   23  O   UNL     1      -9.094  14.940  69.597  1.00  0.00    -0.436 OA 
HETATM   24  H   UNL     1      -8.311  15.471  69.512  1.00  0.00     0.000 HD 
BRANCH  22  25
HETATM   25  C   UNL     1     -10.138  16.633  68.161  1.00  0.00    -0.267 C  
BRANCH  25  26
HETATM   26  N   UNL     1     -10.178  17.100  66.709  1.00  0.00    -0.304 N  
BRANCH  26  27
HETATM   27  C   UNL     1     -11.243  16.342  65.917  1.00  0.00     0.286 C  
HETATM   28  C   UNL     1     -10.801  15.363  64.808  1.00  0.00    -0.385 C  
HETATM   29  C   UNL     1      -9.969  14.185  65.311  1.00  0.00    -0.295 C  
HETATM   30  C   UNL     1     -12.052  14.786  64.119  1.00  0.00    -0.323 C  
ENDBRANCH  26  27
BRANCH  26  31
HETATM   31  S   UNL     1     -10.440  18.844  66.670  1.00  0.00    -0.422 S  
HETATM   32  O   UNL     1     -10.778  19.233  65.324  1.00  0.00    -0.455 OA 
HETATM   33  O   UNL     1     -11.313  19.148  67.790  1.00  0.00    -0.059 OA 
BRANCH  31  34
HETATM   34  C   UNL     1      -8.835  19.549  67.038  1.00  0.00    -0.306 A  
HETATM   35  C   UNL     1      -7.193  20.303  68.644  1.00  0.00    -0.127 A  
HETATM   36  C   UNL     1      -8.422  19.686  68.363  1.00  0.00    -0.352 A  
HETATM   37  C   UNL     1      -6.393  20.826  67.622  1.00  0.00    -0.309 A  
HETATM   38  N   UNL     1      -5.129  21.343  67.904  1.00  0.00    -0.456 NA 
HETATM   39  C   UNL     1      -6.783  20.604  66.299  1.00  0.00    -0.280 A  
HETATM   40  H1  UNL     1      -4.545  21.724  67.159  1.00  0.00     0.000 HD 
HETATM   41  C   UNL     1      -8.004  19.983  66.000  1.00  0.00    -0.291 A  
HETATM   42  H2  UNL     1      -4.593  20.626  68.394  1.00  0.00     0.000 HD 
ENDBRANCH  31  34
ENDBRANCH  26  31
ENDBRANCH  25  26
ENDBRANCH  22  25
ENDBRANCH  14  22
ENDBRANCH  12  14
ENDBRANCH   9  10
ENDBRANCH   8   9
TORSDOF 11
ENDMDL
MODEL       32
REMARK 921   NORMALIZED FREE ENERGY PREDICTED BY IDOCK:   -6.55 KCAL/MOL
REMARK 922        TOTAL FREE ENERGY PREDICTED BY IDOCK:  -13.38 KCAL/MOL
REMARK 923 INTER-LIGAND FREE ENERGY PREDICTED BY IDOCK:  -11.32 KCAL/MOL
REMARK 924 INTRA-LIGAND FREE ENERGY PREDICTED BY IDOCK:   -2.06 KCAL/MOL
REMARK 927      BINDING AFFINITY PREDICTED BY RF-SCORE:    0.00 PKD
ROOT
HETATM    1  C   UNL     1      -7.345   8.499  65.591  1.00  0.00    -0.084 C  
HETATM    2  C   UNL     1      -6.329   9.315  66.369  1.00  0.00    -0.066 C  
HETATM    3  C   UNL     1      -5.715  10.247  65.343  1.00  0.00    -0.104 C  
HETATM    4  O   UNL     1      -6.397  10.058  64.104  1.00  0.00    -0.120 OA 
HETATM    5  C   UNL     1      -7.595   9.340  64.363  1.00  0.00    -0.115 C  
HETATM    6  O   UNL     1      -8.671  10.217  64.697  1.00  0.00    -0.163 OA 
HETATM    7  C   UNL     1      -9.506   9.531  65.635  1.00  0.00    -0.261 C  
HETATM    8  C   UNL     1      -8.725   8.346  66.204  1.00  0.00    -0.151 C  
ENDROOT
BRANCH   8   9
HETATM    9  O   UNL     1      -8.696   8.460  67.637  1.00  0.00    -0.135 OA 
BRANCH   9  10
HETATM   10  C   UNL     1      -9.894   8.393  68.268  1.00  0.00    -0.169 C  
HETATM   11  O   UNL     1     -10.709   7.497  68.130  1.00  0.00    -0.174 OA 
HETATM   12  N   UNL     1     -10.060   9.532  69.000  1.00  0.00    -0.186 N  
HETATM   13  H   UNL     1      -9.260  10.155  69.113  1.00  0.00     0.000 HD 
BRANCH  12  14
HETATM   14  C   UNL     1     -11.332   9.910  69.636  1.00  0.00    -0.165 C  
BRANCH  14  15
HETATM   15  C   UNL     1     -11.236   9.851  71.195  1.00  0.00    -0.404 C  
BRANCH  15  16
HETATM   16  C   UNL     1     -11.143   8.466  71.814  1.00  0.00    -0.358 A  
HETATM   17  C   UNL     1     -12.043   7.459  71.443  1.00  0.00    -0.357 A  
HETATM   18  C   UNL     1     -10.182   8.176  72.795  1.00  0.00    -0.372 A  
HETATM   19  C   UNL     1     -11.988   6.197  72.041  1.00  0.00    -0.310 A  
HETATM   20  C   UNL     1     -11.023   5.921  73.009  1.00  0.00    -0.303 A  
HETATM   21  C   UNL     1     -10.115   6.909  73.381  1.00  0.00    -0.289 A  
ENDBRANCH  15  16
ENDBRANCH  14  15
BRANCH  14  22
HETATM   22  C   UNL     1     -11.877  11.297  69.180  1.00  0.00    -0.355 C  
HETATM   23  O   UNL     1     -12.132  11.306  67.768  1.00  0.00    -0.631 OA 
HETATM   24  H   UNL     1     -12.464  12.151  67.490  1.00  0.00     0.000 HD 
BRANCH  22  25
HETATM   25  C   UNL     1     -11.096  12.556  69.606  1.00  0.00     0.083 C  
BRANCH  25  26
HETATM   26  N   UNL     1     -11.788  13.915  69.583  1.00  0.00    -0.307 N  
BRANCH  26  27
HETATM   27  C   UNL     1     -11.893  14.502  70.990  1.00  0.00    -0.290 C  
HETATM   28  C   UNL     1     -13.197  14.305  71.793  1.00  0.00    -0.444 C  
HETATM   29  C   UNL     1     -13.527  12.846  72.099  1.00  0.00    -0.619 C  
HETATM   30  C   UNL     1     -13.078  15.045  73.139  1.00  0.00    -0.619 C  
ENDBRANCH  26  27
BRANCH  26  31
HETATM   31  S   UNL     1     -10.922  14.987  68.482  1.00  0.00    -0.269 S  
HETATM   32  O   UNL     1     -11.568  16.276  68.485  1.00  0.00    -0.346 OA 
HETATM   33  O   UNL     1      -9.513  14.843  68.800  1.00  0.00    -0.203 OA 
BRANCH  31  34
HETATM   34  C   UNL     1     -11.179  14.270  66.861  1.00  0.00    -0.326 A  
HETATM   35  C   UNL     1     -10.291  13.311  64.827  1.00  0.00    -0.381 A  
HETATM   36  C   UNL     1     -10.089  13.806  66.124  1.00  0.00    -0.314 A  
HETATM   37  C   UNL     1     -11.561  13.314  64.239  1.00  0.00    -0.400 A  
HETATM   38  N   UNL     1     -11.767  12.724  62.992  1.00  0.00    -0.789 NA 
HETATM   39  C   UNL     1     -12.651  13.702  65.022  1.00  0.00    -0.434 A  
HETATM   40  H1  UNL     1     -12.693  12.726  62.563  1.00  0.00     0.000 HD 
HETATM   41  C   UNL     1     -12.468  14.194  66.322  1.00  0.00    -0.395 A  
HETATM   42  H2  UNL     1     -11.439  11.759  63.037  1.00  0.00     0.000 HD 
ENDBRANCH  31  34
ENDBRANCH  26  31
ENDBRANCH  25  26
ENDBRANCH  22  25
ENDBRANCH  14  22
ENDBRANCH  12  14
ENDBRANCH   9  10
ENDBRANCH   8   9
TORSDOF 11
ENDMDL
MODEL       33
REMARK 921   NORMALIZED FREE ENERGY PREDICTED BY IDOCK:   -6.55 KCAL/MOL
REMARK 922        TOTAL FREE ENERGY PREDICTED BY IDOCK:  -13.38 KCAL/MOL
REMARK 923 INTER-LIGAND FREE ENERGY PREDICTED BY IDOCK:  -11.64 KCAL/MOL
REMARK 924 INTRA-LIGAND FREE ENERGY PREDICTED BY IDOCK:   -1.74 KCAL/MOL
REMARK 927      BINDING AFFINITY PREDICTED BY RF-SCORE:    0.00 PKD
ROOT
HETATM    1  C   UNL     1      -9.607   6.002  68.353  1.00  0.00    -0.130 C  
HETATM    2  C   UNL     1     -10.909   5.871  69.121  1.00  0.00    -0.406 C  
HETATM    3  C   UNL     1     -10.494   5.424  70.510  1.00  0.00    -0.265 C  
HETATM    4  O   UNL     1      -9.068   5.406  70.565  1.00  0.00    -0.137 OA 
HETATM    5  C   UNL     1      -8.572   6.124  69.445  1.00  0.00    -0.123 C  
HETATM    6  O   UNL     1      -8.456   7.519  69.724  1.00  0.00    -0.132 OA 
HETATM    7  C   UNL     1      -8.726   8.223  68.508  1.00  0.00    -0.133 C  
HETATM    8  C   UNL     1      -9.412   7.265  67.534  1.00  0.00    -0.129 C  
ENDROOT
BRANCH   8   9
HETATM    9  O   UNL     1     -10.662   7.843  67.125  1.00  0.00    -0.326 OA 
BRANCH   9  10
HETATM   10  C   UNL     1     -10.660   9.180  66.902  1.00  0.00    -0.167 C  
HETATM   11  O   UNL     1     -10.151   9.729  65.940  1.00  0.00    -0.282 OA 
HETATM   12  N   UNL     1     -11.237   9.797  67.974  1.00  0.00    -0.521 N  
HETATM   13  H   UNL     1     -11.714   9.218  68.665  1.00  0.00     0.000 HD 
BRANCH  12  14
HETATM   14  C   UNL     1     -11.206  11.253  68.185  1.00  0.00    -0.286 C  
BRANCH  14  15
HETATM   15  C   UNL     1     -11.722  11.639  69.609  1.00  0.00    -0.418 C  
BRANCH  15  16
HETATM   16  C   UNL     1     -11.964  10.489  70.574  1.00  0.00    -0.436 A  
HETATM   17  C   UNL     1     -10.892   9.725  71.054  1.00  0.00    -0.378 A  
HETATM   18  C   UNL     1     -13.264  10.143  70.975  1.00  0.00    -0.412 A  
HETATM   19  C   UNL     1     -11.115   8.642  71.908  1.00  0.00    -0.416 A  
HETATM   20  C   UNL     1     -12.412   8.314  72.303  1.00  0.00    -0.384 A  
HETATM   21  C   UNL     1     -13.486   9.070  71.842  1.00  0.00    -0.481 A  
ENDBRANCH  15  16
ENDBRANCH  14  15
BRANCH  14  22
HETATM   22  C   UNL     1      -9.812  11.899  67.922  1.00  0.00    -0.190 C  
HETATM   23  O   UNL     1      -8.956  11.745  69.063  1.00  0.00    -0.380 OA 
HETATM   24  H   UNL     1      -8.106  12.138  68.903  1.00  0.00     0.000 HD 
BRANCH  22  25
HETATM   25  C   UNL     1      -9.775  13.348  67.397  1.00  0.00    -0.221 C  
BRANCH  25  26
HETATM   26  N   UNL     1      -9.805  14.508  68.387  1.00  0.00    -0.221 N  
BRANCH  26  27
HETATM   27  C   UNL     1      -8.633  15.461  68.152  1.00  0.00    -0.152 C  
HETATM   28  C   UNL     1      -7.613  15.694  69.287  1.00  0.00    -0.222 C  
HETATM   29  C   UNL     1      -6.845  14.441  69.702  1.00  0.00    -0.118 C  
HETATM   30  C   UNL     1      -6.579  16.740  68.829  1.00  0.00    -0.180 C  
ENDBRANCH  26  27
BRANCH  26  31
HETATM   31  S   UNL     1     -11.360  15.330  68.268  1.00  0.00    -0.346 S  
HETATM   32  O   UNL     1     -11.137  16.685  67.828  1.00  0.00    -0.279 OA 
HETATM   33  O   UNL     1     -12.240  14.432  67.542  1.00  0.00    -0.342 OA 
BRANCH  31  34
HETATM   34  C   UNL     1     -11.957  15.413  69.955  1.00  0.00    -0.356 A  
HETATM   35  C   UNL     1     -13.611  14.847  71.625  1.00  0.00    -0.506 A  
HETATM   36  C   UNL     1     -13.111  14.721  70.320  1.00  0.00    -0.077 A  
HETATM   37  C   UNL     1     -12.997  15.691  72.558  1.00  0.00    -0.452 A  
HETATM   38  N   UNL     1     -13.439  15.728  73.881  1.00  0.00    -0.722 NA 
HETATM   39  C   UNL     1     -11.796  16.309  72.201  1.00  0.00    -0.585 A  
HETATM   40  H1  UNL     1     -12.992  16.343  74.560  1.00  0.00     0.000 HD 
HETATM   41  C   UNL     1     -11.280  16.188  70.903  1.00  0.00    -0.329 A  
HETATM   42  H2  UNL     1     -13.421  14.777  74.250  1.00  0.00     0.000 HD 
ENDBRANCH  31  34
ENDBRANCH  26  31
ENDBRANCH  25  26
ENDBRANCH  22  25
ENDBRANCH  14  22
ENDBRANCH  12  14
ENDBRANCH   9  10
ENDBRANCH   8   9
TORSDOF 11
ENDMDL
MODEL       34
REMARK 921   NORMALIZED FREE ENERGY PREDICTED BY IDOCK:   -6.52 KCAL/MOL
REMARK 922        TOTAL FREE ENERGY PREDICTED BY IDOCK:  -13.34 KCAL/MOL
REMARK 923 INTER-LIGAND FREE ENERGY PREDICTED BY IDOCK:  -11.08 KCAL/MOL
REMARK 924 INTRA-LIGAND FREE ENERGY PREDICTED BY IDOCK:   -2.26 KCAL/MOL
REMARK 927      BINDING AFFINITY PREDICTED BY RF-SCORE:    0.00 PKD
ROOT
HETATM    1  C   UNL     1     -11.669   8.913  70.730  1.00  0.00    -0.269 C  
HETATM    2  C   UNL     1     -11.994  10.367  71.017  1.00  0.00    -0.481 C  
HETATM    3  C   UNL     1     -13.268  10.323  71.840  1.00  0.00    -0.445 C  
HETATM    4  O   UNL     1     -13.585   8.956  72.096  1.00  0.00    -0.391 OA 
HETATM    5  C   UNL     1     -12.441   8.170  71.793  1.00  0.00    -0.330 C  
HETATM    6  O   UNL     1     -11.566   8.063  72.915  1.00  0.00    -0.397 OA 
HETATM    7  C   UNL     1     -10.228   7.997  72.409  1.00  0.00    -0.280 C  
HETATM    8  C   UNL     1     -10.236   8.468  70.955  1.00  0.00    -0.200 C  
ENDROOT
BRANCH   8   9
HETATM    9  O   UNL     1      -9.304   9.554  70.819  1.00  0.00    -0.245 OA 
BRANCH   9  10
HETATM   10  C   UNL     1      -8.348   9.409  69.869  1.00  0.00    -0.167 C  
HETATM   11  O   UNL     1      -7.292   8.820  70.022  1.00  0.00    -0.049 OA 
HETATM   12  N   UNL     1      -8.731  10.108  68.761  1.00  0.00    -0.130 N  
HETATM   13  H   UNL     1      -9.684  10.471  68.724  1.00  0.00     0.000 HD 
BRANCH  12  14
HETATM   14  C   UNL     1      -7.843  10.363  67.616  1.00  0.00    -0.105 C  
BRANCH  14  15
HETATM   15  C   UNL     1      -8.179   9.430  66.407  1.00  0.00    -0.111 C  
BRANCH  15  16
HETATM   16  C   UNL     1      -8.859  10.087  65.217  1.00  0.00    -0.205 A  
HETATM   17  C   UNL     1      -8.185  10.217  63.995  1.00  0.00    -0.151 A  
HETATM   18  C   UNL     1     -10.157  10.609  65.323  1.00  0.00    -0.363 A  
HETATM   19  C   UNL     1      -8.792  10.858  62.911  1.00  0.00    -0.265 A  
HETATM   20  C   UNL     1     -10.084  11.365  63.030  1.00  0.00    -0.333 A  
HETATM   21  C   UNL     1     -10.771  11.234  64.234  1.00  0.00    -0.416 A  
ENDBRANCH  15  16
ENDBRANCH  14  15
BRANCH  14  22
HETATM   22  C   UNL     1      -7.819  11.853  67.158  1.00  0.00    -0.168 C  
HETATM   23  O   UNL     1      -6.528  12.207  66.642  1.00  0.00    -0.413 OA 
HETATM   24  H   UNL     1      -6.513  13.114  66.362  1.00  0.00     0.000 HD 
BRANCH  22  25
HETATM   25  C   UNL     1      -8.329  12.922  68.146  1.00  0.00    -0.168 C  
BRANCH  25  26
HETATM   26  N   UNL     1      -9.139  14.104  67.623  1.00  0.00    -0.186 N  
BRANCH  26  27
HETATM   27  C   UNL     1     -10.497  13.647  67.092  1.00  0.00    -0.264 C  
HETATM   28  C   UNL     1     -11.359  14.637  66.279  1.00  0.00    -0.347 C  
HETATM   29  C   UNL     1     -10.715  15.099  64.974  1.00  0.00    -0.451 C  
HETATM   30  C   UNL     1     -12.698  13.964  65.922  1.00  0.00    -0.466 C  
ENDBRANCH  26  27
BRANCH  26  31
HETATM   31  S   UNL     1      -9.300  15.306  68.904  1.00  0.00    -0.225 S  
HETATM   32  O   UNL     1     -10.554  15.096  69.583  1.00  0.00    -0.248 OA 
HETATM   33  O   UNL     1      -8.038  15.306  69.622  1.00  0.00    -0.233 OA 
BRANCH  31  34
HETATM   34  C   UNL     1      -9.422  16.871  68.040  1.00  0.00    -0.243 A  
HETATM   35  C   UNL     1     -10.719  18.794  67.357  1.00  0.00    -0.487 A  
HETATM   36  C   UNL     1     -10.608  17.604  68.093  1.00  0.00    -0.359 A  
HETATM   37  C   UNL     1      -9.677  19.237  66.534  1.00  0.00    -0.367 A  
HETATM   38  N   UNL     1      -9.758  20.472  65.890  1.00  0.00    -0.610 NA 
HETATM   39  C   UNL     1      -8.469  18.536  66.560  1.00  0.00    -0.291 A  
HETATM   40  H1  UNL     1      -8.999  20.795  65.290  1.00  0.00     0.000 HD 
HETATM   41  C   UNL     1      -8.339  17.349  67.295  1.00  0.00    -0.221 A  
HETATM   42  H2  UNL     1      -9.935  21.189  66.594  1.00  0.00     0.000 HD 
ENDBRANCH  31  34
ENDBRANCH  26  31
ENDBRANCH  25  26
ENDBRANCH  22  25
ENDBRANCH  14  22
ENDBRANCH  12  14
ENDBRANCH   9  10
ENDBRANCH   8   9
TORSDOF 11
ENDMDL
MODEL       35
REMARK 921   NORMALIZED FREE ENERGY PREDICTED BY IDOCK:   -6.52 KCAL/MOL
REMARK 922        TOTAL FREE ENERGY PREDICTED BY IDOCK:  -13.33 KCAL/MOL
REMARK 923 INTER-LIGAND FREE ENERGY PREDICTED BY IDOCK:  -11.36 KCAL/MOL
REMARK 924 INTRA-LIGAND FREE ENERGY PREDICTED BY IDOCK:   -1.98 KCAL/MOL
REMARK 927      BINDING AFFINITY PREDICTED BY RF-SCORE:    0.00 PKD
ROOT
HETATM    1  C   UNL     1     -11.689   7.935  72.334  1.00  0.00    -0.423 C  
HETATM    2  C   UNL     1     -10.336   7.938  73.022  1.00  0.00    -0.401 C  
HETATM    3  C   UNL     1     -10.156   6.518  73.525  1.00  0.00    -0.240 C  
HETATM    4  O   UNL     1     -11.261   5.740  73.068  1.00  0.00    -0.273 OA 
HETATM    5  C   UNL     1     -11.928   6.472  72.050  1.00  0.00    -0.326 C  
HETATM    6  O   UNL     1     -11.361   6.220  70.765  1.00  0.00    -0.317 OA 
HETATM    7  C   UNL     1     -11.477   7.427  70.003  1.00  0.00    -0.065 C  
HETATM    8  C   UNL     1     -11.768   8.581  70.963  1.00  0.00    -0.275 C  
ENDROOT
BRANCH   8   9
HETATM    9  O   UNL     1     -10.764   9.593  70.782  1.00  0.00    -0.288 OA 
BRANCH   9  10
HETATM   10  C   UNL     1     -11.183  10.766  70.247  1.00  0.00    -0.245 C  
HETATM   11  O   UNL     1     -12.200  11.358  70.567  1.00  0.00    -0.352 OA 
HETATM   12  N   UNL     1     -10.329  11.111  69.240  1.00  0.00    -0.393 N  
HETATM   13  H   UNL     1      -9.461  10.584  69.141  1.00  0.00     0.000 HD 
BRANCH  12  14
HETATM   14  C   UNL     1     -10.595  12.201  68.290  1.00  0.00    -0.217 C  
BRANCH  14  15
HETATM   15  C   UNL     1     -11.783  11.856  67.334  1.00  0.00    -0.326 C  
BRANCH  15  16
HETATM   16  C   UNL     1     -11.529  12.039  65.847  1.00  0.00    -0.392 A  
HETATM   17  C   UNL     1     -10.299  11.673  65.285  1.00  0.00    -0.316 A  
HETATM   18  C   UNL     1     -12.501  12.612  65.012  1.00  0.00    -0.556 A  
HETATM   19  C   UNL     1     -10.046  11.879  63.926  1.00  0.00    -0.396 A  
HETATM   20  C   UNL     1     -11.024  12.442  63.108  1.00  0.00    -0.126 A  
HETATM   21  C   UNL     1     -12.255  12.802  63.650  1.00  0.00    -0.597 A  
ENDBRANCH  15  16
ENDBRANCH  14  15
BRANCH  14  22
HETATM   22  C   UNL     1     -10.832  13.585  68.968  1.00  0.00    -0.192 C  
HETATM   23  O   UNL     1     -12.206  13.979  68.854  1.00  0.00    -0.464 OA 
HETATM   24  H   UNL     1     -12.351  14.822  69.268  1.00  0.00     0.000 HD 
BRANCH  22  25
HETATM   25  C   UNL     1      -9.892  14.747  68.587  1.00  0.00    -0.225 C  
BRANCH  25  26
HETATM   26  N   UNL     1      -8.858  14.547  67.484  1.00  0.00    -0.178 N  
BRANCH  26  27
HETATM   27  C   UNL     1      -9.346  15.137  66.161  1.00  0.00    -0.311 C  
HETATM   28  C   UNL     1     -10.761  15.749  66.086  1.00  0.00    -0.293 C  
HETATM   29  C   UNL     1     -10.966  16.958  66.996  1.00  0.00     0.066 C  
HETATM   30  C   UNL     1     -11.037  16.206  64.641  1.00  0.00    -0.310 C  
ENDBRANCH  26  27
BRANCH  26  31
HETATM   31  S   UNL     1      -7.323  15.250  67.996  1.00  0.00    -0.137 S  
HETATM   32  O   UNL     1      -7.197  15.101  69.424  1.00  0.00    -0.168 OA 
HETATM   33  O   UNL     1      -6.316  14.732  67.087  1.00  0.00    -0.244 OA 
BRANCH  31  34
HETATM   34  C   UNL     1      -7.495  17.001  67.659  1.00  0.00    -0.164 A  
HETATM   35  C   UNL     1      -7.247  18.884  66.163  1.00  0.00    -0.288 A  
HETATM   36  C   UNL     1      -7.176  17.502  66.397  1.00  0.00    -0.326 A  
HETATM   37  C   UNL     1      -7.589  19.776  67.185  1.00  0.00    -0.256 A  
HETATM   38  N   UNL     1      -7.758  21.134  66.914  1.00  0.00    -0.681 NA 
HETATM   39  C   UNL     1      -7.987  19.249  68.416  1.00  0.00    -0.376 A  
HETATM   40  H1  UNL     1      -8.007  21.784  67.660  1.00  0.00     0.000 HD 
HETATM   41  C   UNL     1      -7.929  17.871  68.665  1.00  0.00    -0.285 A  
HETATM   42  H2  UNL     1      -8.444  21.228  66.166  1.00  0.00     0.000 HD 
ENDBRANCH  31  34
ENDBRANCH  26  31
ENDBRANCH  25  26
ENDBRANCH  22  25
ENDBRANCH  14  22
ENDBRANCH  12  14
ENDBRANCH   9  10
ENDBRANCH   8   9
TORSDOF 11
ENDMDL
MODEL       36
REMARK 921   NORMALIZED FREE ENERGY PREDICTED BY IDOCK:   -6.49 KCAL/MOL
REMARK 922        TOTAL FREE ENERGY PREDICTED BY IDOCK:  -13.28 KCAL/MOL
REMARK 923 INTER-LIGAND FREE ENERGY PREDICTED BY IDOCK:  -10.61 KCAL/MOL
REMARK 924 INTRA-LIGAND FREE ENERGY PREDICTED BY IDOCK:   -2.67 KCAL/MOL
REMARK 927      BINDING AFFINITY PREDICTED BY RF-SCORE:    0.00 PKD
ROOT
HETATM    1  C   UNL     1     -12.023   8.295  70.962  1.00  0.00    -0.260 C  
HETATM    2  C   UNL     1     -12.510   9.460  71.804  1.00  0.00    -0.471 C  
HETATM    3  C   UNL     1     -13.807   8.973  72.422  1.00  0.00    -0.475 C  
HETATM    4  O   UNL     1     -13.992   7.607  72.053  1.00  0.00    -0.288 OA 
HETATM    5  C   UNL     1     -12.760   7.114  71.546  1.00  0.00    -0.393 C  
HETATM    6  O   UNL     1     -11.929   6.606  72.588  1.00  0.00    -0.114 OA 
HETATM    7  C   UNL     1     -10.571   6.862  72.216  1.00  0.00    -0.216 C  
HETATM    8  C   UNL     1     -10.562   7.906  71.098  1.00  0.00    -0.213 C  
ENDROOT
BRANCH   8   9
HETATM    9  O   UNL     1      -9.744   9.013  71.510  1.00  0.00    -0.293 OA 
BRANCH   9  10
HETATM   10  C   UNL     1      -8.584   9.187  70.830  1.00  0.00    -0.219 C  
HETATM   11  O   UNL     1      -7.490   9.350  71.341  1.00  0.00    -0.335 OA 
HETATM   12  N   UNL     1      -8.870   9.240  69.496  1.00  0.00    -0.142 N  
HETATM   13  H   UNL     1      -9.810   8.987  69.193  1.00  0.00     0.000 HD 
BRANCH  12  14
HETATM   14  C   UNL     1      -7.892   9.643  68.473  1.00  0.00    -0.085 C  
BRANCH  14  15
HETATM   15  C   UNL     1      -8.095   8.852  67.140  1.00  0.00    -0.103 C  
BRANCH  15  16
HETATM   16  C   UNL     1      -8.885   7.557  67.237  1.00  0.00    -0.124 A  
HETATM   17  C   UNL     1      -8.225   6.330  67.377  1.00  0.00    -0.109 A  
HETATM   18  C   UNL     1     -10.286   7.557  67.151  1.00  0.00    -0.384 A  
HETATM   19  C   UNL     1      -8.947   5.134  67.423  1.00  0.00    -0.109 A  
HETATM   20  C   UNL     1     -10.338   5.150  67.343  1.00  0.00    -0.209 A  
HETATM   21  C   UNL     1     -11.009   6.363  67.215  1.00  0.00    -0.474 A  
ENDBRANCH  15  16
ENDBRANCH  14  15
BRANCH  14  22
HETATM   22  C   UNL     1      -7.868  11.177  68.193  1.00  0.00    -0.118 C  
HETATM   23  O   UNL     1      -7.737  11.916  69.415  1.00  0.00    -0.336 OA 
HETATM   24  H   UNL     1      -7.723  12.850  69.244  1.00  0.00     0.000 HD 
BRANCH  22  25
HETATM   25  C   UNL     1      -8.985  11.767  67.309  1.00  0.00    -0.172 C  
BRANCH  25  26
HETATM   26  N   UNL     1      -9.823  12.930  67.831  1.00  0.00    -0.220 N  
BRANCH  26  27
HETATM   27  C   UNL     1      -9.833  14.090  66.837  1.00  0.00    -0.267 C  
HETATM   28  C   UNL     1      -9.044  15.374  67.171  1.00  0.00    -0.236 C  
HETATM   29  C   UNL     1      -7.538  15.164  67.305  1.00  0.00    -0.236 C  
HETATM   30  C   UNL     1      -9.270  16.410  66.053  1.00  0.00    -0.328 C  
ENDBRANCH  26  27
BRANCH  26  31
HETATM   31  S   UNL     1     -11.451  12.353  68.191  1.00  0.00    -0.339 S  
HETATM   32  O   UNL     1     -12.303  12.631  67.062  1.00  0.00    -0.399 OA 
HETATM   33  O   UNL     1     -11.299  11.008  68.715  1.00  0.00    -0.235 OA 
BRANCH  31  34
HETATM   34  C   UNL     1     -12.008  13.392  69.541  1.00  0.00    -0.319 A  
HETATM   35  C   UNL     1     -12.364  15.587  70.490  1.00  0.00    -0.461 A  
HETATM   36  C   UNL     1     -11.992  14.779  69.403  1.00  0.00    -0.339 A  
HETATM   37  C   UNL     1     -12.707  15.026  71.726  1.00  0.00    -0.339 A  
HETATM   38  N   UNL     1     -13.174  15.832  72.765  1.00  0.00    -0.487 NA 
HETATM   39  C   UNL     1     -12.798  13.635  71.818  1.00  0.00    -0.407 A  
HETATM   40  H1  UNL     1     -13.424  15.423  73.665  1.00  0.00     0.000 HD 
HETATM   41  C   UNL     1     -12.437  12.815  70.741  1.00  0.00    -0.357 A  
HETATM   42  H2  UNL     1     -13.975  16.363  72.422  1.00  0.00     0.000 HD 
ENDBRANCH  31  34
ENDBRANCH  26  31
ENDBRANCH  25  26
ENDBRANCH  22  25
ENDBRANCH  14  22
ENDBRANCH  12  14
ENDBRANCH   9  10
ENDBRANCH   8   9
TORSDOF 11
ENDMDL
MODEL       37
REMARK 921   NORMALIZED FREE ENERGY PREDICTED BY IDOCK:   -6.48 KCAL/MOL
REMARK 922        TOTAL FREE ENERGY PREDICTED BY IDOCK:  -13.28 KCAL/MOL
REMARK 923 INTER-LIGAND FREE ENERGY PREDICTED BY IDOCK:  -10.99 KCAL/MOL
REMARK 924 INTRA-LIGAND FREE ENERGY PREDICTED BY IDOCK:   -2.29 KCAL/MOL
REMARK 927      BINDING AFFINITY PREDICTED BY RF-SCORE:    0.00 PKD
ROOT
HETATM    1  C   UNL     1     -12.794  15.699  71.229  1.00  0.00    -0.550 C  
HETATM    2  C   UNL     1     -11.906  15.875  72.448  1.00  0.00    -0.618 C  
HETATM    3  C   UNL     1     -12.493  14.943  73.490  1.00  0.00    -0.456 C  
HETATM    4  O   UNL     1     -13.560  14.213  72.885  1.00  0.00    -0.651 OA 
HETATM    5  C   UNL     1     -13.461  14.368  71.477  1.00  0.00    -0.368 C  
HETATM    6  O   UNL     1     -12.606  13.383  70.898  1.00  0.00    -0.352 OA 
HETATM    7  C   UNL     1     -11.951  13.989  69.779  1.00  0.00    -0.334 C  
HETATM    8  C   UNL     1     -12.102  15.507  69.892  1.00  0.00    -0.355 C  
ENDROOT
BRANCH   8   9
HETATM    9  O   UNL     1     -10.794  16.101  69.869  1.00  0.00    -0.313 OA 
BRANCH   9  10
HETATM   10  C   UNL     1     -10.502  16.868  68.789  1.00  0.00    -0.343 C  
HETATM   11  O   UNL     1     -10.864  18.021  68.630  1.00  0.00    -0.069 OA 
HETATM   12  N   UNL     1      -9.823  16.101  67.887  1.00  0.00    -0.233 N  
HETATM   13  H   UNL     1      -9.493  15.183  68.184  1.00  0.00     0.000 HD 
BRANCH  12  14
HETATM   14  C   UNL     1      -9.540  16.531  66.509  1.00  0.00    -0.271 C  
BRANCH  14  15
HETATM   15  C   UNL     1      -8.051  16.976  66.338  1.00  0.00    -0.335 C  
BRANCH  15  16
HETATM   16  C   UNL     1      -7.658  18.284  67.006  1.00  0.00    -0.234 A  
HETATM   17  C   UNL     1      -8.029  19.511  66.442  1.00  0.00    -0.323 A  
HETATM   18  C   UNL     1      -6.883  18.293  68.177  1.00  0.00    -0.218 A  
HETATM   19  C   UNL     1      -7.633  20.715  67.030  1.00  0.00    -0.327 A  
HETATM   20  C   UNL     1      -6.870  20.709  68.197  1.00  0.00    -0.257 A  
HETATM   21  C   UNL     1      -6.501  19.497  68.775  1.00  0.00    -0.307 A  
ENDBRANCH  15  16
ENDBRANCH  14  15
BRANCH  14  22
HETATM   22  C   UNL     1      -9.913  15.469  65.429  1.00  0.00    -0.304 C  
HETATM   23  O   UNL     1     -10.663  16.069  64.363  1.00  0.00    -0.819 OA 
HETATM   24  H   UNL     1     -10.890  15.423  63.705  1.00  0.00     0.000 HD 
BRANCH  22  25
HETATM   25  C   UNL     1     -10.577  14.160  65.901  1.00  0.00    -0.298 C  
BRANCH  25  26
HETATM   26  N   UNL     1      -9.782  12.859  65.867  1.00  0.00    -0.227 N  
BRANCH  26  27
HETATM   27  C   UNL     1      -9.277  12.487  67.261  1.00  0.00    -0.190 C  
HETATM   28  C   UNL     1      -7.762  12.292  67.486  1.00  0.00    -0.158 C  
HETATM   29  C   UNL     1      -6.928  13.546  67.238  1.00  0.00     0.061 C  
HETATM   30  C   UNL     1      -7.521  11.857  68.944  1.00  0.00    -0.060 C  
ENDBRANCH  26  27
BRANCH  26  31
HETATM   31  S   UNL     1     -10.782  11.588  65.166  1.00  0.00    -0.271 S  
HETATM   32  O   UNL     1     -12.024  11.517  65.896  1.00  0.00    -0.197 OA 
HETATM   33  O   UNL     1     -10.758  11.797  63.729  1.00  0.00    -0.340 OA 
BRANCH  31  34
HETATM   34  C   UNL     1      -9.885  10.073  65.499  1.00  0.00    -0.303 A  
HETATM   35  C   UNL     1      -9.686   7.969  66.673  1.00  0.00    -0.313 A  
HETATM   36  C   UNL     1     -10.426   9.120  66.362  1.00  0.00    -0.141 A  
HETATM   37  C   UNL     1      -8.395   7.779  66.167  1.00  0.00    -0.129 A  
HETATM   38  N   UNL     1      -7.711   6.584  66.397  1.00  0.00    -0.097 NA 
HETATM   39  C   UNL     1      -7.905   8.701  65.239  1.00  0.00    -0.107 A  
HETATM   40  H1  UNL     1      -6.770   6.446  66.029  1.00  0.00     0.000 HD 
HETATM   41  C   UNL     1      -8.634   9.853  64.913  1.00  0.00    -0.183 A  
HETATM   42  H2  UNL     1      -8.296   5.814  66.075  1.00  0.00     0.000 HD 
ENDBRANCH  31  34
ENDBRANCH  26  31
ENDBRANCH  25  26
ENDBRANCH  22  25
ENDBRANCH  14  22
ENDBRANCH  12  14
ENDBRANCH   9  10
ENDBRANCH   8   9
TORSDOF 11
ENDMDL
MODEL       38
REMARK 921   NORMALIZED FREE ENERGY PREDICTED BY IDOCK:   -6.48 KCAL/MOL
REMARK 922        TOTAL FREE ENERGY PREDICTED BY IDOCK:  -13.27 KCAL/MOL
REMARK 923 INTER-LIGAND FREE ENERGY PREDICTED BY IDOCK:  -11.21 KCAL/MOL
REMARK 924 INTRA-LIGAND FREE ENERGY PREDICTED BY IDOCK:   -2.06 KCAL/MOL
REMARK 927      BINDING AFFINITY PREDICTED BY RF-SCORE:    0.00 PKD
ROOT
HETATM    1  C   UNL     1     -11.397   8.294  70.940  1.00  0.00    -0.292 C  
HETATM    2  C   UNL     1     -12.004   9.680  71.062  1.00  0.00    -0.427 C  
HETATM    3  C   UNL     1     -13.358   9.452  71.707  1.00  0.00    -0.415 C  
HETATM    4  O   UNL     1     -13.472   8.067  72.027  1.00  0.00    -0.299 OA 
HETATM    5  C   UNL     1     -12.179   7.485  71.945  1.00  0.00    -0.306 C  
HETATM    6  O   UNL     1     -11.472   7.599  73.180  1.00  0.00    -0.314 OA 
HETATM    7  C   UNL     1     -10.084   7.747  72.866  1.00  0.00    -0.301 C  
HETATM    8  C   UNL     1      -9.958   8.127  71.390  1.00  0.00    -0.180 C  
ENDROOT
BRANCH   8   9
HETATM    9  O   UNL     1      -9.215   9.354  71.294  1.00  0.00    -0.262 OA 
BRANCH   9  10
HETATM   10  C   UNL     1      -8.490   9.529  70.162  1.00  0.00    -0.205 C  
HETATM   11  O   UNL     1      -7.374   9.078  69.969  1.00  0.00    -0.050 OA 
HETATM   12  N   UNL     1      -9.181  10.364  69.332  1.00  0.00    -0.324 N  
HETATM   13  H   UNL     1     -10.147  10.588  69.568  1.00  0.00     0.000 HD 
BRANCH  12  14
HETATM   14  C   UNL     1      -8.605  10.956  68.115  1.00  0.00    -0.133 C  
BRANCH  14  15
HETATM   15  C   UNL     1      -9.258  10.365  66.823  1.00  0.00    -0.176 C  
BRANCH  15  16
HETATM   16  C   UNL     1      -9.418   8.854  66.778  1.00  0.00    -0.243 A  
HETATM   17  C   UNL     1      -8.357   8.038  66.365  1.00  0.00    -0.124 A  
HETATM   18  C   UNL     1     -10.639   8.247  67.111  1.00  0.00    -0.340 A  
HETATM   19  C   UNL     1      -8.515   6.652  66.282  1.00  0.00    -0.130 A  
HETATM   20  C   UNL     1      -9.731   6.062  66.622  1.00  0.00    -0.189 A  
HETATM   21  C   UNL     1     -10.792   6.859  67.044  1.00  0.00    -0.436 A  
ENDBRANCH  15  16
ENDBRANCH  14  15
BRANCH  14  22
HETATM   22  C   UNL     1      -8.660  12.513  68.084  1.00  0.00    -0.189 C  
HETATM   23  O   UNL     1      -7.743  13.074  69.034  1.00  0.00    -0.319 OA 
HETATM   24  H   UNL     1      -7.777  14.024  69.015  1.00  0.00     0.000 HD 
BRANCH  22  25
HETATM   25  C   UNL     1     -10.042  13.190  68.186  1.00  0.00    -0.237 C  
BRANCH  25  26
HETATM   26  N   UNL     1     -10.258  14.560  67.552  1.00  0.00    -0.232 N  
BRANCH  26  27
HETATM   27  C   UNL     1     -11.404  14.524  66.541  1.00  0.00    -0.352 C  
HETATM   28  C   UNL     1     -11.076  14.513  65.033  1.00  0.00    -0.393 C  
HETATM   29  C   UNL     1     -10.290  13.288  64.573  1.00  0.00    -0.394 C  
HETATM   30  C   UNL     1     -12.392  14.547  64.232  1.00  0.00    -0.396 C  
ENDBRANCH  26  27
BRANCH  26  31
HETATM   31  S   UNL     1     -10.536  15.749  68.825  1.00  0.00    -0.254 S  
HETATM   32  O   UNL     1     -11.956  15.952  68.969  1.00  0.00    -0.378 OA 
HETATM   33  O   UNL     1      -9.710  15.343  69.947  1.00  0.00    -0.267 OA 
BRANCH  31  34
HETATM   34  C   UNL     1      -9.848  17.271  68.178  1.00  0.00    -0.290 A  
HETATM   35  C   UNL     1      -7.995  18.810  67.963  1.00  0.00    -0.306 A  
HETATM   36  C   UNL     1      -8.509  17.583  68.412  1.00  0.00    -0.275 A  
HETATM   37  C   UNL     1      -8.814  19.747  67.321  1.00  0.00    -0.326 A  
HETATM   38  N   UNL     1      -8.271  20.915  66.787  1.00  0.00    -0.545 NA 
HETATM   39  C   UNL     1     -10.128  19.381  67.021  1.00  0.00    -0.492 A  
HETATM   40  H1  UNL     1      -8.867  21.598  66.320  1.00  0.00     0.000 HD 
HETATM   41  C   UNL     1     -10.655  18.157  67.457  1.00  0.00    -0.419 A  
HETATM   42  H2  UNL     1      -7.521  20.655  66.146  1.00  0.00     0.000 HD 
ENDBRANCH  31  34
ENDBRANCH  26  31
ENDBRANCH  25  26
ENDBRANCH  22  25
ENDBRANCH  14  22
ENDBRANCH  12  14
ENDBRANCH   9  10
ENDBRANCH   8   9
TORSDOF 11
ENDMDL
MODEL       39
REMARK 921   NORMALIZED FREE ENERGY PREDICTED BY IDOCK:   -6.45 KCAL/MOL
REMARK 922        TOTAL FREE ENERGY PREDICTED BY IDOCK:  -13.22 KCAL/MOL
REMARK 923 INTER-LIGAND FREE ENERGY PREDICTED BY IDOCK:  -10.27 KCAL/MOL
REMARK 924 INTRA-LIGAND FREE ENERGY PREDICTED BY IDOCK:   -2.95 KCAL/MOL
REMARK 927      BINDING AFFINITY PREDICTED BY RF-SCORE:    0.00 PKD
ROOT
HETATM    1  C   UNL     1     -10.902   9.300  70.789  1.00  0.00    -0.349 C  
HETATM    2  C   UNL     1     -11.290   8.063  70.000  1.00  0.00    -0.014 C  
HETATM    3  C   UNL     1     -11.410   6.965  71.040  1.00  0.00    -0.299 C  
HETATM    4  O   UNL     1     -11.215   7.547  72.328  1.00  0.00    -0.252 OA 
HETATM    5  C   UNL     1     -11.322   8.958  72.198  1.00  0.00    -0.299 C  
HETATM    6  O   UNL     1     -12.674   9.396  72.325  1.00  0.00    -0.376 OA 
HETATM    7  C   UNL     1     -12.835  10.536  71.474  1.00  0.00    -0.463 C  
HETATM    8  C   UNL     1     -11.666  10.578  70.491  1.00  0.00    -0.350 C  
ENDROOT
BRANCH   8   9
HETATM    9  O   UNL     1     -12.190  10.595  69.153  1.00  0.00    -0.328 OA 
BRANCH   9  10
HETATM   10  C   UNL     1     -11.439  11.231  68.222  1.00  0.00    -0.308 C  
HETATM   11  O   UNL     1     -11.659  11.228  67.023  1.00  0.00    -0.496 OA 
HETATM   12  N   UNL     1     -10.359  11.787  68.845  1.00  0.00    -0.357 N  
HETATM   13  H   UNL     1     -10.346  11.805  69.865  1.00  0.00     0.000 HD 
BRANCH  12  14
HETATM   14  C   UNL     1      -9.213  12.361  68.123  1.00  0.00    -0.205 C  
BRANCH  14  15
HETATM   15  C   UNL     1      -8.311  11.249  67.497  1.00  0.00    -0.131 C  
BRANCH  15  16
HETATM   16  C   UNL     1      -7.887  10.122  68.424  1.00  0.00    -0.093 A  
HETATM   17  C   UNL     1      -8.041   8.785  68.037  1.00  0.00    -0.107 A  
HETATM   18  C   UNL     1      -7.368  10.393  69.701  1.00  0.00    -0.156 A  
HETATM   19  C   UNL     1      -7.692   7.746  68.904  1.00  0.00    -0.113 A  
HETATM   20  C   UNL     1      -7.172   8.031  70.166  1.00  0.00    -0.056 A  
HETATM   21  C   UNL     1      -7.003   9.355  70.562  1.00  0.00    -0.105 A  
ENDBRANCH  15  16
ENDBRANCH  14  15
BRANCH  14  22
HETATM   22  C   UNL     1      -9.612  13.407  67.038  1.00  0.00    -0.244 C  
HETATM   23  O   UNL     1      -9.445  12.864  65.721  1.00  0.00    -0.450 OA 
HETATM   24  H   UNL     1      -9.688  13.501  65.059  1.00  0.00     0.000 HD 
BRANCH  22  25
HETATM   25  C   UNL     1      -8.997  14.818  67.134  1.00  0.00    -0.224 C  
BRANCH  25  26
HETATM   26  N   UNL     1      -8.932  15.520  68.486  1.00  0.00    -0.184 N  
BRANCH  26  27
HETATM   27  C   UNL     1      -7.605  16.259  68.659  1.00  0.00    -0.188 C  
HETATM   28  C   UNL     1      -6.572  15.722  69.673  1.00  0.00    -0.182 C  
HETATM   29  C   UNL     1      -6.048  14.325  69.349  1.00  0.00    -0.108 C  
HETATM   30  C   UNL     1      -5.361  16.674  69.710  1.00  0.00    -0.164 C  
ENDBRANCH  26  27
BRANCH  26  31
HETATM   31  S   UNL     1     -10.316  16.602  68.643  1.00  0.00    -0.327 S  
HETATM   32  O   UNL     1      -9.866  17.855  69.196  1.00  0.00    -0.267 OA 
HETATM   33  O   UNL     1     -11.025  16.541  67.378  1.00  0.00    -0.248 OA 
BRANCH  31  34
HETATM   34  C   UNL     1     -11.358  15.824  69.876  1.00  0.00    -0.349 A  
HETATM   35  C   UNL     1     -12.163  15.676  72.151  1.00  0.00    -0.528 A  
HETATM   36  C   UNL     1     -11.399  16.333  71.174  1.00  0.00    -0.297 A  
HETATM   37  C   UNL     1     -12.852  14.493  71.858  1.00  0.00    -0.338 A  
HETATM   38  N   UNL     1     -13.691  13.907  72.807  1.00  0.00    -0.702 NA 
HETATM   39  C   UNL     1     -12.867  14.047  70.534  1.00  0.00    -0.284 A  
HETATM   40  H1  UNL     1     -14.192  13.045  72.594  1.00  0.00     0.000 HD 
HETATM   41  C   UNL     1     -12.115  14.695  69.545  1.00  0.00    -0.335 A  
HETATM   42  H2  UNL     1     -14.371  14.606  73.106  1.00  0.00     0.000 HD 
ENDBRANCH  31  34
ENDBRANCH  26  31
ENDBRANCH  25  26
ENDBRANCH  22  25
ENDBRANCH  14  22
ENDBRANCH  12  14
ENDBRANCH   9  10
ENDBRANCH   8   9
TORSDOF 11
ENDMDL
MODEL       40
REMARK 921   NORMALIZED FREE ENERGY PREDICTED BY IDOCK:   -6.45 KCAL/MOL
REMARK 922        TOTAL FREE ENERGY PREDICTED BY IDOCK:  -13.22 KCAL/MOL
REMARK 923 INTER-LIGAND FREE ENERGY PREDICTED BY IDOCK:  -10.50 KCAL/MOL
REMARK 924 INTRA-LIGAND FREE ENERGY PREDICTED BY IDOCK:   -2.71 KCAL/MOL
REMARK 927      BINDING AFFINITY PREDICTED BY RF-SCORE:    0.00 PKD
ROOT
HETATM    1  C   UNL     1     -12.598  13.552  65.879  1.00  0.00    -0.454 C  
HETATM    2  C   UNL     1     -12.660  12.462  64.825  1.00  0.00    -0.419 C  
HETATM    3  C   UNL     1     -12.236  13.144  63.539  1.00  0.00    -0.476 C  
HETATM    4  O   UNL     1     -11.857  14.484  63.849  1.00  0.00    -0.251 OA 
HETATM    5  C   UNL     1     -11.689  14.583  65.256  1.00  0.00    -0.361 C  
HETATM    6  O   UNL     1     -10.364  14.233  65.653  1.00  0.00    -0.303 OA 
HETATM    7  C   UNL     1     -10.452  13.614  66.940  1.00  0.00    -0.272 C  
HETATM    8  C   UNL     1     -11.906  13.211  67.186  1.00  0.00    -0.369 C  
ENDROOT
BRANCH   8   9
HETATM    9  O   UNL     1     -11.951  11.804  67.471  1.00  0.00    -0.607 OA 
BRANCH   9  10
HETATM   10  C   UNL     1     -11.815  11.450  68.773  1.00  0.00    -0.323 C  
HETATM   11  O   UNL     1     -12.001  12.191  69.723  1.00  0.00    -0.315 OA 
HETATM   12  N   UNL     1     -11.349  10.168  68.825  1.00  0.00    -0.461 N  
HETATM   13  H   UNL     1     -11.333   9.624  67.963  1.00  0.00     0.000 HD 
BRANCH  12  14
HETATM   14  C   UNL     1     -10.870   9.530  70.061  1.00  0.00    -0.252 C  
BRANCH  14  15
HETATM   15  C   UNL     1     -11.774   8.323  70.474  1.00  0.00    -0.067 C  
BRANCH  15  16
HETATM   16  C   UNL     1     -11.208   7.384  71.526  1.00  0.00    -0.271 A  
HETATM   17  C   UNL     1     -11.017   6.026  71.240  1.00  0.00    -0.340 A  
HETATM   18  C   UNL     1     -10.900   7.845  72.816  1.00  0.00    -0.451 A  
HETATM   19  C   UNL     1     -10.537   5.152  72.219  1.00  0.00    -0.278 A  
HETATM   20  C   UNL     1     -10.229   5.626  73.493  1.00  0.00    -0.227 A  
HETATM   21  C   UNL     1     -10.403   6.975  73.790  1.00  0.00    -0.408 A  
ENDBRANCH  15  16
ENDBRANCH  14  15
BRANCH  14  22
HETATM   22  C   UNL     1      -9.375   9.090  70.005  1.00  0.00    -0.183 C  
HETATM   23  O   UNL     1      -8.587   9.843  70.937  1.00  0.00    -0.339 OA 
HETATM   24  H   UNL     1      -7.676   9.575  70.903  1.00  0.00     0.000 HD 
BRANCH  22  25
HETATM   25  C   UNL     1      -8.690   9.032  68.624  1.00  0.00    -0.133 C  
BRANCH  25  26
HETATM   26  N   UNL     1      -8.347   7.678  68.011  1.00  0.00    -0.123 N  
BRANCH  26  27
HETATM   27  C   UNL     1      -8.372   6.574  69.068  1.00  0.00    -0.116 C  
HETATM   28  C   UNL     1      -7.261   5.503  69.063  1.00  0.00    -0.069 C  
HETATM   29  C   UNL     1      -5.858   6.057  69.305  1.00  0.00    -0.023 C  
HETATM   30  C   UNL     1      -7.549   4.473  70.172  1.00  0.00    -0.053 C  
ENDBRANCH  26  27
BRANCH  26  31
HETATM   31  S   UNL     1      -9.458   7.347  66.682  1.00  0.00    -0.178 S  
HETATM   32  O   UNL     1      -9.115   6.075  66.095  1.00  0.00    -0.150 OA 
HETATM   33  O   UNL     1     -10.791   7.614  67.190  1.00  0.00    -0.317 OA 
BRANCH  31  34
HETATM   34  C   UNL     1      -9.090   8.607  65.463  1.00  0.00    -0.131 A  
HETATM   35  C   UNL     1      -9.570  10.750  64.451  1.00  0.00    -0.330 A  
HETATM   36  C   UNL     1      -9.816   9.798  65.452  1.00  0.00    -0.365 A  
HETATM   37  C   UNL     1      -8.639  10.509  63.435  1.00  0.00    -0.172 A  
HETATM   38  N   UNL     1      -8.327  11.504  62.507  1.00  0.00    -0.635 NA 
HETATM   39  C   UNL     1      -7.862   9.350  63.510  1.00  0.00    -0.130 A  
HETATM   40  H1  UNL     1      -7.648  11.328  61.766  1.00  0.00     0.000 HD 
HETATM   41  C   UNL     1      -8.091   8.392  64.507  1.00  0.00    -0.152 A  
HETATM   42  H2  UNL     1      -8.033  12.336  63.018  1.00  0.00     0.000 HD 
ENDBRANCH  31  34
ENDBRANCH  26  31
ENDBRANCH  25  26
ENDBRANCH  22  25
ENDBRANCH  14  22
ENDBRANCH  12  14
ENDBRANCH   9  10
ENDBRANCH   8   9
TORSDOF 11
ENDMDL
MODEL       41
REMARK 921   NORMALIZED FREE ENERGY PREDICTED BY IDOCK:   -6.42 KCAL/MOL
REMARK 922        TOTAL FREE ENERGY PREDICTED BY IDOCK:  -13.18 KCAL/MOL
REMARK 923 INTER-LIGAND FREE ENERGY PREDICTED BY IDOCK:  -11.67 KCAL/MOL
REMARK 924 INTRA-LIGAND FREE ENERGY PREDICTED BY IDOCK:   -1.51 KCAL/MOL
REMARK 927      BINDING AFFINITY PREDICTED BY RF-SCORE:    0.00 PKD
ROOT
HETATM    1  C   UNL     1     -10.556   5.867  67.892  1.00  0.00    -0.322 C  
HETATM    2  C   UNL     1      -9.885   5.856  69.254  1.00  0.00    -0.205 C  
HETATM    3  C   UNL     1      -9.433   4.421  69.449  1.00  0.00    -0.180 C  
HETATM    4  O   UNL     1      -9.722   3.696  68.255  1.00  0.00    -0.133 OA 
HETATM    5  C   UNL     1     -10.001   4.632  67.224  1.00  0.00    -0.159 C  
HETATM    6  O   UNL     1      -8.812   5.046  66.554  1.00  0.00    -0.112 OA 
HETATM    7  C   UNL     1      -8.996   6.409  66.159  1.00  0.00    -0.150 C  
HETATM    8  C   UNL     1     -10.174   6.987  66.942  1.00  0.00    -0.248 C  
ENDROOT
BRANCH   8   9
HETATM    9  O   UNL     1      -9.729   8.161  67.642  1.00  0.00    -0.147 OA 
BRANCH   9  10
HETATM   10  C   UNL     1     -10.608   9.191  67.706  1.00  0.00    -0.227 C  
HETATM   11  O   UNL     1     -10.814   9.993  66.811  1.00  0.00    -0.140 OA 
HETATM   12  N   UNL     1     -11.142   9.225  68.961  1.00  0.00    -0.445 N  
HETATM   13  H   UNL     1     -10.964   8.437  69.584  1.00  0.00     0.000 HD 
BRANCH  12  14
HETATM   14  C   UNL     1     -11.961  10.339  69.464  1.00  0.00    -0.016 C  
BRANCH  14  15
HETATM   15  C   UNL     1     -12.415  10.100  70.940  1.00  0.00    -0.455 C  
BRANCH  15  16
HETATM   16  C   UNL     1     -11.938   8.812  71.592  1.00  0.00    -0.399 A  
HETATM   17  C   UNL     1     -10.685   8.752  72.216  1.00  0.00    -0.322 A  
HETATM   18  C   UNL     1     -12.722   7.648  71.552  1.00  0.00    -0.373 A  
HETATM   19  C   UNL     1     -10.226   7.558  72.779  1.00  0.00    -0.307 A  
HETATM   20  C   UNL     1     -11.018   6.412  72.738  1.00  0.00    -0.289 A  
HETATM   21  C   UNL     1     -12.271   6.459  72.131  1.00  0.00    -0.278 A  
ENDBRANCH  15  16
ENDBRANCH  14  15
BRANCH  14  22
HETATM   22  C   UNL     1     -11.279  11.735  69.328  1.00  0.00    -0.256 C  
HETATM   23  O   UNL     1      -9.855  11.620  69.448  1.00  0.00    -0.385 OA 
HETATM   24  H   UNL     1      -9.439  12.470  69.365  1.00  0.00     0.000 HD 
BRANCH  22  25
HETATM   25  C   UNL     1     -11.815  12.889  70.200  1.00  0.00    -0.245 C  
BRANCH  25  26
HETATM   26  N   UNL     1     -12.505  14.076  69.536  1.00  0.00    -0.225 N  
BRANCH  26  27
HETATM   27  C   UNL     1     -13.267  14.912  70.563  1.00  0.00    -0.190 C  
HETATM   28  C   UNL     1     -12.827  14.873  72.042  1.00  0.00    -0.399 C  
HETATM   29  C   UNL     1     -11.412  15.394  72.286  1.00  0.00    -0.506 C  
HETATM   30  C   UNL     1     -13.789  15.737  72.878  1.00  0.00    -0.565 C  
ENDBRANCH  26  27
BRANCH  26  31
HETATM   31  S   UNL     1     -11.305  15.030  68.665  1.00  0.00    -0.313 S  
HETATM   32  O   UNL     1     -11.670  16.422  68.746  1.00  0.00    -0.262 OA 
HETATM   33  O   UNL     1     -10.007  14.559  69.115  1.00  0.00    -0.197 OA 
BRANCH  31  34
HETATM   34  C   UNL     1     -11.489  14.533  66.954  1.00  0.00    -0.364 A  
HETATM   35  C   UNL     1     -11.061  14.906  64.604  1.00  0.00    -0.335 A  
HETATM   36  C   UNL     1     -10.855  15.260  65.946  1.00  0.00    -0.345 A  
HETATM   37  C   UNL     1     -11.927  13.864  64.254  1.00  0.00    -0.444 A  
HETATM   38  N   UNL     1     -12.043  13.454  62.925  1.00  0.00    -0.792 NA 
HETATM   39  C   UNL     1     -12.485  13.095  65.278  1.00  0.00    -0.550 A  
HETATM   40  H1  UNL     1     -12.674  12.694  62.670  1.00  0.00     0.000 HD 
HETATM   41  C   UNL     1     -12.284  13.431  66.624  1.00  0.00    -0.391 A  
HETATM   42  H2  UNL     1     -11.111  13.224  62.579  1.00  0.00     0.000 HD 
ENDBRANCH  31  34
ENDBRANCH  26  31
ENDBRANCH  25  26
ENDBRANCH  22  25
ENDBRANCH  14  22
ENDBRANCH  12  14
ENDBRANCH   9  10
ENDBRANCH   8   9
TORSDOF 11
ENDMDL
MODEL       42
REMARK 921   NORMALIZED FREE ENERGY PREDICTED BY IDOCK:   -6.41 KCAL/MOL
REMARK 922        TOTAL FREE ENERGY PREDICTED BY IDOCK:  -13.16 KCAL/MOL
REMARK 923 INTER-LIGAND FREE ENERGY PREDICTED BY IDOCK:  -11.53 KCAL/MOL
REMARK 924 INTRA-LIGAND FREE ENERGY PREDICTED BY IDOCK:   -1.63 KCAL/MOL
REMARK 927      BINDING AFFINITY PREDICTED BY RF-SCORE:    0.00 PKD
ROOT
HETATM    1  C   UNL     1     -11.162   7.243  73.138  1.00  0.00    -0.263 C  
HETATM    2  C   UNL     1      -9.667   7.341  73.381  1.00  0.00    -0.297 C  
HETATM    3  C   UNL     1      -9.193   5.902  73.458  1.00  0.00    -0.131 C  
HETATM    4  O   UNL     1     -10.303   5.052  73.175  1.00  0.00    -0.166 OA 
HETATM    5  C   UNL     1     -11.333   5.843  72.600  1.00  0.00    -0.292 C  
HETATM    6  O   UNL     1     -11.189   5.944  71.184  1.00  0.00    -0.276 OA 
HETATM    7  C   UNL     1     -11.664   7.237  70.797  1.00  0.00    -0.299 C  
HETATM    8  C   UNL     1     -11.743   8.119  72.043  1.00  0.00    -0.332 C  
ENDROOT
BRANCH   8   9
HETATM    9  O   UNL     1     -10.957   9.301  71.821  1.00  0.00    -0.369 OA 
BRANCH   9  10
HETATM   10  C   UNL     1     -11.243  10.010  70.701  1.00  0.00    -0.350 C  
HETATM   11  O   UNL     1     -12.360  10.359  70.360  1.00  0.00    -0.293 OA 
HETATM   12  N   UNL     1     -10.090  10.177  69.991  1.00  0.00    -0.379 N  
HETATM   13  H   UNL     1      -9.207   9.926  70.436  1.00  0.00     0.000 HD 
BRANCH  12  14
HETATM   14  C   UNL     1     -10.053  10.700  68.616  1.00  0.00    -0.183 C  
BRANCH  14  15
HETATM   15  C   UNL     1     -10.627   9.669  67.591  1.00  0.00    -0.334 C  
BRANCH  15  16
HETATM   16  C   UNL     1      -9.872   9.528  66.280  1.00  0.00    -0.334 A  
HETATM   17  C   UNL     1     -10.110  10.415  65.222  1.00  0.00    -0.370 A  
HETATM   18  C   UNL     1      -8.949   8.487  66.085  1.00  0.00    -0.220 A  
HETATM   19  C   UNL     1      -9.448  10.263  64.001  1.00  0.00    -0.356 A  
HETATM   20  C   UNL     1      -8.530   9.229  63.825  1.00  0.00    -0.197 A  
HETATM   21  C   UNL     1      -8.274   8.345  64.870  1.00  0.00    -0.155 A  
ENDBRANCH  15  16
ENDBRANCH  14  15
BRANCH  14  22
HETATM   22  C   UNL     1     -10.761  12.080  68.447  1.00  0.00    -0.229 C  
HETATM   23  O   UNL     1     -12.085  11.912  67.922  1.00  0.00    -0.558 OA 
HETATM   24  H   UNL     1     -12.516  12.752  67.819  1.00  0.00     0.000 HD 
BRANCH  22  25
HETATM   25  C   UNL     1     -10.005  13.192  67.693  1.00  0.00    -0.219 C  
BRANCH  25  26
HETATM   26  N   UNL     1      -9.773  14.538  68.372  1.00  0.00    -0.218 N  
BRANCH  26  27
HETATM   27  C   UNL     1      -8.633  15.303  67.701  1.00  0.00    -0.169 C  
HETATM   28  C   UNL     1      -7.642  16.098  68.577  1.00  0.00    -0.170 C  
HETATM   29  C   UNL     1      -6.836  15.237  69.548  1.00  0.00    -0.180 C  
HETATM   30  C   UNL     1      -6.638  16.830  67.666  1.00  0.00    -0.165 C  
ENDBRANCH  26  27
BRANCH  26  31
HETATM   31  S   UNL     1     -11.279  15.456  68.365  1.00  0.00    -0.330 S  
HETATM   32  O   UNL     1     -10.980  16.837  68.078  1.00  0.00    -0.356 OA 
HETATM   33  O   UNL     1     -12.213  14.697  67.553  1.00  0.00    -0.277 OA 
BRANCH  31  34
HETATM   34  C   UNL     1     -11.860  15.381  70.058  1.00  0.00    -0.343 A  
HETATM   35  C   UNL     1     -11.825  16.216  72.327  1.00  0.00    -0.631 A  
HETATM   36  C   UNL     1     -11.420  16.323  70.987  1.00  0.00    -0.343 A  
HETATM   37  C   UNL     1     -12.628  15.153  72.758  1.00  0.00    -0.390 A  
HETATM   38  N   UNL     1     -13.109  15.114  74.067  1.00  0.00    -0.519 NA 
HETATM   39  C   UNL     1     -13.126  14.269  71.799  1.00  0.00    -0.435 A  
HETATM   40  H1  UNL     1     -13.694  14.340  74.382  1.00  0.00     0.000 HD 
HETATM   41  C   UNL     1     -12.737  14.366  70.456  1.00  0.00    -0.401 A  
HETATM   42  H2  UNL     1     -13.607  15.985  74.251  1.00  0.00     0.000 HD 
ENDBRANCH  31  34
ENDBRANCH  26  31
ENDBRANCH  25  26
ENDBRANCH  22  25
ENDBRANCH  14  22
ENDBRANCH  12  14
ENDBRANCH   9  10
ENDBRANCH   8   9
TORSDOF 11
ENDMDL
MODEL       43
REMARK 921   NORMALIZED FREE ENERGY PREDICTED BY IDOCK:   -6.41 KCAL/MOL
REMARK 922        TOTAL FREE ENERGY PREDICTED BY IDOCK:  -13.15 KCAL/MOL
REMARK 923 INTER-LIGAND FREE ENERGY PREDICTED BY IDOCK:  -11.24 KCAL/MOL
REMARK 924 INTRA-LIGAND FREE ENERGY PREDICTED BY IDOCK:   -1.91 KCAL/MOL
REMARK 927      BINDING AFFINITY PREDICTED BY RF-SCORE:    0.00 PKD
ROOT
HETATM    1  C   UNL     1      -8.141  18.248  66.370  1.00  0.00    -0.285 C  
HETATM    2  C   UNL     1      -6.744  17.887  65.900  1.00  0.00    -0.312 C  
HETATM    3  C   UNL     1      -6.250  19.124  65.173  1.00  0.00    -0.282 C  
HETATM    4  O   UNL     1      -7.237  20.145  65.310  1.00  0.00    -0.303 OA 
HETATM    5  C   UNL     1      -8.137  19.757  66.338  1.00  0.00    -0.329 C  
HETATM    6  O   UNL     1      -7.681  20.179  67.623  1.00  0.00    -0.284 OA 
HETATM    7  C   UNL     1      -8.101  19.192  68.570  1.00  0.00    -0.359 C  
HETATM    8  C   UNL     1      -8.491  17.924  67.811  1.00  0.00    -0.242 C  
ENDROOT
BRANCH   8   9
HETATM    9  O   UNL     1      -7.717  16.826  68.322  1.00  0.00    -0.173 OA 
BRANCH   9  10
HETATM   10  C   UNL     1      -8.414  15.817  68.900  1.00  0.00    -0.218 C  
HETATM   11  O   UNL     1      -7.959  15.022  69.704  1.00  0.00    -0.184 OA 
HETATM   12  N   UNL     1      -9.667  15.794  68.360  1.00  0.00    -0.200 N  
HETATM   13  H   UNL     1      -9.955  16.577  67.772  1.00  0.00     0.000 HD 
BRANCH  12  14
HETATM   14  C   UNL     1     -10.625  14.700  68.580  1.00  0.00    -0.245 C  
BRANCH  14  15
HETATM   15  C   UNL     1     -12.024  15.239  69.024  1.00  0.00    -0.304 C  
BRANCH  15  16
HETATM   16  C   UNL     1     -12.350  15.130  70.505  1.00  0.00    -0.408 A  
HETATM   17  C   UNL     1     -11.741  15.984  71.433  1.00  0.00    -0.536 A  
HETATM   18  C   UNL     1     -13.237  14.150  70.979  1.00  0.00    -0.337 A  
HETATM   19  C   UNL     1     -12.007  15.858  72.799  1.00  0.00    -0.616 A  
HETATM   20  C   UNL     1     -12.895  14.884  73.254  1.00  0.00    -0.646 A  
HETATM   21  C   UNL     1     -13.516  14.035  72.343  1.00  0.00    -0.639 A  
ENDBRANCH  15  16
ENDBRANCH  14  15
BRANCH  14  22
HETATM   22  C   UNL     1     -10.779  13.741  67.360  1.00  0.00    -0.275 C  
HETATM   23  O   UNL     1     -11.894  12.857  67.544  1.00  0.00    -0.360 OA 
HETATM   24  H   UNL     1     -11.988  12.273  66.801  1.00  0.00     0.000 HD 
BRANCH  22  25
HETATM   25  C   UNL     1      -9.532  12.965  66.890  1.00  0.00    -0.237 C  
BRANCH  25  26
HETATM   26  N   UNL     1      -9.655  11.485  66.540  1.00  0.00    -0.200 N  
BRANCH  26  27
HETATM   27  C   UNL     1      -9.252  11.229  65.088  1.00  0.00    -0.149 C  
HETATM   28  C   UNL     1     -10.323  10.758  64.081  1.00  0.00    -0.382 C  
HETATM   29  C   UNL     1     -11.454  11.760  63.860  1.00  0.00    -0.481 C  
HETATM   30  C   UNL     1      -9.656  10.505  62.716  1.00  0.00    -0.323 C  
ENDBRANCH  26  27
BRANCH  26  31
HETATM   31  S   UNL     1      -8.686  10.541  67.672  1.00  0.00    -0.121 S  
HETATM   32  O   UNL     1      -7.292  10.715  67.348  1.00  0.00    -0.090 OA 
HETATM   33  O   UNL     1      -9.201  10.841  68.996  1.00  0.00    -0.180 OA 
BRANCH  31  34
HETATM   34  C   UNL     1      -9.105   8.837  67.311  1.00  0.00    -0.132 A  
HETATM   35  C   UNL     1     -10.759   7.093  67.053  1.00  0.00    -0.420 A  
HETATM   36  C   UNL     1     -10.442   8.443  67.267  1.00  0.00    -0.373 A  
HETATM   37  C   UNL     1      -9.757   6.124  66.926  1.00  0.00    -0.149 A  
HETATM   38  N   UNL     1     -10.082   4.805  66.610  1.00  0.00    -0.233 NA 
HETATM   39  C   UNL     1      -8.427   6.550  66.888  1.00  0.00    -0.114 A  
HETATM   40  H1  UNL     1      -9.352   4.099  66.518  1.00  0.00     0.000 HD 
HETATM   41  C   UNL     1      -8.093   7.895  67.094  1.00  0.00    -0.117 A  
HETATM   42  H2  UNL     1     -10.632   4.808  65.751  1.00  0.00     0.000 HD 
ENDBRANCH  31  34
ENDBRANCH  26  31
ENDBRANCH  25  26
ENDBRANCH  22  25
ENDBRANCH  14  22
ENDBRANCH  12  14
ENDBRANCH   9  10
ENDBRANCH   8   9
TORSDOF 11
ENDMDL
MODEL       44
REMARK 921   NORMALIZED FREE ENERGY PREDICTED BY IDOCK:   -6.40 KCAL/MOL
REMARK 922        TOTAL FREE ENERGY PREDICTED BY IDOCK:  -13.13 KCAL/MOL
REMARK 923 INTER-LIGAND FREE ENERGY PREDICTED BY IDOCK:  -10.92 KCAL/MOL
REMARK 924 INTRA-LIGAND FREE ENERGY PREDICTED BY IDOCK:   -2.21 KCAL/MOL
REMARK 927      BINDING AFFINITY PREDICTED BY RF-SCORE:    0.00 PKD
ROOT
HETATM    1  C   UNL     1     -12.155   8.239  72.426  1.00  0.00    -0.430 C  
HETATM    2  C   UNL     1     -12.596   6.981  71.701  1.00  0.00    -0.419 C  
HETATM    3  C   UNL     1     -14.056   7.220  71.365  1.00  0.00    -0.319 C  
HETATM    4  O   UNL     1     -14.393   8.547  71.767  1.00  0.00    -0.430 OA 
HETATM    5  C   UNL     1     -13.187   9.258  72.008  1.00  0.00    -0.447 C  
HETATM    6  O   UNL     1     -12.687   9.863  70.817  1.00  0.00    -0.292 OA 
HETATM    7  C   UNL     1     -11.258   9.852  70.900  1.00  0.00    -0.360 C  
HETATM    8  C   UNL     1     -10.842   8.864  71.990  1.00  0.00    -0.334 C  
ENDROOT
BRANCH   8   9
HETATM    9  O   UNL     1      -9.947   7.897  71.417  1.00  0.00    -0.170 OA 
BRANCH   9  10
HETATM   10  C   UNL     1      -8.748   8.367  70.993  1.00  0.00    -0.156 C  
HETATM   11  O   UNL     1      -8.081   9.208  71.571  1.00  0.00    -0.337 OA 
HETATM   12  N   UNL     1      -8.471   7.810  69.778  1.00  0.00    -0.132 N  
HETATM   13  H   UNL     1      -9.060   7.044  69.452  1.00  0.00     0.000 HD 
BRANCH  12  14
HETATM   14  C   UNL     1      -7.366   8.256  68.915  1.00  0.00    -0.090 C  
BRANCH  14  15
HETATM   15  C   UNL     1      -6.913   7.129  67.932  1.00  0.00    -0.080 C  
BRANCH  15  16
HETATM   16  C   UNL     1      -7.959   6.087  67.570  1.00  0.00    -0.102 A  
HETATM   17  C   UNL     1      -8.065   4.899  68.305  1.00  0.00    -0.085 A  
HETATM   18  C   UNL     1      -8.815   6.273  66.473  1.00  0.00    -0.140 A  
HETATM   19  C   UNL     1      -8.997   3.921  67.949  1.00  0.00    -0.155 A  
HETATM   20  C   UNL     1      -9.845   4.123  66.861  1.00  0.00    -0.197 A  
HETATM   21  C   UNL     1      -9.759   5.302  66.127  1.00  0.00    -0.179 A  
ENDBRANCH  15  16
ENDBRANCH  14  15
BRANCH  14  22
HETATM   22  C   UNL     1      -7.671   9.568  68.128  1.00  0.00    -0.083 C  
HETATM   23  O   UNL     1      -7.224  10.717  68.862  1.00  0.00    -0.075 OA 
HETATM   24  H   UNL     1      -7.409  11.516  68.383  1.00  0.00     0.000 HD 
BRANCH  22  25
HETATM   25  C   UNL     1      -9.103   9.776  67.597  1.00  0.00    -0.131 C  
BRANCH  25  26
HETATM   26  N   UNL     1      -9.430  11.025  66.784  1.00  0.00    -0.179 N  
BRANCH  26  27
HETATM   27  C   UNL     1      -9.761  10.665  65.336  1.00  0.00    -0.252 C  
HETATM   28  C   UNL     1      -8.633  10.677  64.282  1.00  0.00    -0.104 C  
HETATM   29  C   UNL     1      -7.519   9.668  64.548  1.00  0.00    -0.128 C  
HETATM   30  C   UNL     1      -9.231  10.353  62.900  1.00  0.00    -0.319 C  
ENDBRANCH  26  27
BRANCH  26  31
HETATM   31  S   UNL     1     -10.749  11.895  67.567  1.00  0.00    -0.236 S  
HETATM   32  O   UNL     1     -11.936  11.078  67.523  1.00  0.00    -0.529 OA 
HETATM   33  O   UNL     1     -10.217  12.395  68.822  1.00  0.00    -0.186 OA 
BRANCH  31  34
HETATM   34  C   UNL     1     -11.043  13.312  66.510  1.00  0.00    -0.294 A  
HETATM   35  C   UNL     1     -12.324  14.405  64.775  1.00  0.00    -0.427 A  
HETATM   36  C   UNL     1     -12.140  13.322  65.649  1.00  0.00    -0.488 A  
HETATM   37  C   UNL     1     -11.401  15.455  64.718  1.00  0.00    -0.376 A  
HETATM   38  N   UNL     1     -11.648  16.574  63.922  1.00  0.00    -1.578 NA 
HETATM   39  C   UNL     1     -10.356  15.469  65.645  1.00  0.00    -0.407 A  
HETATM   40  H1  UNL     1     -10.975  17.340  63.880  1.00  0.00     0.000 HD 
HETATM   41  C   UNL     1     -10.162  14.399  66.530  1.00  0.00    -0.276 A  
HETATM   42  H2  UNL     1     -12.554  16.960  64.185  1.00  0.00     0.000 HD 
ENDBRANCH  31  34
ENDBRANCH  26  31
ENDBRANCH  25  26
ENDBRANCH  22  25
ENDBRANCH  14  22
ENDBRANCH  12  14
ENDBRANCH   9  10
ENDBRANCH   8   9
TORSDOF 11
ENDMDL
MODEL       45
REMARK 921   NORMALIZED FREE ENERGY PREDICTED BY IDOCK:   -6.38 KCAL/MOL
REMARK 922        TOTAL FREE ENERGY PREDICTED BY IDOCK:  -13.11 KCAL/MOL
REMARK 923 INTER-LIGAND FREE ENERGY PREDICTED BY IDOCK:  -10.67 KCAL/MOL
REMARK 924 INTRA-LIGAND FREE ENERGY PREDICTED BY IDOCK:   -2.44 KCAL/MOL
REMARK 927      BINDING AFFINITY PREDICTED BY RF-SCORE:    0.00 PKD
ROOT
HETATM    1  C   UNL     1     -10.631   8.551  71.973  1.00  0.00    -0.408 C  
HETATM    2  C   UNL     1      -9.311   8.319  72.685  1.00  0.00    -0.350 C  
HETATM    3  C   UNL     1      -9.596   7.204  73.673  1.00  0.00    -0.246 C  
HETATM    4  O   UNL     1     -10.936   6.759  73.468  1.00  0.00    -0.252 OA 
HETATM    5  C   UNL     1     -11.387   7.268  72.221  1.00  0.00    -0.272 C  
HETATM    6  O   UNL     1     -11.049   6.395  71.144  1.00  0.00    -0.264 OA 
HETATM    7  C   UNL     1     -10.798   7.211  69.995  1.00  0.00    -0.254 C  
HETATM    8  C   UNL     1     -10.591   8.653  70.459  1.00  0.00    -0.217 C  
ENDROOT
BRANCH   8   9
HETATM    9  O   UNL     1      -9.315   9.110  69.981  1.00  0.00    -0.172 OA 
BRANCH   9  10
HETATM   10  C   UNL     1      -9.333  10.188  69.159  1.00  0.00    -0.197 C  
HETATM   11  O   UNL     1      -8.358  10.659  68.599  1.00  0.00    -0.121 OA 
HETATM   12  N   UNL     1     -10.599  10.700  69.147  1.00  0.00    -0.213 N  
HETATM   13  H   UNL     1     -11.345  10.153  69.576  1.00  0.00     0.000 HD 
BRANCH  12  14
HETATM   14  C   UNL     1     -10.942  11.998  68.546  1.00  0.00    -0.240 C  
BRANCH  14  15
HETATM   15  C   UNL     1     -11.993  11.841  67.398  1.00  0.00    -0.050 C  
BRANCH  15  16
HETATM   16  C   UNL     1     -11.449  11.854  65.979  1.00  0.00    -0.344 A  
HETATM   17  C   UNL     1     -10.306  11.114  65.648  1.00  0.00    -0.311 A  
HETATM   18  C   UNL     1     -12.053  12.634  64.980  1.00  0.00    -0.497 A  
HETATM   19  C   UNL     1      -9.779  11.157  64.354  1.00  0.00    -0.312 A  
HETATM   20  C   UNL     1     -10.394  11.931  63.371  1.00  0.00    -0.481 A  
HETATM   21  C   UNL     1     -11.536  12.664  63.682  1.00  0.00    -0.563 A  
ENDBRANCH  15  16
ENDBRANCH  14  15
BRANCH  14  22
HETATM   22  C   UNL     1     -11.425  13.062  69.577  1.00  0.00    -0.222 C  
HETATM   23  O   UNL     1     -12.136  12.440  70.657  1.00  0.00    -0.448 OA 
HETATM   24  H   UNL     1     -12.429  13.089  71.286  1.00  0.00     0.000 HD 
BRANCH  22  25
HETATM   25  C   UNL     1     -12.195  14.288  69.045  1.00  0.00    -0.220 C  
BRANCH  25  26
HETATM   26  N   UNL     1     -12.073  15.625  69.768  1.00  0.00    -0.360 N  
BRANCH  26  27
HETATM   27  C   UNL     1     -11.695  15.423  71.236  1.00  0.00    -0.380 C  
HETATM   28  C   UNL     1     -12.730  15.755  72.332  1.00  0.00    -0.537 C  
HETATM   29  C   UNL     1     -13.995  14.901  72.274  1.00  0.00    -0.602 C  
HETATM   30  C   UNL     1     -12.087  15.536  73.715  1.00  0.00    -0.625 C  
ENDBRANCH  26  27
BRANCH  26  31
HETATM   31  S   UNL     1     -10.907  16.639  68.918  1.00  0.00    -0.297 S  
HETATM   32  O   UNL     1     -11.532  17.174  67.734  1.00  0.00     0.093 OA 
HETATM   33  O   UNL     1     -10.314  17.505  69.921  1.00  0.00     0.095 OA 
BRANCH  31  34
HETATM   34  C   UNL     1      -9.633  15.502  68.375  1.00  0.00    -0.199 A  
HETATM   35  C   UNL     1      -7.596  14.273  68.806  1.00  0.00    -0.130 A  
HETATM   36  C   UNL     1      -8.629  15.109  69.260  1.00  0.00    -0.211 A  
HETATM   37  C   UNL     1      -7.530  13.862  67.470  1.00  0.00    -0.169 A  
HETATM   38  N   UNL     1      -6.559  12.949  67.056  1.00  0.00    -0.463 NA 
HETATM   39  C   UNL     1      -8.588  14.196  66.622  1.00  0.00     0.003 A  
HETATM   40  H1  UNL     1      -6.511  12.649  66.082  1.00  0.00     0.000 HD 
HETATM   41  C   UNL     1      -9.631  15.024  67.061  1.00  0.00    -0.233 A  
HETATM   42  H2  UNL     1      -6.632  12.117  67.643  1.00  0.00     0.000 HD 
ENDBRANCH  31  34
ENDBRANCH  26  31
ENDBRANCH  25  26
ENDBRANCH  22  25
ENDBRANCH  14  22
ENDBRANCH  12  14
ENDBRANCH   9  10
ENDBRANCH   8   9
TORSDOF 11
ENDMDL
MODEL       46
REMARK 921   NORMALIZED FREE ENERGY PREDICTED BY IDOCK:   -6.37 KCAL/MOL
REMARK 922        TOTAL FREE ENERGY PREDICTED BY IDOCK:  -13.08 KCAL/MOL
REMARK 923 INTER-LIGAND FREE ENERGY PREDICTED BY IDOCK:  -11.36 KCAL/MOL
REMARK 924 INTRA-LIGAND FREE ENERGY PREDICTED BY IDOCK:   -1.73 KCAL/MOL
REMARK 927      BINDING AFFINITY PREDICTED BY RF-SCORE:    0.00 PKD
ROOT
HETATM    1  C   UNL     1      -9.496   5.576  66.279  1.00  0.00    -0.171 C  
HETATM    2  C   UNL     1     -10.560   4.641  65.732  1.00  0.00    -0.264 C  
HETATM    3  C   UNL     1      -9.783   3.529  65.053  1.00  0.00    -0.142 C  
HETATM    4  O   UNL     1      -8.393   3.751  65.284  1.00  0.00    -0.100 OA 
HETATM    5  C   UNL     1      -8.264   4.707  66.327  1.00  0.00    -0.107 C  
HETATM    6  O   UNL     1      -8.267   4.087  67.612  1.00  0.00    -0.093 OA 
HETATM    7  C   UNL     1      -8.896   4.994  68.523  1.00  0.00    -0.101 C  
HETATM    8  C   UNL     1      -9.658   6.044  67.714  1.00  0.00    -0.112 C  
ENDROOT
BRANCH   8   9
HETATM    9  O   UNL     1     -11.033   6.038  68.133  1.00  0.00    -0.300 OA 
BRANCH   9  10
HETATM   10  C   UNL     1     -11.330   6.784  69.226  1.00  0.00    -0.163 C  
HETATM   11  O   UNL     1     -12.009   6.408  70.166  1.00  0.00    -0.354 OA 
HETATM   12  N   UNL     1     -10.822   8.037  69.044  1.00  0.00    -0.420 N  
HETATM   13  H   UNL     1     -10.187   8.193  68.261  1.00  0.00     0.000 HD 
BRANCH  12  14
HETATM   14  C   UNL     1     -11.142   9.176  69.918  1.00  0.00    -0.159 C  
BRANCH  14  15
HETATM   15  C   UNL     1      -9.931   9.562  70.828  1.00  0.00    -0.334 C  
BRANCH  15  16
HETATM   16  C   UNL     1      -9.599   8.596  71.954  1.00  0.00    -0.377 A  
HETATM   17  C   UNL     1     -10.618   7.905  72.623  1.00  0.00    -0.394 A  
HETATM   18  C   UNL     1      -8.273   8.404  72.374  1.00  0.00    -0.202 A  
HETATM   19  C   UNL     1     -10.319   7.049  73.686  1.00  0.00    -0.412 A  
HETATM   20  C   UNL     1      -8.997   6.863  74.088  1.00  0.00    -0.220 A  
HETATM   21  C   UNL     1      -7.973   7.535  73.427  1.00  0.00    -0.150 A  
ENDBRANCH  15  16
ENDBRANCH  14  15
BRANCH  14  22
HETATM   22  C   UNL     1     -11.664  10.431  69.154  1.00  0.00    -0.119 C  
HETATM   23  O   UNL     1     -11.704  10.186  67.741  1.00  0.00    -0.594 OA 
HETATM   24  H   UNL     1     -12.022  10.951  67.275  1.00  0.00     0.000 HD 
BRANCH  22  25
HETATM   25  C   UNL     1     -11.003  11.790  69.459  1.00  0.00    -0.064 C  
BRANCH  25  26
HETATM   26  N   UNL     1     -11.817  13.072  69.317  1.00  0.00    -0.317 N  
BRANCH  26  27
HETATM   27  C   UNL     1     -12.057  13.724  70.679  1.00  0.00    -0.333 C  
HETATM   28  C   UNL     1     -13.268  13.275  71.525  1.00  0.00    -0.383 C  
HETATM   29  C   UNL     1     -13.226  11.809  71.947  1.00  0.00    -0.468 C  
HETATM   30  C   UNL     1     -13.328  14.125  72.809  1.00  0.00    -0.618 C  
ENDBRANCH  26  27
BRANCH  26  31
HETATM   31  S   UNL     1     -10.994  14.160  68.199  1.00  0.00    -0.258 S  
HETATM   32  O   UNL     1     -11.759  15.376  68.086  1.00  0.00    -0.351 OA 
HETATM   33  O   UNL     1      -9.599  14.175  68.601  1.00  0.00    -0.215 OA 
BRANCH  31  34
HETATM   34  C   UNL     1     -11.084  13.329  66.614  1.00  0.00    -0.291 A  
HETATM   35  C   UNL     1     -12.377  12.544  64.729  1.00  0.00    -0.544 A  
HETATM   36  C   UNL     1     -12.300  13.257  65.935  1.00  0.00    -0.479 A  
HETATM   37  C   UNL     1     -11.266  11.866  64.215  1.00  0.00    -0.357 A  
HETATM   38  N   UNL     1     -11.327  11.250  62.965  1.00  0.00    -0.827 NA 
HETATM   39  C   UNL     1     -10.039  12.021  64.864  1.00  0.00    -0.289 A  
HETATM   40  H1  UNL     1     -10.517  10.755  62.590  1.00  0.00     0.000 HD 
HETATM   41  C   UNL     1      -9.943  12.734  66.066  1.00  0.00    -0.277 A  
HETATM   42  H2  UNL     1     -11.620  11.946  62.279  1.00  0.00     0.000 HD 
ENDBRANCH  31  34
ENDBRANCH  26  31
ENDBRANCH  25  26
ENDBRANCH  22  25
ENDBRANCH  14  22
ENDBRANCH  12  14
ENDBRANCH   9  10
ENDBRANCH   8   9
TORSDOF 11
ENDMDL
MODEL       47
REMARK 921   NORMALIZED FREE ENERGY PREDICTED BY IDOCK:   -6.34 KCAL/MOL
REMARK 922        TOTAL FREE ENERGY PREDICTED BY IDOCK:  -13.05 KCAL/MOL
REMARK 923 INTER-LIGAND FREE ENERGY PREDICTED BY IDOCK:  -11.06 KCAL/MOL
REMARK 924 INTRA-LIGAND FREE ENERGY PREDICTED BY IDOCK:   -1.98 KCAL/MOL
REMARK 927      BINDING AFFINITY PREDICTED BY RF-SCORE:    0.00 PKD
ROOT
HETATM    1  C   UNL     1     -11.138   8.572  70.711  1.00  0.00    -0.288 C  
HETATM    2  C   UNL     1     -11.747   9.959  70.807  1.00  0.00    -0.424 C  
HETATM    3  C   UNL     1     -13.051   9.756  71.554  1.00  0.00    -0.411 C  
HETATM    4  O   UNL     1     -13.131   8.387  71.948  1.00  0.00    -0.333 OA 
HETATM    5  C   UNL     1     -11.841   7.809  71.806  1.00  0.00    -0.290 C  
HETATM    6  O   UNL     1     -11.053   7.988  72.982  1.00  0.00    -0.382 OA 
HETATM    7  C   UNL     1      -9.691   8.128  72.566  1.00  0.00    -0.287 C  
HETATM    8  C   UNL     1      -9.669   8.436  71.069  1.00  0.00    -0.174 C  
ENDROOT
BRANCH   8   9
HETATM    9  O   UNL     1      -8.946   9.661  70.862  1.00  0.00    -0.196 OA 
BRANCH   9  10
HETATM   10  C   UNL     1      -8.193   9.731  69.737  1.00  0.00    -0.173 C  
HETATM   11  O   UNL     1      -7.075   9.262  69.612  1.00  0.00    -0.056 OA 
HETATM   12  N   UNL     1      -8.861  10.487  68.818  1.00  0.00    -0.150 N  
HETATM   13  H   UNL     1      -9.832  10.733  69.009  1.00  0.00     0.000 HD 
BRANCH  12  14
HETATM   14  C   UNL     1      -8.254  10.964  67.565  1.00  0.00    -0.116 C  
BRANCH  14  15
HETATM   15  C   UNL     1      -8.827  10.207  66.323  1.00  0.00    -0.163 C  
BRANCH  15  16
HETATM   16  C   UNL     1      -9.103   8.723  66.504  1.00  0.00    -0.203 A  
HETATM   17  C   UNL     1      -8.136   7.772  66.155  1.00  0.00    -0.113 A  
HETATM   18  C   UNL     1     -10.341   8.272  66.987  1.00  0.00    -0.393 A  
HETATM   19  C   UNL     1      -8.402   6.406  66.281  1.00  0.00    -0.123 A  
HETATM   20  C   UNL     1      -9.634   5.973  66.768  1.00  0.00    -0.171 A  
HETATM   21  C   UNL     1     -10.601   6.906  67.129  1.00  0.00    -0.408 A  
ENDBRANCH  15  16
ENDBRANCH  14  15
BRANCH  14  22
HETATM   22  C   UNL     1      -8.366  12.505  67.358  1.00  0.00    -0.182 C  
HETATM   23  O   UNL     1      -7.137  13.040  66.848  1.00  0.00    -0.355 OA 
HETATM   24  H   UNL     1      -7.205  13.980  66.721  1.00  0.00     0.000 HD 
BRANCH  22  25
HETATM   25  C   UNL     1      -8.893  13.356  68.531  1.00  0.00    -0.068 C  
BRANCH  25  26
HETATM   26  N   UNL     1     -10.208  14.114  68.379  1.00  0.00    -0.241 N  
BRANCH  26  27
HETATM   27  C   UNL     1     -10.480  14.992  69.600  1.00  0.00    -0.213 C  
HETATM   28  C   UNL     1     -11.910  15.057  70.178  1.00  0.00    -0.357 C  
HETATM   29  C   UNL     1     -12.431  13.721  70.702  1.00  0.00    -0.429 C  
HETATM   30  C   UNL     1     -11.935  16.057  71.350  1.00  0.00    -0.507 C  
ENDBRANCH  26  27
BRANCH  26  31
HETATM   31  S   UNL     1     -10.167  15.051  66.886  1.00  0.00    -0.263 S  
HETATM   32  O   UNL     1     -11.028  16.198  67.032  1.00  0.00    -0.256 OA 
HETATM   33  O   UNL     1      -8.765  15.194  66.535  1.00  0.00    -0.278 OA 
BRANCH  31  34
HETATM   34  C   UNL     1     -10.917  13.980  65.661  1.00  0.00    -0.300 A  
HETATM   35  C   UNL     1     -10.792  12.781  63.565  1.00  0.00    -0.281 A  
HETATM   36  C   UNL     1     -10.176  13.562  64.555  1.00  0.00    -0.296 A  
HETATM   37  C   UNL     1     -12.149  12.449  63.643  1.00  0.00    -0.556 A  
HETATM   38  N   UNL     1     -12.724  11.587  62.709  1.00  0.00    -0.746 NA 
HETATM   39  C   UNL     1     -12.851  12.804  64.798  1.00  0.00    -0.374 A  
HETATM   40  H1  UNL     1     -13.713  11.345  62.766  1.00  0.00     0.000 HD 
HETATM   41  C   UNL     1     -12.250  13.579  65.799  1.00  0.00    -0.505 A  
HETATM   42  H2  UNL     1     -12.184  10.721  62.699  1.00  0.00     0.000 HD 
ENDBRANCH  31  34
ENDBRANCH  26  31
ENDBRANCH  25  26
ENDBRANCH  22  25
ENDBRANCH  14  22
ENDBRANCH  12  14
ENDBRANCH   9  10
ENDBRANCH   8   9
TORSDOF 11
ENDMDL
MODEL       48
REMARK 921   NORMALIZED FREE ENERGY PREDICTED BY IDOCK:   -6.34 KCAL/MOL
REMARK 922        TOTAL FREE ENERGY PREDICTED BY IDOCK:  -13.03 KCAL/MOL
REMARK 923 INTER-LIGAND FREE ENERGY PREDICTED BY IDOCK:  -11.76 KCAL/MOL
REMARK 924 INTRA-LIGAND FREE ENERGY PREDICTED BY IDOCK:   -1.27 KCAL/MOL
REMARK 927      BINDING AFFINITY PREDICTED BY RF-SCORE:    0.00 PKD
ROOT
HETATM    1  C   UNL     1      -9.106   8.186  72.898  1.00  0.00    -0.337 C  
HETATM    2  C   UNL     1      -8.129   7.124  72.428  1.00  0.00    -0.108 C  
HETATM    3  C   UNL     1      -8.443   5.907  73.277  1.00  0.00    -0.118 C  
HETATM    4  O   UNL     1      -9.576   6.211  74.089  1.00  0.00    -0.154 OA 
HETATM    5  C   UNL     1     -10.192   7.382  73.571  1.00  0.00    -0.349 C  
HETATM    6  O   UNL     1     -11.142   7.070  72.554  1.00  0.00    -0.250 OA 
HETATM    7  C   UNL     1     -11.123   8.143  71.607  1.00  0.00    -0.255 C  
HETATM    8  C   UNL     1      -9.851   8.962  71.827  1.00  0.00    -0.315 C  
ENDROOT
BRANCH   8   9
HETATM    9  O   UNL     1      -9.120   9.017  70.591  1.00  0.00    -0.193 OA 
BRANCH   9  10
HETATM   10  C   UNL     1      -9.825   9.384  69.492  1.00  0.00    -0.183 C  
HETATM   11  O   UNL     1     -10.308   8.614  68.681  1.00  0.00    -0.196 OA 
HETATM   12  N   UNL     1      -9.815  10.746  69.409  1.00  0.00    -0.407 N  
HETATM   13  H   UNL     1      -9.464  11.277  70.207  1.00  0.00     0.000 HD 
BRANCH  12  14
HETATM   14  C   UNL     1     -10.286  11.490  68.230  1.00  0.00    -0.196 C  
BRANCH  14  15
HETATM   15  C   UNL     1     -11.788  11.900  68.370  1.00  0.00    -0.352 C  
BRANCH  15  16
HETATM   16  C   UNL     1     -12.253  12.296  69.762  1.00  0.00    -0.201 A  
HETATM   17  C   UNL     1     -12.750  11.331  70.648  1.00  0.00    -0.314 A  
HETATM   18  C   UNL     1     -12.232  13.637  70.177  1.00  0.00    -0.413 A  
HETATM   19  C   UNL     1     -13.217  11.698  71.913  1.00  0.00    -0.475 A  
HETATM   20  C   UNL     1     -13.184  13.033  72.313  1.00  0.00    -0.539 A  
HETATM   21  C   UNL     1     -12.684  14.002  71.448  1.00  0.00    -0.442 A  
ENDBRANCH  15  16
ENDBRANCH  14  15
BRANCH  14  22
HETATM   22  C   UNL     1      -9.416  12.736  67.883  1.00  0.00    -0.208 C  
HETATM   23  O   UNL     1      -8.506  13.036  68.950  1.00  0.00    -0.360 OA 
HETATM   24  H   UNL     1      -7.975  13.795  68.738  1.00  0.00     0.000 HD 
BRANCH  22  25
HETATM   25  C   UNL     1     -10.139  14.010  67.401  1.00  0.00    -0.244 C  
BRANCH  25  26
HETATM   26  N   UNL     1      -9.682  14.694  66.116  1.00  0.00    -0.306 N  
BRANCH  26  27
HETATM   27  C   UNL     1     -10.196  13.950  64.884  1.00  0.00    -0.351 C  
HETATM   28  C   UNL     1     -11.442  13.048  65.016  1.00  0.00    -0.345 C  
HETATM   29  C   UNL     1     -12.714  13.795  65.413  1.00  0.00    -0.513 C  
HETATM   30  C   UNL     1     -11.712  12.361  63.664  1.00  0.00    -0.596 C  
ENDBRANCH  26  27
BRANCH  26  31
HETATM   31  S   UNL     1     -10.207  16.377  66.139  1.00  0.00    -0.360 S  
HETATM   32  O   UNL     1     -10.727  16.720  64.838  1.00  0.00    -0.721 OA 
HETATM   33  O   UNL     1     -11.005  16.538  67.341  1.00  0.00    -0.248 OA 
BRANCH  31  34
HETATM   34  C   UNL     1      -8.699  17.317  66.370  1.00  0.00    -0.250 A  
HETATM   35  C   UNL     1      -7.551  19.440  66.508  1.00  0.00    -0.273 A  
HETATM   36  C   UNL     1      -8.745  18.711  66.397  1.00  0.00    -0.286 A  
HETATM   37  C   UNL     1      -6.309  18.796  66.547  1.00  0.00    -0.188 A  
HETATM   38  N   UNL     1      -5.139  19.525  66.763  1.00  0.00    -0.161 NA 
HETATM   39  C   UNL     1      -6.289  17.401  66.604  1.00  0.00    -0.250 A  
HETATM   40  H1  UNL     1      -4.234  19.056  66.791  1.00  0.00     0.000 HD 
HETATM   41  C   UNL     1      -7.473  16.657  66.501  1.00  0.00    -0.306 A  
HETATM   42  H2  UNL     1      -5.249  20.059  67.625  1.00  0.00     0.000 HD 
ENDBRANCH  31  34
ENDBRANCH  26  31
ENDBRANCH  25  26
ENDBRANCH  22  25
ENDBRANCH  14  22
ENDBRANCH  12  14
ENDBRANCH   9  10
ENDBRANCH   8   9
TORSDOF 11
ENDMDL
MODEL       49
REMARK 921   NORMALIZED FREE ENERGY PREDICTED BY IDOCK:   -6.31 KCAL/MOL
REMARK 922        TOTAL FREE ENERGY PREDICTED BY IDOCK:  -12.99 KCAL/MOL
REMARK 923 INTER-LIGAND FREE ENERGY PREDICTED BY IDOCK:  -11.26 KCAL/MOL
REMARK 924 INTRA-LIGAND FREE ENERGY PREDICTED BY IDOCK:   -1.74 KCAL/MOL
REMARK 927      BINDING AFFINITY PREDICTED BY RF-SCORE:    0.00 PKD
ROOT
HETATM    1  C   UNL     1      -9.800  18.574  67.999  1.00  0.00    -0.370 C  
HETATM    2  C   UNL     1     -10.553  18.501  66.683  1.00  0.00    -0.383 C  
HETATM    3  C   UNL     1     -10.235  19.809  65.984  1.00  0.00    -0.501 C  
HETATM    4  O   UNL     1      -9.292  20.523  66.782  1.00  0.00    -0.324 OA 
HETATM    5  C   UNL     1      -8.748  19.623  67.737  1.00  0.00    -0.323 C  
HETATM    6  O   UNL     1      -7.616  18.927  67.217  1.00  0.00    -0.228 OA 
HETATM    7  C   UNL     1      -7.612  17.621  67.801  1.00  0.00    -0.206 C  
HETATM    8  C   UNL     1      -8.993  17.353  68.401  1.00  0.00    -0.277 C  
ENDROOT
BRANCH   8   9
HETATM    9  O   UNL     1      -9.517  16.144  67.827  1.00  0.00    -0.215 OA 
BRANCH   9  10
HETATM   10  C   UNL     1     -10.267  15.367  68.646  1.00  0.00    -0.217 C  
HETATM   11  O   UNL     1     -10.522  15.620  69.811  1.00  0.00    -0.267 OA 
HETATM   12  N   UNL     1     -10.601  14.228  67.973  1.00  0.00    -0.235 N  
HETATM   13  H   UNL     1     -10.413  14.185  66.971  1.00  0.00     0.000 HD 
BRANCH  12  14
HETATM   14  C   UNL     1     -11.218  13.058  68.617  1.00  0.00    -0.277 C  
BRANCH  14  15
HETATM   15  C   UNL     1     -12.141  12.276  67.626  1.00  0.00    -0.032 C  
BRANCH  15  16
HETATM   16  C   UNL     1     -11.687  12.226  66.176  1.00  0.00    -0.440 A  
HETATM   17  C   UNL     1     -12.354  12.970  65.195  1.00  0.00    -0.536 A  
HETATM   18  C   UNL     1     -10.617  11.407  65.782  1.00  0.00    -0.315 A  
HETATM   19  C   UNL     1     -11.966  12.894  63.855  1.00  0.00    -0.550 A  
HETATM   20  C   UNL     1     -10.897  12.082  63.480  1.00  0.00    -0.509 A  
HETATM   21  C   UNL     1     -10.217  11.344  64.445  1.00  0.00    -0.361 A  
ENDBRANCH  15  16
ENDBRANCH  14  15
BRANCH  14  22
HETATM   22  C   UNL     1     -10.193  12.087  69.278  1.00  0.00     0.278 C  
HETATM   23  O   UNL     1      -8.875  12.306  68.756  1.00  0.00    -0.371 OA 
HETATM   24  H   UNL     1      -8.250  11.715  69.160  1.00  0.00     0.000 HD 
BRANCH  22  25
HETATM   25  C   UNL     1     -10.533  10.584  69.303  1.00  0.00    -0.235 C  
BRANCH  25  26
HETATM   26  N   UNL     1     -10.289   9.778  70.576  1.00  0.00    -0.292 N  
BRANCH  26  27
HETATM   27  C   UNL     1     -11.577   9.109  71.056  1.00  0.00    -0.306 C  
HETATM   28  C   UNL     1     -12.436   9.813  72.128  1.00  0.00    -0.303 C  
HETATM   29  C   UNL     1     -12.998  11.163  71.690  1.00  0.00    -0.548 C  
HETATM   30  C   UNL     1     -13.631   8.909  72.490  1.00  0.00    -0.467 C  
ENDBRANCH  26  27
BRANCH  26  31
HETATM   31  S   UNL     1      -9.004   8.607  70.282  1.00  0.00    -0.164 S  
HETATM   32  O   UNL     1      -7.851   9.302  69.768  1.00  0.00    -0.081 OA 
HETATM   33  O   UNL     1      -8.925   7.783  71.475  1.00  0.00    -0.128 OA 
BRANCH  31  34
HETATM   34  C   UNL     1      -9.632   7.572  68.960  1.00  0.00    -0.153 A  
HETATM   35  C   UNL     1      -9.850   7.085  66.603  1.00  0.00    -0.223 A  
HETATM   36  C   UNL     1      -9.298   7.857  67.636  1.00  0.00    -0.161 A  
HETATM   37  C   UNL     1     -10.765   6.060  66.872  1.00  0.00    -0.334 A  
HETATM   38  N   UNL     1     -11.225   5.233  65.847  1.00  0.00    -0.792 NA 
HETATM   39  C   UNL     1     -11.020   5.736  68.207  1.00  0.00    -0.152 A  
HETATM   40  H1  UNL     1     -11.892   4.486  66.044  1.00  0.00     0.000 HD 
HETATM   41  C   UNL     1     -10.472   6.493  69.251  1.00  0.00    -0.259 A  
HETATM   42  H2  UNL     1     -10.416   4.823  65.380  1.00  0.00     0.000 HD 
ENDBRANCH  31  34
ENDBRANCH  26  31
ENDBRANCH  25  26
ENDBRANCH  22  25
ENDBRANCH  14  22
ENDBRANCH  12  14
ENDBRANCH   9  10
ENDBRANCH   8   9
TORSDOF 11
ENDMDL
MODEL       50
REMARK 921   NORMALIZED FREE ENERGY PREDICTED BY IDOCK:   -6.28 KCAL/MOL
REMARK 922        TOTAL FREE ENERGY PREDICTED BY IDOCK:  -12.95 KCAL/MOL
REMARK 923 INTER-LIGAND FREE ENERGY PREDICTED BY IDOCK:  -10.23 KCAL/MOL
REMARK 924 INTRA-LIGAND FREE ENERGY PREDICTED BY IDOCK:   -2.71 KCAL/MOL
REMARK 927      BINDING AFFINITY PREDICTED BY RF-SCORE:    0.00 PKD
ROOT
HETATM    1  C   UNL     1     -12.088  13.467  65.629  1.00  0.00    -0.467 C  
HETATM    2  C   UNL     1     -11.651  12.285  64.783  1.00  0.00    -0.393 C  
HETATM    3  C   UNL     1     -12.058  12.651  63.369  1.00  0.00    -0.525 C  
HETATM    4  O   UNL     1     -12.585  13.977  63.386  1.00  0.00    -0.845 OA 
HETATM    5  C   UNL     1     -12.226  14.581  64.621  1.00  0.00    -0.460 C  
HETATM    6  O   UNL     1     -10.947  15.209  64.546  1.00  0.00    -0.326 OA 
HETATM    7  C   UNL     1     -10.335  15.085  65.834  1.00  0.00    -0.313 C  
HETATM    8  C   UNL     1     -11.082  14.013  66.627  1.00  0.00    -0.309 C  
ENDROOT
BRANCH   8   9
HETATM    9  O   UNL     1     -10.140  13.013  67.048  1.00  0.00    -0.237 OA 
BRANCH   9  10
HETATM   10  C   UNL     1     -10.387  12.422  68.243  1.00  0.00    -0.227 C  
HETATM   11  O   UNL     1     -11.020  12.925  69.155  1.00  0.00    -0.217 OA 
HETATM   12  N   UNL     1      -9.732  11.225  68.276  1.00  0.00    -0.191 N  
HETATM   13  H   UNL     1      -9.322  10.875  67.410  1.00  0.00     0.000 HD 
BRANCH  12  14
HETATM   14  C   UNL     1      -9.586  10.414  69.494  1.00  0.00    -0.157 C  
BRANCH  14  15
HETATM   15  C   UNL     1     -10.540   9.176  69.479  1.00  0.00    -0.233 C  
BRANCH  15  16
HETATM   16  C   UNL     1     -11.664   9.178  70.503  1.00  0.00    -0.193 A  
HETATM   17  C   UNL     1     -12.141  10.383  71.034  1.00  0.00    -0.488 A  
HETATM   18  C   UNL     1     -12.221   7.975  70.968  1.00  0.00    -0.199 A  
HETATM   19  C   UNL     1     -13.145  10.386  72.007  1.00  0.00    -0.521 A  
HETATM   20  C   UNL     1     -13.693   9.184  72.453  1.00  0.00    -0.543 A  
HETATM   21  C   UNL     1     -13.236   7.979  71.927  1.00  0.00    -0.327 A  
ENDBRANCH  15  16
ENDBRANCH  14  15
BRANCH  14  22
HETATM   22  C   UNL     1      -8.121   9.963  69.780  1.00  0.00    -0.176 C  
HETATM   23  O   UNL     1      -7.341  11.056  70.286  1.00  0.00    -0.420 OA 
HETATM   24  H   UNL     1      -6.449  10.781  70.460  1.00  0.00     0.000 HD 
BRANCH  22  25
HETATM   25  C   UNL     1      -7.364   9.216  68.663  1.00  0.00    -0.076 C  
BRANCH  25  26
HETATM   26  N   UNL     1      -7.794   7.805  68.277  1.00  0.00    -0.119 N  
BRANCH  26  27
HETATM   27  C   UNL     1      -7.456   7.508  66.816  1.00  0.00    -0.093 C  
HETATM   28  C   UNL     1      -8.579   7.559  65.759  1.00  0.00    -0.158 C  
HETATM   29  C   UNL     1      -9.224   8.934  65.599  1.00  0.00    -0.268 C  
HETATM   30  C   UNL     1      -8.000   7.156  64.389  1.00  0.00    -0.101 C  
ENDBRANCH  26  27
BRANCH  26  31
HETATM   31  S   UNL     1      -7.042   6.650  69.378  1.00  0.00    -0.082 S  
HETATM   32  O   UNL     1      -6.755   5.436  68.653  1.00  0.00    -0.050 OA 
HETATM   33  O   UNL     1      -6.001   7.377  70.081  1.00  0.00    -0.024 OA 
BRANCH  31  34
HETATM   34  C   UNL     1      -8.322   6.264  70.570  1.00  0.00    -0.129 A  
HETATM   35  C   UNL     1      -9.284   6.524  72.773  1.00  0.00    -0.143 A  
HETATM   36  C   UNL     1      -8.319   6.883  71.819  1.00  0.00    -0.108 A  
HETATM   37  C   UNL     1     -10.225   5.522  72.509  1.00  0.00    -0.189 A  
HETATM   38  N   UNL     1     -11.243   5.247  73.423  1.00  0.00    -0.447 NA 
HETATM   39  C   UNL     1     -10.267   4.975  71.224  1.00  0.00    -0.273 A  
HETATM   40  H1  UNL     1     -11.930   4.517  73.230  1.00  0.00     0.000 HD 
HETATM   41  C   UNL     1      -9.314   5.328  70.258  1.00  0.00    -0.207 A  
HETATM   42  H2  UNL     1     -11.746   6.115  73.612  1.00  0.00     0.000 HD 
ENDBRANCH  31  34
ENDBRANCH  26  31
ENDBRANCH  25  26
ENDBRANCH  22  25
ENDBRANCH  14  22
ENDBRANCH  12  14
ENDBRANCH   9  10
ENDBRANCH   8   9
TORSDOF 11
ENDMDL
MODEL       51
REMARK 921   NORMALIZED FREE ENERGY PREDICTED BY IDOCK:   -6.25 KCAL/MOL
REMARK 922        TOTAL FREE ENERGY PREDICTED BY IDOCK:  -12.90 KCAL/MOL
REMARK 923 INTER-LIGAND FREE ENERGY PREDICTED BY IDOCK:  -10.57 KCAL/MOL
REMARK 924 INTRA-LIGAND FREE ENERGY PREDICTED BY IDOCK:   -2.32 KCAL/MOL
REMARK 927      BINDING AFFINITY PREDICTED BY RF-SCORE:    0.00 PKD
ROOT
HETATM    1  C   UNL     1     -10.437   7.747  72.074  1.00  0.00    -0.277 C  
HETATM    2  C   UNL     1      -9.495   7.857  73.259  1.00  0.00    -0.350 C  
HETATM    3  C   UNL     1      -9.909   6.731  74.187  1.00  0.00    -0.321 C  
HETATM    4  O   UNL     1     -10.929   5.972  73.539  1.00  0.00    -0.238 OA 
HETATM    5  C   UNL     1     -10.941   6.328  72.164  1.00  0.00    -0.257 C  
HETATM    6  O   UNL     1     -10.025   5.534  71.409  1.00  0.00    -0.173 OA 
HETATM    7  C   UNL     1      -9.514   6.358  70.356  1.00  0.00    -0.162 C  
HETATM    8  C   UNL     1      -9.818   7.818  70.690  1.00  0.00    -0.182 C  
ENDROOT
BRANCH   8   9
HETATM    9  O   UNL     1      -8.585   8.557  70.686  1.00  0.00    -0.129 OA 
BRANCH   9  10
HETATM   10  C   UNL     1      -7.935   8.633  69.499  1.00  0.00    -0.097 C  
HETATM   11  O   UNL     1      -6.850   8.130  69.261  1.00  0.00    -0.049 OA 
HETATM   12  N   UNL     1      -8.654   9.438  68.664  1.00  0.00    -0.122 N  
HETATM   13  H   UNL     1      -9.594   9.713  68.949  1.00  0.00     0.000 HD 
BRANCH  12  14
HETATM   14  C   UNL     1      -8.145   9.930  67.374  1.00  0.00    -0.113 C  
BRANCH  14  15
HETATM   15  C   UNL     1      -8.949   9.334  66.173  1.00  0.00    -0.202 C  
BRANCH  15  16
HETATM   16  C   UNL     1      -9.434   7.902  66.330  1.00  0.00    -0.258 A  
HETATM   17  C   UNL     1      -8.708   6.840  65.777  1.00  0.00    -0.122 A  
HETATM   18  C   UNL     1     -10.636   7.615  66.997  1.00  0.00    -0.406 A  
HETATM   19  C   UNL     1      -9.173   5.526  65.883  1.00  0.00    -0.158 A  
HETATM   20  C   UNL     1     -10.364   5.256  66.553  1.00  0.00    -0.332 A  
HETATM   21  C   UNL     1     -11.092   6.299  67.118  1.00  0.00    -0.389 A  
ENDBRANCH  15  16
ENDBRANCH  14  15
BRANCH  14  22
HETATM   22  C   UNL     1      -8.091  11.485  67.269  1.00  0.00    -0.153 C  
HETATM   23  O   UNL     1      -6.767  11.927  66.938  1.00  0.00    -0.241 OA 
HETATM   24  H   UNL     1      -6.734  12.874  66.874  1.00  0.00     0.000 HD 
BRANCH  22  25
HETATM   25  C   UNL     1      -8.671  12.308  68.437  1.00  0.00    -0.139 C  
BRANCH  25  26
HETATM   26  N   UNL     1      -9.984  13.062  68.246  1.00  0.00    -0.233 N  
BRANCH  26  27
HETATM   27  C   UNL     1     -10.198  13.428  66.778  1.00  0.00    -0.259 C  
HETATM   28  C   UNL     1     -10.973  14.718  66.429  1.00  0.00    -0.331 C  
HETATM   29  C   UNL     1     -10.303  16.000  66.918  1.00  0.00    -0.289 C  
HETATM   30  C   UNL     1     -11.114  14.823  64.899  1.00  0.00    -0.416 C  
ENDBRANCH  26  27
BRANCH  26  31
HETATM   31  S   UNL     1     -11.308  12.088  68.885  1.00  0.00    -0.302 S  
HETATM   32  O   UNL     1     -12.254  11.837  67.827  1.00  0.00    -0.536 OA 
HETATM   33  O   UNL     1     -10.692  11.003  69.627  1.00  0.00    -0.224 OA 
BRANCH  31  34
HETATM   34  C   UNL     1     -12.117  13.155  70.076  1.00  0.00    -0.305 A  
HETATM   35  C   UNL     1     -13.402  13.440  72.104  1.00  0.00    -0.613 A  
HETATM   36  C   UNL     1     -12.709  12.606  71.213  1.00  0.00    -0.354 A  
HETATM   37  C   UNL     1     -13.548  14.809  71.851  1.00  0.00    -0.398 A  
HETATM   38  N   UNL     1     -14.147  15.645  72.794  1.00  0.00    -0.540 NA 
HETATM   39  C   UNL     1     -12.878  15.354  70.753  1.00  0.00    -0.524 A  
HETATM   40  H1  UNL     1     -14.254  16.642  72.609  1.00  0.00     0.000 HD 
HETATM   41  C   UNL     1     -12.176  14.536  69.856  1.00  0.00    -0.379 A  
HETATM   42  H2  UNL     1     -13.651  15.536  73.678  1.00  0.00     0.000 HD 
ENDBRANCH  31  34
ENDBRANCH  26  31
ENDBRANCH  25  26
ENDBRANCH  22  25
ENDBRANCH  14  22
ENDBRANCH  12  14
ENDBRANCH   9  10
ENDBRANCH   8   9
TORSDOF 11
ENDMDL
MODEL       52
REMARK 921   NORMALIZED FREE ENERGY PREDICTED BY IDOCK:   -6.25 KCAL/MOL
REMARK 922        TOTAL FREE ENERGY PREDICTED BY IDOCK:  -12.89 KCAL/MOL
REMARK 923 INTER-LIGAND FREE ENERGY PREDICTED BY IDOCK:   -9.89 KCAL/MOL
REMARK 924 INTRA-LIGAND FREE ENERGY PREDICTED BY IDOCK:   -3.00 KCAL/MOL
REMARK 927      BINDING AFFINITY PREDICTED BY RF-SCORE:    0.00 PKD
ROOT
HETATM    1  C   UNL     1     -10.903  13.320  64.757  1.00  0.00    -0.374 C  
HETATM    2  C   UNL     1     -11.510  13.121  66.133  1.00  0.00    -0.366 C  
HETATM    3  C   UNL     1     -12.775  13.959  66.122  1.00  0.00    -0.288 C  
HETATM    4  O   UNL     1     -12.935  14.505  64.813  1.00  0.00    -0.562 OA 
HETATM    5  C   UNL     1     -12.069  13.805  63.931  1.00  0.00    -0.376 C  
HETATM    6  O   UNL     1     -12.692  12.636  63.401  1.00  0.00    -0.705 OA 
HETATM    7  C   UNL     1     -11.668  11.652  63.219  1.00  0.00    -0.129 C  
HETATM    8  C   UNL     1     -10.438  12.077  64.020  1.00  0.00    -0.372 C  
ENDROOT
BRANCH   8   9
HETATM    9  O   UNL     1     -10.086  11.014  64.921  1.00  0.00    -0.258 OA 
BRANCH   9  10
HETATM   10  C   UNL     1      -8.766  10.875  65.199  1.00  0.00    -0.122 C  
HETATM   11  O   UNL     1      -7.974  10.231  64.533  1.00  0.00    -0.154 OA 
HETATM   12  N   UNL     1      -8.508  11.494  66.388  1.00  0.00    -0.255 N  
HETATM   13  H   UNL     1      -9.236  12.084  66.793  1.00  0.00     0.000 HD 
BRANCH  12  14
HETATM   14  C   UNL     1      -7.236  11.357  67.114  1.00  0.00    -0.134 C  
BRANCH  14  15
HETATM   15  C   UNL     1      -6.759  12.725  67.702  1.00  0.00    -0.147 C  
BRANCH  15  16
HETATM   16  C   UNL     1      -7.794  13.837  67.751  1.00  0.00    -0.174 A  
HETATM   17  C   UNL     1      -8.862  13.776  68.656  1.00  0.00    -0.047 A  
HETATM   18  C   UNL     1      -7.727  14.927  66.868  1.00  0.00     0.062 A  
HETATM   19  C   UNL     1      -9.838  14.776  68.674  1.00  0.00    -0.225 A  
HETATM   20  C   UNL     1      -9.754  15.855  67.796  1.00  0.00    -0.220 A  
HETATM   21  C   UNL     1      -8.694  15.935  66.898  1.00  0.00    -0.272 A  
ENDBRANCH  15  16
ENDBRANCH  14  15
BRANCH  14  22
HETATM   22  C   UNL     1      -7.262  10.269  68.230  1.00  0.00    -0.083 C  
HETATM   23  O   UNL     1      -7.175   8.955  67.662  1.00  0.00    -0.079 OA 
HETATM   24  H   UNL     1      -7.190   8.292  68.342  1.00  0.00     0.000 HD 
BRANCH  22  25
HETATM   25  C   UNL     1      -8.385  10.341  69.284  1.00  0.00    -0.163 C  
BRANCH  25  26
HETATM   26  N   UNL     1      -9.021   9.052  69.795  1.00  0.00    -0.146 N  
BRANCH  26  27
HETATM   27  C   UNL     1      -8.995   8.995  71.322  1.00  0.00    -0.211 C  
HETATM   28  C   UNL     1      -8.727   7.644  72.020  1.00  0.00    -0.146 C  
HETATM   29  C   UNL     1      -7.354   7.048  71.718  1.00  0.00    -0.086 C  
HETATM   30  C   UNL     1      -8.822   7.837  73.545  1.00  0.00    -0.312 C  
ENDBRANCH  26  27
BRANCH  26  31
HETATM   31  S   UNL     1     -10.660   8.924  69.156  1.00  0.00    -0.153 S  
HETATM   32  O   UNL     1     -10.676   9.443  67.811  1.00  0.00    -0.265 OA 
HETATM   33  O   UNL     1     -11.108   7.575  69.455  1.00  0.00    -0.138 OA 
BRANCH  31  34
HETATM   34  C   UNL     1     -11.627  10.043  70.167  1.00  0.00    -0.252 A  
HETATM   35  C   UNL     1     -12.318  12.289  70.736  1.00  0.00    -0.383 A  
HETATM   36  C   UNL     1     -11.614  11.411  69.897  1.00  0.00    -0.402 A  
HETATM   37  C   UNL     1     -12.998  11.821  71.866  1.00  0.00    -0.330 A  
HETATM   38  N   UNL     1     -13.779  12.687  72.633  1.00  0.00    -0.670 NA 
HETATM   39  C   UNL     1     -13.069  10.442  72.072  1.00  0.00    -0.521 A  
HETATM   40  H1  UNL     1     -14.275  12.347  73.457  1.00  0.00     0.000 HD 
HETATM   41  C   UNL     1     -12.378   9.551  71.239  1.00  0.00    -0.430 A  
HETATM   42  H2  UNL     1     -14.457  13.136  72.016  1.00  0.00     0.000 HD 
ENDBRANCH  31  34
ENDBRANCH  26  31
ENDBRANCH  25  26
ENDBRANCH  22  25
ENDBRANCH  14  22
ENDBRANCH  12  14
ENDBRANCH   9  10
ENDBRANCH   8   9
TORSDOF 11
ENDMDL
MODEL       53
REMARK 921   NORMALIZED FREE ENERGY PREDICTED BY IDOCK:   -6.25 KCAL/MOL
REMARK 922        TOTAL FREE ENERGY PREDICTED BY IDOCK:  -12.88 KCAL/MOL
REMARK 923 INTER-LIGAND FREE ENERGY PREDICTED BY IDOCK:  -11.30 KCAL/MOL
REMARK 924 INTRA-LIGAND FREE ENERGY PREDICTED BY IDOCK:   -1.58 KCAL/MOL
REMARK 927      BINDING AFFINITY PREDICTED BY RF-SCORE:    0.00 PKD
ROOT
HETATM    1  C   UNL     1     -11.655   7.395  72.918  1.00  0.00    -0.200 C  
HETATM    2  C   UNL     1     -10.261   7.538  73.500  1.00  0.00    -0.380 C  
HETATM    3  C   UNL     1      -9.767   6.115  73.673  1.00  0.00    -0.167 C  
HETATM    4  O   UNL     1     -10.751   5.233  73.134  1.00  0.00    -0.220 OA 
HETATM    5  C   UNL     1     -11.648   6.000  72.343  1.00  0.00    -0.300 C  
HETATM    6  O   UNL     1     -11.186   6.127  70.999  1.00  0.00    -0.296 OA 
HETATM    7  C   UNL     1     -11.604   7.411  70.524  1.00  0.00    -0.229 C  
HETATM    8  C   UNL     1     -12.000   8.269  71.726  1.00  0.00    -0.316 C  
ENDROOT
BRANCH   8   9
HETATM    9  O   UNL     1     -11.226   9.480  71.700  1.00  0.00    -0.378 OA 
BRANCH   9  10
HETATM   10  C   UNL     1     -11.361  10.255  70.596  1.00  0.00    -0.347 C  
HETATM   11  O   UNL     1     -12.402  10.764  70.220  1.00  0.00    -0.308 OA 
HETATM   12  N   UNL     1     -10.163  10.284  69.942  1.00  0.00    -0.371 N  
HETATM   13  H   UNL     1      -9.344   9.902  70.415  1.00  0.00     0.000 HD 
BRANCH  12  14
HETATM   14  C   UNL     1      -9.992  10.839  68.590  1.00  0.00    -0.182 C  
BRANCH  14  15
HETATM   15  C   UNL     1     -10.761   9.999  67.520  1.00  0.00    -0.339 C  
BRANCH  15  16
HETATM   16  C   UNL     1     -10.157   9.965  66.126  1.00  0.00    -0.315 A  
HETATM   17  C   UNL     1     -10.599  10.854  65.137  1.00  0.00    -0.268 A  
HETATM   18  C   UNL     1      -9.175   9.022  65.786  1.00  0.00    -0.293 A  
HETATM   19  C   UNL     1     -10.075  10.798  63.842  1.00  0.00    -0.397 A  
HETATM   20  C   UNL     1      -9.095   9.860  63.522  1.00  0.00    -0.289 A  
HETATM   21  C   UNL     1      -8.639   8.977  64.496  1.00  0.00    -0.181 A  
ENDBRANCH  15  16
ENDBRANCH  14  15
BRANCH  14  22
HETATM   22  C   UNL     1     -10.378  12.346  68.473  1.00  0.00    -0.221 C  
HETATM   23  O   UNL     1     -11.727  12.491  68.009  1.00  0.00    -0.327 OA 
HETATM   24  H   UNL     1     -11.962  13.409  67.938  1.00  0.00     0.000 HD 
BRANCH  22  25
HETATM   25  C   UNL     1      -9.425  13.278  67.698  1.00  0.00    -0.211 C  
BRANCH  25  26
HETATM   26  N   UNL     1      -9.335  14.751  68.083  1.00  0.00    -0.192 N  
BRANCH  26  27
HETATM   27  C   UNL     1      -8.183  15.440  67.352  1.00  0.00    -0.183 C  
HETATM   28  C   UNL     1      -7.096  16.164  68.175  1.00  0.00    -0.137 C  
HETATM   29  C   UNL     1      -6.300  15.247  69.101  1.00  0.00    -0.118 C  
HETATM   30  C   UNL     1      -6.095  16.831  67.212  1.00  0.00    -0.204 C  
ENDBRANCH  26  27
BRANCH  26  31
HETATM   31  S   UNL     1     -10.884  15.529  67.758  1.00  0.00    -0.315 S  
HETATM   32  O   UNL     1     -11.354  15.106  66.462  1.00  0.00    -0.324 OA 
HETATM   33  O   UNL     1     -11.688  15.348  68.953  1.00  0.00    -0.338 OA 
BRANCH  31  34
HETATM   34  C   UNL     1     -10.495  17.274  67.635  1.00  0.00    -0.363 A  
HETATM   35  C   UNL     1     -10.168  19.261  66.298  1.00  0.00    -0.546 A  
HETATM   36  C   UNL     1     -10.542  17.912  66.396  1.00  0.00    -0.238 A  
HETATM   37  C   UNL     1      -9.705  19.968  67.413  1.00  0.00    -0.417 A  
HETATM   38  N   UNL     1      -9.436  21.334  67.326  1.00  0.00    -0.515 NA 
HETATM   39  C   UNL     1      -9.745  19.337  68.659  1.00  0.00    -0.494 A  
HETATM   40  H1  UNL     1      -9.098  21.849  68.139  1.00  0.00     0.000 HD 
HETATM   41  C   UNL     1     -10.122  17.992  68.776  1.00  0.00    -0.388 A  
HETATM   42  H2  UNL     1     -10.272  21.803  66.976  1.00  0.00     0.000 HD 
ENDBRANCH  31  34
ENDBRANCH  26  31
ENDBRANCH  25  26
ENDBRANCH  22  25
ENDBRANCH  14  22
ENDBRANCH  12  14
ENDBRANCH   9  10
ENDBRANCH   8   9
TORSDOF 11
ENDMDL
MODEL       54
REMARK 921   NORMALIZED FREE ENERGY PREDICTED BY IDOCK:   -6.24 KCAL/MOL
REMARK 922        TOTAL FREE ENERGY PREDICTED BY IDOCK:  -12.88 KCAL/MOL
REMARK 923 INTER-LIGAND FREE ENERGY PREDICTED BY IDOCK:  -10.24 KCAL/MOL
REMARK 924 INTRA-LIGAND FREE ENERGY PREDICTED BY IDOCK:   -2.64 KCAL/MOL
REMARK 927      BINDING AFFINITY PREDICTED BY RF-SCORE:    0.00 PKD
ROOT
HETATM    1  C   UNL     1     -12.041  14.368  71.831  1.00  0.00    -0.245 C  
HETATM    2  C   UNL     1     -13.230  14.160  70.911  1.00  0.00    -0.288 C  
HETATM    3  C   UNL     1     -14.376  13.800  71.837  1.00  0.00    -0.188 C  
HETATM    4  O   UNL     1     -13.911  13.900  73.182  1.00  0.00    -0.372 OA 
HETATM    5  C   UNL     1     -12.683  14.615  73.174  1.00  0.00    -0.444 C  
HETATM    6  O   UNL     1     -12.895  16.024  73.258  1.00  0.00    -0.472 OA 
HETATM    7  C   UNL     1     -11.856  16.658  72.506  1.00  0.00    -0.190 C  
HETATM    8  C   UNL     1     -11.201  15.612  71.604  1.00  0.00    -0.268 C  
ENDROOT
BRANCH   8   9
HETATM    9  O   UNL     1     -11.270  16.071  70.244  1.00  0.00    -0.339 OA 
BRANCH   9  10
HETATM   10  C   UNL     1     -10.217  15.756  69.450  1.00  0.00    -0.262 C  
HETATM   11  O   UNL     1      -9.363  16.542  69.077  1.00  0.00    -0.253 OA 
HETATM   12  N   UNL     1     -10.334  14.450  69.075  1.00  0.00    -0.306 N  
HETATM   13  H   UNL     1     -11.037  13.875  69.539  1.00  0.00     0.000 HD 
BRANCH  12  14
HETATM   14  C   UNL     1      -9.499  13.826  68.037  1.00  0.00    -0.207 C  
BRANCH  14  15
HETATM   15  C   UNL     1      -9.735  14.481  66.637  1.00  0.00    -0.285 C  
BRANCH  15  16
HETATM   16  C   UNL     1     -10.667  13.738  65.694  1.00  0.00    -0.288 A  
HETATM   17  C   UNL     1     -10.167  13.113  64.544  1.00  0.00    -0.333 A  
HETATM   18  C   UNL     1     -12.050  13.693  65.931  1.00  0.00    -0.476 A  
HETATM   19  C   UNL     1     -11.026  12.466  63.652  1.00  0.00    -0.525 A  
HETATM   20  C   UNL     1     -12.397  12.424  63.905  1.00  0.00    -0.602 A  
HETATM   21  C   UNL     1     -12.908  13.031  65.048  1.00  0.00    -0.365 A  
ENDBRANCH  15  16
ENDBRANCH  14  15
BRANCH  14  22
HETATM   22  C   UNL     1      -7.977  13.812  68.376  1.00  0.00    -0.144 C  
HETATM   23  O   UNL     1      -7.269  14.772  67.580  1.00  0.00    -0.178 OA 
HETATM   24  H   UNL     1      -6.342  14.764  67.787  1.00  0.00     0.000 HD 
BRANCH  22  25
HETATM   25  C   UNL     1      -7.249  12.453  68.377  1.00  0.00    -0.110 C  
BRANCH  25  26
HETATM   26  N   UNL     1      -8.058  11.166  68.247  1.00  0.00    -0.124 N  
BRANCH  26  27
HETATM   27  C   UNL     1      -8.035  10.646  66.810  1.00  0.00    -0.132 C  
HETATM   28  C   UNL     1      -9.041   9.553  66.389  1.00  0.00    -0.195 C  
HETATM   29  C   UNL     1     -10.503   9.981  66.483  1.00  0.00    -0.223 C  
HETATM   30  C   UNL     1      -8.768   9.153  64.926  1.00  0.00    -0.215 C  
ENDBRANCH  26  27
BRANCH  26  31
HETATM   31  S   UNL     1      -7.440   9.976  69.392  1.00  0.00    -0.129 S  
HETATM   32  O   UNL     1      -6.711   8.966  68.664  1.00  0.00    -0.057 OA 
HETATM   33  O   UNL     1      -6.823  10.730  70.468  1.00  0.00    -0.285 OA 
BRANCH  31  34
HETATM   34  C   UNL     1      -8.905   9.191  70.061  1.00  0.00    -0.182 A  
HETATM   35  C   UNL     1     -11.211   9.318  70.776  1.00  0.00    -0.351 A  
HETATM   36  C   UNL     1     -10.088   9.919  70.186  1.00  0.00    -0.309 A  
HETATM   37  C   UNL     1     -11.153   8.015  71.283  1.00  0.00    -0.247 A  
HETATM   38  N   UNL     1     -12.302   7.392  71.772  1.00  0.00    -0.320 NA 
HETATM   39  C   UNL     1      -9.987   7.275  71.073  1.00  0.00    -0.188 A  
HETATM   40  H1  UNL     1     -12.260   6.442  72.141  1.00  0.00     0.000 HD 
HETATM   41  C   UNL     1      -8.859   7.857  70.480  1.00  0.00    -0.141 A  
HETATM   42  H2  UNL     1     -13.015   7.419  71.042  1.00  0.00     0.000 HD 
ENDBRANCH  31  34
ENDBRANCH  26  31
ENDBRANCH  25  26
ENDBRANCH  22  25
ENDBRANCH  14  22
ENDBRANCH  12  14
ENDBRANCH   9  10
ENDBRANCH   8   9
TORSDOF 11
ENDMDL
MODEL       55
REMARK 921   NORMALIZED FREE ENERGY PREDICTED BY IDOCK:   -6.24 KCAL/MOL
REMARK 922        TOTAL FREE ENERGY PREDICTED BY IDOCK:  -12.88 KCAL/MOL
REMARK 923 INTER-LIGAND FREE ENERGY PREDICTED BY IDOCK:  -10.97 KCAL/MOL
REMARK 924 INTRA-LIGAND FREE ENERGY PREDICTED BY IDOCK:   -1.91 KCAL/MOL
REMARK 927      BINDING AFFINITY PREDICTED BY RF-SCORE:    0.00 PKD
ROOT
HETATM    1  C   UNL     1     -11.186   7.037  72.535  1.00  0.00    -0.312 C  
HETATM    2  C   UNL     1     -10.017   7.411  73.428  1.00  0.00    -0.365 C  
HETATM    3  C   UNL     1      -9.962   6.312  74.472  1.00  0.00    -0.341 C  
HETATM    4  O   UNL     1     -10.947   5.334  74.141  1.00  0.00    -0.251 OA 
HETATM    5  C   UNL     1     -11.369   5.564  72.805  1.00  0.00    -0.303 C  
HETATM    6  O   UNL     1     -10.536   4.883  71.866  1.00  0.00    -0.191 OA 
HETATM    7  C   UNL     1     -10.472   5.692  70.687  1.00  0.00    -0.270 C  
HETATM    8  C   UNL     1     -10.958   7.099  71.035  1.00  0.00    -0.252 C  
ENDROOT
BRANCH   8   9
HETATM    9  O   UNL     1      -9.931   8.040  70.683  1.00  0.00    -0.188 OA 
BRANCH   9  10
HETATM   10  C   UNL     1     -10.342   9.170  70.056  1.00  0.00    -0.207 C  
HETATM   11  O   UNL     1     -11.465   9.639  70.123  1.00  0.00    -0.242 OA 
HETATM   12  N   UNL     1      -9.319   9.626  69.276  1.00  0.00    -0.169 N  
HETATM   13  H   UNL     1      -8.399   9.201  69.388  1.00  0.00     0.000 HD 
BRANCH  12  14
HETATM   14  C   UNL     1      -9.475  10.700  68.282  1.00  0.00    -0.159 C  
BRANCH  14  15
HETATM   15  C   UNL     1     -10.480  10.299  67.154  1.00  0.00    -0.311 C  
BRANCH  15  16
HETATM   16  C   UNL     1      -9.946  10.331  65.731  1.00  0.00    -0.337 A  
HETATM   17  C   UNL     1      -8.924   9.459  65.335  1.00  0.00    -0.251 A  
HETATM   18  C   UNL     1     -10.436  11.255  64.795  1.00  0.00    -0.384 A  
HETATM   19  C   UNL     1      -8.401   9.514  64.040  1.00  0.00    -0.171 A  
HETATM   20  C   UNL     1      -8.902  10.433  63.120  1.00  0.00    -0.220 A  
HETATM   21  C   UNL     1      -9.926  11.299  63.495  1.00  0.00    -0.417 A  
ENDBRANCH  15  16
ENDBRANCH  14  15
BRANCH  14  22
HETATM   22  C   UNL     1      -9.874  12.076  68.897  1.00  0.00     0.057 C  
HETATM   23  O   UNL     1     -11.295  12.162  69.073  1.00  0.00    -0.239 OA 
HETATM   24  H   UNL     1     -11.538  13.001  69.448  1.00  0.00     0.000 HD 
BRANCH  22  25
HETATM   25  C   UNL     1      -9.322  13.352  68.231  1.00  0.00    -0.205 C  
BRANCH  25  26
HETATM   26  N   UNL     1      -9.306  14.662  69.013  1.00  0.00    -0.163 N  
BRANCH  26  27
HETATM   27  C   UNL     1      -8.058  15.481  68.686  1.00  0.00    -0.159 C  
HETATM   28  C   UNL     1      -6.888  15.505  69.693  1.00  0.00    -0.178 C  
HETATM   29  C   UNL     1      -6.244  14.142  69.934  1.00  0.00    -0.146 C  
HETATM   30  C   UNL     1      -5.790  16.450  69.168  1.00  0.00    -0.142 C  
ENDBRANCH  26  27
BRANCH  26  31
HETATM   31  S   UNL     1     -10.790  15.554  68.677  1.00  0.00    -0.283 S  
HETATM   32  O   UNL     1     -11.831  15.071  69.550  1.00  0.00    -0.298 OA 
HETATM   33  O   UNL     1     -10.420  16.958  68.642  1.00  0.00    -0.307 OA 
BRANCH  31  34
HETATM   34  C   UNL     1     -11.234  15.077  67.008  1.00  0.00    -0.328 A  
HETATM   35  C   UNL     1     -10.968  15.317  64.617  1.00  0.00    -0.322 A  
HETATM   36  C   UNL     1     -10.566  15.643  65.922  1.00  0.00    -0.354 A  
HETATM   37  C   UNL     1     -12.056  14.468  64.384  1.00  0.00    -0.472 A  
HETATM   38  N   UNL     1     -12.379  14.069  63.087  1.00  0.00    -1.094 NA 
HETATM   39  C   UNL     1     -12.657  13.846  65.482  1.00  0.00    -0.560 A  
HETATM   40  H1  UNL     1     -13.172  13.450  62.917  1.00  0.00     0.000 HD 
HETATM   41  C   UNL     1     -12.264  14.156  66.791  1.00  0.00    -0.429 A  
HETATM   42  H2  UNL     1     -11.551  13.648  62.666  1.00  0.00     0.000 HD 
ENDBRANCH  31  34
ENDBRANCH  26  31
ENDBRANCH  25  26
ENDBRANCH  22  25
ENDBRANCH  14  22
ENDBRANCH  12  14
ENDBRANCH   9  10
ENDBRANCH   8   9
TORSDOF 11
ENDMDL
MODEL       56
REMARK 921   NORMALIZED FREE ENERGY PREDICTED BY IDOCK:   -6.24 KCAL/MOL
REMARK 922        TOTAL FREE ENERGY PREDICTED BY IDOCK:  -12.87 KCAL/MOL
REMARK 923 INTER-LIGAND FREE ENERGY PREDICTED BY IDOCK:  -11.82 KCAL/MOL
REMARK 924 INTRA-LIGAND FREE ENERGY PREDICTED BY IDOCK:   -1.05 KCAL/MOL
REMARK 927      BINDING AFFINITY PREDICTED BY RF-SCORE:    0.00 PKD
ROOT
HETATM    1  C   UNL     1     -12.164  13.076  65.589  1.00  0.00    -0.521 C  
HETATM    2  C   UNL     1     -11.643  12.136  64.518  1.00  0.00    -0.403 C  
HETATM    3  C   UNL     1     -12.122  12.738  63.211  1.00  0.00    -0.439 C  
HETATM    4  O   UNL     1     -12.769  13.976  63.501  1.00  0.00    -0.805 OA 
HETATM    5  C   UNL     1     -12.434  14.351  64.829  1.00  0.00    -0.357 C  
HETATM    6  O   UNL     1     -11.220  15.102  64.872  1.00  0.00    -0.391 OA 
HETATM    7  C   UNL     1     -10.564  14.782  66.103  1.00  0.00    -0.311 C  
HETATM    8  C   UNL     1     -11.186  13.505  66.668  1.00  0.00    -0.312 C  
ENDROOT
BRANCH   8   9
HETATM    9  O   UNL     1     -10.144  12.536  66.870  1.00  0.00    -0.221 OA 
BRANCH   9  10
HETATM   10  C   UNL     1      -9.932  12.141  68.150  1.00  0.00    -0.201 C  
HETATM   11  O   UNL     1      -8.838  12.024  68.674  1.00  0.00    -0.132 OA 
HETATM   12  N   UNL     1     -11.135  11.813  68.705  1.00  0.00    -0.220 N  
HETATM   13  H   UNL     1     -11.985  12.053  68.194  1.00  0.00     0.000 HD 
BRANCH  12  14
HETATM   14  C   UNL     1     -11.271  11.131  70.001  1.00  0.00    -0.181 C  
BRANCH  14  15
HETATM   15  C   UNL     1     -12.620  11.491  70.703  1.00  0.00    -0.337 C  
BRANCH  15  16
HETATM   16  C   UNL     1     -12.792  12.939  71.133  1.00  0.00    -0.326 A  
HETATM   17  C   UNL     1     -13.436  13.253  72.337  1.00  0.00    -0.670 A  
HETATM   18  C   UNL     1     -12.345  13.993  70.319  1.00  0.00    -0.425 A  
HETATM   19  C   UNL     1     -13.633  14.584  72.714  1.00  0.00    -0.533 A  
HETATM   20  C   UNL     1     -13.178  15.619  71.899  1.00  0.00    -0.537 A  
HETATM   21  C   UNL     1     -12.527  15.324  70.704  1.00  0.00    -0.458 A  
ENDBRANCH  15  16
ENDBRANCH  14  15
BRANCH  14  22
HETATM   22  C   UNL     1     -11.101   9.583  69.921  1.00  0.00    -0.216 C  
HETATM   23  O   UNL     1     -12.136   8.918  70.658  1.00  0.00    -0.471 OA 
HETATM   24  H   UNL     1     -12.032   7.975  70.609  1.00  0.00     0.000 HD 
BRANCH  22  25
HETATM   25  C   UNL     1      -9.717   8.990  70.255  1.00  0.00    -0.196 C  
BRANCH  25  26
HETATM   26  N   UNL     1      -9.566   7.481  70.423  1.00  0.00    -0.169 N  
BRANCH  26  27
HETATM   27  C   UNL     1     -10.445   6.965  71.563  1.00  0.00    -0.212 C  
HETATM   28  C   UNL     1     -10.360   5.477  71.964  1.00  0.00    -0.265 C  
HETATM   29  C   UNL     1      -8.989   5.048  72.483  1.00  0.00    -0.137 C  
HETATM   30  C   UNL     1     -11.386   5.196  73.078  1.00  0.00    -0.381 C  
ENDBRANCH  26  27
BRANCH  26  31
HETATM   31  S   UNL     1      -9.935   6.689  68.892  1.00  0.00    -0.158 S  
HETATM   32  O   UNL     1      -9.182   5.462  68.810  1.00  0.00    -0.118 OA 
HETATM   33  O   UNL     1     -11.382   6.701  68.767  1.00  0.00    -0.218 OA 
BRANCH  31  34
HETATM   34  C   UNL     1      -9.282   7.795  67.643  1.00  0.00    -0.136 A  
HETATM   35  C   UNL     1      -7.433   9.033  66.697  1.00  0.00    -0.086 A  
HETATM   36  C   UNL     1      -7.924   8.111  67.635  1.00  0.00    -0.122 A  
HETATM   37  C   UNL     1      -8.290   9.677  65.797  1.00  0.00    -0.128 A  
HETATM   38  N   UNL     1      -7.777  10.511  64.803  1.00  0.00    -0.325 NA 
HETATM   39  C   UNL     1      -9.631   9.285  65.765  1.00  0.00    -0.341 A  
HETATM   40  H1  UNL     1      -8.402  10.980  64.147  1.00  0.00     0.000 HD 
HETATM   41  C   UNL     1     -10.135   8.361  66.690  1.00  0.00    -0.358 A  
HETATM   42  H2  UNL     1      -7.089   9.982  64.266  1.00  0.00     0.000 HD 
ENDBRANCH  31  34
ENDBRANCH  26  31
ENDBRANCH  25  26
ENDBRANCH  22  25
ENDBRANCH  14  22
ENDBRANCH  12  14
ENDBRANCH   9  10
ENDBRANCH   8   9
TORSDOF 11
ENDMDL
MODEL       57
REMARK 921   NORMALIZED FREE ENERGY PREDICTED BY IDOCK:   -6.23 KCAL/MOL
REMARK 922        TOTAL FREE ENERGY PREDICTED BY IDOCK:  -12.86 KCAL/MOL
REMARK 923 INTER-LIGAND FREE ENERGY PREDICTED BY IDOCK:  -11.94 KCAL/MOL
REMARK 924 INTRA-LIGAND FREE ENERGY PREDICTED BY IDOCK:   -0.92 KCAL/MOL
REMARK 927      BINDING AFFINITY PREDICTED BY RF-SCORE:    0.00 PKD
ROOT
HETATM    1  C   UNL     1      -9.594  19.503  66.568  1.00  0.00    -0.462 C  
HETATM    2  C   UNL     1      -8.246  19.013  66.070  1.00  0.00    -0.149 C  
HETATM    3  C   UNL     1      -7.256  20.058  66.548  1.00  0.00    -0.257 C  
HETATM    4  O   UNL     1      -7.961  21.008  67.346  1.00  0.00    -0.257 OA 
HETATM    5  C   UNL     1      -9.227  20.456  67.679  1.00  0.00    -0.286 C  
HETATM    6  O   UNL     1      -9.161  19.670  68.868  1.00  0.00    -0.344 OA 
HETATM    7  C   UNL     1     -10.103  18.602  68.727  1.00  0.00    -0.353 C  
HETATM    8  C   UNL     1     -10.489  18.486  67.252  1.00  0.00    -0.419 C  
ENDROOT
BRANCH   8   9
HETATM    9  O   UNL     1     -10.221  17.145  66.811  1.00  0.00    -0.295 OA 
BRANCH   9  10
HETATM   10  C   UNL     1     -10.714  16.148  67.587  1.00  0.00    -0.318 C  
HETATM   11  O   UNL     1     -11.761  16.197  68.208  1.00  0.00    -0.281 OA 
HETATM   12  N   UNL     1      -9.799  15.136  67.622  1.00  0.00    -0.219 N  
HETATM   13  H   UNL     1      -9.010  15.175  66.977  1.00  0.00     0.000 HD 
BRANCH  12  14
HETATM   14  C   UNL     1      -9.891  13.991  68.541  1.00  0.00    -0.225 C  
BRANCH  14  15
HETATM   15  C   UNL     1     -11.272  13.267  68.422  1.00  0.00    -0.314 C  
BRANCH  15  16
HETATM   16  C   UNL     1     -11.944  12.878  69.729  1.00  0.00    -0.365 A  
HETATM   17  C   UNL     1     -12.070  11.530  70.090  1.00  0.00    -0.432 A  
HETATM   18  C   UNL     1     -12.487  13.853  70.581  1.00  0.00    -0.436 A  
HETATM   19  C   UNL     1     -12.726  11.167  71.270  1.00  0.00    -0.531 A  
HETATM   20  C   UNL     1     -13.253  12.147  72.110  1.00  0.00    -0.438 A  
HETATM   21  C   UNL     1     -13.127  13.491  71.769  1.00  0.00    -0.475 A  
ENDBRANCH  15  16
ENDBRANCH  14  15
BRANCH  14  22
HETATM   22  C   UNL     1      -8.728  12.964  68.388  1.00  0.00    -0.119 C  
HETATM   23  O   UNL     1      -7.456  13.625  68.439  1.00  0.00    -0.107 OA 
HETATM   24  H   UNL     1      -6.747  12.999  68.347  1.00  0.00     0.000 HD 
BRANCH  22  25
HETATM   25  C   UNL     1      -8.788  11.975  67.207  1.00  0.00    -0.183 C  
BRANCH  25  26
HETATM   26  N   UNL     1      -8.668  10.478  67.472  1.00  0.00    -0.125 N  
BRANCH  26  27
HETATM   27  C   UNL     1      -9.340  10.099  68.792  1.00  0.00    -0.168 C  
HETATM   28  C   UNL     1      -8.546   9.279  69.832  1.00  0.00    -0.178 C  
HETATM   29  C   UNL     1      -7.305   9.988  70.370  1.00  0.00    -0.094 C  
HETATM   30  C   UNL     1      -9.459   8.969  71.033  1.00  0.00    -0.342 C  
ENDBRANCH  26  27
BRANCH  26  31
HETATM   31  S   UNL     1      -9.347   9.592  66.107  1.00  0.00    -0.217 S  
HETATM   32  O   UNL     1      -8.269   9.149  65.258  1.00  0.00    -0.120 OA 
HETATM   33  O   UNL     1     -10.306   8.656  66.666  1.00  0.00    -0.289 OA 
BRANCH  31  34
HETATM   34  C   UNL     1     -10.273  10.820  65.188  1.00  0.00    -0.298 A  
HETATM   35  C   UNL     1     -10.561  12.186  63.215  1.00  0.00    -0.367 A  
HETATM   36  C   UNL     1      -9.872  11.173  63.900  1.00  0.00    -0.354 A  
HETATM   37  C   UNL     1     -11.616  12.881  63.817  1.00  0.00    -0.475 A  
HETATM   38  N   UNL     1     -12.359  13.812  63.090  1.00  0.00    -1.106 NA 
HETATM   39  C   UNL     1     -12.056  12.456  65.073  1.00  0.00    -0.468 A  
HETATM   40  H1  UNL     1     -13.128  14.318  63.529  1.00  0.00     0.000 HD 
HETATM   41  C   UNL     1     -11.384  11.442  65.768  1.00  0.00    -0.077 A  
HETATM   42  H2  UNL     1     -12.717  13.351  62.253  1.00  0.00     0.000 HD 
ENDBRANCH  31  34
ENDBRANCH  26  31
ENDBRANCH  25  26
ENDBRANCH  22  25
ENDBRANCH  14  22
ENDBRANCH  12  14
ENDBRANCH   9  10
ENDBRANCH   8   9
TORSDOF 11
ENDMDL
MODEL       58
REMARK 921   NORMALIZED FREE ENERGY PREDICTED BY IDOCK:   -6.22 KCAL/MOL
REMARK 922        TOTAL FREE ENERGY PREDICTED BY IDOCK:  -12.85 KCAL/MOL
REMARK 923 INTER-LIGAND FREE ENERGY PREDICTED BY IDOCK:  -11.03 KCAL/MOL
REMARK 924 INTRA-LIGAND FREE ENERGY PREDICTED BY IDOCK:   -1.82 KCAL/MOL
REMARK 927      BINDING AFFINITY PREDICTED BY RF-SCORE:    0.00 PKD
ROOT
HETATM    1  C   UNL     1      -8.709  18.242  67.934  1.00  0.00    -0.274 C  
HETATM    2  C   UNL     1     -10.161  18.396  67.519  1.00  0.00    -0.393 C  
HETATM    3  C   UNL     1     -10.261  19.812  66.983  1.00  0.00    -0.452 C  
HETATM    4  O   UNL     1      -8.953  20.383  66.988  1.00  0.00    -0.341 OA 
HETATM    5  C   UNL     1      -8.011  19.334  67.161  1.00  0.00    -0.264 C  
HETATM    6  O   UNL     1      -7.634  18.756  65.913  1.00  0.00    -0.413 OA 
HETATM    7  C   UNL     1      -7.382  17.366  66.144  1.00  0.00    -0.296 C  
HETATM    8  C   UNL     1      -7.994  16.979  67.491  1.00  0.00    -0.175 C  
ENDROOT
BRANCH   8   9
HETATM    9  O   UNL     1      -8.904  15.886  67.285  1.00  0.00    -0.185 OA 
BRANCH   9  10
HETATM   10  C   UNL     1      -9.239  15.169  68.386  1.00  0.00    -0.189 C  
HETATM   11  O   UNL     1      -8.517  14.990  69.352  1.00  0.00    -0.191 OA 
HETATM   12  N   UNL     1     -10.469  14.615  68.182  1.00  0.00    -0.234 N  
HETATM   13  H   UNL     1     -11.011  14.925  67.375  1.00  0.00     0.000 HD 
BRANCH  12  14
HETATM   14  C   UNL     1     -11.055  13.593  69.064  1.00  0.00    -0.255 C  
BRANCH  14  15
HETATM   15  C   UNL     1     -12.533  13.937  69.440  1.00  0.00    -0.088 C  
BRANCH  15  16
HETATM   16  C   UNL     1     -12.744  14.636  70.773  1.00  0.00    -0.422 A  
HETATM   17  C   UNL     1     -11.650  14.992  71.572  1.00  0.00    -0.409 A  
HETATM   18  C   UNL     1     -14.037  14.906  71.250  1.00  0.00    -0.475 A  
HETATM   19  C   UNL     1     -11.843  15.597  72.817  1.00  0.00    -0.580 A  
HETATM   20  C   UNL     1     -13.132  15.865  73.274  1.00  0.00    -0.694 A  
HETATM   21  C   UNL     1     -14.229  15.527  72.488  1.00  0.00    -0.502 A  
ENDBRANCH  15  16
ENDBRANCH  14  15
BRANCH  14  22
HETATM   22  C   UNL     1     -10.965  12.144  68.497  1.00  0.00    -0.238 C  
HETATM   23  O   UNL     1     -11.730  12.021  67.290  1.00  0.00    -0.481 OA 
HETATM   24  H   UNL     1     -11.676  11.137  66.944  1.00  0.00     0.000 HD 
BRANCH  22  25
HETATM   25  C   UNL     1     -11.257  10.973  69.457  1.00  0.00    -0.279 C  
BRANCH  25  26
HETATM   26  N   UNL     1     -10.492   9.662  69.300  1.00  0.00    -0.208 N  
BRANCH  26  27
HETATM   27  C   UNL     1      -9.193   9.875  68.522  1.00  0.00    -0.136 C  
HETATM   28  C   UNL     1      -8.891   8.977  67.304  1.00  0.00    -0.126 C  
HETATM   29  C   UNL     1      -9.897   9.112  66.163  1.00  0.00    -0.363 C  
HETATM   30  C   UNL     1      -7.503   9.340  66.742  1.00  0.00    -0.087 C  
ENDBRANCH  26  27
BRANCH  26  31
HETATM   31  S   UNL     1     -10.202   8.968  70.895  1.00  0.00    -0.283 S  
HETATM   32  O   UNL     1      -8.946   9.466  71.398  1.00  0.00    -0.284 OA 
HETATM   33  O   UNL     1     -11.437   9.132  71.640  1.00  0.00    -0.333 OA 
BRANCH  31  34
HETATM   34  C   UNL     1      -9.992   7.214  70.590  1.00  0.00    -0.190 A  
HETATM   35  C   UNL     1      -8.907   5.113  71.095  1.00  0.00    -0.150 A  
HETATM   36  C   UNL     1      -9.120   6.471  71.385  1.00  0.00    -0.148 A  
HETATM   37  C   UNL     1      -9.521   4.502  69.996  1.00  0.00    -0.177 A  
HETATM   38  N   UNL     1      -9.386   3.130  69.781  1.00  0.00    -0.155 NA 
HETATM   39  C   UNL     1     -10.455   5.240  69.265  1.00  0.00    -0.255 A  
HETATM   40  H1  UNL     1      -9.833   2.684  68.979  1.00  0.00     0.000 HD 
HETATM   41  C   UNL     1     -10.684   6.594  69.544  1.00  0.00    -0.305 A  
HETATM   42  H2  UNL     1      -9.685   2.643  70.625  1.00  0.00     0.000 HD 
ENDBRANCH  31  34
ENDBRANCH  26  31
ENDBRANCH  25  26
ENDBRANCH  22  25
ENDBRANCH  14  22
ENDBRANCH  12  14
ENDBRANCH   9  10
ENDBRANCH   8   9
TORSDOF 11
ENDMDL
MODEL       59
REMARK 921   NORMALIZED FREE ENERGY PREDICTED BY IDOCK:   -6.21 KCAL/MOL
REMARK 922        TOTAL FREE ENERGY PREDICTED BY IDOCK:  -12.82 KCAL/MOL
REMARK 923 INTER-LIGAND FREE ENERGY PREDICTED BY IDOCK:  -10.65 KCAL/MOL
REMARK 924 INTRA-LIGAND FREE ENERGY PREDICTED BY IDOCK:   -2.17 KCAL/MOL
REMARK 927      BINDING AFFINITY PREDICTED BY RF-SCORE:    0.00 PKD
ROOT
HETATM    1  C   UNL     1     -11.107   9.394  71.424  1.00  0.00    -0.450 C  
HETATM    2  C   UNL     1     -11.047   8.084  70.660  1.00  0.00    -0.266 C  
HETATM    3  C   UNL     1     -11.696   7.070  71.583  1.00  0.00    -0.297 C  
HETATM    4  O   UNL     1     -12.185   7.761  72.731  1.00  0.00    -0.156 OA 
HETATM    5  C   UNL     1     -12.194   9.151  72.441  1.00  0.00    -0.193 C  
HETATM    6  O   UNL     1     -13.415   9.550  71.818  1.00  0.00    -0.381 OA 
HETATM    7  C   UNL     1     -13.104  10.610  70.909  1.00  0.00    -0.256 C  
HETATM    8  C   UNL     1     -11.595  10.614  70.665  1.00  0.00    -0.336 C  
ENDROOT
BRANCH   8   9
HETATM    9  O   UNL     1     -11.357  10.504  69.253  1.00  0.00    -0.240 OA 
BRANCH   9  10
HETATM   10  C   UNL     1     -11.453  11.652  68.537  1.00  0.00    -0.298 C  
HETATM   11  O   UNL     1     -12.272  11.863  67.659  1.00  0.00    -0.510 OA 
HETATM   12  N   UNL     1     -10.428  12.476  68.902  1.00  0.00    -0.406 N  
HETATM   13  H   UNL     1      -9.874  12.223  69.721  1.00  0.00     0.000 HD 
BRANCH  12  14
HETATM   14  C   UNL     1     -10.082  13.709  68.179  1.00  0.00    -0.245 C  
BRANCH  14  15
HETATM   15  C   UNL     1      -9.656  14.851  69.159  1.00  0.00    -0.172 C  
BRANCH  15  16
HETATM   16  C   UNL     1      -9.610  16.255  68.580  1.00  0.00    -0.222 A  
HETATM   17  C   UNL     1      -8.457  17.040  68.708  1.00  0.00    -0.237 A  
HETATM   18  C   UNL     1     -10.729  16.810  67.939  1.00  0.00    -0.347 A  
HETATM   19  C   UNL     1      -8.426  18.347  68.214  1.00  0.00    -0.321 A  
HETATM   20  C   UNL     1      -9.542  18.882  67.574  1.00  0.00    -0.347 A  
HETATM   21  C   UNL     1     -10.692  18.111  67.429  1.00  0.00    -0.355 A  
ENDBRANCH  15  16
ENDBRANCH  14  15
BRANCH  14  22
HETATM   22  C   UNL     1      -8.998  13.511  67.077  1.00  0.00    -0.231 C  
HETATM   23  O   UNL     1      -9.556  13.714  65.771  1.00  0.00    -0.476 OA 
HETATM   24  H   UNL     1      -8.895  13.593  65.099  1.00  0.00     0.000 HD 
BRANCH  22  25
HETATM   25  C   UNL     1      -8.151  12.223  67.120  1.00  0.00    -0.173 C  
BRANCH  25  26
HETATM   26  N   UNL     1      -8.754  10.909  66.632  1.00  0.00    -0.150 N  
BRANCH  26  27
HETATM   27  C   UNL     1      -8.531  10.727  65.131  1.00  0.00    -0.101 C  
HETATM   28  C   UNL     1      -9.719  10.304  64.240  1.00  0.00    -0.373 C  
HETATM   29  C   UNL     1     -10.865  11.312  64.209  1.00  0.00    -0.398 C  
HETATM   30  C   UNL     1      -9.223  10.121  62.793  1.00  0.00    -0.322 C  
ENDBRANCH  26  27
BRANCH  26  31
HETATM   31  S   UNL     1      -8.074   9.578  67.568  1.00  0.00    -0.110 S  
HETATM   32  O   UNL     1      -6.695   9.399  67.187  1.00  0.00    -0.073 OA 
HETATM   33  O   UNL     1      -8.455   9.816  68.948  1.00  0.00    -0.118 OA 
BRANCH  31  34
HETATM   34  C   UNL     1      -8.970   8.131  67.008  1.00  0.00    -0.141 A  
HETATM   35  C   UNL     1     -10.979   6.786  66.988  1.00  0.00    -0.439 A  
HETATM   36  C   UNL     1     -10.305   7.956  67.372  1.00  0.00    -0.349 A  
HETATM   37  C   UNL     1     -10.323   5.769  66.285  1.00  0.00    -0.074 A  
HETATM   38  N   UNL     1     -11.029   4.659  65.819  1.00  0.00    -0.812 NA 
HETATM   39  C   UNL     1      -9.013   5.999  65.858  1.00  0.00    -0.144 A  
HETATM   40  H1  UNL     1     -10.550   3.918  65.307  1.00  0.00     0.000 HD 
HETATM   41  C   UNL     1      -8.327   7.165  66.226  1.00  0.00    -0.129 A  
HETATM   42  H2  UNL     1     -11.806   4.992  65.248  1.00  0.00     0.000 HD 
ENDBRANCH  31  34
ENDBRANCH  26  31
ENDBRANCH  25  26
ENDBRANCH  22  25
ENDBRANCH  14  22
ENDBRANCH  12  14
ENDBRANCH   9  10
ENDBRANCH   8   9
TORSDOF 11
ENDMDL
MODEL       60
REMARK 921   NORMALIZED FREE ENERGY PREDICTED BY IDOCK:   -6.21 KCAL/MOL
REMARK 922        TOTAL FREE ENERGY PREDICTED BY IDOCK:  -12.82 KCAL/MOL
REMARK 923 INTER-LIGAND FREE ENERGY PREDICTED BY IDOCK:  -11.26 KCAL/MOL
REMARK 924 INTRA-LIGAND FREE ENERGY PREDICTED BY IDOCK:   -1.56 KCAL/MOL
REMARK 927      BINDING AFFINITY PREDICTED BY RF-SCORE:    0.00 PKD
ROOT
HETATM    1  C   UNL     1     -12.869  15.772  71.352  1.00  0.00    -0.504 C  
HETATM    2  C   UNL     1     -11.979  16.013  72.557  1.00  0.00    -0.649 C  
HETATM    3  C   UNL     1     -12.442  15.002  73.588  1.00  0.00    -0.532 C  
HETATM    4  O   UNL     1     -13.440  14.178  72.987  1.00  0.00    -0.661 OA 
HETATM    5  C   UNL     1     -13.388  14.373  71.581  1.00  0.00    -0.363 C  
HETATM    6  O   UNL     1     -12.448  13.496  70.962  1.00  0.00    -0.360 OA 
HETATM    7  C   UNL     1     -11.885  14.192  69.846  1.00  0.00    -0.325 C  
HETATM    8  C   UNL     1     -12.190  15.682  69.997  1.00  0.00    -0.327 C  
ENDROOT
BRANCH   8   9
HETATM    9  O   UNL     1     -10.952  16.411  69.963  1.00  0.00    -0.354 OA 
BRANCH   9  10
HETATM   10  C   UNL     1     -10.560  16.870  68.750  1.00  0.00    -0.355 C  
HETATM   11  O   UNL     1     -11.012  17.857  68.195  1.00  0.00    -0.242 OA 
HETATM   12  N   UNL     1      -9.652  15.994  68.229  1.00  0.00    -0.208 N  
HETATM   13  H   UNL     1      -9.282  15.263  68.837  1.00  0.00     0.000 HD 
BRANCH  12  14
HETATM   14  C   UNL     1      -9.180  16.047  66.837  1.00  0.00    -0.224 C  
BRANCH  14  15
HETATM   15  C   UNL     1      -7.701  16.547  66.750  1.00  0.00    -0.294 C  
BRANCH  15  16
HETATM   16  C   UNL     1      -7.311  17.671  67.697  1.00  0.00    -0.202 A  
HETATM   17  C   UNL     1      -7.746  18.982  67.462  1.00  0.00    -0.262 A  
HETATM   18  C   UNL     1      -6.479  17.430  68.802  1.00  0.00    -0.201 A  
HETATM   19  C   UNL     1      -7.355  20.024  68.307  1.00  0.00    -0.295 A  
HETATM   20  C   UNL     1      -6.534  19.768  69.404  1.00  0.00    -0.381 A  
HETATM   21  C   UNL     1      -6.102  18.469  69.656  1.00  0.00    -0.269 A  
ENDBRANCH  15  16
ENDBRANCH  14  15
BRANCH  14  22
HETATM   22  C   UNL     1      -9.342  14.703  66.064  1.00  0.00    -0.181 C  
HETATM   23  O   UNL     1     -10.418  14.786  65.120  1.00  0.00    -0.369 OA 
HETATM   24  H   UNL     1     -10.517  13.967  64.648  1.00  0.00     0.000 HD 
BRANCH  22  25
HETATM   25  C   UNL     1      -9.428  13.402  66.887  1.00  0.00    -0.253 C  
BRANCH  25  26
HETATM   26  N   UNL     1      -9.108  12.068  66.220  1.00  0.00    -0.197 N  
BRANCH  26  27
HETATM   27  C   UNL     1      -8.063  11.291  67.022  1.00  0.00    -0.149 C  
HETATM   28  C   UNL     1      -6.725  11.976  67.376  1.00  0.00    -0.131 C  
HETATM   29  C   UNL     1      -6.871  13.205  68.269  1.00  0.00    -0.103 C  
HETATM   30  C   UNL     1      -5.825  10.969  68.117  1.00  0.00    -0.046 C  
ENDBRANCH  26  27
BRANCH  26  31
HETATM   31  S   UNL     1     -10.600  11.151  66.015  1.00  0.00    -0.207 S  
HETATM   32  O   UNL     1     -11.706  12.072  65.939  1.00  0.00    -0.432 OA 
HETATM   33  O   UNL     1     -10.342  10.186  64.961  1.00  0.00    -0.246 OA 
BRANCH  31  34
HETATM   34  C   UNL     1     -10.779  10.234  67.545  1.00  0.00    -0.294 A  
HETATM   35  C   UNL     1     -11.314  10.172  69.901  1.00  0.00    -0.335 A  
HETATM   36  C   UNL     1     -11.243  10.879  68.691  1.00  0.00    -0.326 A  
HETATM   37  C   UNL     1     -10.885   8.842  69.991  1.00  0.00    -0.227 A  
HETATM   38  N   UNL     1     -11.058   8.119  71.171  1.00  0.00    -0.240 NA 
HETATM   39  C   UNL     1     -10.504   8.190  68.816  1.00  0.00    -0.198 A  
HETATM   40  H1  UNL     1     -10.745   7.150  71.236  1.00  0.00     0.000 HD 
HETATM   41  C   UNL     1     -10.434   8.880  67.597  1.00  0.00    -0.320 A  
HETATM   42  H2  UNL     1     -12.045   8.153  71.425  1.00  0.00     0.000 HD 
ENDBRANCH  31  34
ENDBRANCH  26  31
ENDBRANCH  25  26
ENDBRANCH  22  25
ENDBRANCH  14  22
ENDBRANCH  12  14
ENDBRANCH   9  10
ENDBRANCH   8   9
TORSDOF 11
ENDMDL
MODEL       61
REMARK 921   NORMALIZED FREE ENERGY PREDICTED BY IDOCK:   -6.20 KCAL/MOL
REMARK 922        TOTAL FREE ENERGY PREDICTED BY IDOCK:  -12.82 KCAL/MOL
REMARK 923 INTER-LIGAND FREE ENERGY PREDICTED BY IDOCK:  -11.04 KCAL/MOL
REMARK 924 INTRA-LIGAND FREE ENERGY PREDICTED BY IDOCK:   -1.78 KCAL/MOL
REMARK 927      BINDING AFFINITY PREDICTED BY RF-SCORE:    0.00 PKD
ROOT
HETATM    1  C   UNL     1     -11.992   8.902  71.710  1.00  0.00    -0.429 C  
HETATM    2  C   UNL     1     -12.718   7.716  71.101  1.00  0.00    -0.240 C  
HETATM    3  C   UNL     1     -14.085   7.721  71.758  1.00  0.00    -0.417 C  
HETATM    4  O   UNL     1     -14.174   8.876  72.591  1.00  0.00    -0.563 OA 
HETATM    5  C   UNL     1     -13.115   9.757  72.244  1.00  0.00    -0.356 C  
HETATM    6  O   UNL     1     -13.487  10.631  71.179  1.00  0.00    -0.186 OA 
HETATM    7  C   UNL     1     -12.312  10.882  70.401  1.00  0.00    -0.351 C  
HETATM    8  C   UNL     1     -11.262   9.829  70.756  1.00  0.00    -0.348 C  
ENDROOT
BRANCH   8   9
HETATM    9  O   UNL     1     -10.859   9.158  69.551  1.00  0.00    -0.231 OA 
BRANCH   9  10
HETATM   10  C   UNL     1      -9.660   9.521  69.033  1.00  0.00    -0.166 C  
HETATM   11  O   UNL     1      -8.576   9.251  69.521  1.00  0.00    -0.130 OA 
HETATM   12  N   UNL     1      -9.882  10.309  67.941  1.00  0.00    -0.155 N  
HETATM   13  H   UNL     1     -10.833  10.375  67.578  1.00  0.00     0.000 HD 
BRANCH  12  14
HETATM   14  C   UNL     1      -8.821  11.069  67.261  1.00  0.00    -0.135 C  
BRANCH  14  15
HETATM   15  C   UNL     1      -9.159  11.303  65.752  1.00  0.00    -0.216 C  
BRANCH  15  16
HETATM   16  C   UNL     1     -10.238  12.331  65.453  1.00  0.00    -0.297 A  
HETATM   17  C   UNL     1     -11.573  12.080  65.793  1.00  0.00    -0.353 A  
HETATM   18  C   UNL     1      -9.929  13.533  64.798  1.00  0.00    -0.156 A  
HETATM   19  C   UNL     1     -12.574  13.004  65.482  1.00  0.00    -0.422 A  
HETATM   20  C   UNL     1     -12.252  14.197  64.837  1.00  0.00    -0.451 A  
HETATM   21  C   UNL     1     -10.927  14.466  64.502  1.00  0.00    -0.290 A  
ENDBRANCH  15  16
ENDBRANCH  14  15
BRANCH  14  22
HETATM   22  C   UNL     1      -8.472  12.422  67.952  1.00  0.00    -0.166 C  
HETATM   23  O   UNL     1      -7.534  12.222  69.018  1.00  0.00    -0.277 OA 
HETATM   24  H   UNL     1      -7.320  13.046  69.439  1.00  0.00     0.000 HD 
BRANCH  22  25
HETATM   25  C   UNL     1      -9.637  13.324  68.406  1.00  0.00    -0.185 C  
BRANCH  25  26
HETATM   26  N   UNL     1      -9.337  14.666  69.066  1.00  0.00    -0.163 N  
BRANCH  26  27
HETATM   27  C   UNL     1      -8.234  15.412  68.317  1.00  0.00    -0.145 C  
HETATM   28  C   UNL     1      -7.148  16.157  69.122  1.00  0.00    -0.209 C  
HETATM   29  C   UNL     1      -6.291  15.249  70.002  1.00  0.00    -0.147 C  
HETATM   30  C   UNL     1      -6.202  16.880  68.145  1.00  0.00    -0.135 C  
ENDBRANCH  26  27
BRANCH  26  31
HETATM   31  S   UNL     1     -10.825  15.608  69.163  1.00  0.00    -0.268 S  
HETATM   32  O   UNL     1     -11.881  14.878  68.508  1.00  0.00    -0.326 OA 
HETATM   33  O   UNL     1     -10.943  16.039  70.544  1.00  0.00    -0.335 OA 
BRANCH  31  34
HETATM   34  C   UNL     1     -10.499  17.067  68.175  1.00  0.00    -0.357 A  
HETATM   35  C   UNL     1     -10.038  19.436  68.021  1.00  0.00    -0.516 A  
HETATM   36  C   UNL     1     -10.223  18.283  68.801  1.00  0.00    -0.342 A  
HETATM   37  C   UNL     1     -10.169  19.397  66.628  1.00  0.00    -0.435 A  
HETATM   38  N   UNL     1      -9.881  20.524  65.857  1.00  0.00    -0.591 NA 
HETATM   39  C   UNL     1     -10.361  18.157  66.016  1.00  0.00    -0.360 A  
HETATM   40  H1  UNL     1      -9.976  20.496  64.842  1.00  0.00     0.000 HD 
HETATM   41  C   UNL     1     -10.541  16.995  66.779  1.00  0.00    -0.191 A  
HETATM   42  H2  UNL     1      -8.933  20.830  66.080  1.00  0.00     0.000 HD 
ENDBRANCH  31  34
ENDBRANCH  26  31
ENDBRANCH  25  26
ENDBRANCH  22  25
ENDBRANCH  14  22
ENDBRANCH  12  14
ENDBRANCH   9  10
ENDBRANCH   8   9
TORSDOF 11
ENDMDL
MODEL       62
REMARK 921   NORMALIZED FREE ENERGY PREDICTED BY IDOCK:   -6.19 KCAL/MOL
REMARK 922        TOTAL FREE ENERGY PREDICTED BY IDOCK:  -12.79 KCAL/MOL
REMARK 923 INTER-LIGAND FREE ENERGY PREDICTED BY IDOCK:  -11.46 KCAL/MOL
REMARK 924 INTRA-LIGAND FREE ENERGY PREDICTED BY IDOCK:   -1.34 KCAL/MOL
REMARK 927      BINDING AFFINITY PREDICTED BY RF-SCORE:    0.00 PKD
ROOT
HETATM    1  C   UNL     1      -9.638   5.898  68.329  1.00  0.00    -0.134 C  
HETATM    2  C   UNL     1     -10.910   5.871  69.158  1.00  0.00    -0.406 C  
HETATM    3  C   UNL     1     -10.458   5.453  70.544  1.00  0.00    -0.265 C  
HETATM    4  O   UNL     1      -9.034   5.355  70.538  1.00  0.00    -0.130 OA 
HETATM    5  C   UNL     1      -8.550   6.002  69.370  1.00  0.00    -0.122 C  
HETATM    6  O   UNL     1      -8.343   7.397  69.588  1.00  0.00    -0.128 OA 
HETATM    7  C   UNL     1      -8.628   8.069  68.357  1.00  0.00    -0.127 C  
HETATM    8  C   UNL     1      -9.410   7.116  67.453  1.00  0.00    -0.127 C  
ENDROOT
BRANCH   8   9
HETATM    9  O   UNL     1     -10.643   7.750  67.075  1.00  0.00    -0.335 OA 
BRANCH   9  10
HETATM   10  C   UNL     1     -10.584   9.082  66.831  1.00  0.00    -0.173 C  
HETATM   11  O   UNL     1     -10.039   9.594  65.869  1.00  0.00    -0.288 OA 
HETATM   12  N   UNL     1     -11.149   9.739  67.885  1.00  0.00    -0.504 N  
HETATM   13  H   UNL     1     -11.660   9.192  68.578  1.00  0.00     0.000 HD 
BRANCH  12  14
HETATM   14  C   UNL     1     -11.062  11.195  68.074  1.00  0.00    -0.276 C  
BRANCH  14  15
HETATM   15  C   UNL     1     -11.564  11.624  69.491  1.00  0.00    -0.397 C  
BRANCH  15  16
HETATM   16  C   UNL     1     -11.860  10.499  70.470  1.00  0.00    -0.442 A  
HETATM   17  C   UNL     1     -13.177  10.228  70.866  1.00  0.00    -0.351 A  
HETATM   18  C   UNL     1     -10.824   9.735  71.028  1.00  0.00    -0.378 A  
HETATM   19  C   UNL     1     -13.448   9.223  71.799  1.00  0.00    -0.483 A  
HETATM   20  C   UNL     1     -12.409   8.468  72.339  1.00  0.00    -0.424 A  
HETATM   21  C   UNL     1     -11.097   8.718  71.948  1.00  0.00    -0.434 A  
ENDBRANCH  15  16
ENDBRANCH  14  15
BRANCH  14  22
HETATM   22  C   UNL     1      -9.643  11.782  67.804  1.00  0.00    -0.184 C  
HETATM   23  O   UNL     1      -8.901  11.904  69.026  1.00  0.00    -0.375 OA 
HETATM   24  H   UNL     1      -8.037  12.262  68.862  1.00  0.00     0.000 HD 
BRANCH  22  25
HETATM   25  C   UNL     1      -9.542  13.073  66.967  1.00  0.00    -0.236 C  
BRANCH  25  26
HETATM   26  N   UNL     1      -9.349  14.413  67.670  1.00  0.00    -0.195 N  
BRANCH  26  27
HETATM   27  C   UNL     1      -8.356  15.293  66.912  1.00  0.00    -0.243 C  
HETATM   28  C   UNL     1      -7.134  15.866  67.660  1.00  0.00    -0.185 C  
HETATM   29  C   UNL     1      -6.176  14.804  68.196  1.00  0.00    -0.145 C  
HETATM   30  C   UNL     1      -6.334  16.769  66.702  1.00  0.00    -0.153 C  
ENDBRANCH  26  27
BRANCH  26  31
HETATM   31  S   UNL     1     -10.917  15.197  67.861  1.00  0.00    -0.313 S  
HETATM   32  O   UNL     1     -11.783  14.773  66.789  1.00  0.00    -0.366 OA 
HETATM   33  O   UNL     1     -11.291  15.024  69.253  1.00  0.00    -0.262 OA 
BRANCH  31  34
HETATM   34  C   UNL     1     -10.582  16.940  67.613  1.00  0.00    -0.325 A  
HETATM   35  C   UNL     1     -10.263  18.824  66.131  1.00  0.00    -0.462 A  
HETATM   36  C   UNL     1     -10.595  17.474  66.324  1.00  0.00    -0.198 A  
HETATM   37  C   UNL     1      -9.875  19.635  67.203  1.00  0.00    -0.369 A  
HETATM   38  N   UNL     1      -9.649  20.999  67.015  1.00  0.00    -0.651 NA 
HETATM   39  C   UNL     1      -9.950  19.106  68.494  1.00  0.00    -0.496 A  
HETATM   40  H1  UNL     1      -9.366  21.591  67.797  1.00  0.00     0.000 HD 
HETATM   41  C   UNL     1     -10.286  17.762  68.705  1.00  0.00    -0.373 A  
HETATM   42  H2  UNL     1     -10.483  21.406  66.593  1.00  0.00     0.000 HD 
ENDBRANCH  31  34
ENDBRANCH  26  31
ENDBRANCH  25  26
ENDBRANCH  22  25
ENDBRANCH  14  22
ENDBRANCH  12  14
ENDBRANCH   9  10
ENDBRANCH   8   9
TORSDOF 11
ENDMDL
MODEL       63
REMARK 921   NORMALIZED FREE ENERGY PREDICTED BY IDOCK:   -6.19 KCAL/MOL
REMARK 922        TOTAL FREE ENERGY PREDICTED BY IDOCK:  -12.79 KCAL/MOL
REMARK 923 INTER-LIGAND FREE ENERGY PREDICTED BY IDOCK:   -9.90 KCAL/MOL
REMARK 924 INTRA-LIGAND FREE ENERGY PREDICTED BY IDOCK:   -2.89 KCAL/MOL
REMARK 927      BINDING AFFINITY PREDICTED BY RF-SCORE:    0.00 PKD
ROOT
HETATM    1  C   UNL     1     -12.500   8.200  70.649  1.00  0.00     0.248 C  
HETATM    2  C   UNL     1     -13.723   8.868  71.251  1.00  0.00    -0.235 C  
HETATM    3  C   UNL     1     -14.337   7.810  72.148  1.00  0.00    -0.261 C  
HETATM    4  O   UNL     1     -13.479   6.670  72.146  1.00  0.00    -0.100 OA 
HETATM    5  C   UNL     1     -12.228   7.059  71.598  1.00  0.00    -0.357 C  
HETATM    6  O   UNL     1     -11.354   7.577  72.600  1.00  0.00    -0.317 OA 
HETATM    7  C   UNL     1     -10.551   8.590  71.984  1.00  0.00    -0.338 C  
HETATM    8  C   UNL     1     -11.205   8.990  70.661  1.00  0.00    -0.270 C  
ENDROOT
BRANCH   8   9
HETATM    9  O   UNL     1     -11.436  10.408  70.674  1.00  0.00    -0.317 OA 
BRANCH   9  10
HETATM   10  C   UNL     1     -11.325  11.045  69.482  1.00  0.00    -0.287 C  
HETATM   11  O   UNL     1     -12.140  10.984  68.577  1.00  0.00    -0.573 OA 
HETATM   12  N   UNL     1     -10.117  11.677  69.440  1.00  0.00    -0.390 N  
HETATM   13  H   UNL     1      -9.572  11.735  70.301  1.00  0.00     0.000 HD 
BRANCH  12  14
HETATM   14  C   UNL     1      -9.558  12.279  68.220  1.00  0.00    -0.212 C  
BRANCH  14  15
HETATM   15  C   UNL     1     -10.021  13.762  68.045  1.00  0.00    -0.246 C  
BRANCH  15  16
HETATM   16  C   UNL     1     -10.770  14.088  66.763  1.00  0.00    -0.285 A  
HETATM   17  C   UNL     1     -12.115  13.726  66.612  1.00  0.00    -0.471 A  
HETATM   18  C   UNL     1     -10.123  14.722  65.690  1.00  0.00    -0.393 A  
HETATM   19  C   UNL     1     -12.793  13.987  65.418  1.00  0.00    -0.442 A  
HETATM   20  C   UNL     1     -12.140  14.623  64.364  1.00  0.00    -0.481 A  
HETATM   21  C   UNL     1     -10.806  14.998  64.503  1.00  0.00    -0.152 A  
ENDBRANCH  15  16
ENDBRANCH  14  15
BRANCH  14  22
HETATM   22  C   UNL     1      -8.004  12.185  68.125  1.00  0.00    -0.151 C  
HETATM   23  O   UNL     1      -7.492  13.143  67.189  1.00  0.00    -0.343 OA 
HETATM   24  H   UNL     1      -6.546  13.086  67.131  1.00  0.00     0.000 HD 
BRANCH  22  25
HETATM   25  C   UNL     1      -7.378  10.795  67.889  1.00  0.00    -0.088 C  
BRANCH  25  26
HETATM   26  N   UNL     1      -8.197   9.708  67.199  1.00  0.00    -0.120 N  
BRANCH  26  27
HETATM   27  C   UNL     1      -8.005   9.755  65.684  1.00  0.00    -0.117 C  
HETATM   28  C   UNL     1      -9.248   9.741  64.767  1.00  0.00    -0.319 C  
HETATM   29  C   UNL     1     -10.169  10.946  64.947  1.00  0.00    -0.381 C  
HETATM   30  C   UNL     1      -8.790   9.724  63.297  1.00  0.00    -0.260 C  
ENDBRANCH  26  27
BRANCH  26  31
HETATM   31  S   UNL     1      -7.758   8.139  67.873  1.00  0.00    -0.115 S  
HETATM   32  O   UNL     1      -6.393   7.844  67.514  1.00  0.00    -0.052 OA 
HETATM   33  O   UNL     1      -8.192   8.156  69.258  1.00  0.00    -0.116 OA 
BRANCH  31  34
HETATM   34  C   UNL     1      -8.798   6.968  67.002  1.00  0.00    -0.124 A  
HETATM   35  C   UNL     1     -10.959   5.943  66.646  1.00  0.00    -0.228 A  
HETATM   36  C   UNL     1     -10.164   6.910  67.281  1.00  0.00    -0.284 A  
HETATM   37  C   UNL     1     -10.399   5.006  65.770  1.00  0.00    -0.120 A  
HETATM   38  N   UNL     1     -11.213   4.118  65.066  1.00  0.00    -0.930 NA 
HETATM   39  C   UNL     1      -9.048   5.134  65.439  1.00  0.00    -0.145 A  
HETATM   40  H1  UNL     1     -10.806   3.435  64.428  1.00  0.00     0.000 HD 
HETATM   41  C   UNL     1      -8.241   6.098  66.059  1.00  0.00    -0.127 A  
HETATM   42  H2  UNL     1     -11.907   4.661  64.552  1.00  0.00     0.000 HD 
ENDBRANCH  31  34
ENDBRANCH  26  31
ENDBRANCH  25  26
ENDBRANCH  22  25
ENDBRANCH  14  22
ENDBRANCH  12  14
ENDBRANCH   9  10
ENDBRANCH   8   9
TORSDOF 11
ENDMDL
MODEL       64
REMARK 921   NORMALIZED FREE ENERGY PREDICTED BY IDOCK:   -6.18 KCAL/MOL
REMARK 922        TOTAL FREE ENERGY PREDICTED BY IDOCK:  -12.77 KCAL/MOL
REMARK 923 INTER-LIGAND FREE ENERGY PREDICTED BY IDOCK:  -11.47 KCAL/MOL
REMARK 924 INTRA-LIGAND FREE ENERGY PREDICTED BY IDOCK:   -1.30 KCAL/MOL
REMARK 927      BINDING AFFINITY PREDICTED BY RF-SCORE:    0.00 PKD
ROOT
HETATM    1  C   UNL     1     -11.677  12.432  65.131  1.00  0.00    -0.430 C  
HETATM    2  C   UNL     1     -10.362  12.091  64.454  1.00  0.00    -0.342 C  
HETATM    3  C   UNL     1     -10.758  11.545  63.096  1.00  0.00    -0.207 C  
HETATM    4  O   UNL     1     -12.173  11.665  62.962  1.00  0.00    -0.267 OA 
HETATM    5  C   UNL     1     -12.641  12.543  63.975  1.00  0.00    -0.387 C  
HETATM    6  O   UNL     1     -12.597  13.905  63.552  1.00  0.00    -0.842 OA 
HETATM    7  C   UNL     1     -12.311  14.702  64.706  1.00  0.00    -0.351 C  
HETATM    8  C   UNL     1     -11.776  13.787  65.808  1.00  0.00    -0.349 C  
ENDROOT
BRANCH   8   9
HETATM    9  O   UNL     1     -10.492  14.276  66.228  1.00  0.00    -0.281 OA 
BRANCH   9  10
HETATM   10  C   UNL     1     -10.118  13.970  67.495  1.00  0.00    -0.237 C  
HETATM   11  O   UNL     1      -9.137  14.417  68.064  1.00  0.00    -0.176 OA 
HETATM   12  N   UNL     1     -10.967  13.017  67.977  1.00  0.00    -0.241 N  
HETATM   13  H   UNL     1     -11.808  12.802  67.440  1.00  0.00     0.000 HD 
BRANCH  12  14
HETATM   14  C   UNL     1     -10.735  12.283  69.231  1.00  0.00     0.039 C  
BRANCH  14  15
HETATM   15  C   UNL     1     -12.069  12.035  70.008  1.00  0.00    -0.355 C  
BRANCH  15  16
HETATM   16  C   UNL     1     -12.628  13.217  70.782  1.00  0.00    -0.357 A  
HETATM   17  C   UNL     1     -13.319  13.018  71.985  1.00  0.00    -0.588 A  
HETATM   18  C   UNL     1     -12.501  14.527  70.294  1.00  0.00    -0.405 A  
HETATM   19  C   UNL     1     -13.872  14.099  72.677  1.00  0.00    -0.504 A  
HETATM   20  C   UNL     1     -13.731  15.395  72.183  1.00  0.00    -0.618 A  
HETATM   21  C   UNL     1     -13.038  15.610  70.995  1.00  0.00    -0.487 A  
ENDBRANCH  15  16
ENDBRANCH  14  15
BRANCH  14  22
HETATM   22  C   UNL     1      -9.963  10.942  69.043  1.00  0.00    -0.191 C  
HETATM   23  O   UNL     1     -10.247  10.366  67.760  1.00  0.00    -0.176 OA 
HETATM   24  H   UNL     1      -9.776   9.549  67.645  1.00  0.00     0.000 HD 
BRANCH  22  25
HETATM   25  C   UNL     1     -10.071   9.883  70.158  1.00  0.00    -0.255 C  
BRANCH  25  26
HETATM   26  N   UNL     1     -10.860   8.602  69.906  1.00  0.00    -0.231 N  
BRANCH  26  27
HETATM   27  C   UNL     1      -9.937   7.467  69.462  1.00  0.00    -0.180 C  
HETATM   28  C   UNL     1     -10.518   6.309  68.623  1.00  0.00    -0.274 C  
HETATM   29  C   UNL     1     -11.069   6.738  67.265  1.00  0.00    -0.394 C  
HETATM   30  C   UNL     1      -9.412   5.268  68.366  1.00  0.00    -0.159 C  
ENDBRANCH  26  27
BRANCH  26  31
HETATM   31  S   UNL     1     -11.767   8.185  71.359  1.00  0.00    -0.293 S  
HETATM   32  O   UNL     1     -11.949   9.376  72.151  1.00  0.00    -0.322 OA 
HETATM   33  O   UNL     1     -12.897   7.388  70.918  1.00  0.00    -0.220 OA 
BRANCH  31  34
HETATM   34  C   UNL     1     -10.675   7.101  72.277  1.00  0.00    -0.221 A  
HETATM   35  C   UNL     1     -10.076   4.888  73.044  1.00  0.00    -0.200 A  
HETATM   36  C   UNL     1     -10.893   5.724  72.267  1.00  0.00    -0.298 A  
HETATM   37  C   UNL     1      -9.073   5.416  73.866  1.00  0.00    -0.122 A  
HETATM   38  N   UNL     1      -8.201   4.570  74.552  1.00  0.00    -0.094 NA 
HETATM   39  C   UNL     1      -8.816   6.787  73.798  1.00  0.00    -0.164 A  
HETATM   40  H1  UNL     1      -7.470   4.955  75.151  1.00  0.00     0.000 HD 
HETATM   41  C   UNL     1      -9.618   7.635  73.021  1.00  0.00    -0.292 A  
HETATM   42  H2  UNL     1      -7.762   3.946  73.875  1.00  0.00     0.000 HD 
ENDBRANCH  31  34
ENDBRANCH  26  31
ENDBRANCH  25  26
ENDBRANCH  22  25
ENDBRANCH  14  22
ENDBRANCH  12  14
ENDBRANCH   9  10
ENDBRANCH   8   9
TORSDOF 11
ENDMDL
MODEL       65
REMARK 921   NORMALIZED FREE ENERGY PREDICTED BY IDOCK:   -6.17 KCAL/MOL
REMARK 922        TOTAL FREE ENERGY PREDICTED BY IDOCK:  -12.76 KCAL/MOL
REMARK 923 INTER-LIGAND FREE ENERGY PREDICTED BY IDOCK:  -11.12 KCAL/MOL
REMARK 924 INTRA-LIGAND FREE ENERGY PREDICTED BY IDOCK:   -1.64 KCAL/MOL
REMARK 927      BINDING AFFINITY PREDICTED BY RF-SCORE:    0.00 PKD
ROOT
HETATM    1  C   UNL     1     -11.058   8.029  72.600  1.00  0.00    -0.453 C  
HETATM    2  C   UNL     1      -9.760   7.637  73.282  1.00  0.00    -0.346 C  
HETATM    3  C   UNL     1      -9.997   6.223  73.778  1.00  0.00    -0.224 C  
HETATM    4  O   UNL     1     -11.282   5.801  73.323  1.00  0.00    -0.246 OA 
HETATM    5  C   UNL     1     -11.712   6.700  72.311  1.00  0.00    -0.269 C  
HETATM    6  O   UNL     1     -11.246   6.302  71.022  1.00  0.00    -0.288 OA 
HETATM    7  C   UNL     1     -11.009   7.494  70.266  1.00  0.00    -0.250 C  
HETATM    8  C   UNL     1     -10.951   8.678  71.232  1.00  0.00    -0.267 C  
ENDROOT
BRANCH   8   9
HETATM    9  O   UNL     1      -9.697   9.356  71.051  1.00  0.00    -0.275 OA 
BRANCH   9  10
HETATM   10  C   UNL     1      -9.197   9.368  69.791  1.00  0.00    -0.196 C  
HETATM   11  O   UNL     1      -8.326   8.622  69.376  1.00  0.00    -0.111 OA 
HETATM   12  N   UNL     1      -9.764  10.407  69.111  1.00  0.00    -0.212 N  
HETATM   13  H   UNL     1     -10.553  10.891  69.540  1.00  0.00     0.000 HD 
BRANCH  12  14
HETATM   14  C   UNL     1      -9.298  10.864  67.793  1.00  0.00    -0.157 C  
BRANCH  14  15
HETATM   15  C   UNL     1     -10.458  10.879  66.745  1.00  0.00    -0.302 C  
BRANCH  15  16
HETATM   16  C   UNL     1     -10.056  10.697  65.291  1.00  0.00    -0.363 A  
HETATM   17  C   UNL     1     -10.507  11.589  64.310  1.00  0.00    -0.393 A  
HETATM   18  C   UNL     1      -9.258   9.613  64.892  1.00  0.00    -0.306 A  
HETATM   19  C   UNL     1     -10.175  11.400  62.966  1.00  0.00    -0.311 A  
HETATM   20  C   UNL     1      -9.376  10.323  62.586  1.00  0.00    -0.335 A  
HETATM   21  C   UNL     1      -8.911   9.433  63.550  1.00  0.00    -0.198 A  
ENDBRANCH  15  16
ENDBRANCH  14  15
BRANCH  14  22
HETATM   22  C   UNL     1      -8.579  12.247  67.824  1.00  0.00    -0.170 C  
HETATM   23  O   UNL     1      -8.107  12.547  69.145  1.00  0.00    -0.320 OA 
HETATM   24  H   UNL     1      -7.669  13.390  69.163  1.00  0.00     0.000 HD 
BRANCH  22  25
HETATM   25  C   UNL     1      -9.315  13.457  67.213  1.00  0.00    -0.233 C  
BRANCH  25  26
HETATM   26  N   UNL     1      -9.446  14.744  68.021  1.00  0.00    -0.200 N  
BRANCH  26  27
HETATM   27  C   UNL     1      -8.492  15.819  67.501  1.00  0.00    -0.168 C  
HETATM   28  C   UNL     1      -7.634  16.615  68.508  1.00  0.00    -0.212 C  
HETATM   29  C   UNL     1      -6.649  15.760  69.302  1.00  0.00    -0.160 C  
HETATM   30  C   UNL     1      -6.817  17.676  67.746  1.00  0.00    -0.187 C  
ENDBRANCH  26  27
BRANCH  26  31
HETATM   31  S   UNL     1     -11.126  15.279  67.988  1.00  0.00    -0.322 S  
HETATM   32  O   UNL     1     -11.159  16.715  68.114  1.00  0.00    -0.361 OA 
HETATM   33  O   UNL     1     -11.746  14.602  66.864  1.00  0.00    -0.375 OA 
BRANCH  31  34
HETATM   34  C   UNL     1     -11.845  14.601  69.482  1.00  0.00    -0.330 A  
HETATM   35  C   UNL     1     -12.552  12.695  70.791  1.00  0.00    -0.302 A  
HETATM   36  C   UNL     1     -11.925  13.218  69.650  1.00  0.00    -0.376 A  
HETATM   37  C   UNL     1     -13.140  13.534  71.745  1.00  0.00    -0.387 A  
HETATM   38  N   UNL     1     -13.667  13.008  72.924  1.00  0.00    -0.650 NA 
HETATM   39  C   UNL     1     -12.975  14.914  71.602  1.00  0.00    -0.415 A  
HETATM   40  H1  UNL     1     -14.095  13.620  73.619  1.00  0.00     0.000 HD 
HETATM   41  C   UNL     1     -12.345  15.453  70.472  1.00  0.00    -0.452 A  
HETATM   42  H2  UNL     1     -12.938  12.463  73.385  1.00  0.00     0.000 HD 
ENDBRANCH  31  34
ENDBRANCH  26  31
ENDBRANCH  25  26
ENDBRANCH  22  25
ENDBRANCH  14  22
ENDBRANCH  12  14
ENDBRANCH   9  10
ENDBRANCH   8   9
TORSDOF 11
ENDMDL
MODEL       66
REMARK 921   NORMALIZED FREE ENERGY PREDICTED BY IDOCK:   -6.17 KCAL/MOL
REMARK 922        TOTAL FREE ENERGY PREDICTED BY IDOCK:  -12.76 KCAL/MOL
REMARK 923 INTER-LIGAND FREE ENERGY PREDICTED BY IDOCK:  -11.24 KCAL/MOL
REMARK 924 INTRA-LIGAND FREE ENERGY PREDICTED BY IDOCK:   -1.51 KCAL/MOL
REMARK 927      BINDING AFFINITY PREDICTED BY RF-SCORE:    0.00 PKD
ROOT
HETATM    1  C   UNL     1     -10.055  16.100  66.561  1.00  0.00    -0.301 C  
HETATM    2  C   UNL     1     -10.904  16.660  67.688  1.00  0.00    -0.258 C  
HETATM    3  C   UNL     1     -10.683  18.159  67.630  1.00  0.00    -0.343 C  
HETATM    4  O   UNL     1      -9.863  18.445  66.498  1.00  0.00    -0.324 OA 
HETATM    5  C   UNL     1      -9.841  17.295  65.664  1.00  0.00     0.091 C  
HETATM    6  O   UNL     1     -10.928  17.296  64.740  1.00  0.00    -0.950 OA 
HETATM    7  C   UNL     1     -11.310  15.933  64.528  1.00  0.00    -0.309 C  
HETATM    8  C   UNL     1     -10.707  15.081  65.645  1.00  0.00    -0.354 C  
ENDROOT
BRANCH   8   9
HETATM    9  O   UNL     1     -11.768  14.365  66.300  1.00  0.00    -0.370 OA 
BRANCH   9  10
HETATM   10  C   UNL     1     -11.773  13.019  66.137  1.00  0.00    -0.394 C  
HETATM   11  O   UNL     1     -12.645  12.386  65.567  1.00  0.00    -0.616 OA 
HETATM   12  N   UNL     1     -10.696  12.500  66.796  1.00  0.00    -0.233 N  
HETATM   13  H   UNL     1      -9.987  13.145  67.146  1.00  0.00     0.000 HD 
BRANCH  12  14
HETATM   14  C   UNL     1     -10.503  11.060  67.027  1.00  0.00    -0.240 C  
BRANCH  14  15
HETATM   15  C   UNL     1      -8.998  10.655  66.911  1.00  0.00    -0.147 C  
BRANCH  15  16
HETATM   16  C   UNL     1      -8.471  10.412  65.506  1.00  0.00    -0.171 A  
HETATM   17  C   UNL     1      -9.349  10.360  64.415  1.00  0.00    -0.321 A  
HETATM   18  C   UNL     1      -7.104  10.195  65.274  1.00  0.00    -0.137 A  
HETATM   19  C   UNL     1      -8.873  10.094  63.129  1.00  0.00    -0.232 A  
HETATM   20  C   UNL     1      -7.511   9.889  62.913  1.00  0.00    -0.131 A  
HETATM   21  C   UNL     1      -6.625   9.947  63.985  1.00  0.00    -0.127 A  
ENDBRANCH  15  16
ENDBRANCH  14  15
BRANCH  14  22
HETATM   22  C   UNL     1     -11.096  10.553  68.377  1.00  0.00    -0.281 C  
HETATM   23  O   UNL     1     -12.427  11.053  68.568  1.00  0.00    -0.713 OA 
HETATM   24  H   UNL     1     -12.789  10.744  69.390  1.00  0.00     0.000 HD 
BRANCH  22  25
HETATM   25  C   UNL     1     -10.250  10.737  69.653  1.00  0.00    -0.057 C  
BRANCH  25  26
HETATM   26  N   UNL     1     -10.437   9.779  70.824  1.00  0.00    -0.302 N  
BRANCH  26  27
HETATM   27  C   UNL     1     -11.798   9.088  70.757  1.00  0.00    -0.206 C  
HETATM   28  C   UNL     1     -12.849   9.387  71.847  1.00  0.00    -0.497 C  
HETATM   29  C   UNL     1     -13.303  10.845  71.893  1.00  0.00    -0.429 C  
HETATM   30  C   UNL     1     -14.098   8.521  71.595  1.00  0.00    -0.482 C  
ENDBRANCH  26  27
BRANCH  26  31
HETATM   31  S   UNL     1      -9.107   8.620  70.842  1.00  0.00    -0.207 S  
HETATM   32  O   UNL     1      -8.972   8.048  69.525  1.00  0.00    -0.146 OA 
HETATM   33  O   UNL     1      -7.996   9.286  71.497  1.00  0.00    -0.334 OA 
BRANCH  31  34
HETATM   34  C   UNL     1      -9.664   7.312  71.932  1.00  0.00    -0.155 A  
HETATM   35  C   UNL     1     -10.003   6.444  74.163  1.00  0.00    -0.326 A  
HETATM   36  C   UNL     1      -9.631   7.498  73.314  1.00  0.00    -0.308 A  
HETATM   37  C   UNL     1     -10.363   5.193  73.650  1.00  0.00    -0.223 A  
HETATM   38  N   UNL     1     -10.830   4.186  74.496  1.00  0.00    -0.207 NA 
HETATM   39  C   UNL     1     -10.471   5.052  72.264  1.00  0.00    -0.275 A  
HETATM   40  H1  UNL     1     -11.093   3.274  74.122  1.00  0.00     0.000 HD 
HETATM   41  C   UNL     1     -10.110   6.097  71.402  1.00  0.00    -0.230 A  
HETATM   42  H2  UNL     1     -11.622   4.555  75.024  1.00  0.00     0.000 HD 
ENDBRANCH  31  34
ENDBRANCH  26  31
ENDBRANCH  25  26
ENDBRANCH  22  25
ENDBRANCH  14  22
ENDBRANCH  12  14
ENDBRANCH   9  10
ENDBRANCH   8   9
TORSDOF 11
ENDMDL
MODEL       67
REMARK 921   NORMALIZED FREE ENERGY PREDICTED BY IDOCK:   -6.15 KCAL/MOL
REMARK 922        TOTAL FREE ENERGY PREDICTED BY IDOCK:  -12.73 KCAL/MOL
REMARK 923 INTER-LIGAND FREE ENERGY PREDICTED BY IDOCK:  -10.95 KCAL/MOL
REMARK 924 INTRA-LIGAND FREE ENERGY PREDICTED BY IDOCK:   -1.78 KCAL/MOL
REMARK 927      BINDING AFFINITY PREDICTED BY RF-SCORE:    0.00 PKD
ROOT
HETATM    1  C   UNL     1     -12.060   8.277  72.232  1.00  0.00    -0.439 C  
HETATM    2  C   UNL     1     -12.457   7.126  71.326  1.00  0.00    -0.425 C  
HETATM    3  C   UNL     1     -13.973   7.109  71.365  1.00  0.00    -0.255 C  
HETATM    4  O   UNL     1     -14.411   8.225  72.140  1.00  0.00    -0.417 OA 
HETATM    5  C   UNL     1     -13.314   9.114  72.297  1.00  0.00    -0.477 C  
HETATM    6  O   UNL     1     -13.229  10.039  71.214  1.00  0.00    -0.381 OA 
HETATM    7  C   UNL     1     -11.842  10.318  70.998  1.00  0.00    -0.377 C  
HETATM    8  C   UNL     1     -11.015   9.243  71.704  1.00  0.00    -0.363 C  
ENDROOT
BRANCH   8   9
HETATM    9  O   UNL     1     -10.145   8.626  70.740  1.00  0.00    -0.184 OA 
BRANCH   9  10
HETATM   10  C   UNL     1      -8.896   9.143  70.642  1.00  0.00    -0.232 C  
HETATM   11  O   UNL     1      -8.089   9.202  71.554  1.00  0.00    -0.337 OA 
HETATM   12  N   UNL     1      -8.740   9.662  69.389  1.00  0.00    -0.157 N  
HETATM   13  H   UNL     1      -9.453   9.456  68.689  1.00  0.00     0.000 HD 
BRANCH  12  14
HETATM   14  C   UNL     1      -7.598  10.500  68.995  1.00  0.00    -0.117 C  
BRANCH  14  15
HETATM   15  C   UNL     1      -6.658   9.758  67.990  1.00  0.00    -0.061 C  
BRANCH  15  16
HETATM   16  C   UNL     1      -7.251   9.428  66.630  1.00  0.00    -0.086 A  
HETATM   17  C   UNL     1      -7.142  10.333  65.566  1.00  0.00    -0.142 A  
HETATM   18  C   UNL     1      -7.953   8.230  66.419  1.00  0.00    -0.096 A  
HETATM   19  C   UNL     1      -7.723  10.051  64.327  1.00  0.00    -0.141 A  
HETATM   20  C   UNL     1      -8.410   8.854  64.130  1.00  0.00    -0.168 A  
HETATM   21  C   UNL     1      -8.519   7.940  65.174  1.00  0.00    -0.096 A  
ENDBRANCH  15  16
ENDBRANCH  14  15
BRANCH  14  22
HETATM   22  C   UNL     1      -8.005  11.893  68.425  1.00  0.00    -0.154 C  
HETATM   23  O   UNL     1      -7.355  12.949  69.147  1.00  0.00    -0.289 OA 
HETATM   24  H   UNL     1      -7.603  13.798  68.800  1.00  0.00     0.000 HD 
BRANCH  22  25
HETATM   25  C   UNL     1      -9.508  12.190  68.249  1.00  0.00    -0.204 C  
BRANCH  25  26
HETATM   26  N   UNL     1     -10.019  13.617  68.425  1.00  0.00    -0.236 N  
BRANCH  26  27
HETATM   27  C   UNL     1      -9.471  14.535  67.333  1.00  0.00    -0.202 C  
HETATM   28  C   UNL     1      -9.407  16.056  67.591  1.00  0.00    -0.214 C  
HETATM   29  C   UNL     1      -8.491  16.456  68.745  1.00  0.00    -0.249 C  
HETATM   30  C   UNL     1      -8.889  16.761  66.323  1.00  0.00    -0.334 C  
ENDBRANCH  26  27
BRANCH  26  31
HETATM   31  S   UNL     1     -11.782  13.601  68.452  1.00  0.00    -0.375 S  
HETATM   32  O   UNL     1     -12.271  14.513  67.449  1.00  0.00    -0.333 OA 
HETATM   33  O   UNL     1     -12.175  12.203  68.464  1.00  0.00    -0.293 OA 
BRANCH  31  34
HETATM   34  C   UNL     1     -12.214  14.289  70.049  1.00  0.00    -0.359 A  
HETATM   35  C   UNL     1     -13.725  14.435  71.931  1.00  0.00    -0.518 A  
HETATM   36  C   UNL     1     -13.355  13.841  70.714  1.00  0.00     0.010 A  
HETATM   37  C   UNL     1     -12.994  15.500  72.469  1.00  0.00    -0.428 A  
HETATM   38  N   UNL     1     -13.309  16.012  73.728  1.00  0.00    -0.879 NA 
HETATM   39  C   UNL     1     -11.809  15.877  71.833  1.00  0.00    -0.595 A  
HETATM   40  H1  UNL     1     -12.777  16.789  74.121  1.00  0.00     0.000 HD 
HETATM   41  C   UNL     1     -11.422  15.290  70.621  1.00  0.00    -0.353 A  
HETATM   42  H2  UNL     1     -13.293  15.244  74.399  1.00  0.00     0.000 HD 
ENDBRANCH  31  34
ENDBRANCH  26  31
ENDBRANCH  25  26
ENDBRANCH  22  25
ENDBRANCH  14  22
ENDBRANCH  12  14
ENDBRANCH   9  10
ENDBRANCH   8   9
TORSDOF 11
ENDMDL
MODEL       68
REMARK 921   NORMALIZED FREE ENERGY PREDICTED BY IDOCK:   -6.15 KCAL/MOL
REMARK 922        TOTAL FREE ENERGY PREDICTED BY IDOCK:  -12.72 KCAL/MOL
REMARK 923 INTER-LIGAND FREE ENERGY PREDICTED BY IDOCK:  -10.97 KCAL/MOL
REMARK 924 INTRA-LIGAND FREE ENERGY PREDICTED BY IDOCK:   -1.75 KCAL/MOL
REMARK 927      BINDING AFFINITY PREDICTED BY RF-SCORE:    0.00 PKD
ROOT
HETATM    1  C   UNL     1     -10.253   7.873  72.383  1.00  0.00    -0.327 C  
HETATM    2  C   UNL     1      -9.444   6.788  71.696  1.00  0.00    -0.155 C  
HETATM    3  C   UNL     1     -10.302   5.542  71.802  1.00  0.00    -0.216 C  
HETATM    4  O   UNL     1     -11.545   5.905  72.401  1.00  0.00    -0.302 OA 
HETATM    5  C   UNL     1     -11.658   7.321  72.364  1.00  0.00    -0.268 C  
HETATM    6  O   UNL     1     -12.242   7.769  71.141  1.00  0.00    -0.308 OA 
HETATM    7  C   UNL     1     -11.652   9.033  70.824  1.00  0.00    -0.265 C  
HETATM    8  C   UNL     1     -10.383   9.201  71.660  1.00  0.00    -0.318 C  
ENDROOT
BRANCH   8   9
HETATM    9  O   UNL     1      -9.278   9.445  70.774  1.00  0.00    -0.247 OA 
BRANCH   9  10
HETATM   10  C   UNL     1      -9.576   9.540  69.455  1.00  0.00    -0.180 C  
HETATM   11  O   UNL     1      -9.659   8.597  68.687  1.00  0.00    -0.152 OA 
HETATM   12  N   UNL     1      -9.672  10.861  69.127  1.00  0.00    -0.360 N  
HETATM   13  H   UNL     1      -9.683  11.547  69.883  1.00  0.00     0.000 HD 
BRANCH  12  14
HETATM   14  C   UNL     1      -9.760  11.349  67.742  1.00  0.00    -0.175 C  
BRANCH  14  15
HETATM   15  C   UNL     1     -11.245  11.533  67.291  1.00  0.00    -0.365 C  
BRANCH  15  16
HETATM   16  C   UNL     1     -11.467  12.297  65.995  1.00  0.00    -0.434 A  
HETATM   17  C   UNL     1     -12.065  13.564  66.009  1.00  0.00    -0.489 A  
HETATM   18  C   UNL     1     -11.114  11.738  64.757  1.00  0.00    -0.356 A  
HETATM   19  C   UNL     1     -12.308  14.251  64.817  1.00  0.00    -0.440 A  
HETATM   20  C   UNL     1     -11.946  13.686  63.595  1.00  0.00    -0.371 A  
HETATM   21  C   UNL     1     -11.342  12.432  63.565  1.00  0.00    -0.553 A  
ENDBRANCH  15  16
ENDBRANCH  14  15
BRANCH  14  22
HETATM   22  C   UNL     1      -8.950  12.655  67.481  1.00  0.00    -0.187 C  
HETATM   23  O   UNL     1      -7.728  12.366  66.787  1.00  0.00    -0.371 OA 
HETATM   24  H   UNL     1      -7.235  13.162  66.627  1.00  0.00     0.000 HD 
BRANCH  22  25
HETATM   25  C   UNL     1      -8.697  13.599  68.673  1.00  0.00    -0.027 C  
BRANCH  25  26
HETATM   26  N   UNL     1      -9.234  15.026  68.631  1.00  0.00    -0.191 N  
BRANCH  26  27
HETATM   27  C   UNL     1      -9.918  15.395  69.947  1.00  0.00    -0.216 C  
HETATM   28  C   UNL     1     -11.459  15.456  70.003  1.00  0.00    -0.335 C  
HETATM   29  C   UNL     1     -12.147  14.121  69.722  1.00  0.00    -0.409 C  
HETATM   30  C   UNL     1     -11.895  15.915  71.408  1.00  0.00    -0.524 C  
ENDBRANCH  26  27
BRANCH  26  31
HETATM   31  S   UNL     1      -7.915  16.129  68.239  1.00  0.00    -0.157 S  
HETATM   32  O   UNL     1      -7.323  16.601  69.466  1.00  0.00    -0.174 OA 
HETATM   33  O   UNL     1      -7.122  15.468  67.219  1.00  0.00    -0.195 OA 
BRANCH  31  34
HETATM   34  C   UNL     1      -8.717  17.532  67.465  1.00  0.00    -0.225 A  
HETATM   35  C   UNL     1     -10.453  18.436  66.046  1.00  0.00    -0.400 A  
HETATM   36  C   UNL     1      -9.872  17.342  66.706  1.00  0.00    -0.297 A  
HETATM   37  C   UNL     1      -9.870  19.707  66.097  1.00  0.00    -0.436 A  
HETATM   38  N   UNL     1     -10.513  20.806  65.524  1.00  0.00     0.142 NA 
HETATM   39  C   UNL     1      -8.764  19.895  66.929  1.00  0.00    -0.408 A  
HETATM   40  H1  UNL     1     -10.088  21.732  65.562  1.00  0.00     0.000 HD 
HETATM   41  C   UNL     1      -8.175  18.815  67.601  1.00  0.00    -0.282 A  
HETATM   42  H2  UNL     1     -11.451  20.869  65.920  1.00  0.00     0.000 HD 
ENDBRANCH  31  34
ENDBRANCH  26  31
ENDBRANCH  25  26
ENDBRANCH  22  25
ENDBRANCH  14  22
ENDBRANCH  12  14
ENDBRANCH   9  10
ENDBRANCH   8   9
TORSDOF 11
ENDMDL
MODEL       69
REMARK 921   NORMALIZED FREE ENERGY PREDICTED BY IDOCK:   -6.14 KCAL/MOL
REMARK 922        TOTAL FREE ENERGY PREDICTED BY IDOCK:  -12.72 KCAL/MOL
REMARK 923 INTER-LIGAND FREE ENERGY PREDICTED BY IDOCK:  -10.96 KCAL/MOL
REMARK 924 INTRA-LIGAND FREE ENERGY PREDICTED BY IDOCK:   -1.76 KCAL/MOL
REMARK 927      BINDING AFFINITY PREDICTED BY RF-SCORE:    0.00 PKD
ROOT
HETATM    1  C   UNL     1     -11.433  12.809  65.176  1.00  0.00    -0.356 C  
HETATM    2  C   UNL     1     -10.068  12.552  64.565  1.00  0.00    -0.273 C  
HETATM    3  C   UNL     1     -10.343  11.671  63.362  1.00  0.00    -0.435 C  
HETATM    4  O   UNL     1     -11.757  11.525  63.231  1.00  0.00    -0.293 OA 
HETATM    5  C   UNL     1     -12.381  12.510  64.041  1.00  0.00    -0.469 C  
HETATM    6  O   UNL     1     -12.554  13.738  63.336  1.00  0.00    -0.842 OA 
HETATM    7  C   UNL     1     -12.424  14.799  64.288  1.00  0.00    -0.197 C  
HETATM    8  C   UNL     1     -11.765  14.242  65.550  1.00  0.00    -0.353 C  
ENDROOT
BRANCH   8   9
HETATM    9  O   UNL     1     -10.587  15.014  65.833  1.00  0.00    -0.299 OA 
BRANCH   9  10
HETATM   10  C   UNL     1     -10.061  14.874  67.075  1.00  0.00    -0.244 C  
HETATM   11  O   UNL     1     -10.706  14.670  68.089  1.00  0.00    -0.236 OA 
HETATM   12  N   UNL     1      -8.717  15.093  67.001  1.00  0.00    -0.221 N  
HETATM   13  H   UNL     1      -8.286  15.153  66.078  1.00  0.00     0.000 HD 
BRANCH  12  14
HETATM   14  C   UNL     1      -7.854  15.246  68.183  1.00  0.00    -0.120 C  
BRANCH  14  15
HETATM   15  C   UNL     1      -8.362  16.388  69.122  1.00  0.00    -0.182 C  
BRANCH  15  16
HETATM   16  C   UNL     1      -8.735  17.699  68.450  1.00  0.00    -0.284 A  
HETATM   17  C   UNL     1      -7.748  18.511  67.877  1.00  0.00    -0.265 A  
HETATM   18  C   UNL     1     -10.066  18.144  68.422  1.00  0.00    -0.401 A  
HETATM   19  C   UNL     1      -8.082  19.737  67.296  1.00  0.00    -0.327 A  
HETATM   20  C   UNL     1      -9.409  20.163  67.269  1.00  0.00    -0.519 A  
HETATM   21  C   UNL     1     -10.403  19.363  67.826  1.00  0.00    -0.547 A  
ENDBRANCH  15  16
ENDBRANCH  14  15
BRANCH  14  22
HETATM   22  C   UNL     1      -7.654  13.929  68.993  1.00  0.00    -0.002 C  
HETATM   23  O   UNL     1      -6.871  14.169  70.170  1.00  0.00    -0.375 OA 
HETATM   24  H   UNL     1      -6.749  13.367  70.664  1.00  0.00     0.000 HD 
BRANCH  22  25
HETATM   25  C   UNL     1      -7.146  12.686  68.236  1.00  0.00    -0.105 C  
BRANCH  25  26
HETATM   26  N   UNL     1      -7.949  11.390  68.291  1.00  0.00    -0.128 N  
BRANCH  26  27
HETATM   27  C   UNL     1      -7.962  10.694  66.931  1.00  0.00    -0.124 C  
HETATM   28  C   UNL     1      -8.886   9.476  66.717  1.00  0.00    -0.145 C  
HETATM   29  C   UNL     1     -10.374   9.789  66.858  1.00  0.00    -0.301 C  
HETATM   30  C   UNL     1      -8.663   8.916  65.300  1.00  0.00    -0.220 C  
ENDBRANCH  26  27
BRANCH  26  31
HETATM   31  S   UNL     1      -7.292  10.355  69.559  1.00  0.00    -0.154 S  
HETATM   32  O   UNL     1      -6.615   9.240  68.944  1.00  0.00    -0.047 OA 
HETATM   33  O   UNL     1      -6.612  11.236  70.491  1.00  0.00    -0.239 OA 
BRANCH  31  34
HETATM   34  C   UNL     1      -8.734   9.701  70.398  1.00  0.00    -0.166 A  
HETATM   35  C   UNL     1     -11.121   9.708  70.782  1.00  0.00    -0.403 A  
HETATM   36  C   UNL     1     -10.004  10.174  70.071  1.00  0.00    -0.213 A  
HETATM   37  C   UNL     1     -10.979   8.808  71.845  1.00  0.00    -0.365 A  
HETATM   38  N   UNL     1     -12.103   8.272  72.475  1.00  0.00    -0.511 NA 
HETATM   39  C   UNL     1      -9.711   8.282  72.102  1.00  0.00    -0.344 A  
HETATM   40  H1  UNL     1     -12.000   7.617  73.249  1.00  0.00     0.000 HD 
HETATM   41  C   UNL     1      -8.586   8.732  71.397  1.00  0.00    -0.254 A  
HETATM   42  H2  UNL     1     -12.690   7.836  71.763  1.00  0.00     0.000 HD 
ENDBRANCH  31  34
ENDBRANCH  26  31
ENDBRANCH  25  26
ENDBRANCH  22  25
ENDBRANCH  14  22
ENDBRANCH  12  14
ENDBRANCH   9  10
ENDBRANCH   8   9
TORSDOF 11
ENDMDL
MODEL       70
REMARK 921   NORMALIZED FREE ENERGY PREDICTED BY IDOCK:   -6.13 KCAL/MOL
REMARK 922        TOTAL FREE ENERGY PREDICTED BY IDOCK:  -12.70 KCAL/MOL
REMARK 923 INTER-LIGAND FREE ENERGY PREDICTED BY IDOCK:  -11.80 KCAL/MOL
REMARK 924 INTRA-LIGAND FREE ENERGY PREDICTED BY IDOCK:   -0.90 KCAL/MOL
REMARK 927      BINDING AFFINITY PREDICTED BY RF-SCORE:    0.00 PKD
ROOT
HETATM    1  C   UNL     1      -9.317  19.210  67.644  1.00  0.00    -0.357 C  
HETATM    2  C   UNL     1     -10.781  19.305  67.258  1.00  0.00    -0.594 C  
HETATM    3  C   UNL     1     -10.772  19.850  65.842  1.00  0.00    -0.339 C  
HETATM    4  O   UNL     1      -9.415  19.955  65.414  1.00  0.00    -0.161 OA 
HETATM    5  C   UNL     1      -8.608  19.207  66.312  1.00  0.00    -0.296 C  
HETATM    6  O   UNL     1      -8.511  17.839  65.918  1.00  0.00    -0.522 OA 
HETATM    7  C   UNL     1      -8.416  17.056  67.112  1.00  0.00    -0.202 C  
HETATM    8  C   UNL     1      -8.856  17.918  68.295  1.00  0.00    -0.275 C  
ENDROOT
BRANCH   8   9
HETATM    9  O   UNL     1      -9.926  17.246  68.980  1.00  0.00    -0.298 OA 
BRANCH   9  10
HETATM   10  C   UNL     1      -9.707  15.949  69.310  1.00  0.00    -0.263 C  
HETATM   11  O   UNL     1      -8.641  15.493  69.686  1.00  0.00    -0.246 OA 
HETATM   12  N   UNL     1     -10.846  15.241  69.059  1.00  0.00    -0.233 N  
HETATM   13  H   UNL     1     -11.699  15.759  68.843  1.00  0.00     0.000 HD 
BRANCH  12  14
HETATM   14  C   UNL     1     -10.910  13.772  69.083  1.00  0.00    -0.170 C  
BRANCH  14  15
HETATM   15  C   UNL     1     -12.087  13.261  69.975  1.00  0.00    -0.385 C  
BRANCH  15  16
HETATM   16  C   UNL     1     -12.527  14.181  71.103  1.00  0.00    -0.445 A  
HETATM   17  C   UNL     1     -13.888  14.409  71.346  1.00  0.00    -0.409 A  
HETATM   18  C   UNL     1     -11.585  14.849  71.900  1.00  0.00    -0.335 A  
HETATM   19  C   UNL     1     -14.295  15.286  72.355  1.00  0.00    -0.475 A  
HETATM   20  C   UNL     1     -13.347  15.938  73.142  1.00  0.00    -0.681 A  
HETATM   21  C   UNL     1     -11.992  15.713  72.920  1.00  0.00    -0.588 A  
ENDBRANCH  15  16
ENDBRANCH  14  15
BRANCH  14  22
HETATM   22  C   UNL     1     -10.982  13.120  67.669  1.00  0.00    -0.262 C  
HETATM   23  O   UNL     1     -11.676  13.975  66.749  1.00  0.00    -0.364 OA 
HETATM   24  H   UNL     1     -11.720  13.578  65.887  1.00  0.00     0.000 HD 
BRANCH  22  25
HETATM   25  C   UNL     1     -11.495  11.669  67.567  1.00  0.00    -0.289 C  
BRANCH  25  26
HETATM   26  N   UNL     1     -10.627  10.610  66.894  1.00  0.00    -0.257 N  
BRANCH  26  27
HETATM   27  C   UNL     1      -9.888  11.191  65.688  1.00  0.00    -0.235 C  
HETATM   28  C   UNL     1     -10.520  11.064  64.285  1.00  0.00    -0.427 C  
HETATM   29  C   UNL     1     -11.859  11.783  64.136  1.00  0.00    -0.350 C  
HETATM   30  C   UNL     1      -9.555  11.659  63.242  1.00  0.00    -0.334 C  
ENDBRANCH  26  27
BRANCH  26  31
HETATM   31  S   UNL     1      -9.519   9.929  68.084  1.00  0.00    -0.139 S  
HETATM   32  O   UNL     1      -8.176  10.342  67.758  1.00  0.00    -0.109 OA 
HETATM   33  O   UNL     1     -10.102  10.200  69.385  1.00  0.00    -0.205 OA 
BRANCH  31  34
HETATM   34  C   UNL     1      -9.606   8.159  67.818  1.00  0.00    -0.151 A  
HETATM   35  C   UNL     1      -8.557   5.981  67.837  1.00  0.00    -0.113 A  
HETATM   36  C   UNL     1      -8.504   7.356  68.113  1.00  0.00    -0.124 A  
HETATM   37  C   UNL     1      -9.678   5.406  67.229  1.00  0.00    -0.144 A  
HETATM   38  N   UNL     1      -9.761   4.024  67.055  1.00  0.00    -0.222 NA 
HETATM   39  C   UNL     1     -10.802   6.209  67.019  1.00  0.00    -0.435 A  
HETATM   40  H1  UNL     1     -10.578   3.605  66.612  1.00  0.00     0.000 HD 
HETATM   41  C   UNL     1     -10.769   7.583  67.296  1.00  0.00    -0.365 A  
HETATM   42  H2  UNL     1      -9.627   3.579  67.963  1.00  0.00     0.000 HD 
ENDBRANCH  31  34
ENDBRANCH  26  31
ENDBRANCH  25  26
ENDBRANCH  22  25
ENDBRANCH  14  22
ENDBRANCH  12  14
ENDBRANCH   9  10
ENDBRANCH   8   9
TORSDOF 11
ENDMDL
MODEL       71
REMARK 921   NORMALIZED FREE ENERGY PREDICTED BY IDOCK:   -6.11 KCAL/MOL
REMARK 922        TOTAL FREE ENERGY PREDICTED BY IDOCK:  -12.67 KCAL/MOL
REMARK 923 INTER-LIGAND FREE ENERGY PREDICTED BY IDOCK:  -11.04 KCAL/MOL
REMARK 924 INTRA-LIGAND FREE ENERGY PREDICTED BY IDOCK:   -1.63 KCAL/MOL
REMARK 927      BINDING AFFINITY PREDICTED BY RF-SCORE:    0.00 PKD
ROOT
HETATM    1  C   UNL     1      -9.803  16.471  66.705  1.00  0.00    -0.274 C  
HETATM    2  C   UNL     1      -8.328  16.113  66.681  1.00  0.00    -0.321 C  
HETATM    3  C   UNL     1      -7.648  17.323  66.070  1.00  0.00    -0.191 C  
HETATM    4  O   UNL     1      -8.634  18.332  65.862  1.00  0.00    -0.502 OA 
HETATM    5  C   UNL     1      -9.794  17.977  66.600  1.00  0.00    -0.352 C  
HETATM    6  O   UNL     1      -9.735  18.466  67.940  1.00  0.00    -0.288 OA 
HETATM    7  C   UNL     1     -10.410  17.517  68.772  1.00  0.00    -0.358 C  
HETATM    8  C   UNL     1     -10.557  16.208  67.996  1.00  0.00    -0.304 C  
ENDROOT
BRANCH   8   9
HETATM    9  O   UNL     1      -9.963  15.149  68.764  1.00  0.00    -0.213 OA 
BRANCH   9  10
HETATM   10  C   UNL     1     -10.769  14.103  69.068  1.00  0.00    -0.231 C  
HETATM   11  O   UNL     1     -11.786  14.173  69.737  1.00  0.00    -0.276 OA 
HETATM   12  N   UNL     1     -10.199  12.963  68.579  1.00  0.00    -0.302 N  
HETATM   13  H   UNL     1      -9.402  13.053  67.950  1.00  0.00     0.000 HD 
BRANCH  12  14
HETATM   14  C   UNL     1     -10.675  11.611  68.912  1.00  0.00    -0.207 C  
BRANCH  14  15
HETATM   15  C   UNL     1     -11.548  11.009  67.764  1.00  0.00    -0.277 C  
BRANCH  15  16
HETATM   16  C   UNL     1     -11.390  11.643  66.392  1.00  0.00    -0.312 A  
HETATM   17  C   UNL     1     -10.444  11.149  65.484  1.00  0.00    -0.317 A  
HETATM   18  C   UNL     1     -12.156  12.758  66.018  1.00  0.00    -0.458 A  
HETATM   19  C   UNL     1     -10.267  11.757  64.238  1.00  0.00    -0.344 A  
HETATM   20  C   UNL     1     -11.040  12.859  63.878  1.00  0.00    -0.454 A  
HETATM   21  C   UNL     1     -11.991  13.356  64.766  1.00  0.00    -0.429 A  
ENDBRANCH  15  16
ENDBRANCH  14  15
BRANCH  14  22
HETATM   22  C   UNL     1      -9.537  10.620  69.302  1.00  0.00    -0.144 C  
HETATM   23  O   UNL     1      -8.598  10.475  68.227  1.00  0.00    -0.119 OA 
HETATM   24  H   UNL     1      -7.904   9.871  68.465  1.00  0.00     0.000 HD 
BRANCH  22  25
HETATM   25  C   UNL     1      -9.939   9.245  69.872  1.00  0.00    -0.205 C  
BRANCH  25  26
HETATM   26  N   UNL     1     -10.495   9.151  71.290  1.00  0.00    -0.302 N  
BRANCH  26  27
HETATM   27  C   UNL     1     -11.935   8.637  71.282  1.00  0.00    -0.293 C  
HETATM   28  C   UNL     1     -12.994   9.355  72.145  1.00  0.00    -0.503 C  
HETATM   29  C   UNL     1     -13.240  10.809  71.751  1.00  0.00    -0.523 C  
HETATM   30  C   UNL     1     -14.336   8.608  72.020  1.00  0.00    -0.512 C  
ENDBRANCH  26  27
BRANCH  26  31
HETATM   31  S   UNL     1      -9.434   8.132  72.261  1.00  0.00    -0.273 S  
HETATM   32  O   UNL     1      -8.179   8.816  72.451  1.00  0.00    -0.377 OA 
HETATM   33  O   UNL     1     -10.228   7.675  73.387  1.00  0.00    -0.323 OA 
BRANCH  31  34
HETATM   34  C   UNL     1      -9.107   6.706  71.225  1.00  0.00    -0.151 A  
HETATM   35  C   UNL     1      -7.654   5.498  69.718  1.00  0.00    -0.074 A  
HETATM   36  C   UNL     1      -7.876   6.581  70.582  1.00  0.00    -0.106 A  
HETATM   37  C   UNL     1      -8.662   4.563  69.454  1.00  0.00    -0.086 A  
HETATM   38  N   UNL     1      -8.397   3.435  68.676  1.00  0.00    -0.071 NA 
HETATM   39  C   UNL     1      -9.857   4.658  70.171  1.00  0.00    -0.306 A  
HETATM   40  H1  UNL     1      -9.131   2.753  68.484  1.00  0.00     0.000 HD 
HETATM   41  C   UNL     1     -10.092   5.730  71.043  1.00  0.00    -0.260 A  
HETATM   42  H2  UNL     1      -7.605   2.942  69.089  1.00  0.00     0.000 HD 
ENDBRANCH  31  34
ENDBRANCH  26  31
ENDBRANCH  25  26
ENDBRANCH  22  25
ENDBRANCH  14  22
ENDBRANCH  12  14
ENDBRANCH   9  10
ENDBRANCH   8   9
TORSDOF 11
ENDMDL
MODEL       72
REMARK 921   NORMALIZED FREE ENERGY PREDICTED BY IDOCK:   -6.11 KCAL/MOL
REMARK 922        TOTAL FREE ENERGY PREDICTED BY IDOCK:  -12.66 KCAL/MOL
REMARK 923 INTER-LIGAND FREE ENERGY PREDICTED BY IDOCK:  -10.47 KCAL/MOL
REMARK 924 INTRA-LIGAND FREE ENERGY PREDICTED BY IDOCK:   -2.19 KCAL/MOL
REMARK 927      BINDING AFFINITY PREDICTED BY RF-SCORE:    0.00 PKD
ROOT
HETATM    1  C   UNL     1      -9.381   9.596  64.875  1.00  0.00    -0.306 C  
HETATM    2  C   UNL     1      -7.869   9.624  64.743  1.00  0.00    -0.128 C  
HETATM    3  C   UNL     1      -7.613  10.217  63.370  1.00  0.00    -0.112 C  
HETATM    4  O   UNL     1      -8.868  10.598  62.808  1.00  0.00    -0.205 OA 
HETATM    5  C   UNL     1      -9.837  10.602  63.847  1.00  0.00    -0.338 C  
HETATM    6  O   UNL     1      -9.881  11.861  64.518  1.00  0.00    -0.242 OA 
HETATM    7  C   UNL     1     -10.203  11.603  65.888  1.00  0.00    -0.238 C  
HETATM    8  C   UNL     1      -9.972  10.119  66.171  1.00  0.00    -0.246 C  
ENDROOT
BRANCH   8   9
HETATM    9  O   UNL     1      -9.055   9.998  67.271  1.00  0.00    -0.137 OA 
BRANCH   9  10
HETATM   10  C   UNL     1      -9.415  10.616  68.423  1.00  0.00    -0.165 C  
HETATM   11  O   UNL     1      -8.969  11.681  68.816  1.00  0.00    -0.122 OA 
HETATM   12  N   UNL     1     -10.279   9.803  69.097  1.00  0.00    -0.188 N  
HETATM   13  H   UNL     1     -10.652   8.987  68.613  1.00  0.00     0.000 HD 
BRANCH  12  14
HETATM   14  C   UNL     1     -10.702  10.043  70.486  1.00  0.00    -0.285 C  
BRANCH  14  15
HETATM   15  C   UNL     1     -12.201  10.480  70.564  1.00  0.00    -0.435 C  
BRANCH  15  16
HETATM   16  C   UNL     1     -12.463  11.937  70.907  1.00  0.00    -0.397 A  
HETATM   17  C   UNL     1     -13.191  12.278  72.054  1.00  0.00    -0.508 A  
HETATM   18  C   UNL     1     -12.015  12.970  70.067  1.00  0.00    -0.383 A  
HETATM   19  C   UNL     1     -13.470  13.616  72.350  1.00  0.00    -0.685 A  
HETATM   20  C   UNL     1     -13.013  14.630  71.510  1.00  0.00    -0.410 A  
HETATM   21  C   UNL     1     -12.279  14.308  70.372  1.00  0.00    -0.411 A  
ENDBRANCH  15  16
ENDBRANCH  14  15
BRANCH  14  22
HETATM   22  C   UNL     1     -10.440   8.840  71.441  1.00  0.00    -0.284 C  
HETATM   23  O   UNL     1      -9.206   9.014  72.152  1.00  0.00    -0.365 OA 
HETATM   24  H   UNL     1      -9.046   8.281  72.735  1.00  0.00     0.000 HD 
BRANCH  22  25
HETATM   25  C   UNL     1     -10.543   7.417  70.857  1.00  0.00    -0.223 C  
BRANCH  25  26
HETATM   26  N   UNL     1      -9.443   6.402  71.148  1.00  0.00    -0.167 N  
BRANCH  26  27
HETATM   27  C   UNL     1     -10.028   5.008  71.378  1.00  0.00    -0.193 C  
HETATM   28  C   UNL     1      -9.899   4.359  72.773  1.00  0.00    -0.194 C  
HETATM   29  C   UNL     1     -10.613   5.123  73.885  1.00  0.00    -0.340 C  
HETATM   30  C   UNL     1     -10.500   2.941  72.726  1.00  0.00    -0.213 C  
ENDBRANCH  26  27
BRANCH  26  31
HETATM   31  S   UNL     1      -8.275   6.419  69.827  1.00  0.00    -0.127 S  
HETATM   32  O   UNL     1      -7.955   7.788  69.508  1.00  0.00    -0.112 OA 
HETATM   33  O   UNL     1      -7.244   5.461  70.183  1.00  0.00    -0.063 OA 
BRANCH  31  34
HETATM   34  C   UNL     1      -9.169   5.745  68.428  1.00  0.00    -0.117 A  
HETATM   35  C   UNL     1      -9.473   4.010  66.772  1.00  0.00    -0.219 A  
HETATM   36  C   UNL     1      -8.815   4.499  67.911  1.00  0.00    -0.120 A  
HETATM   37  C   UNL     1     -10.449   4.769  66.117  1.00  0.00    -0.290 A  
HETATM   38  N   UNL     1     -11.169   4.231  65.050  1.00  0.00    -1.020 NA 
HETATM   39  C   UNL     1     -10.849   5.975  66.697  1.00  0.00    -0.289 A  
HETATM   40  H1  UNL     1     -11.881   4.784  64.572  1.00  0.00     0.000 HD 
HETATM   41  C   UNL     1     -10.207   6.475  67.838  1.00  0.00    -0.198 A  
HETATM   42  H2  UNL     1     -11.599   3.360  65.361  1.00  0.00     0.000 HD 
ENDBRANCH  31  34
ENDBRANCH  26  31
ENDBRANCH  25  26
ENDBRANCH  22  25
ENDBRANCH  14  22
ENDBRANCH  12  14
ENDBRANCH   9  10
ENDBRANCH   8   9
TORSDOF 11
ENDMDL
MODEL       73
REMARK 921   NORMALIZED FREE ENERGY PREDICTED BY IDOCK:   -6.10 KCAL/MOL
REMARK 922        TOTAL FREE ENERGY PREDICTED BY IDOCK:  -12.64 KCAL/MOL
REMARK 923 INTER-LIGAND FREE ENERGY PREDICTED BY IDOCK:  -10.16 KCAL/MOL
REMARK 924 INTRA-LIGAND FREE ENERGY PREDICTED BY IDOCK:   -2.48 KCAL/MOL
REMARK 927      BINDING AFFINITY PREDICTED BY RF-SCORE:    0.00 PKD
ROOT
HETATM    1  C   UNL     1     -12.226   8.548  70.693  1.00  0.00     0.096 C  
HETATM    2  C   UNL     1     -12.690   9.789  71.433  1.00  0.00    -0.483 C  
HETATM    3  C   UNL     1     -13.686   9.278  72.456  1.00  0.00    -0.409 C  
HETATM    4  O   UNL     1     -13.710   7.853  72.383  1.00  0.00    -0.082 OA 
HETATM    5  C   UNL     1     -12.573   7.429  71.643  1.00  0.00    -0.358 C  
HETATM    6  O   UNL     1     -11.434   7.257  72.485  1.00  0.00    -0.289 OA 
HETATM    7  C   UNL     1     -10.278   7.604  71.715  1.00  0.00    -0.188 C  
HETATM    8  C   UNL     1     -10.732   8.387  70.483  1.00  0.00    -0.227 C  
ENDROOT
BRANCH   8   9
HETATM    9  O   UNL     1     -10.048   9.650  70.464  1.00  0.00    -0.264 OA 
BRANCH   9  10
HETATM   10  C   UNL     1      -9.048   9.778  69.558  1.00  0.00    -0.216 C  
HETATM   11  O   UNL     1      -8.001  10.373  69.750  1.00  0.00    -0.150 OA 
HETATM   12  N   UNL     1      -9.455   9.214  68.384  1.00  0.00    -0.142 N  
HETATM   13  H   UNL     1     -10.311   8.660  68.385  1.00  0.00     0.000 HD 
BRANCH  12  14
HETATM   14  C   UNL     1      -8.723   9.364  67.116  1.00  0.00    -0.128 C  
BRANCH  14  15
HETATM   15  C   UNL     1      -7.967   8.051  66.730  1.00  0.00    -0.103 C  
BRANCH  15  16
HETATM   16  C   UNL     1      -8.567   6.751  67.241  1.00  0.00    -0.120 A  
HETATM   17  C   UNL     1      -7.983   6.072  68.317  1.00  0.00    -0.106 A  
HETATM   18  C   UNL     1      -9.694   6.184  66.624  1.00  0.00    -0.196 A  
HETATM   19  C   UNL     1      -8.507   4.855  68.762  1.00  0.00    -0.089 A  
HETATM   20  C   UNL     1      -9.630   4.307  68.145  1.00  0.00    -0.196 A  
HETATM   21  C   UNL     1     -10.229   4.976  67.080  1.00  0.00    -0.253 A  
ENDBRANCH  15  16
ENDBRANCH  14  15
BRANCH  14  22
HETATM   22  C   UNL     1      -9.610   9.845  65.928  1.00  0.00    -0.239 C  
HETATM   23  O   UNL     1      -9.248   9.170  64.716  1.00  0.00    -0.422 OA 
HETATM   24  H   UNL     1      -9.789   9.463  63.992  1.00  0.00     0.000 HD 
BRANCH  22  25
HETATM   25  C   UNL     1      -9.743  11.364  65.695  1.00  0.00    -0.231 C  
BRANCH  25  26
HETATM   26  N   UNL     1      -9.942  12.293  66.888  1.00  0.00    -0.210 N  
BRANCH  26  27
HETATM   27  C   UNL     1      -9.370  13.682  66.604  1.00  0.00    -0.254 C  
HETATM   28  C   UNL     1      -8.262  14.242  67.521  1.00  0.00    -0.201 C  
HETATM   29  C   UNL     1      -6.971  13.426  67.510  1.00  0.00    -0.153 C  
HETATM   30  C   UNL     1      -7.909  15.672  67.070  1.00  0.00    -0.266 C  
ENDBRANCH  26  27
BRANCH  26  31
HETATM   31  S   UNL     1     -11.657  12.355  67.294  1.00  0.00    -0.355 S  
HETATM   32  O   UNL     1     -12.381  12.901  66.173  1.00  0.00    -0.495 OA 
HETATM   33  O   UNL     1     -11.989  11.057  67.853  1.00  0.00    -0.620 OA 
BRANCH  31  34
HETATM   34  C   UNL     1     -11.762  13.552  68.624  1.00  0.00    -0.354 A  
HETATM   35  C   UNL     1     -12.149  14.069  70.953  1.00  0.00    -0.404 A  
HETATM   36  C   UNL     1     -11.998  13.121  69.929  1.00  0.00    -0.387 A  
HETATM   37  C   UNL     1     -12.111  15.442  70.682  1.00  0.00    -0.369 A  
HETATM   38  N   UNL     1     -12.158  16.372  71.721  1.00  0.00    -0.629 NA 
HETATM   39  C   UNL     1     -11.790  15.851  69.386  1.00  0.00    -0.325 A  
HETATM   40  H1  UNL     1     -12.130  17.372  71.524  1.00  0.00     0.000 HD 
HETATM   41  C   UNL     1     -11.630  14.918  68.353  1.00  0.00    -0.348 A  
HETATM   42  H2  UNL     1     -11.407  16.156  72.377  1.00  0.00     0.000 HD 
ENDBRANCH  31  34
ENDBRANCH  26  31
ENDBRANCH  25  26
ENDBRANCH  22  25
ENDBRANCH  14  22
ENDBRANCH  12  14
ENDBRANCH   9  10
ENDBRANCH   8   9
TORSDOF 11
ENDMDL
MODEL       74
REMARK 921   NORMALIZED FREE ENERGY PREDICTED BY IDOCK:   -6.09 KCAL/MOL
REMARK 922        TOTAL FREE ENERGY PREDICTED BY IDOCK:  -12.63 KCAL/MOL
REMARK 923 INTER-LIGAND FREE ENERGY PREDICTED BY IDOCK:  -10.75 KCAL/MOL
REMARK 924 INTRA-LIGAND FREE ENERGY PREDICTED BY IDOCK:   -1.88 KCAL/MOL
REMARK 927      BINDING AFFINITY PREDICTED BY RF-SCORE:    0.00 PKD
ROOT
HETATM    1  C   UNL     1     -11.561   7.614  72.480  1.00  0.00    -0.382 C  
HETATM    2  C   UNL     1     -10.391   7.305  73.396  1.00  0.00    -0.410 C  
HETATM    3  C   UNL     1     -10.529   5.828  73.713  1.00  0.00    -0.271 C  
HETATM    4  O   UNL     1     -11.621   5.309  72.956  1.00  0.00    -0.313 OA 
HETATM    5  C   UNL     1     -11.952   6.256  71.950  1.00  0.00    -0.286 C  
HETATM    6  O   UNL     1     -11.180   6.056  70.766  1.00  0.00    -0.303 OA 
HETATM    7  C   UNL     1     -10.958   7.342  70.179  1.00  0.00    -0.255 C  
HETATM    8  C   UNL     1     -11.264   8.414  71.225  1.00  0.00    -0.259 C  
ENDROOT
BRANCH   8   9
HETATM    9  O   UNL     1     -10.106   9.250  71.379  1.00  0.00    -0.314 OA 
BRANCH   9  10
HETATM   10  C   UNL     1      -9.348   9.436  70.269  1.00  0.00    -0.252 C  
HETATM   11  O   UNL     1      -8.169   9.142  70.169  1.00  0.00    -0.120 OA 
HETATM   12  N   UNL     1     -10.103  10.084  69.335  1.00  0.00    -0.205 N  
HETATM   13  H   UNL     1     -11.104  10.180  69.505  1.00  0.00     0.000 HD 
BRANCH  12  14
HETATM   14  C   UNL     1      -9.548  10.650  68.095  1.00  0.00    -0.157 C  
BRANCH  14  15
HETATM   15  C   UNL     1     -10.590  10.615  66.930  1.00  0.00    -0.311 C  
BRANCH  15  16
HETATM   16  C   UNL     1     -10.029  10.439  65.528  1.00  0.00    -0.348 A  
HETATM   17  C   UNL     1      -8.996   9.524  65.285  1.00  0.00    -0.244 A  
HETATM   18  C   UNL     1     -10.503  11.213  64.458  1.00  0.00    -0.415 A  
HETATM   19  C   UNL     1      -8.449   9.390  64.006  1.00  0.00    -0.203 A  
HETATM   20  C   UNL     1      -8.935  10.161  62.951  1.00  0.00    -0.262 A  
HETATM   21  C   UNL     1      -9.967  11.067  63.175  1.00  0.00    -0.382 A  
ENDBRANCH  15  16
ENDBRANCH  14  15
BRANCH  14  22
HETATM   22  C   UNL     1      -8.973  12.089  68.262  1.00  0.00    -0.186 C  
HETATM   23  O   UNL     1      -7.767  12.069  69.039  1.00  0.00    -0.309 OA 
HETATM   24  H   UNL     1      -7.416  12.946  69.140  1.00  0.00     0.000 HD 
BRANCH  22  25
HETATM   25  C   UNL     1      -9.927  13.197  68.753  1.00  0.00    -0.028 C  
BRANCH  25  26
HETATM   26  N   UNL     1     -10.289  14.347  67.819  1.00  0.00    -0.236 N  
BRANCH  26  27
HETATM   27  C   UNL     1     -11.403  13.941  66.855  1.00  0.00    -0.328 C  
HETATM   28  C   UNL     1     -11.604  14.748  65.554  1.00  0.00    -0.301 C  
HETATM   29  C   UNL     1     -10.412  14.702  64.601  1.00  0.00    -0.207 C  
HETATM   30  C   UNL     1     -12.824  14.188  64.797  1.00  0.00    -0.085 C  
ENDBRANCH  26  27
BRANCH  26  31
HETATM   31  S   UNL     1     -10.728  15.758  68.782  1.00  0.00    -0.270 S  
HETATM   32  O   UNL     1     -12.158  15.935  68.721  1.00  0.00    -0.297 OA 
HETATM   33  O   UNL     1     -10.033  15.617  70.048  1.00  0.00    -0.290 OA 
BRANCH  31  34
HETATM   34  C   UNL     1      -9.987  17.141  67.917  1.00  0.00    -0.292 A  
HETATM   35  C   UNL     1     -10.076  19.439  67.171  1.00  0.00    -0.490 A  
HETATM   36  C   UNL     1     -10.628  18.380  67.908  1.00  0.00    -0.379 A  
HETATM   37  C   UNL     1      -8.917  19.263  66.406  1.00  0.00    -0.352 A  
HETATM   38  N   UNL     1      -8.321  20.348  65.763  1.00  0.00    -0.501 NA 
HETATM   39  C   UNL     1      -8.244  18.042  66.495  1.00  0.00    -0.298 A  
HETATM   40  H1  UNL     1      -7.476  20.220  65.205  1.00  0.00     0.000 HD 
HETATM   41  C   UNL     1      -8.778  16.976  67.233  1.00  0.00    -0.212 A  
HETATM   42  H2  UNL     1      -8.137  21.071  66.458  1.00  0.00     0.000 HD 
ENDBRANCH  31  34
ENDBRANCH  26  31
ENDBRANCH  25  26
ENDBRANCH  22  25
ENDBRANCH  14  22
ENDBRANCH  12  14
ENDBRANCH   9  10
ENDBRANCH   8   9
TORSDOF 11
ENDMDL
MODEL       75
REMARK 921   NORMALIZED FREE ENERGY PREDICTED BY IDOCK:   -6.05 KCAL/MOL
REMARK 922        TOTAL FREE ENERGY PREDICTED BY IDOCK:  -12.56 KCAL/MOL
REMARK 923 INTER-LIGAND FREE ENERGY PREDICTED BY IDOCK:  -10.74 KCAL/MOL
REMARK 924 INTRA-LIGAND FREE ENERGY PREDICTED BY IDOCK:   -1.83 KCAL/MOL
REMARK 927      BINDING AFFINITY PREDICTED BY RF-SCORE:    0.00 PKD
ROOT
HETATM    1  C   UNL     1     -11.298  13.325  65.022  1.00  0.00    -0.326 C  
HETATM    2  C   UNL     1     -10.206  12.787  64.115  1.00  0.00    -0.344 C  
HETATM    3  C   UNL     1     -10.865  11.657  63.347  1.00  0.00    -0.379 C  
HETATM    4  O   UNL     1     -12.246  11.622  63.704  1.00  0.00    -0.404 OA 
HETATM    5  C   UNL     1     -12.565  12.839  64.363  1.00  0.00    -0.352 C  
HETATM    6  O   UNL     1     -12.944  13.855  63.435  1.00  0.00    -0.301 OA 
HETATM    7  C   UNL     1     -12.502  15.108  63.969  1.00  0.00     0.149 C  
HETATM    8  C   UNL     1     -11.476  14.832  65.069  1.00  0.00    -0.389 C  
ENDROOT
BRANCH   8   9
HETATM    9  O   UNL     1     -10.262  15.531  64.751  1.00  0.00    -0.343 OA 
BRANCH   9  10
HETATM   10  C   UNL     1      -9.588  16.069  65.797  1.00  0.00    -0.276 C  
HETATM   11  O   UNL     1      -8.431  16.454  65.762  1.00  0.00    -0.346 OA 
HETATM   12  N   UNL     1     -10.389  16.017  66.900  1.00  0.00    -0.285 N  
HETATM   13  H   UNL     1     -11.370  15.767  66.774  1.00  0.00     0.000 HD 
BRANCH  12  14
HETATM   14  C   UNL     1      -9.913  16.303  68.263  1.00  0.00    -0.236 C  
BRANCH  14  15
HETATM   15  C   UNL     1     -10.310  17.744  68.721  1.00  0.00    -0.332 C  
BRANCH  15  16
HETATM   16  C   UNL     1      -9.435  18.879  68.213  1.00  0.00    -0.395 A  
HETATM   17  C   UNL     1      -9.984  19.907  67.435  1.00  0.00    -0.558 A  
HETATM   18  C   UNL     1      -8.057  18.902  68.476  1.00  0.00    -0.383 A  
HETATM   19  C   UNL     1      -9.175  20.929  66.931  1.00  0.00    -0.120 A  
HETATM   20  C   UNL     1      -7.808  20.943  67.208  1.00  0.00    -0.233 A  
HETATM   21  C   UNL     1      -7.250  19.933  67.987  1.00  0.00    -0.327 A  
ENDBRANCH  15  16
ENDBRANCH  14  15
BRANCH  14  22
HETATM   22  C   UNL     1     -10.369  15.255  69.323  1.00  0.00    -0.259 C  
HETATM   23  O   UNL     1      -9.355  15.064  70.319  1.00  0.00    -0.336 OA 
HETATM   24  H   UNL     1      -9.633  14.425  70.966  1.00  0.00     0.000 HD 
BRANCH  22  25
HETATM   25  C   UNL     1     -10.906  13.901  68.816  1.00  0.00    -0.263 C  
BRANCH  25  26
HETATM   26  N   UNL     1     -11.297  12.823  69.822  1.00  0.00    -0.108 N  
BRANCH  26  27
HETATM   27  C   UNL     1     -12.677  13.102  70.417  1.00  0.00    -0.010 C  
HETATM   28  C   UNL     1     -12.790  13.491  71.907  1.00  0.00    -0.368 C  
HETATM   29  C   UNL     1     -12.087  14.799  72.265  1.00  0.00    -0.355 C  
HETATM   30  C   UNL     1     -14.277  13.649  72.276  1.00  0.00    -0.521 C  
ENDBRANCH  26  27
BRANCH  26  31
HETATM   31  S   UNL     1     -11.223  11.245  69.037  1.00  0.00    -0.285 S  
HETATM   32  O   UNL     1     -11.064  10.230  70.049  1.00  0.00    -0.267 OA 
HETATM   33  O   UNL     1     -12.324  11.209  68.092  1.00  0.00    -0.469 OA 
BRANCH  31  34
HETATM   34  C   UNL     1      -9.704  11.287  68.087  1.00  0.00    -0.185 A  
HETATM   35  C   UNL     1      -8.323  10.421  66.301  1.00  0.00    -0.146 A  
HETATM   36  C   UNL     1      -9.542  10.431  66.997  1.00  0.00    -0.197 A  
HETATM   37  C   UNL     1      -7.250  11.221  66.708  1.00  0.00    -0.142 A  
HETATM   38  N   UNL     1      -6.081  11.280  65.948  1.00  0.00    -0.384 NA 
HETATM   39  C   UNL     1      -7.459  12.131  67.747  1.00  0.00    -0.122 A  
HETATM   40  H1  UNL     1      -5.298  11.863  66.244  1.00  0.00     0.000 HD 
HETATM   41  C   UNL     1      -8.672  12.159  68.448  1.00  0.00    -0.141 A  
HETATM   42  H2  UNL     1      -6.333  11.543  64.995  1.00  0.00     0.000 HD 
ENDBRANCH  31  34
ENDBRANCH  26  31
ENDBRANCH  25  26
ENDBRANCH  22  25
ENDBRANCH  14  22
ENDBRANCH  12  14
ENDBRANCH   9  10
ENDBRANCH   8   9
TORSDOF 11
ENDMDL
MODEL       76
REMARK 921   NORMALIZED FREE ENERGY PREDICTED BY IDOCK:   -6.05 KCAL/MOL
REMARK 922        TOTAL FREE ENERGY PREDICTED BY IDOCK:  -12.56 KCAL/MOL
REMARK 923 INTER-LIGAND FREE ENERGY PREDICTED BY IDOCK:  -10.39 KCAL/MOL
REMARK 924 INTRA-LIGAND FREE ENERGY PREDICTED BY IDOCK:   -2.18 KCAL/MOL
REMARK 927      BINDING AFFINITY PREDICTED BY RF-SCORE:    0.00 PKD
ROOT
HETATM    1  C   UNL     1     -12.089  13.666  65.680  1.00  0.00    -0.457 C  
HETATM    2  C   UNL     1     -11.413  12.556  64.897  1.00  0.00    -0.367 C  
HETATM    3  C   UNL     1     -11.803  12.809  63.453  1.00  0.00    -0.518 C  
HETATM    4  O   UNL     1     -12.549  14.024  63.400  1.00  0.00    -0.845 OA 
HETATM    5  C   UNL     1     -12.364  14.713  64.628  1.00  0.00    -0.375 C  
HETATM    6  O   UNL     1     -11.209  15.550  64.592  1.00  0.00    -0.423 OA 
HETATM    7  C   UNL     1     -10.652  15.568  65.910  1.00  0.00    -0.339 C  
HETATM    8  C   UNL     1     -11.246  14.404  66.704  1.00  0.00    -0.339 C  
ENDROOT
BRANCH   8   9
HETATM    9  O   UNL     1     -10.169  13.593  67.203  1.00  0.00    -0.241 OA 
BRANCH   9  10
HETATM   10  C   UNL     1     -10.458  12.799  68.264  1.00  0.00    -0.241 C  
HETATM   11  O   UNL     1     -11.259  13.069  69.143  1.00  0.00    -0.259 OA 
HETATM   12  N   UNL     1      -9.639  11.709  68.223  1.00  0.00    -0.193 N  
HETATM   13  H   UNL     1      -9.086  11.551  67.380  1.00  0.00     0.000 HD 
BRANCH  12  14
HETATM   14  C   UNL     1      -9.512  10.748  69.330  1.00  0.00    -0.082 C  
BRANCH  14  15
HETATM   15  C   UNL     1     -10.535   9.574  69.194  1.00  0.00    -0.224 C  
BRANCH  15  16
HETATM   16  C   UNL     1     -11.478   9.361  70.367  1.00  0.00    -0.272 A  
HETATM   17  C   UNL     1     -12.602  10.181  70.535  1.00  0.00    -0.289 A  
HETATM   18  C   UNL     1     -11.225   8.368  71.327  1.00  0.00    -0.309 A  
HETATM   19  C   UNL     1     -13.447  10.015  71.635  1.00  0.00    -0.398 A  
HETATM   20  C   UNL     1     -13.187   9.020  72.576  1.00  0.00    -0.467 A  
HETATM   21  C   UNL     1     -12.080   8.191  72.418  1.00  0.00    -0.406 A  
ENDBRANCH  15  16
ENDBRANCH  14  15
BRANCH  14  22
HETATM   22  C   UNL     1      -8.069  10.188  69.516  1.00  0.00    -0.170 C  
HETATM   23  O   UNL     1      -7.390  10.871  70.579  1.00  0.00    -0.340 OA 
HETATM   24  H   UNL     1      -6.511  10.530  70.692  1.00  0.00     0.000 HD 
BRANCH  22  25
HETATM   25  C   UNL     1      -7.170  10.078  68.268  1.00  0.00    -0.077 C  
BRANCH  25  26
HETATM   26  N   UNL     1      -7.595   9.180  67.111  1.00  0.00    -0.091 N  
BRANCH  26  27
HETATM   27  C   UNL     1      -6.987   9.658  65.793  1.00  0.00    -0.098 C  
HETATM   28  C   UNL     1      -7.639   9.226  64.462  1.00  0.00    -0.107 C  
HETATM   29  C   UNL     1      -9.071   9.724  64.278  1.00  0.00    -0.293 C  
HETATM   30  C   UNL     1      -6.804   9.775  63.289  1.00  0.00    -0.117 C  
ENDBRANCH  26  27
BRANCH  26  31
HETATM   31  S   UNL     1      -7.151   7.513  67.478  1.00  0.00    -0.087 S  
HETATM   32  O   UNL     1      -5.902   7.210  66.825  1.00  0.00    -0.025 OA 
HETATM   33  O   UNL     1      -7.315   7.356  68.912  1.00  0.00    -0.086 OA 
BRANCH  31  34
HETATM   34  C   UNL     1      -8.417   6.524  66.685  1.00  0.00    -0.116 A  
HETATM   35  C   UNL     1     -10.733   5.865  66.467  1.00  0.00    -0.251 A  
HETATM   36  C   UNL     1      -9.755   6.692  67.041  1.00  0.00    -0.197 A  
HETATM   37  C   UNL     1     -10.385   4.844  65.575  1.00  0.00    -0.054 A  
HETATM   38  N   UNL     1     -11.373   4.098  64.931  1.00  0.00    -0.967 NA 
HETATM   39  C   UNL     1      -9.053   4.747  65.166  1.00  0.00    -0.155 A  
HETATM   40  H1  UNL     1     -11.120   3.354  64.281  1.00  0.00     0.000 HD 
HETATM   41  C   UNL     1      -8.065   5.570  65.726  1.00  0.00    -0.112 A  
HETATM   42  H2  UNL     1     -11.998   4.744  64.448  1.00  0.00     0.000 HD 
ENDBRANCH  31  34
ENDBRANCH  26  31
ENDBRANCH  25  26
ENDBRANCH  22  25
ENDBRANCH  14  22
ENDBRANCH  12  14
ENDBRANCH   9  10
ENDBRANCH   8   9
TORSDOF 11
ENDMDL
MODEL       77
REMARK 921   NORMALIZED FREE ENERGY PREDICTED BY IDOCK:   -6.04 KCAL/MOL
REMARK 922        TOTAL FREE ENERGY PREDICTED BY IDOCK:  -12.55 KCAL/MOL
REMARK 923 INTER-LIGAND FREE ENERGY PREDICTED BY IDOCK:  -10.23 KCAL/MOL
REMARK 924 INTRA-LIGAND FREE ENERGY PREDICTED BY IDOCK:   -2.33 KCAL/MOL
REMARK 927      BINDING AFFINITY PREDICTED BY RF-SCORE:    0.00 PKD
ROOT
HETATM    1  C   UNL     1     -10.498  14.791  65.154  1.00  0.00    -0.443 C  
HETATM    2  C   UNL     1     -10.412  15.917  66.168  1.00  0.00    -0.336 C  
HETATM    3  C   UNL     1     -10.903  17.144  65.424  1.00  0.00    -0.046 C  
HETATM    4  O   UNL     1     -11.337  16.735  64.127  1.00  0.00    -1.194 OA 
HETATM    5  C   UNL     1     -11.472  15.321  64.130  1.00  0.00    -0.004 C  
HETATM    6  O   UNL     1     -12.768  14.918  64.570  1.00  0.00    -0.499 OA 
HETATM    7  C   UNL     1     -12.615  13.678  65.268  1.00  0.00    -0.469 C  
HETATM    8  C   UNL     1     -11.138  13.493  65.615  1.00  0.00    -0.289 C  
ENDROOT
BRANCH   8   9
HETATM    9  O   UNL     1     -11.018  13.305  67.034  1.00  0.00    -0.269 OA 
BRANCH   9  10
HETATM   10  C   UNL     1     -11.317  12.069  67.503  1.00  0.00    -0.319 C  
HETATM   11  O   UNL     1     -12.354  11.766  68.069  1.00  0.00    -0.391 OA 
HETATM   12  N   UNL     1     -10.233  11.262  67.315  1.00  0.00    -0.190 N  
HETATM   13  H   UNL     1      -9.467  11.609  66.737  1.00  0.00     0.000 HD 
BRANCH  12  14
HETATM   14  C   UNL     1     -10.110   9.918  67.902  1.00  0.00    -0.173 C  
BRANCH  14  15
HETATM   15  C   UNL     1      -8.976   9.091  67.214  1.00  0.00    -0.139 C  
BRANCH  15  16
HETATM   16  C   UNL     1      -9.301   7.643  66.885  1.00  0.00    -0.203 A  
HETATM   17  C   UNL     1      -8.326   6.803  66.331  1.00  0.00    -0.121 A  
HETATM   18  C   UNL     1     -10.590   7.127  67.092  1.00  0.00    -0.417 A  
HETATM   19  C   UNL     1      -8.634   5.484  65.989  1.00  0.00    -0.134 A  
HETATM   20  C   UNL     1      -9.916   4.983  66.206  1.00  0.00    -0.247 A  
HETATM   21  C   UNL     1     -10.893   5.802  66.765  1.00  0.00    -0.327 A  
ENDBRANCH  15  16
ENDBRANCH  14  15
BRANCH  14  22
HETATM   22  C   UNL     1      -9.915   9.921  69.449  1.00  0.00    -0.212 C  
HETATM   23  O   UNL     1      -8.569  10.282  69.791  1.00  0.00    -0.322 OA 
HETATM   24  H   UNL     1      -8.450  10.284  70.734  1.00  0.00     0.000 HD 
BRANCH  22  25
HETATM   25  C   UNL     1     -10.369   8.676  70.236  1.00  0.00    -0.198 C  
BRANCH  25  26
HETATM   26  N   UNL     1     -10.553   8.768  71.748  1.00  0.00    -0.320 N  
BRANCH  26  27
HETATM   27  C   UNL     1     -11.963   8.340  72.156  1.00  0.00    -0.369 C  
HETATM   28  C   UNL     1     -13.079   9.403  72.235  1.00  0.00    -0.509 C  
HETATM   29  C   UNL     1     -13.393  10.079  70.902  1.00  0.00    -0.281 C  
HETATM   30  C   UNL     1     -14.376   8.737  72.732  1.00  0.00    -0.078 C  
ENDBRANCH  26  27
BRANCH  26  31
HETATM   31  S   UNL     1      -9.312   7.799  72.542  1.00  0.00    -0.199 S  
HETATM   32  O   UNL     1      -8.102   8.578  72.632  1.00  0.00    -0.310 OA 
HETATM   33  O   UNL     1      -9.936   7.226  73.721  1.00  0.00    -0.301 OA 
BRANCH  31  34
HETATM   34  C   UNL     1      -8.992   6.455  71.402  1.00  0.00    -0.138 A  
HETATM   35  C   UNL     1      -9.505   4.244  70.569  1.00  0.00    -0.244 A  
HETATM   36  C   UNL     1      -9.805   5.321  71.417  1.00  0.00    -0.232 A  
HETATM   37  C   UNL     1      -8.378   4.266  69.739  1.00  0.00    -0.061 A  
HETATM   38  N   UNL     1      -8.149   3.235  68.827  1.00  0.00    -0.060 NA 
HETATM   39  C   UNL     1      -7.626   5.441  69.676  1.00  0.00    -0.070 A  
HETATM   40  H1  UNL     1      -7.327   3.251  68.222  1.00  0.00     0.000 HD 
HETATM   41  C   UNL     1      -7.916   6.529  70.511  1.00  0.00    -0.112 A  
HETATM   42  H2  UNL     1      -8.977   3.140  68.238  1.00  0.00     0.000 HD 
ENDBRANCH  31  34
ENDBRANCH  26  31
ENDBRANCH  25  26
ENDBRANCH  22  25
ENDBRANCH  14  22
ENDBRANCH  12  14
ENDBRANCH   9  10
ENDBRANCH   8   9
TORSDOF 11
ENDMDL
MODEL       78
REMARK 921   NORMALIZED FREE ENERGY PREDICTED BY IDOCK:   -6.02 KCAL/MOL
REMARK 922        TOTAL FREE ENERGY PREDICTED BY IDOCK:  -12.51 KCAL/MOL
REMARK 923 INTER-LIGAND FREE ENERGY PREDICTED BY IDOCK:  -11.39 KCAL/MOL
REMARK 924 INTRA-LIGAND FREE ENERGY PREDICTED BY IDOCK:   -1.12 KCAL/MOL
REMARK 927      BINDING AFFINITY PREDICTED BY RF-SCORE:    0.00 PKD
ROOT
HETATM    1  C   UNL     1     -11.617   8.112  71.977  1.00  0.00    -0.389 C  
HETATM    2  C   UNL     1     -10.449   7.930  72.929  1.00  0.00    -0.422 C  
HETATM    3  C   UNL     1     -10.525   6.477  73.359  1.00  0.00    -0.274 C  
HETATM    4  O   UNL     1     -11.579   5.851  72.629  1.00  0.00    -0.290 OA 
HETATM    5  C   UNL     1     -11.936   6.701  71.548  1.00  0.00    -0.352 C  
HETATM    6  O   UNL     1     -11.136   6.447  70.394  1.00  0.00    -0.283 OA 
HETATM    7  C   UNL     1     -10.963   7.692  69.711  1.00  0.00    -0.170 C  
HETATM    8  C   UNL     1     -11.336   8.826  70.667  1.00  0.00    -0.254 C  
ENDROOT
BRANCH   8   9
HETATM    9  O   UNL     1     -10.219   9.725  70.770  1.00  0.00    -0.280 OA 
BRANCH   9  10
HETATM   10  C   UNL     1     -10.022  10.559  69.719  1.00  0.00    -0.045 C  
HETATM   11  O   UNL     1      -9.015  10.595  69.033  1.00  0.00    -0.167 OA 
HETATM   12  N   UNL     1     -11.093  11.400  69.628  1.00  0.00    -0.421 N  
HETATM   13  H   UNL     1     -11.915  11.199  70.198  1.00  0.00     0.000 HD 
BRANCH  12  14
HETATM   14  C   UNL     1     -11.124  12.581  68.751  1.00  0.00    -0.270 C  
BRANCH  14  15
HETATM   15  C   UNL     1     -12.123  12.390  67.564  1.00  0.00    -0.078 C  
BRANCH  15  16
HETATM   16  C   UNL     1     -11.508  12.106  66.203  1.00  0.00    -0.429 A  
HETATM   17  C   UNL     1     -12.020  12.715  65.050  1.00  0.00    -0.467 A  
HETATM   18  C   UNL     1     -10.443  11.203  66.066  1.00  0.00    -0.312 A  
HETATM   19  C   UNL     1     -11.484  12.424  63.793  1.00  0.00    -0.544 A  
HETATM   20  C   UNL     1     -10.422  11.530  63.673  1.00  0.00    -0.483 A  
HETATM   21  C   UNL     1      -9.895  10.925  64.810  1.00  0.00    -0.343 A  
ENDBRANCH  15  16
ENDBRANCH  14  15
BRANCH  14  22
HETATM   22  C   UNL     1     -11.424  13.915  69.501  1.00  0.00    -0.274 C  
HETATM   23  O   UNL     1     -12.655  14.491  69.041  1.00  0.00    -0.568 OA 
HETATM   24  H   UNL     1     -12.839  15.304  69.498  1.00  0.00     0.000 HD 
BRANCH  22  25
HETATM   25  C   UNL     1     -10.308  14.977  69.561  1.00  0.00    -0.220 C  
BRANCH  25  26
HETATM   26  N   UNL     1      -9.346  15.125  68.386  1.00  0.00    -0.191 N  
BRANCH  26  27
HETATM   27  C   UNL     1      -8.783  13.768  67.964  1.00  0.00    -0.181 C  
HETATM   28  C   UNL     1      -7.280  13.647  67.632  1.00  0.00    -0.179 C  
HETATM   29  C   UNL     1      -6.355  13.954  68.808  1.00  0.00    -0.091 C  
HETATM   30  C   UNL     1      -6.980  12.209  67.170  1.00  0.00    -0.117 C  
ENDBRANCH  26  27
BRANCH  26  31
HETATM   31  S   UNL     1     -10.174  15.939  67.060  1.00  0.00    -0.288 S  
HETATM   32  O   UNL     1      -9.931  15.208  65.841  1.00  0.00    -0.283 OA 
HETATM   33  O   UNL     1     -11.521  16.210  67.527  1.00  0.00    -0.083 OA 
BRANCH  31  34
HETATM   34  C   UNL     1      -9.336  17.515  66.906  1.00  0.00    -0.269 A  
HETATM   35  C   UNL     1      -7.365  18.882  67.213  1.00  0.00    -0.234 A  
HETATM   36  C   UNL     1      -7.994  17.628  67.271  1.00  0.00    -0.222 A  
HETATM   37  C   UNL     1      -8.071  20.031  66.839  1.00  0.00    -0.321 A  
HETATM   38  N   UNL     1      -7.410  21.250  66.685  1.00  0.00    -0.685 NA 
HETATM   39  C   UNL     1      -9.388  19.883  66.396  1.00  0.00    -0.493 A  
HETATM   40  H1  UNL     1      -7.925  22.088  66.412  1.00  0.00     0.000 HD 
HETATM   41  C   UNL     1     -10.029  18.638  66.441  1.00  0.00    -0.415 A  
HETATM   42  H2  UNL     1      -6.644  21.117  66.025  1.00  0.00     0.000 HD 
ENDBRANCH  31  34
ENDBRANCH  26  31
ENDBRANCH  25  26
ENDBRANCH  22  25
ENDBRANCH  14  22
ENDBRANCH  12  14
ENDBRANCH   9  10
ENDBRANCH   8   9
TORSDOF 11
ENDMDL
MODEL       79
REMARK 921   NORMALIZED FREE ENERGY PREDICTED BY IDOCK:   -6.01 KCAL/MOL
REMARK 922        TOTAL FREE ENERGY PREDICTED BY IDOCK:  -12.49 KCAL/MOL
REMARK 923 INTER-LIGAND FREE ENERGY PREDICTED BY IDOCK:  -10.70 KCAL/MOL
REMARK 924 INTRA-LIGAND FREE ENERGY PREDICTED BY IDOCK:   -1.80 KCAL/MOL
REMARK 927      BINDING AFFINITY PREDICTED BY RF-SCORE:    0.00 PKD
ROOT
HETATM    1  C   UNL     1      -9.678  18.772  67.676  1.00  0.00    -0.347 C  
HETATM    2  C   UNL     1     -10.993  19.005  66.956  1.00  0.00    -0.303 C  
HETATM    3  C   UNL     1     -10.669  20.024  65.880  1.00  0.00    -0.274 C  
HETATM    4  O   UNL     1      -9.264  20.272  65.910  1.00  0.00    -0.231 OA 
HETATM    5  C   UNL     1      -8.650  19.248  66.679  1.00  0.00    -0.322 C  
HETATM    6  O   UNL     1      -8.321  18.114  65.878  1.00  0.00    -0.513 OA 
HETATM    7  C   UNL     1      -8.464  16.953  66.702  1.00  0.00    -0.250 C  
HETATM    8  C   UNL     1      -9.279  17.332  67.938  1.00  0.00    -0.247 C  
ENDROOT
BRANCH   8   9
HETATM    9  O   UNL     1     -10.419  16.461  68.022  1.00  0.00    -0.280 OA 
BRANCH   9  10
HETATM   10  C   UNL     1     -10.351  15.469  68.943  1.00  0.00    -0.221 C  
HETATM   11  O   UNL     1     -10.186  15.634  70.139  1.00  0.00    -0.302 OA 
HETATM   12  N   UNL     1     -10.403  14.271  68.291  1.00  0.00    -0.236 N  
HETATM   13  H   UNL     1     -10.645  14.270  67.300  1.00  0.00     0.000 HD 
BRANCH  12  14
HETATM   14  C   UNL     1     -10.130  12.980  68.943  1.00  0.00     0.046 C  
BRANCH  14  15
HETATM   15  C   UNL     1     -11.328  11.989  68.782  1.00  0.00    -0.331 C  
BRANCH  15  16
HETATM   16  C   UNL     1     -11.586  11.047  69.947  1.00  0.00    -0.416 A  
HETATM   17  C   UNL     1     -10.793   9.906  70.128  1.00  0.00    -0.356 A  
HETATM   18  C   UNL     1     -12.643  11.275  70.841  1.00  0.00    -0.467 A  
HETATM   19  C   UNL     1     -11.054   9.016  71.173  1.00  0.00    -0.371 A  
HETATM   20  C   UNL     1     -12.103   9.260  72.058  1.00  0.00    -0.406 A  
HETATM   21  C   UNL     1     -12.894  10.394  71.897  1.00  0.00    -0.519 A  
ENDBRANCH  15  16
ENDBRANCH  14  15
BRANCH  14  22
HETATM   22  C   UNL     1      -8.805  12.306  68.476  1.00  0.00    -0.068 C  
HETATM   23  O   UNL     1      -7.674  13.127  68.799  1.00  0.00    -0.247 OA 
HETATM   24  H   UNL     1      -6.866  12.716  68.515  1.00  0.00     0.000 HD 
BRANCH  22  25
HETATM   25  C   UNL     1      -8.723  11.804  67.020  1.00  0.00    -0.181 C  
BRANCH  25  26
HETATM   26  N   UNL     1      -8.238  10.386  66.738  1.00  0.00    -0.124 N  
BRANCH  26  27
HETATM   27  C   UNL     1      -7.949   9.637  68.039  1.00  0.00    -0.097 C  
HETATM   28  C   UNL     1      -6.529   9.086  68.290  1.00  0.00    -0.055 C  
HETATM   29  C   UNL     1      -5.447  10.160  68.368  1.00  0.00    -0.038 C  
HETATM   30  C   UNL     1      -6.515   8.318  69.626  1.00  0.00    -0.037 C  
ENDBRANCH  26  27
BRANCH  26  31
HETATM   31  S   UNL     1      -9.433   9.552  65.746  1.00  0.00    -0.266 S  
HETATM   32  O   UNL     1      -8.750   8.849  64.688  1.00  0.00    -0.172 OA 
HETATM   33  O   UNL     1     -10.317   8.862  66.668  1.00  0.00    -0.271 OA 
BRANCH  31  34
HETATM   34  C   UNL     1     -10.380  10.866  64.981  1.00  0.00    -0.288 A  
HETATM   35  C   UNL     1     -10.661  12.497  63.218  1.00  0.00    -0.121 A  
HETATM   36  C   UNL     1      -9.952  11.420  63.774  1.00  0.00    -0.381 A  
HETATM   37  C   UNL     1     -11.764  13.055  63.873  1.00  0.00    -0.468 A  
HETATM   38  N   UNL     1     -12.522  14.054  63.262  1.00  0.00    -1.112 NA 
HETATM   39  C   UNL     1     -12.227  12.433  65.036  1.00  0.00    -0.465 A  
HETATM   40  H1  UNL     1     -13.326  14.461  63.739  1.00  0.00     0.000 HD 
HETATM   41  C   UNL     1     -11.535  11.353  65.601  1.00  0.00     0.039 A  
HETATM   42  H2  UNL     1     -12.832  13.709  62.353  1.00  0.00     0.000 HD 
ENDBRANCH  31  34
ENDBRANCH  26  31
ENDBRANCH  25  26
ENDBRANCH  22  25
ENDBRANCH  14  22
ENDBRANCH  12  14
ENDBRANCH   9  10
ENDBRANCH   8   9
TORSDOF 11
ENDMDL
MODEL       80
REMARK 921   NORMALIZED FREE ENERGY PREDICTED BY IDOCK:   -6.01 KCAL/MOL
REMARK 922        TOTAL FREE ENERGY PREDICTED BY IDOCK:  -12.49 KCAL/MOL
REMARK 923 INTER-LIGAND FREE ENERGY PREDICTED BY IDOCK:  -11.32 KCAL/MOL
REMARK 924 INTRA-LIGAND FREE ENERGY PREDICTED BY IDOCK:   -1.17 KCAL/MOL
REMARK 927      BINDING AFFINITY PREDICTED BY RF-SCORE:    0.00 PKD
ROOT
HETATM    1  C   UNL     1     -13.150  15.283  71.299  1.00  0.00    -0.540 C  
HETATM    2  C   UNL     1     -11.846  15.889  71.783  1.00  0.00    -0.579 C  
HETATM    3  C   UNL     1     -12.171  16.464  73.149  1.00  0.00    -0.465 C  
HETATM    4  O   UNL     1     -13.519  16.120  73.467  1.00  0.00    -0.638 OA 
HETATM    5  C   UNL     1     -13.940  15.101  72.571  1.00  0.00    -0.486 C  
HETATM    6  O   UNL     1     -13.610  13.802  73.060  1.00  0.00    -0.606 OA 
HETATM    7  C   UNL     1     -13.323  12.978  71.925  1.00  0.00    -0.446 C  
HETATM    8  C   UNL     1     -13.087  13.883  70.716  1.00  0.00    -0.137 C  
ENDROOT
BRANCH   8   9
HETATM    9  O   UNL     1     -11.794  13.584  70.164  1.00  0.00    -0.307 OA 
BRANCH   9  10
HETATM   10  C   UNL     1     -11.686  12.413  69.489  1.00  0.00    -0.322 C  
HETATM   11  O   UNL     1     -12.597  11.625  69.304  1.00  0.00    -0.083 OA 
HETATM   12  N   UNL     1     -10.378  12.234  69.143  1.00  0.00    -0.426 N  
HETATM   13  H   UNL     1      -9.734  13.015  69.267  1.00  0.00     0.000 HD 
BRANCH  12  14
HETATM   14  C   UNL     1      -9.848  10.973  68.600  1.00  0.00    -0.193 C  
BRANCH  14  15
HETATM   15  C   UNL     1      -8.844  11.228  67.430  1.00  0.00    -0.145 C  
BRANCH  15  16
HETATM   16  C   UNL     1      -9.453  11.463  66.057  1.00  0.00    -0.245 A  
HETATM   17  C   UNL     1      -9.561  10.413  65.136  1.00  0.00    -0.329 A  
HETATM   18  C   UNL     1      -9.884  12.741  65.667  1.00  0.00    -0.190 A  
HETATM   19  C   UNL     1     -10.081  10.636  63.858  1.00  0.00    -0.356 A  
HETATM   20  C   UNL     1     -10.511  11.909  63.488  1.00  0.00    -0.505 A  
HETATM   21  C   UNL     1     -10.420  12.961  64.395  1.00  0.00    -0.419 A  
ENDBRANCH  15  16
ENDBRANCH  14  15
BRANCH  14  22
HETATM   22  C   UNL     1      -9.202  10.046  69.674  1.00  0.00    -0.215 C  
HETATM   23  O   UNL     1      -8.003  10.633  70.199  1.00  0.00    -0.374 OA 
HETATM   24  H   UNL     1      -7.609  10.069  70.854  1.00  0.00     0.000 HD 
BRANCH  22  25
HETATM   25  C   UNL     1      -8.977   8.565  69.309  1.00  0.00    -0.146 C  
BRANCH  25  26
HETATM   26  N   UNL     1      -9.312   7.480  70.327  1.00  0.00    -0.161 N  
BRANCH  26  27
HETATM   27  C   UNL     1     -10.815   7.202  70.359  1.00  0.00    -0.246 C  
HETATM   28  C   UNL     1     -11.633   7.630  71.596  1.00  0.00    -0.301 C  
HETATM   29  C   UNL     1     -11.646   9.137  71.845  1.00  0.00    -0.430 C  
HETATM   30  C   UNL     1     -13.095   7.179  71.414  1.00  0.00    -0.408 C  
ENDBRANCH  26  27
BRANCH  26  31
HETATM   31  S   UNL     1      -8.379   6.030  69.956  1.00  0.00    -0.125 S  
HETATM   32  O   UNL     1      -6.975   6.341  70.061  1.00  0.00    -0.061 OA 
HETATM   33  O   UNL     1      -8.977   4.954  70.725  1.00  0.00    -0.124 OA 
BRANCH  31  34
HETATM   34  C   UNL     1      -8.721   5.705  68.228  1.00  0.00    -0.106 A  
HETATM   35  C   UNL     1     -10.076   4.665  66.517  1.00  0.00    -0.279 A  
HETATM   36  C   UNL     1      -9.853   4.975  67.868  1.00  0.00    -0.200 A  
HETATM   37  C   UNL     1      -9.160   5.037  65.527  1.00  0.00    -0.158 A  
HETATM   38  N   UNL     1      -9.443   4.815  64.179  1.00  0.00    -0.354 NA 
HETATM   39  C   UNL     1      -8.077   5.839  65.896  1.00  0.00    -0.113 A  
HETATM   40  H1  UNL     1      -8.775   5.086  63.457  1.00  0.00     0.000 HD 
HETATM   41  C   UNL     1      -7.843   6.164  67.239  1.00  0.00    -0.102 A  
HETATM   42  H2  UNL     1     -10.339   5.253  63.965  1.00  0.00     0.000 HD 
ENDBRANCH  31  34
ENDBRANCH  26  31
ENDBRANCH  25  26
ENDBRANCH  22  25
ENDBRANCH  14  22
ENDBRANCH  12  14
ENDBRANCH   9  10
ENDBRANCH   8   9
TORSDOF 11
ENDMDL
MODEL       81
REMARK 921   NORMALIZED FREE ENERGY PREDICTED BY IDOCK:   -5.98 KCAL/MOL
REMARK 922        TOTAL FREE ENERGY PREDICTED BY IDOCK:  -12.45 KCAL/MOL
REMARK 923 INTER-LIGAND FREE ENERGY PREDICTED BY IDOCK:  -10.96 KCAL/MOL
REMARK 924 INTRA-LIGAND FREE ENERGY PREDICTED BY IDOCK:   -1.49 KCAL/MOL
REMARK 927      BINDING AFFINITY PREDICTED BY RF-SCORE:    0.00 PKD
ROOT
HETATM    1  C   UNL     1     -12.454  13.607  65.696  1.00  0.00    -0.540 C  
HETATM    2  C   UNL     1     -11.804  12.435  64.983  1.00  0.00    -0.440 C  
HETATM    3  C   UNL     1     -12.021  12.712  63.508  1.00  0.00    -0.548 C  
HETATM    4  O   UNL     1     -12.645  13.989  63.381  1.00  0.00    -0.845 OA 
HETATM    5  C   UNL     1     -12.524  14.667  64.624  1.00  0.00    -0.286 C  
HETATM    6  O   UNL     1     -11.300  15.396  64.707  1.00  0.00    -0.412 OA 
HETATM    7  C   UNL     1     -10.881  15.373  66.076  1.00  0.00    -0.314 C  
HETATM    8  C   UNL     1     -11.655  14.272  66.802  1.00  0.00    -0.391 C  
ENDROOT
BRANCH   8   9
HETATM    9  O   UNL     1     -10.713  13.371  67.406  1.00  0.00    -0.258 OA 
BRANCH   9  10
HETATM   10  C   UNL     1     -11.225  12.453  68.263  1.00  0.00    -0.263 C  
HETATM   11  O   UNL     1     -11.989  12.701  69.180  1.00  0.00    -0.291 OA 
HETATM   12  N   UNL     1     -10.669  11.240  67.978  1.00  0.00    -0.191 N  
HETATM   13  H   UNL     1     -10.124  11.147  67.121  1.00  0.00     0.000 HD 
BRANCH  12  14
HETATM   14  C   UNL     1     -10.817  10.058  68.842  1.00  0.00    -0.220 C  
BRANCH  14  15
HETATM   15  C   UNL     1     -10.681   8.730  68.029  1.00  0.00    -0.151 C  
BRANCH  15  16
HETATM   16  C   UNL     1      -9.664   8.731  66.899  1.00  0.00    -0.273 A  
HETATM   17  C   UNL     1      -9.890   9.483  65.739  1.00  0.00    -0.363 A  
HETATM   18  C   UNL     1      -8.498   7.952  66.974  1.00  0.00    -0.124 A  
HETATM   19  C   UNL     1      -8.977   9.454  64.681  1.00  0.00    -0.233 A  
HETATM   20  C   UNL     1      -7.820   8.681  64.773  1.00  0.00    -0.123 A  
HETATM   21  C   UNL     1      -7.577   7.936  65.924  1.00  0.00    -0.083 A  
ENDBRANCH  15  16
ENDBRANCH  14  15
BRANCH  14  22
HETATM   22  C   UNL     1      -9.848  10.045  70.063  1.00  0.00    -0.197 C  
HETATM   23  O   UNL     1      -8.578  10.612  69.712  1.00  0.00    -0.385 OA 
HETATM   24  H   UNL     1      -7.987  10.604  70.456  1.00  0.00     0.000 HD 
BRANCH  22  25
HETATM   25  C   UNL     1      -9.666   8.718  70.828  1.00  0.00    -0.208 C  
BRANCH  25  26
HETATM   26  N   UNL     1     -10.462   8.470  72.105  1.00  0.00    -0.325 N  
BRANCH  26  27
HETATM   27  C   UNL     1     -11.909   8.094  71.786  1.00  0.00    -0.300 C  
HETATM   28  C   UNL     1     -13.054   8.964  72.347  1.00  0.00    -0.476 C  
HETATM   29  C   UNL     1     -13.048  10.405  71.842  1.00  0.00    -0.563 C  
HETATM   30  C   UNL     1     -14.404   8.339  71.947  1.00  0.00    -0.564 C  
ENDBRANCH  26  27
BRANCH  26  31
HETATM   31  S   UNL     1      -9.651   7.230  73.061  1.00  0.00    -0.195 S  
HETATM   32  O   UNL     1      -8.473   7.804  73.663  1.00  0.00    -0.173 OA 
HETATM   33  O   UNL     1     -10.682   6.597  73.864  1.00  0.00    -0.288 OA 
BRANCH  31  34
HETATM   34  C   UNL     1      -9.097   6.025  71.857  1.00  0.00    -0.141 A  
HETATM   35  C   UNL     1      -7.323   5.025  70.554  1.00  0.00    -0.061 A  
HETATM   36  C   UNL     1      -7.740   5.923  71.549  1.00  0.00    -0.101 A  
HETATM   37  C   UNL     1      -8.247   4.260  69.834  1.00  0.00    -0.062 A  
HETATM   38  N   UNL     1      -7.813   3.296  68.922  1.00  0.00    -0.051 NA 
HETATM   39  C   UNL     1      -9.590   4.313  70.215  1.00  0.00    -0.269 A  
HETATM   40  H1  UNL     1      -8.487   2.739  68.397  1.00  0.00     0.000 HD 
HETATM   41  C   UNL     1     -10.023   5.200  71.210  1.00  0.00    -0.257 A  
HETATM   42  H2  UNL     1      -7.181   2.659  69.408  1.00  0.00     0.000 HD 
ENDBRANCH  31  34
ENDBRANCH  26  31
ENDBRANCH  25  26
ENDBRANCH  22  25
ENDBRANCH  14  22
ENDBRANCH  12  14
ENDBRANCH   9  10
ENDBRANCH   8   9
TORSDOF 11
ENDMDL
MODEL       82
REMARK 921   NORMALIZED FREE ENERGY PREDICTED BY IDOCK:   -5.97 KCAL/MOL
REMARK 922        TOTAL FREE ENERGY PREDICTED BY IDOCK:  -12.43 KCAL/MOL
REMARK 923 INTER-LIGAND FREE ENERGY PREDICTED BY IDOCK:  -10.13 KCAL/MOL
REMARK 924 INTRA-LIGAND FREE ENERGY PREDICTED BY IDOCK:   -2.30 KCAL/MOL
REMARK 927      BINDING AFFINITY PREDICTED BY RF-SCORE:    0.00 PKD
ROOT
HETATM    1  C   UNL     1     -12.282  10.765  69.953  1.00  0.00    -0.384 C  
HETATM    2  C   UNL     1     -12.195  12.202  70.435  1.00  0.00    -0.378 C  
HETATM    3  C   UNL     1     -12.914  12.205  71.771  1.00  0.00    -0.332 C  
HETATM    4  O   UNL     1     -13.286  10.862  72.079  1.00  0.00    -0.492 OA 
HETATM    5  C   UNL     1     -12.565   9.993  71.218  1.00  0.00    -0.393 C  
HETATM    6  O   UNL     1     -11.292   9.649  71.764  1.00  0.00    -0.347 OA 
HETATM    7  C   UNL     1     -10.385   9.491  70.668  1.00  0.00    -0.302 C  
HETATM    8  C   UNL     1     -11.006  10.134  69.428  1.00  0.00    -0.245 C  
ENDROOT
BRANCH   8   9
HETATM    9  O   UNL     1     -10.091  11.113  68.910  1.00  0.00    -0.200 OA 
BRANCH   9  10
HETATM   10  C   UNL     1      -9.400  10.761  67.798  1.00  0.00    -0.152 C  
HETATM   11  O   UNL     1      -8.265  11.121  67.535  1.00  0.00    -0.115 OA 
HETATM   12  N   UNL     1     -10.221  10.021  66.997  1.00  0.00    -0.225 N  
HETATM   13  H   UNL     1     -11.112   9.704  67.379  1.00  0.00     0.000 HD 
BRANCH  12  14
HETATM   14  C   UNL     1      -9.887   9.657  65.611  1.00  0.00    -0.299 C  
BRANCH  14  15
HETATM   15  C   UNL     1      -9.387  10.893  64.795  1.00  0.00    -0.259 C  
BRANCH  15  16
HETATM   16  C   UNL     1     -10.401  12.000  64.557  1.00  0.00    -0.334 A  
HETATM   17  C   UNL     1     -11.452  11.819  63.648  1.00  0.00    -0.524 A  
HETATM   18  C   UNL     1     -10.287  13.238  65.209  1.00  0.00    -0.324 A  
HETATM   19  C   UNL     1     -12.361  12.850  63.395  1.00  0.00    -0.498 A  
HETATM   20  C   UNL     1     -12.239  14.071  64.056  1.00  0.00    -0.395 A  
HETATM   21  C   UNL     1     -11.206  14.263  64.969  1.00  0.00    -0.364 A  
ENDBRANCH  15  16
ENDBRANCH  14  15
BRANCH  14  22
HETATM   22  C   UNL     1      -8.867   8.484  65.495  1.00  0.00    -0.154 C  
HETATM   23  O   UNL     1      -8.488   8.272  64.128  1.00  0.00    -0.363 OA 
HETATM   24  H   UNL     1      -7.866   7.558  64.057  1.00  0.00     0.000 HD 
BRANCH  22  25
HETATM   25  C   UNL     1      -9.218   7.150  66.183  1.00  0.00    -0.082 C  
BRANCH  25  26
HETATM   26  N   UNL     1      -8.261   6.560  67.214  1.00  0.00    -0.113 N  
BRANCH  26  27
HETATM   27  C   UNL     1      -8.035   7.531  68.372  1.00  0.00    -0.123 C  
HETATM   28  C   UNL     1      -6.591   7.908  68.767  1.00  0.00    -0.053 C  
HETATM   29  C   UNL     1      -5.812   8.630  67.671  1.00  0.00    -0.043 C  
HETATM   30  C   UNL     1      -6.631   8.836  69.996  1.00  0.00    -0.038 C  
ENDBRANCH  26  27
BRANCH  26  31
HETATM   31  S   UNL     1      -8.891   5.008  67.765  1.00  0.00    -0.103 S  
HETATM   32  O   UNL     1      -9.779   4.482  66.759  1.00  0.00    -0.174 OA 
HETATM   33  O   UNL     1      -7.746   4.250  68.238  1.00  0.00    -0.073 OA 
BRANCH  31  34
HETATM   34  C   UNL     1      -9.892   5.411  69.196  1.00  0.00    -0.177 A  
HETATM   35  C   UNL     1     -11.832   6.479  70.164  1.00  0.00    -0.331 A  
HETATM   36  C   UNL     1     -11.089   6.106  69.033  1.00  0.00    -0.437 A  
HETATM   37  C   UNL     1     -11.371   6.205  71.457  1.00  0.00    -0.280 A  
HETATM   38  N   UNL     1     -12.166   6.487  72.568  1.00  0.00    -0.520 NA 
HETATM   39  C   UNL     1     -10.214   5.435  71.597  1.00  0.00    -0.268 A  
HETATM   40  H1  UNL     1     -11.830   6.287  73.510  1.00  0.00     0.000 HD 
HETATM   41  C   UNL     1      -9.464   5.048  70.478  1.00  0.00    -0.236 A  
HETATM   42  H2  UNL     1     -13.065   6.020  72.445  1.00  0.00     0.000 HD 
ENDBRANCH  31  34
ENDBRANCH  26  31
ENDBRANCH  25  26
ENDBRANCH  22  25
ENDBRANCH  14  22
ENDBRANCH  12  14
ENDBRANCH   9  10
ENDBRANCH   8   9
TORSDOF 11
ENDMDL
MODEL       83
REMARK 921   NORMALIZED FREE ENERGY PREDICTED BY IDOCK:   -5.96 KCAL/MOL
REMARK 922        TOTAL FREE ENERGY PREDICTED BY IDOCK:  -12.42 KCAL/MOL
REMARK 923 INTER-LIGAND FREE ENERGY PREDICTED BY IDOCK:  -10.57 KCAL/MOL
REMARK 924 INTRA-LIGAND FREE ENERGY PREDICTED BY IDOCK:   -1.85 KCAL/MOL
REMARK 927      BINDING AFFINITY PREDICTED BY RF-SCORE:    0.00 PKD
ROOT
HETATM    1  C   UNL     1     -11.838  12.501  65.514  1.00  0.00    -0.491 C  
HETATM    2  C   UNL     1     -11.035  11.840  64.408  1.00  0.00    -0.397 C  
HETATM    3  C   UNL     1     -12.011  11.698  63.256  1.00  0.00    -0.127 C  
HETATM    4  O   UNL     1     -13.238  12.323  63.631  1.00  0.00    -0.758 OA 
HETATM    5  C   UNL     1     -12.993  13.129  64.774  1.00  0.00    -0.104 C  
HETATM    6  O   UNL     1     -12.564  14.441  64.411  1.00  0.00    -0.668 OA 
HETATM    7  C   UNL     1     -11.651  14.886  65.418  1.00  0.00    -0.280 C  
HETATM    8  C   UNL     1     -11.193  13.674  66.230  1.00  0.00    -0.305 C  
ENDROOT
BRANCH   8   9
HETATM    9  O   UNL     1      -9.758  13.610  66.191  1.00  0.00    -0.285 OA 
BRANCH   9  10
HETATM   10  C   UNL     1      -9.140  13.275  67.350  1.00  0.00    -0.216 C  
HETATM   11  O   UNL     1      -9.706  13.057  68.407  1.00  0.00    -0.227 OA 
HETATM   12  N   UNL     1      -7.791  13.319  67.148  1.00  0.00    -0.368 N  
HETATM   13  H   UNL     1      -7.448  13.414  66.192  1.00  0.00     0.000 HD 
BRANCH  12  14
HETATM   14  C   UNL     1      -6.806  13.235  68.237  1.00  0.00    -0.105 C  
BRANCH  14  15
HETATM   15  C   UNL     1      -6.626  14.610  68.959  1.00  0.00    -0.102 C  
BRANCH  15  16
HETATM   16  C   UNL     1      -6.692  15.847  68.079  1.00  0.00    -0.140 A  
HETATM   17  C   UNL     1      -7.862  16.615  68.017  1.00  0.00    -0.173 A  
HETATM   18  C   UNL     1      -5.600  16.227  67.283  1.00  0.00    -0.127 A  
HETATM   19  C   UNL     1      -7.940  17.729  67.177  1.00  0.00    -0.229 A  
HETATM   20  C   UNL     1      -6.845  18.098  66.397  1.00  0.00    -0.265 A  
HETATM   21  C   UNL     1      -5.672  17.351  66.456  1.00  0.00    -0.241 A  
ENDBRANCH  15  16
ENDBRANCH  14  15
BRANCH  14  22
HETATM   22  C   UNL     1      -7.110  12.114  69.278  1.00  0.00     0.041 C  
HETATM   23  O   UNL     1      -6.404  12.353  70.504  1.00  0.00    -0.500 OA 
HETATM   24  H   UNL     1      -6.590  11.670  71.138  1.00  0.00     0.000 HD 
BRANCH  22  25
HETATM   25  C   UNL     1      -6.953  10.648  68.828  1.00  0.00    -0.068 C  
BRANCH  25  26
HETATM   26  N   UNL     1      -8.112   9.675  69.015  1.00  0.00    -0.099 N  
BRANCH  26  27
HETATM   27  C   UNL     1      -8.226   8.720  67.827  1.00  0.00    -0.111 C  
HETATM   28  C   UNL     1      -9.560   7.985  67.576  1.00  0.00    -0.191 C  
HETATM   29  C   UNL     1     -10.735   8.912  67.274  1.00  0.00    -0.219 C  
HETATM   30  C   UNL     1      -9.395   7.038  66.373  1.00  0.00    -0.182 C  
ENDBRANCH  26  27
BRANCH  26  31
HETATM   31  S   UNL     1      -7.903   8.812  70.539  1.00  0.00    -0.118 S  
HETATM   32  O   UNL     1      -7.577   7.436  70.253  1.00  0.00    -0.085 OA 
HETATM   33  O   UNL     1      -7.040   9.641  71.360  1.00  0.00    -0.324 OA 
BRANCH  31  34
HETATM   34  C   UNL     1      -9.529   8.825  71.291  1.00  0.00    -0.250 A  
HETATM   35  C   UNL     1     -11.092   7.964  72.922  1.00  0.00    -0.442 A  
HETATM   36  C   UNL     1      -9.797   7.999  72.383  1.00  0.00    -0.313 A  
HETATM   37  C   UNL     1     -12.133   8.709  72.356  1.00  0.00    -0.345 A  
HETATM   38  N   UNL     1     -13.389   8.747  72.963  1.00  0.00    -0.903 NA 
HETATM   39  C   UNL     1     -11.827   9.592  71.319  1.00  0.00    -0.460 A  
HETATM   40  H1  UNL     1     -14.148   9.290  72.550  1.00  0.00     0.000 HD 
HETATM   41  C   UNL     1     -10.537   9.645  70.773  1.00  0.00    -0.392 A  
HETATM   42  H2  UNL     1     -13.269   9.050  73.929  1.00  0.00     0.000 HD 
ENDBRANCH  31  34
ENDBRANCH  26  31
ENDBRANCH  25  26
ENDBRANCH  22  25
ENDBRANCH  14  22
ENDBRANCH  12  14
ENDBRANCH   9  10
ENDBRANCH   8   9
TORSDOF 11
ENDMDL
MODEL       84
REMARK 921   NORMALIZED FREE ENERGY PREDICTED BY IDOCK:   -5.96 KCAL/MOL
REMARK 922        TOTAL FREE ENERGY PREDICTED BY IDOCK:  -12.41 KCAL/MOL
REMARK 923 INTER-LIGAND FREE ENERGY PREDICTED BY IDOCK:  -11.39 KCAL/MOL
REMARK 924 INTRA-LIGAND FREE ENERGY PREDICTED BY IDOCK:   -1.02 KCAL/MOL
REMARK 927      BINDING AFFINITY PREDICTED BY RF-SCORE:    0.00 PKD
ROOT
HETATM    1  C   UNL     1     -12.783  13.193  65.318  1.00  0.00    -0.457 C  
HETATM    2  C   UNL     1     -12.522  12.099  64.299  1.00  0.00    -0.461 C  
HETATM    3  C   UNL     1     -12.311  12.835  62.989  1.00  0.00     0.045 C  
HETATM    4  O   UNL     1     -12.339  14.236  63.255  1.00  0.00    -0.616 OA 
HETATM    5  C   UNL     1     -12.211  14.423  64.658  1.00  0.00    -0.464 C  
HETATM    6  O   UNL     1     -10.842  14.487  65.056  1.00  0.00    -0.362 OA 
HETATM    7  C   UNL     1     -10.750  13.909  66.362  1.00  0.00    -0.281 C  
HETATM    8  C   UNL     1     -12.025  13.109  66.631  1.00  0.00    -0.389 C  
ENDROOT
BRANCH   8   9
HETATM    9  O   UNL     1     -11.659  11.759  66.959  1.00  0.00    -0.480 OA 
BRANCH   9  10
HETATM   10  C   UNL     1     -11.122  11.565  68.189  1.00  0.00    -0.246 C  
HETATM   11  O   UNL     1      -9.933  11.429  68.420  1.00  0.00    -0.190 OA 
HETATM   12  N   UNL     1     -12.140  11.455  69.091  1.00  0.00    -0.311 N  
HETATM   13  H   UNL     1     -13.084  11.690  68.786  1.00  0.00     0.000 HD 
BRANCH  12  14
HETATM   14  C   UNL     1     -11.946  11.018  70.483  1.00  0.00    -0.379 C  
BRANCH  14  15
HETATM   15  C   UNL     1     -13.026  11.629  71.434  1.00  0.00    -0.426 C  
BRANCH  15  16
HETATM   16  C   UNL     1     -13.002  13.140  71.599  1.00  0.00    -0.429 A  
HETATM   17  C   UNL     1     -12.593  13.965  70.544  1.00  0.00    -0.382 A  
HETATM   18  C   UNL     1     -13.351  13.739  72.820  1.00  0.00    -0.519 A  
HETATM   19  C   UNL     1     -12.530  15.352  70.706  1.00  0.00    -0.476 A  
HETATM   20  C   UNL     1     -12.886  15.933  71.922  1.00  0.00    -0.455 A  
HETATM   21  C   UNL     1     -13.305  15.127  72.977  1.00  0.00    -0.586 A  
ENDBRANCH  15  16
ENDBRANCH  14  15
BRANCH  14  22
HETATM   22  C   UNL     1     -11.889   9.469  70.655  1.00  0.00    -0.233 C  
HETATM   23  O   UNL     1     -13.202   8.932  70.867  1.00  0.00    -0.519 OA 
HETATM   24  H   UNL     1     -13.168   7.988  70.972  1.00  0.00     0.000 HD 
BRANCH  22  25
HETATM   25  C   UNL     1     -10.886   8.892  71.673  1.00  0.00    -0.349 C  
BRANCH  25  26
HETATM   26  N   UNL     1     -10.309   7.497  71.453  1.00  0.00    -0.194 N  
BRANCH  26  27
HETATM   27  C   UNL     1     -11.199   6.429  72.089  1.00  0.00    -0.279 C  
HETATM   28  C   UNL     1     -10.545   5.293  72.904  1.00  0.00    -0.273 C  
HETATM   29  C   UNL     1      -9.790   5.769  74.144  1.00  0.00    -0.208 C  
HETATM   30  C   UNL     1     -11.639   4.316  73.375  1.00  0.00    -0.194 C  
ENDBRANCH  26  27
BRANCH  26  31
HETATM   31  S   UNL     1     -10.086   7.229  69.724  1.00  0.00    -0.198 S  
HETATM   32  O   UNL     1     -11.368   6.940  69.130  1.00  0.00    -0.148 OA 
HETATM   33  O   UNL     1      -9.257   8.321  69.248  1.00  0.00    -0.150 OA 
BRANCH  31  34
HETATM   34  C   UNL     1      -9.107   5.732  69.623  1.00  0.00    -0.135 A  
HETATM   35  C   UNL     1      -8.944   3.356  69.210  1.00  0.00    -0.178 A  
HETATM   36  C   UNL     1      -9.702   4.537  69.220  1.00  0.00    -0.260 A  
HETATM   37  C   UNL     1      -7.613   3.345  69.642  1.00  0.00    -0.044 A  
HETATM   38  N   UNL     1      -6.840   2.188  69.529  1.00  0.00    -0.033 NA 
HETATM   39  C   UNL     1      -7.011   4.564  69.961  1.00  0.00    -0.045 A  
HETATM   40  H1  UNL     1      -5.870   2.180  69.844  1.00  0.00     0.000 HD 
HETATM   41  C   UNL     1      -7.751   5.755  69.969  1.00  0.00    -0.087 A  
HETATM   42  H2  UNL     1      -6.863   1.882  68.557  1.00  0.00     0.000 HD 
ENDBRANCH  31  34
ENDBRANCH  26  31
ENDBRANCH  25  26
ENDBRANCH  22  25
ENDBRANCH  14  22
ENDBRANCH  12  14
ENDBRANCH   9  10
ENDBRANCH   8   9
TORSDOF 11
ENDMDL
MODEL       85
REMARK 921   NORMALIZED FREE ENERGY PREDICTED BY IDOCK:   -5.96 KCAL/MOL
REMARK 922        TOTAL FREE ENERGY PREDICTED BY IDOCK:  -12.41 KCAL/MOL
REMARK 923 INTER-LIGAND FREE ENERGY PREDICTED BY IDOCK:  -11.16 KCAL/MOL
REMARK 924 INTRA-LIGAND FREE ENERGY PREDICTED BY IDOCK:   -1.25 KCAL/MOL
REMARK 927      BINDING AFFINITY PREDICTED BY RF-SCORE:    0.00 PKD
ROOT
HETATM    1  C   UNL     1      -8.980  18.334  67.734  1.00  0.00    -0.273 C  
HETATM    2  C   UNL     1     -10.415  18.276  67.240  1.00  0.00    -0.419 C  
HETATM    3  C   UNL     1     -10.634  19.602  66.537  1.00  0.00    -0.482 C  
HETATM    4  O   UNL     1      -9.397  20.314  66.532  1.00  0.00    -0.351 OA 
HETATM    5  C   UNL     1      -8.360  19.403  66.868  1.00  0.00    -0.287 C  
HETATM    6  O   UNL     1      -7.854  18.734  65.714  1.00  0.00    -0.484 OA 
HETATM    7  C   UNL     1      -7.469  17.417  66.119  1.00  0.00    -0.296 C  
HETATM    8  C   UNL     1      -8.111  17.117  67.474  1.00  0.00    -0.184 C  
ENDROOT
BRANCH   8   9
HETATM    9  O   UNL     1      -8.886  15.913  67.358  1.00  0.00    -0.182 OA 
BRANCH   9  10
HETATM   10  C   UNL     1      -9.235  15.310  68.522  1.00  0.00    -0.200 C  
HETATM   11  O   UNL     1      -8.600  15.371  69.560  1.00  0.00    -0.257 OA 
HETATM   12  N   UNL     1     -10.354  14.560  68.300  1.00  0.00    -0.231 N  
HETATM   13  H   UNL     1     -10.846  14.677  67.414  1.00  0.00     0.000 HD 
BRANCH  12  14
HETATM   14  C   UNL     1     -10.888  13.594  69.272  1.00  0.00    -0.082 C  
BRANCH  14  15
HETATM   15  C   UNL     1     -12.405  13.840  69.555  1.00  0.00    -0.258 C  
BRANCH  15  16
HETATM   16  C   UNL     1     -12.740  14.600  70.829  1.00  0.00    -0.422 A  
HETATM   17  C   UNL     1     -14.024  14.528  71.383  1.00  0.00    -0.432 A  
HETATM   18  C   UNL     1     -11.786  15.418  71.454  1.00  0.00    -0.453 A  
HETATM   19  C   UNL     1     -14.347  15.259  72.530  1.00  0.00    -0.334 A  
HETATM   20  C   UNL     1     -13.387  16.061  73.144  1.00  0.00    -0.624 A  
HETATM   21  C   UNL     1     -12.104  16.135  72.611  1.00  0.00    -0.652 A  
ENDBRANCH  15  16
ENDBRANCH  14  15
BRANCH  14  22
HETATM   22  C   UNL     1     -10.646  12.105  68.879  1.00  0.00    -0.146 C  
HETATM   23  O   UNL     1     -10.818  11.244  70.013  1.00  0.00    -0.466 OA 
HETATM   24  H   UNL     1     -10.671  10.336  69.773  1.00  0.00     0.000 HD 
BRANCH  22  25
HETATM   25  C   UNL     1      -9.351  11.760  68.116  1.00  0.00    -0.190 C  
BRANCH  25  26
HETATM   26  N   UNL     1      -9.135  10.339  67.604  1.00  0.00    -0.137 N  
BRANCH  26  27
HETATM   27  C   UNL     1     -10.205   9.392  68.147  1.00  0.00    -0.200 C  
HETATM   28  C   UNL     1      -9.770   8.084  68.843  1.00  0.00    -0.159 C  
HETATM   29  C   UNL     1      -8.949   8.297  70.112  1.00  0.00    -0.142 C  
HETATM   30  C   UNL     1     -11.024   7.279  69.232  1.00  0.00    -0.121 C  
ENDBRANCH  26  27
BRANCH  26  31
HETATM   31  S   UNL     1      -9.101  10.358  65.841  1.00  0.00    -0.173 S  
HETATM   32  O   UNL     1      -7.773  10.715  65.406  1.00  0.00    -0.133 OA 
HETATM   33  O   UNL     1      -9.735   9.125  65.409  1.00  0.00    -0.207 OA 
BRANCH  31  34
HETATM   34  C   UNL     1     -10.188  11.706  65.384  1.00  0.00    -0.263 A  
HETATM   35  C   UNL     1     -12.402  12.535  64.877  1.00  0.00    -0.539 A  
HETATM   36  C   UNL     1     -11.564  11.493  65.304  1.00  0.00     0.001 A  
HETATM   37  C   UNL     1     -11.878  13.773  64.487  1.00  0.00    -0.417 A  
HETATM   38  N   UNL     1     -12.726  14.833  64.165  1.00  0.00    -0.715 NA 
HETATM   39  C   UNL     1     -10.509  13.994  64.654  1.00  0.00    -0.398 A  
HETATM   40  H1  UNL     1     -12.344  15.735  63.880  1.00  0.00     0.000 HD 
HETATM   41  C   UNL     1      -9.659  12.966  65.086  1.00  0.00     0.147 A  
HETATM   42  H2  UNL     1     -13.357  14.987  64.951  1.00  0.00     0.000 HD 
ENDBRANCH  31  34
ENDBRANCH  26  31
ENDBRANCH  25  26
ENDBRANCH  22  25
ENDBRANCH  14  22
ENDBRANCH  12  14
ENDBRANCH   9  10
ENDBRANCH   8   9
TORSDOF 11
ENDMDL
MODEL       86
REMARK 921   NORMALIZED FREE ENERGY PREDICTED BY IDOCK:   -5.95 KCAL/MOL
REMARK 922        TOTAL FREE ENERGY PREDICTED BY IDOCK:  -12.40 KCAL/MOL
REMARK 923 INTER-LIGAND FREE ENERGY PREDICTED BY IDOCK:  -10.46 KCAL/MOL
REMARK 924 INTRA-LIGAND FREE ENERGY PREDICTED BY IDOCK:   -1.94 KCAL/MOL
REMARK 927      BINDING AFFINITY PREDICTED BY RF-SCORE:    0.00 PKD
ROOT
HETATM    1  C   UNL     1     -10.154  11.052  65.071  1.00  0.00    -0.354 C  
HETATM    2  C   UNL     1      -8.664  10.833  64.881  1.00  0.00    -0.135 C  
HETATM    3  C   UNL     1      -8.526  10.329  63.457  1.00  0.00    -0.182 C  
HETATM    4  O   UNL     1      -9.816  10.361  62.847  1.00  0.00    -0.287 OA 
HETATM    5  C   UNL     1     -10.671  11.155  63.657  1.00  0.00    -0.308 C  
HETATM    6  O   UNL     1     -10.593  12.536  63.307  1.00  0.00    -0.368 OA 
HETATM    7  C   UNL     1     -10.782  13.293  64.507  1.00  0.00    -0.411 C  
HETATM    8  C   UNL     1     -10.585  12.362  65.704  1.00  0.00    -0.265 C  
ENDROOT
BRANCH   8   9
HETATM    9  O   UNL     1      -9.565  12.915  66.552  1.00  0.00    -0.250 OA 
BRANCH   9  10
HETATM   10  C   UNL     1      -9.668  12.636  67.875  1.00  0.00    -0.216 C  
HETATM   11  O   UNL     1      -8.763  12.213  68.574  1.00  0.00    -0.157 OA 
HETATM   12  N   UNL     1     -10.965  12.820  68.255  1.00  0.00    -0.240 N  
HETATM   13  H   UNL     1     -11.601  13.274  67.600  1.00  0.00     0.000 HD 
BRANCH  12  14
HETATM   14  C   UNL     1     -11.495  12.398  69.561  1.00  0.00    -0.240 C  
BRANCH  14  15
HETATM   15  C   UNL     1     -12.761  13.223  69.963  1.00  0.00     0.095 C  
BRANCH  15  16
HETATM   16  C   UNL     1     -12.587  14.213  71.103  1.00  0.00    -0.439 A  
HETATM   17  C   UNL     1     -13.163  13.964  72.356  1.00  0.00    -0.587 A  
HETATM   18  C   UNL     1     -11.882  15.413  70.917  1.00  0.00    -0.400 A  
HETATM   19  C   UNL     1     -13.041  14.893  73.393  1.00  0.00    -0.506 A  
HETATM   20  C   UNL     1     -12.332  16.077  73.196  1.00  0.00    -0.637 A  
HETATM   21  C   UNL     1     -11.745  16.333  71.959  1.00  0.00    -0.528 A  
ENDBRANCH  15  16
ENDBRANCH  14  15
BRANCH  14  22
HETATM   22  C   UNL     1     -11.793  10.870  69.657  1.00  0.00    -0.344 C  
HETATM   23  O   UNL     1     -13.196  10.614  69.500  1.00  0.00    -0.416 OA 
HETATM   24  H   UNL     1     -13.378   9.684  69.558  1.00  0.00     0.000 HD 
BRANCH  22  25
HETATM   25  C   UNL     1     -11.224  10.097  70.863  1.00  0.00    -0.307 C  
BRANCH  25  26
HETATM   26  N   UNL     1     -10.593   8.725  70.648  1.00  0.00    -0.206 N  
BRANCH  26  27
HETATM   27  C   UNL     1      -9.401   8.813  69.695  1.00  0.00    -0.158 C  
HETATM   28  C   UNL     1      -9.155   7.667  68.690  1.00  0.00    -0.135 C  
HETATM   29  C   UNL     1     -10.280   7.474  67.676  1.00  0.00    -0.275 C  
HETATM   30  C   UNL     1      -7.864   7.958  67.901  1.00  0.00    -0.127 C  
ENDBRANCH  26  27
BRANCH  26  31
HETATM   31  S   UNL     1     -10.141   8.044  72.211  1.00  0.00    -0.273 S  
HETATM   32  O   UNL     1      -9.000   8.763  72.719  1.00  0.00    -0.361 OA 
HETATM   33  O   UNL     1     -11.370   7.933  72.975  1.00  0.00    -0.408 OA 
BRANCH  31  34
HETATM   34  C   UNL     1      -9.594   6.380  71.835  1.00  0.00    -0.151 A  
HETATM   35  C   UNL     1     -10.000   4.211  70.847  1.00  0.00    -0.207 A  
HETATM   36  C   UNL     1     -10.404   5.535  71.078  1.00  0.00    -0.307 A  
HETATM   37  C   UNL     1      -8.818   3.708  71.402  1.00  0.00    -0.096 A  
HETATM   38  N   UNL     1      -8.374   2.424  71.081  1.00  0.00    -0.056 NA 
HETATM   39  C   UNL     1      -7.979   4.591  72.086  1.00  0.00    -0.100 A  
HETATM   40  H1  UNL     1      -7.512   2.057  71.485  1.00  0.00     0.000 HD 
HETATM   41  C   UNL     1      -8.365   5.918  72.319  1.00  0.00    -0.118 A  
HETATM   42  H2  UNL     1      -8.304   2.355  70.066  1.00  0.00     0.000 HD 
ENDBRANCH  31  34
ENDBRANCH  26  31
ENDBRANCH  25  26
ENDBRANCH  22  25
ENDBRANCH  14  22
ENDBRANCH  12  14
ENDBRANCH   9  10
ENDBRANCH   8   9
TORSDOF 11
ENDMDL
MODEL       87
REMARK 921   NORMALIZED FREE ENERGY PREDICTED BY IDOCK:   -5.94 KCAL/MOL
REMARK 922        TOTAL FREE ENERGY PREDICTED BY IDOCK:  -12.39 KCAL/MOL
REMARK 923 INTER-LIGAND FREE ENERGY PREDICTED BY IDOCK:   -9.92 KCAL/MOL
REMARK 924 INTRA-LIGAND FREE ENERGY PREDICTED BY IDOCK:   -2.47 KCAL/MOL
REMARK 927      BINDING AFFINITY PREDICTED BY RF-SCORE:    0.00 PKD
ROOT
HETATM    1  C   UNL     1     -10.549  13.304  65.081  1.00  0.00    -0.342 C  
HETATM    2  C   UNL     1     -11.044  12.833  66.436  1.00  0.00    -0.320 C  
HETATM    3  C   UNL     1     -11.853  13.995  66.977  1.00  0.00    -0.428 C  
HETATM    4  O   UNL     1     -11.909  15.006  65.972  1.00  0.00    -0.190 OA 
HETATM    5  C   UNL     1     -11.495  14.430  64.741  1.00  0.00    -0.402 C  
HETATM    6  O   UNL     1     -12.588  13.833  64.046  1.00  0.00    -0.685 OA 
HETATM    7  C   UNL     1     -12.077  12.698  63.339  1.00  0.00    -0.525 C  
HETATM    8  C   UNL     1     -10.705  12.345  63.915  1.00  0.00    -0.426 C  
ENDROOT
BRANCH   8   9
HETATM    9  O   UNL     1     -10.727  10.973  64.343  1.00  0.00    -0.351 OA 
BRANCH   9  10
HETATM   10  C   UNL     1      -9.524  10.356  64.440  1.00  0.00    -0.287 C  
HETATM   11  O   UNL     1      -8.720  10.241  63.531  1.00  0.00    -0.175 OA 
HETATM   12  N   UNL     1      -9.416   9.814  65.688  1.00  0.00    -0.226 N  
HETATM   13  H   UNL     1     -10.113  10.070  66.388  1.00  0.00     0.000 HD 
BRANCH  12  14
HETATM   14  C   UNL     1      -8.347   8.882  66.078  1.00  0.00    -0.124 C  
BRANCH  14  15
HETATM   15  C   UNL     1      -7.750   9.242  67.477  1.00  0.00    -0.092 C  
BRANCH  15  16
HETATM   16  C   UNL     1      -8.743   9.375  68.621  1.00  0.00    -0.131 A  
HETATM   17  C   UNL     1     -10.014   9.922  68.400  1.00  0.00    -0.177 A  
HETATM   18  C   UNL     1      -8.398   8.991  69.926  1.00  0.00    -0.134 A  
HETATM   19  C   UNL     1     -10.913  10.085  69.457  1.00  0.00    -0.289 A  
HETATM   20  C   UNL     1     -10.559   9.692  70.747  1.00  0.00    -0.392 A  
HETATM   21  C   UNL     1      -9.304   9.137  70.980  1.00  0.00    -0.333 A  
ENDBRANCH  15  16
ENDBRANCH  14  15
BRANCH  14  22
HETATM   22  C   UNL     1      -8.774   7.383  66.044  1.00  0.00    -0.153 C  
HETATM   23  O   UNL     1     -10.179   7.247  66.299  1.00  0.00    -0.465 OA 
HETATM   24  H   UNL     1     -10.440   6.334  66.277  1.00  0.00     0.000 HD 
BRANCH  22  25
HETATM   25  C   UNL     1      -7.962   6.380  66.887  1.00  0.00    -0.109 C  
BRANCH  25  26
HETATM   26  N   UNL     1      -8.625   5.097  67.377  1.00  0.00    -0.105 N  
BRANCH  26  27
HETATM   27  C   UNL     1      -8.250   3.911  66.488  1.00  0.00    -0.100 C  
HETATM   28  C   UNL     1      -9.349   3.215  65.657  1.00  0.00    -0.112 C  
HETATM   29  C   UNL     1     -10.009   4.117  64.616  1.00  0.00    -0.182 C  
HETATM   30  C   UNL     1      -8.734   2.018  64.909  1.00  0.00    -0.112 C  
ENDBRANCH  26  27
BRANCH  26  31
HETATM   31  S   UNL     1      -8.186   4.825  69.063  1.00  0.00    -0.081 S  
HETATM   32  O   UNL     1      -8.039   3.408  69.282  1.00  0.00    -0.053 OA 
HETATM   33  O   UNL     1      -7.110   5.754  69.357  1.00  0.00    -0.061 OA 
BRANCH  31  34
HETATM   34  C   UNL     1      -9.621   5.358  69.994  1.00  0.00    -0.169 A  
HETATM   35  C   UNL     1     -11.761   6.479  70.089  1.00  0.00    -0.419 A  
HETATM   36  C   UNL     1     -10.673   6.002  69.342  1.00  0.00    -0.403 A  
HETATM   37  C   UNL     1     -11.791   6.360  71.483  1.00  0.00    -0.298 A  
HETATM   38  N   UNL     1     -12.923   6.743  72.204  1.00  0.00    -0.555 NA 
HETATM   39  C   UNL     1     -10.771   5.639  72.108  1.00  0.00    -0.287 A  
HETATM   40  H1  UNL     1     -12.945   6.657  73.220  1.00  0.00     0.000 HD 
HETATM   41  C   UNL     1      -9.680   5.150  71.376  1.00  0.00    -0.225 A  
HETATM   42  H2  UNL     1     -13.727   6.243  71.824  1.00  0.00     0.000 HD 
ENDBRANCH  31  34
ENDBRANCH  26  31
ENDBRANCH  25  26
ENDBRANCH  22  25
ENDBRANCH  14  22
ENDBRANCH  12  14
ENDBRANCH   9  10
ENDBRANCH   8   9
TORSDOF 11
ENDMDL
MODEL       88
REMARK 921   NORMALIZED FREE ENERGY PREDICTED BY IDOCK:   -5.92 KCAL/MOL
REMARK 922        TOTAL FREE ENERGY PREDICTED BY IDOCK:  -12.36 KCAL/MOL
REMARK 923 INTER-LIGAND FREE ENERGY PREDICTED BY IDOCK:  -10.90 KCAL/MOL
REMARK 924 INTRA-LIGAND FREE ENERGY PREDICTED BY IDOCK:   -1.45 KCAL/MOL
REMARK 927      BINDING AFFINITY PREDICTED BY RF-SCORE:    0.00 PKD
ROOT
HETATM    1  C   UNL     1     -11.479  13.069  65.005  1.00  0.00    -0.345 C  
HETATM    2  C   UNL     1     -10.077  12.883  64.455  1.00  0.00    -0.259 C  
HETATM    3  C   UNL     1     -10.219  11.813  63.389  1.00  0.00    -0.449 C  
HETATM    4  O   UNL     1     -11.603  11.492  63.263  1.00  0.00    -0.298 OA 
HETATM    5  C   UNL     1     -12.355  12.506  63.913  1.00  0.00    -0.485 C  
HETATM    6  O   UNL     1     -12.641  13.594  63.034  1.00  0.00    -0.729 OA 
HETATM    7  C   UNL     1     -12.655  14.788  63.823  1.00  0.00     0.549 C  
HETATM    8  C   UNL     1     -11.977  14.495  65.161  1.00  0.00    -0.369 C  
ENDROOT
BRANCH   8   9
HETATM    9  O   UNL     1     -10.899  15.427  65.344  1.00  0.00    -0.346 OA 
BRANCH   9  10
HETATM   10  C   UNL     1     -10.426  15.558  66.608  1.00  0.00    -0.299 C  
HETATM   11  O   UNL     1      -9.597  16.377  66.965  1.00  0.00    -0.228 OA 
HETATM   12  N   UNL     1     -10.963  14.564  67.374  1.00  0.00    -0.295 N  
HETATM   13  H   UNL     1     -11.722  14.007  66.981  1.00  0.00     0.000 HD 
BRANCH  12  14
HETATM   14  C   UNL     1     -10.507  14.256  68.738  1.00  0.00    -0.249 C  
BRANCH  14  15
HETATM   15  C   UNL     1     -11.637  13.587  69.586  1.00  0.00    -0.340 C  
BRANCH  15  16
HETATM   16  C   UNL     1     -12.246  14.436  70.690  1.00  0.00    -0.414 A  
HETATM   17  C   UNL     1     -11.439  15.274  71.471  1.00  0.00    -0.457 A  
HETATM   18  C   UNL     1     -13.619  14.374  70.977  1.00  0.00    -0.256 A  
HETATM   19  C   UNL     1     -11.989  16.024  72.514  1.00  0.00    -0.649 A  
HETATM   20  C   UNL     1     -13.355  15.957  72.782  1.00  0.00    -0.593 A  
HETATM   21  C   UNL     1     -14.172  15.137  72.008  1.00  0.00    -0.673 A  
ENDBRANCH  15  16
ENDBRANCH  14  15
BRANCH  14  22
HETATM   22  C   UNL     1      -9.210  13.391  68.789  1.00  0.00     0.112 C  
HETATM   23  O   UNL     1      -8.381  13.650  67.648  1.00  0.00    -0.156 OA 
HETATM   24  H   UNL     1      -7.591  13.124  67.679  1.00  0.00     0.000 HD 
BRANCH  22  25
HETATM   25  C   UNL     1      -9.361  11.875  69.028  1.00  0.00     0.264 C  
BRANCH  25  26
HETATM   26  N   UNL     1      -9.380  10.924  67.836  1.00  0.00    -0.153 N  
BRANCH  26  27
HETATM   27  C   UNL     1      -8.172   9.987  67.863  1.00  0.00    -0.113 C  
HETATM   28  C   UNL     1      -7.456   9.645  66.539  1.00  0.00    -0.094 C  
HETATM   29  C   UNL     1      -6.830  10.849  65.839  1.00  0.00    -0.032 C  
HETATM   30  C   UNL     1      -6.326   8.636  66.824  1.00  0.00    -0.059 C  
ENDBRANCH  26  27
BRANCH  26  31
HETATM   31  S   UNL     1     -10.904  10.038  67.827  1.00  0.00    -0.246 S  
HETATM   32  O   UNL     1     -11.987  10.977  67.673  1.00  0.00    -0.583 OA 
HETATM   33  O   UNL     1     -10.724   8.929  66.907  1.00  0.00    -0.230 OA 
BRANCH  31  34
HETATM   34  C   UNL     1     -11.034   9.347  69.476  1.00  0.00    -0.173 A  
HETATM   35  C   UNL     1     -10.665   7.525  71.021  1.00  0.00    -0.243 A  
HETATM   36  C   UNL     1     -10.498   8.088  69.746  1.00  0.00    -0.227 A  
HETATM   37  C   UNL     1     -11.398   8.183  72.014  1.00  0.00    -0.316 A  
HETATM   38  N   UNL     1     -11.469   7.663  73.307  1.00  0.00    -0.638 NA 
HETATM   39  C   UNL     1     -11.854   9.478  71.752  1.00  0.00    -0.430 A  
HETATM   40  H1  UNL     1     -12.004   8.143  74.031  1.00  0.00     0.000 HD 
HETATM   41  C   UNL     1     -11.690  10.058  70.486  1.00  0.00    -0.400 A  
HETATM   42  H2  UNL     1     -10.517   7.528  73.650  1.00  0.00     0.000 HD 
ENDBRANCH  31  34
ENDBRANCH  26  31
ENDBRANCH  25  26
ENDBRANCH  22  25
ENDBRANCH  14  22
ENDBRANCH  12  14
ENDBRANCH   9  10
ENDBRANCH   8   9
TORSDOF 11
ENDMDL
MODEL       89
REMARK 921   NORMALIZED FREE ENERGY PREDICTED BY IDOCK:   -5.92 KCAL/MOL
REMARK 922        TOTAL FREE ENERGY PREDICTED BY IDOCK:  -12.35 KCAL/MOL
REMARK 923 INTER-LIGAND FREE ENERGY PREDICTED BY IDOCK:  -10.05 KCAL/MOL
REMARK 924 INTRA-LIGAND FREE ENERGY PREDICTED BY IDOCK:   -2.30 KCAL/MOL
REMARK 927      BINDING AFFINITY PREDICTED BY RF-SCORE:    0.00 PKD
ROOT
HETATM    1  C   UNL     1     -12.467  12.850  65.441  1.00  0.00    -0.511 C  
HETATM    2  C   UNL     1     -11.964  12.190  64.170  1.00  0.00    -0.497 C  
HETATM    3  C   UNL     1     -12.207  13.218  63.081  1.00  0.00    -0.145 C  
HETATM    4  O   UNL     1     -12.705  14.407  63.693  1.00  0.00    -0.773 OA 
HETATM    5  C   UNL     1     -12.471  14.317  65.091  1.00  0.00    -0.416 C  
HETATM    6  O   UNL     1     -11.178  14.811  65.440  1.00  0.00    -0.325 OA 
HETATM    7  C   UNL     1     -10.713  14.042  66.554  1.00  0.00    -0.281 C  
HETATM    8  C   UNL     1     -11.565  12.777  66.660  1.00  0.00    -0.370 C  
ENDROOT
BRANCH   8   9
HETATM    9  O   UNL     1     -10.696  11.633  66.623  1.00  0.00    -0.246 OA 
BRANCH   9  10
HETATM   10  C   UNL     1     -10.932  10.670  67.548  1.00  0.00    -0.310 C  
HETATM   11  O   UNL     1     -11.931  10.596  68.242  1.00  0.00    -0.462 OA 
HETATM   12  N   UNL     1      -9.831   9.868  67.626  1.00  0.00    -0.158 N  
HETATM   13  H   UNL     1      -9.104   9.975  66.918  1.00  0.00     0.000 HD 
BRANCH  12  14
HETATM   14  C   UNL     1      -9.637   8.857  68.677  1.00  0.00    -0.153 C  
BRANCH  14  15
HETATM   15  C   UNL     1      -8.451   7.896  68.340  1.00  0.00    -0.128 C  
BRANCH  15  16
HETATM   16  C   UNL     1      -8.820   6.568  67.699  1.00  0.00    -0.112 A  
HETATM   17  C   UNL     1      -7.824   5.654  67.331  1.00  0.00    -0.101 A  
HETATM   18  C   UNL     1     -10.158   6.243  67.427  1.00  0.00    -0.191 A  
HETATM   19  C   UNL     1      -8.156   4.451  66.703  1.00  0.00    -0.102 A  
HETATM   20  C   UNL     1      -9.490   4.139  66.446  1.00  0.00    -0.199 A  
HETATM   21  C   UNL     1     -10.493   5.032  66.815  1.00  0.00    -0.273 A  
ENDBRANCH  15  16
ENDBRANCH  14  15
BRANCH  14  22
HETATM   22  C   UNL     1      -9.457   9.458  70.104  1.00  0.00    -0.240 C  
HETATM   23  O   UNL     1      -8.556  10.574  70.077  1.00  0.00    -0.334 OA 
HETATM   24  H   UNL     1      -8.447  10.940  70.946  1.00  0.00     0.000 HD 
BRANCH  22  25
HETATM   25  C   UNL     1      -9.104   8.493  71.255  1.00  0.00    -0.196 C  
BRANCH  25  26
HETATM   26  N   UNL     1     -10.104   8.274  72.386  1.00  0.00    -0.290 N  
BRANCH  26  27
HETATM   27  C   UNL     1     -11.483   7.908  71.837  1.00  0.00    -0.280 C  
HETATM   28  C   UNL     1     -12.695   8.793  72.196  1.00  0.00    -0.461 C  
HETATM   29  C   UNL     1     -12.591  10.230  71.689  1.00  0.00    -0.534 C  
HETATM   30  C   UNL     1     -13.968   8.177  71.584  1.00  0.00    -0.463 C  
ENDBRANCH  26  27
BRANCH  26  31
HETATM   31  S   UNL     1      -9.479   7.041  73.480  1.00  0.00    -0.216 S  
HETATM   32  O   UNL     1      -8.316   7.563  74.154  1.00  0.00    -0.163 OA 
HETATM   33  O   UNL     1     -10.622   6.537  74.220  1.00  0.00    -0.269 OA 
BRANCH  31  34
HETATM   34  C   UNL     1      -8.918   5.725  72.402  1.00  0.00    -0.141 A  
HETATM   35  C   UNL     1      -7.126   4.549  71.284  1.00  0.00    -0.043 A  
HETATM   36  C   UNL     1      -7.553   5.537  72.185  1.00  0.00    -0.100 A  
HETATM   37  C   UNL     1      -8.045   3.777  70.564  1.00  0.00    -0.054 A  
HETATM   38  N   UNL     1      -7.609   2.729  69.752  1.00  0.00    -0.044 NA 
HETATM   39  C   UNL     1      -9.403   3.921  70.858  1.00  0.00    -0.222 A  
HETATM   40  H1  UNL     1      -8.279   2.166  69.228  1.00  0.00     0.000 HD 
HETATM   41  C   UNL     1      -9.847   4.899  71.759  1.00  0.00    -0.240 A  
HETATM   42  H2  UNL     1      -7.040   2.101  70.320  1.00  0.00     0.000 HD 
ENDBRANCH  31  34
ENDBRANCH  26  31
ENDBRANCH  25  26
ENDBRANCH  22  25
ENDBRANCH  14  22
ENDBRANCH  12  14
ENDBRANCH   9  10
ENDBRANCH   8   9
TORSDOF 11
ENDMDL
MODEL       90
REMARK 921   NORMALIZED FREE ENERGY PREDICTED BY IDOCK:   -5.92 KCAL/MOL
REMARK 922        TOTAL FREE ENERGY PREDICTED BY IDOCK:  -12.35 KCAL/MOL
REMARK 923 INTER-LIGAND FREE ENERGY PREDICTED BY IDOCK:  -11.21 KCAL/MOL
REMARK 924 INTRA-LIGAND FREE ENERGY PREDICTED BY IDOCK:   -1.14 KCAL/MOL
REMARK 927      BINDING AFFINITY PREDICTED BY RF-SCORE:    0.00 PKD
ROOT
HETATM    1  C   UNL     1      -8.549   9.845  65.272  1.00  0.00    -0.168 C  
HETATM    2  C   UNL     1      -9.520  10.219  64.167  1.00  0.00    -0.358 C  
HETATM    3  C   UNL     1      -9.089   9.384  62.976  1.00  0.00    -0.053 C  
HETATM    4  O   UNL     1      -8.030   8.525  63.394  1.00  0.00    -0.147 OA 
HETATM    5  C   UNL     1      -7.999   8.516  64.814  1.00  0.00    -0.143 C  
HETATM    6  O   UNL     1      -8.870   7.522  65.352  1.00  0.00    -0.059 OA 
HETATM    7  C   UNL     1      -9.385   8.028  66.588  1.00  0.00    -0.197 C  
HETATM    8  C   UNL     1      -9.138   9.536  66.636  1.00  0.00    -0.148 C  
ENDROOT
BRANCH   8   9
HETATM    9  O   UNL     1     -10.395  10.201  66.845  1.00  0.00    -0.224 OA 
BRANCH   9  10
HETATM   10  C   UNL     1     -10.331  11.464  67.333  1.00  0.00    -0.202 C  
HETATM   11  O   UNL     1      -9.441  11.897  68.044  1.00  0.00    -0.184 OA 
HETATM   12  N   UNL     1     -11.469  12.124  66.969  1.00  0.00    -0.342 N  
HETATM   13  H   UNL     1     -12.087  11.683  66.288  1.00  0.00     0.000 HD 
BRANCH  12  14
HETATM   14  C   UNL     1     -11.850  13.439  67.507  1.00  0.00    -0.366 C  
BRANCH  14  15
HETATM   15  C   UNL     1     -11.202  13.699  68.906  1.00  0.00    -0.309 C  
BRANCH  15  16
HETATM   16  C   UNL     1     -12.162  13.900  70.067  1.00  0.00    -0.408 A  
HETATM   17  C   UNL     1     -12.645  15.177  70.380  1.00  0.00    -0.405 A  
HETATM   18  C   UNL     1     -12.556  12.821  70.874  1.00  0.00    -0.342 A  
HETATM   19  C   UNL     1     -13.493  15.371  71.473  1.00  0.00    -0.601 A  
HETATM   20  C   UNL     1     -13.881  14.289  72.261  1.00  0.00    -0.622 A  
HETATM   21  C   UNL     1     -13.418  13.012  71.957  1.00  0.00    -0.584 A  
ENDBRANCH  15  16
ENDBRANCH  14  15
BRANCH  14  22
HETATM   22  C   UNL     1     -11.548  14.627  66.543  1.00  0.00    -0.344 C  
HETATM   23  O   UNL     1     -12.287  14.491  65.321  1.00  0.00    -0.370 OA 
HETATM   24  H   UNL     1     -12.103  15.215  64.733  1.00  0.00     0.000 HD 
BRANCH  22  25
HETATM   25  C   UNL     1     -10.072  14.970  66.259  1.00  0.00    -0.282 C  
BRANCH  25  26
HETATM   26  N   UNL     1      -9.348  15.974  67.151  1.00  0.00    -0.209 N  
BRANCH  26  27
HETATM   27  C   UNL     1      -7.852  16.006  66.840  1.00  0.00    -0.249 C  
HETATM   28  C   UNL     1      -6.843  15.684  67.963  1.00  0.00    -0.145 C  
HETATM   29  C   UNL     1      -6.959  14.267  68.519  1.00  0.00    -0.102 C  
HETATM   30  C   UNL     1      -5.412  15.853  67.418  1.00  0.00    -0.046 C  
ENDBRANCH  26  27
BRANCH  26  31
HETATM   31  S   UNL     1     -10.097  17.560  66.963  1.00  0.00    -0.336 S  
HETATM   32  O   UNL     1     -10.446  17.747  65.576  1.00  0.00    -0.646 OA 
HETATM   33  O   UNL     1     -11.089  17.668  68.017  1.00  0.00    -0.219 OA 
BRANCH  31  34
HETATM   34  C   UNL     1      -8.788  18.724  67.340  1.00  0.00    -0.270 A  
HETATM   35  C   UNL     1      -7.150  20.346  66.613  1.00  0.00    -0.306 A  
HETATM   36  C   UNL     1      -8.222  19.488  66.321  1.00  0.00    -0.354 A  
HETATM   37  C   UNL     1      -6.608  20.416  67.902  1.00  0.00    -0.292 A  
HETATM   38  N   UNL     1      -5.614  21.347  68.204  1.00  0.00    -0.410 NA 
HETATM   39  C   UNL     1      -7.242  19.707  68.925  1.00  0.00    -0.381 A  
HETATM   40  H1  UNL     1      -5.219  21.398  69.143  1.00  0.00     0.000 HD 
HETATM   41  C   UNL     1      -8.318  18.851  68.652  1.00  0.00    -0.384 A  
HETATM   42  H2  UNL     1      -5.957  22.274  67.951  1.00  0.00     0.000 HD 
ENDBRANCH  31  34
ENDBRANCH  26  31
ENDBRANCH  25  26
ENDBRANCH  22  25
ENDBRANCH  14  22
ENDBRANCH  12  14
ENDBRANCH   9  10
ENDBRANCH   8   9
TORSDOF 11
ENDMDL
MODEL       91
REMARK 921   NORMALIZED FREE ENERGY PREDICTED BY IDOCK:   -5.91 KCAL/MOL
REMARK 922        TOTAL FREE ENERGY PREDICTED BY IDOCK:  -12.34 KCAL/MOL
REMARK 923 INTER-LIGAND FREE ENERGY PREDICTED BY IDOCK:  -10.54 KCAL/MOL
REMARK 924 INTRA-LIGAND FREE ENERGY PREDICTED BY IDOCK:   -1.79 KCAL/MOL
REMARK 927      BINDING AFFINITY PREDICTED BY RF-SCORE:    0.00 PKD
ROOT
HETATM    1  C   UNL     1     -10.488  10.466  65.756  1.00  0.00    -0.187 C  
HETATM    2  C   UNL     1      -9.251   9.672  65.379  1.00  0.00    -0.295 C  
HETATM    3  C   UNL     1      -9.138   9.826  63.874  1.00  0.00    -0.233 C  
HETATM    4  O   UNL     1     -10.160  10.722  63.439  1.00  0.00    -0.331 OA 
HETATM    5  C   UNL     1     -10.675  11.394  64.580  1.00  0.00    -0.314 C  
HETATM    6  O   UNL     1      -9.925  12.570  64.881  1.00  0.00    -0.251 OA 
HETATM    7  C   UNL     1      -9.935  12.731  66.303  1.00  0.00    -0.264 C  
HETATM    8  C   UNL     1     -10.370  11.410  66.938  1.00  0.00    -0.227 C  
ENDROOT
BRANCH   8   9
HETATM    9  O   UNL     1      -9.356  10.990  67.866  1.00  0.00    -0.152 OA 
BRANCH   9  10
HETATM   10  C   UNL     1      -9.758  10.796  69.147  1.00  0.00    -0.163 C  
HETATM   11  O   UNL     1      -9.178  10.104  69.965  1.00  0.00    -0.166 OA 
HETATM   12  N   UNL     1     -10.955  11.427  69.324  1.00  0.00    -0.297 N  
HETATM   13  H   UNL     1     -11.282  12.057  68.591  1.00  0.00     0.000 HD 
BRANCH  12  14
HETATM   14  C   UNL     1     -11.798  11.247  70.516  1.00  0.00    -0.324 C  
BRANCH  14  15
HETATM   15  C   UNL     1     -13.022  12.219  70.507  1.00  0.00     0.237 C  
BRANCH  15  16
HETATM   16  C   UNL     1     -12.820  13.565  71.184  1.00  0.00    -0.387 A  
HETATM   17  C   UNL     1     -13.746  14.035  72.125  1.00  0.00    -0.603 A  
HETATM   18  C   UNL     1     -11.727  14.382  70.855  1.00  0.00    -0.281 A  
HETATM   19  C   UNL     1     -13.585  15.291  72.717  1.00  0.00    -0.611 A  
HETATM   20  C   UNL     1     -12.491  16.088  72.385  1.00  0.00    -0.549 A  
HETATM   21  C   UNL     1     -11.557  15.631  71.459  1.00  0.00    -0.507 A  
ENDBRANCH  15  16
ENDBRANCH  14  15
BRANCH  14  22
HETATM   22  C   UNL     1     -12.275   9.779  70.734  1.00  0.00    -0.256 C  
HETATM   23  O   UNL     1     -13.690   9.666  70.523  1.00  0.00    -0.555 OA 
HETATM   24  H   UNL     1     -13.981   8.772  70.656  1.00  0.00     0.000 HD 
BRANCH  22  25
HETATM   25  C   UNL     1     -11.854   9.068  72.036  1.00  0.00    -0.356 C  
BRANCH  25  26
HETATM   26  N   UNL     1     -10.808   7.959  71.984  1.00  0.00    -0.240 N  
BRANCH  26  27
HETATM   27  C   UNL     1      -9.922   7.981  73.229  1.00  0.00    -0.181 C  
HETATM   28  C   UNL     1      -8.509   7.363  73.158  1.00  0.00    -0.164 C  
HETATM   29  C   UNL     1      -7.575   8.053  72.166  1.00  0.00    -0.124 C  
HETATM   30  C   UNL     1      -7.852   7.447  74.549  1.00  0.00    -0.193 C  
ENDBRANCH  26  27
BRANCH  26  31
HETATM   31  S   UNL     1     -11.620   6.407  71.778  1.00  0.00    -0.316 S  
HETATM   32  O   UNL     1     -11.264   5.547  72.878  1.00  0.00    -0.278 OA 
HETATM   33  O   UNL     1     -13.005   6.712  71.469  1.00  0.00    -0.274 OA 
BRANCH  31  34
HETATM   34  C   UNL     1     -10.886   5.708  70.300  1.00  0.00    -0.266 A  
HETATM   35  C   UNL     1     -10.637   5.674  67.896  1.00  0.00    -0.266 A  
HETATM   36  C   UNL     1     -11.160   6.270  69.054  1.00  0.00    -0.446 A  
HETATM   37  C   UNL     1      -9.881   4.498  67.964  1.00  0.00    -0.092 A  
HETATM   38  N   UNL     1      -9.281   3.974  66.819  1.00  0.00    -0.152 NA 
HETATM   39  C   UNL     1      -9.547   3.999  69.225  1.00  0.00    -0.247 A  
HETATM   40  H1  UNL     1      -8.729   3.117  66.868  1.00  0.00     0.000 HD 
HETATM   41  C   UNL     1     -10.055   4.586  70.392  1.00  0.00    -0.229 A  
HETATM   42  H2  UNL     1      -8.701   4.702  66.400  1.00  0.00     0.000 HD 
ENDBRANCH  31  34
ENDBRANCH  26  31
ENDBRANCH  25  26
ENDBRANCH  22  25
ENDBRANCH  14  22
ENDBRANCH  12  14
ENDBRANCH   9  10
ENDBRANCH   8   9
TORSDOF 11
ENDMDL
MODEL       92
REMARK 921   NORMALIZED FREE ENERGY PREDICTED BY IDOCK:   -5.91 KCAL/MOL
REMARK 922        TOTAL FREE ENERGY PREDICTED BY IDOCK:  -12.33 KCAL/MOL
REMARK 923 INTER-LIGAND FREE ENERGY PREDICTED BY IDOCK:   -9.06 KCAL/MOL
REMARK 924 INTRA-LIGAND FREE ENERGY PREDICTED BY IDOCK:   -3.27 KCAL/MOL
REMARK 927      BINDING AFFINITY PREDICTED BY RF-SCORE:    0.00 PKD
ROOT
HETATM    1  C   UNL     1     -10.511  13.617  64.994  1.00  0.00    -0.406 C  
HETATM    2  C   UNL     1     -10.163  13.934  66.437  1.00  0.00    -0.292 C  
HETATM    3  C   UNL     1     -10.597  15.374  66.631  1.00  0.00    -0.306 C  
HETATM    4  O   UNL     1     -11.239  15.812  65.434  1.00  0.00    -0.254 OA 
HETATM    5  C   UNL     1     -11.538  14.667  64.647  1.00  0.00    -0.402 C  
HETATM    6  O   UNL     1     -12.805  14.109  64.992  1.00  0.00    -0.687 OA 
HETATM    7  C   UNL     1     -12.712  12.693  64.812  1.00  0.00    -0.379 C  
HETATM    8  C   UNL     1     -11.234  12.310  64.728  1.00  0.00    -0.318 C  
ENDROOT
BRANCH   8   9
HETATM    9  O   UNL     1     -10.957  11.323  65.735  1.00  0.00    -0.240 OA 
BRANCH   9  10
HETATM   10  C   UNL     1     -10.226  10.252  65.340  1.00  0.00    -0.242 C  
HETATM   11  O   UNL     1      -9.880  10.024  64.194  1.00  0.00    -0.257 OA 
HETATM   12  N   UNL     1     -10.033   9.440  66.420  1.00  0.00    -0.265 N  
HETATM   13  H   UNL     1     -10.286   9.794  67.343  1.00  0.00     0.000 HD 
BRANCH  12  14
HETATM   14  C   UNL     1      -9.480   8.080  66.323  1.00  0.00    -0.172 C  
BRANCH  14  15
HETATM   15  C   UNL     1      -7.927   8.076  66.508  1.00  0.00    -0.102 C  
BRANCH  15  16
HETATM   16  C   UNL     1      -7.104   8.517  65.309  1.00  0.00    -0.082 A  
HETATM   17  C   UNL     1      -6.522   9.791  65.275  1.00  0.00    -0.089 A  
HETATM   18  C   UNL     1      -6.939   7.677  64.197  1.00  0.00    -0.061 A  
HETATM   19  C   UNL     1      -5.800  10.215  64.156  1.00  0.00    -0.140 A  
HETATM   20  C   UNL     1      -5.639   9.367  63.062  1.00  0.00    -0.080 A  
HETATM   21  C   UNL     1      -6.202   8.094  63.085  1.00  0.00    -0.077 A  
ENDBRANCH  15  16
ENDBRANCH  14  15
BRANCH  14  22
HETATM   22  C   UNL     1     -10.142   7.059  67.297  1.00  0.00    -0.204 C  
HETATM   23  O   UNL     1     -11.534   6.893  66.992  1.00  0.00    -0.670 OA 
HETATM   24  H   UNL     1     -11.938   6.270  67.585  1.00  0.00     0.000 HD 
BRANCH  22  25
HETATM   25  C   UNL     1      -9.931   7.262  68.811  1.00  0.00    -0.166 C  
BRANCH  25  26
HETATM   26  N   UNL     1      -9.847   8.676  69.376  1.00  0.00    -0.180 N  
BRANCH  26  27
HETATM   27  C   UNL     1     -11.070   8.998  70.234  1.00  0.00    -0.235 C  
HETATM   28  C   UNL     1     -11.528  10.466  70.372  1.00  0.00    -0.420 C  
HETATM   29  C   UNL     1     -11.961  11.111  69.058  1.00  0.00    -0.389 C  
HETATM   30  C   UNL     1     -12.727  10.531  71.337  1.00  0.00    -0.547 C  
ENDBRANCH  26  27
BRANCH  26  31
HETATM   31  S   UNL     1      -8.342   8.851  70.278  1.00  0.00    -0.165 S  
HETATM   32  O   UNL     1      -8.647   9.332  71.602  1.00  0.00    -0.309 OA 
HETATM   33  O   UNL     1      -7.598   7.623  70.068  1.00  0.00    -0.083 OA 
BRANCH  31  34
HETATM   34  C   UNL     1      -7.459  10.160  69.431  1.00  0.00    -0.119 A  
HETATM   35  C   UNL     1      -7.472  12.195  68.125  1.00  0.00    -0.114 A  
HETATM   36  C   UNL     1      -8.166  11.211  68.847  1.00  0.00    -0.104 A  
HETATM   37  C   UNL     1      -6.087  12.118  67.942  1.00  0.00    -0.075 A  
HETATM   38  N   UNL     1      -5.395  13.155  67.314  1.00  0.00    -0.344 NA 
HETATM   39  C   UNL     1      -5.387  11.107  68.605  1.00  0.00    -0.043 A  
HETATM   40  H1  UNL     1      -4.386  13.099  67.181  1.00  0.00     0.000 HD 
HETATM   41  C   UNL     1      -6.064  10.120  69.335  1.00  0.00    -0.041 A  
HETATM   42  H2  UNL     1      -5.604  14.023  67.807  1.00  0.00     0.000 HD 
ENDBRANCH  31  34
ENDBRANCH  26  31
ENDBRANCH  25  26
ENDBRANCH  22  25
ENDBRANCH  14  22
ENDBRANCH  12  14
ENDBRANCH   9  10
ENDBRANCH   8   9
TORSDOF 11
ENDMDL
MODEL       93
REMARK 921   NORMALIZED FREE ENERGY PREDICTED BY IDOCK:   -5.91 KCAL/MOL
REMARK 922        TOTAL FREE ENERGY PREDICTED BY IDOCK:  -12.33 KCAL/MOL
REMARK 923 INTER-LIGAND FREE ENERGY PREDICTED BY IDOCK:   -9.88 KCAL/MOL
REMARK 924 INTRA-LIGAND FREE ENERGY PREDICTED BY IDOCK:   -2.45 KCAL/MOL
REMARK 927      BINDING AFFINITY PREDICTED BY RF-SCORE:    0.00 PKD
ROOT
HETATM    1  C   UNL     1     -10.215   6.566  71.629  1.00  0.00    -0.216 C  
HETATM    2  C   UNL     1      -9.817   5.266  70.955  1.00  0.00    -0.257 C  
HETATM    3  C   UNL     1     -10.103   4.193  71.988  1.00  0.00    -0.164 C  
HETATM    4  O   UNL     1     -10.715   4.814  73.118  1.00  0.00    -0.201 OA 
HETATM    5  C   UNL     1     -11.137   6.114  72.734  1.00  0.00    -0.259 C  
HETATM    6  O   UNL     1     -12.449   6.096  72.172  1.00  0.00    -0.262 OA 
HETATM    7  C   UNL     1     -12.500   7.118  71.172  1.00  0.00    -0.359 C  
HETATM    8  C   UNL     1     -11.069   7.529  70.824  1.00  0.00    -0.265 C  
ENDROOT
BRANCH   8   9
HETATM    9  O   UNL     1     -10.877   7.369  69.409  1.00  0.00    -0.232 OA 
BRANCH   9  10
HETATM   10  C   UNL     1     -10.256   8.390  68.768  1.00  0.00    -0.207 C  
HETATM   11  O   UNL     1      -9.070   8.422  68.486  1.00  0.00    -0.136 OA 
HETATM   12  N   UNL     1     -11.158   9.397  68.585  1.00  0.00    -0.463 N  
HETATM   13  H   UNL     1     -12.142   9.205  68.774  1.00  0.00     0.000 HD 
BRANCH  12  14
HETATM   14  C   UNL     1     -10.787  10.745  68.128  1.00  0.00    -0.236 C  
BRANCH  14  15
HETATM   15  C   UNL     1     -11.611  11.174  66.870  1.00  0.00     0.103 C  
BRANCH  15  16
HETATM   16  C   UNL     1     -10.904  11.059  65.529  1.00  0.00    -0.159 A  
HETATM   17  C   UNL     1      -9.847  10.156  65.356  1.00  0.00    -0.375 A  
HETATM   18  C   UNL     1     -11.267  11.879  64.448  1.00  0.00    -0.401 A  
HETATM   19  C   UNL     1      -9.168  10.079  64.138  1.00  0.00    -0.319 A  
HETATM   20  C   UNL     1      -9.544  10.894  63.072  1.00  0.00    -0.382 A  
HETATM   21  C   UNL     1     -10.598  11.789  63.224  1.00  0.00    -0.427 A  
ENDBRANCH  15  16
ENDBRANCH  14  15
BRANCH  14  22
HETATM   22  C   UNL     1     -10.887  11.837  69.236  1.00  0.00    -0.133 C  
HETATM   23  O   UNL     1     -11.272  11.256  70.490  1.00  0.00    -0.420 OA 
HETATM   24  H   UNL     1     -11.333  11.921  71.165  1.00  0.00     0.000 HD 
BRANCH  22  25
HETATM   25  C   UNL     1     -11.720  13.099  68.935  1.00  0.00    -0.326 C  
BRANCH  25  26
HETATM   26  N   UNL     1     -11.038  14.325  68.334  1.00  0.00    -0.246 N  
BRANCH  26  27
HETATM   27  C   UNL     1     -11.596  14.639  66.946  1.00  0.00    -0.362 C  
HETATM   28  C   UNL     1     -10.750  15.480  65.967  1.00  0.00    -0.331 C  
HETATM   29  C   UNL     1      -9.426  14.831  65.571  1.00  0.00    -0.015 C  
HETATM   30  C   UNL     1     -11.556  15.714  64.676  1.00  0.00    -0.249 C  
ENDBRANCH  26  27
BRANCH  26  31
HETATM   31  S   UNL     1     -11.216  15.686  69.442  1.00  0.00    -0.343 S  
HETATM   32  O   UNL     1     -12.474  16.339  69.178  1.00  0.00     0.122 OA 
HETATM   33  O   UNL     1     -10.884  15.181  70.762  1.00  0.00    -0.258 OA 
BRANCH  31  34
HETATM   34  C   UNL     1      -9.918  16.826  68.965  1.00  0.00    -0.272 A  
HETATM   35  C   UNL     1      -7.586  17.283  68.521  1.00  0.00    -0.251 A  
HETATM   36  C   UNL     1      -8.608  16.370  68.826  1.00  0.00    -0.250 A  
HETATM   37  C   UNL     1      -7.850  18.651  68.397  1.00  0.00    -0.319 A  
HETATM   38  N   UNL     1      -6.848  19.533  67.992  1.00  0.00    -0.245 NA 
HETATM   39  C   UNL     1      -9.179  19.077  68.456  1.00  0.00    -0.413 A  
HETATM   40  H1  UNL     1      -7.040  20.531  67.901  1.00  0.00     0.000 HD 
HETATM   41  C   UNL     1     -10.213  18.177  68.753  1.00  0.00    -0.353 A  
HETATM   42  H2  UNL     1      -6.468  19.200  67.105  1.00  0.00     0.000 HD 
ENDBRANCH  31  34
ENDBRANCH  26  31
ENDBRANCH  25  26
ENDBRANCH  22  25
ENDBRANCH  14  22
ENDBRANCH  12  14
ENDBRANCH   9  10
ENDBRANCH   8   9
TORSDOF 11
ENDMDL
MODEL       94
REMARK 921   NORMALIZED FREE ENERGY PREDICTED BY IDOCK:   -5.90 KCAL/MOL
REMARK 922        TOTAL FREE ENERGY PREDICTED BY IDOCK:  -12.32 KCAL/MOL
REMARK 923 INTER-LIGAND FREE ENERGY PREDICTED BY IDOCK:  -10.04 KCAL/MOL
REMARK 924 INTRA-LIGAND FREE ENERGY PREDICTED BY IDOCK:   -2.28 KCAL/MOL
REMARK 927      BINDING AFFINITY PREDICTED BY RF-SCORE:    0.00 PKD
ROOT
HETATM    1  C   UNL     1      -9.934   7.645  71.221  1.00  0.00    -0.195 C  
HETATM    2  C   UNL     1     -10.684   6.455  70.652  1.00  0.00    -0.310 C  
HETATM    3  C   UNL     1     -11.335   5.799  71.855  1.00  0.00    -0.204 C  
HETATM    4  O   UNL     1     -11.070   6.608  73.001  1.00  0.00    -0.255 OA 
HETATM    5  C   UNL     1     -10.604   7.872  72.553  1.00  0.00    -0.315 C  
HETATM    6  O   UNL     1     -11.684   8.772  72.305  1.00  0.00    -0.363 OA 
HETATM    7  C   UNL     1     -11.295   9.615  71.215  1.00  0.00    -0.388 C  
HETATM    8  C   UNL     1     -10.102   8.974  70.506  1.00  0.00    -0.215 C  
ENDROOT
BRANCH   8   9
HETATM    9  O   UNL     1     -10.430   8.804  69.118  1.00  0.00    -0.222 OA 
BRANCH   9  10
HETATM   10  C   UNL     1      -9.434   9.052  68.231  1.00  0.00    -0.146 C  
HETATM   11  O   UNL     1      -8.488   8.314  68.016  1.00  0.00    -0.130 OA 
HETATM   12  N   UNL     1      -9.627  10.296  67.703  1.00  0.00    -0.151 N  
HETATM   13  H   UNL     1     -10.511  10.768  67.890  1.00  0.00     0.000 HD 
BRANCH  12  14
HETATM   14  C   UNL     1      -8.626  10.990  66.878  1.00  0.00    -0.143 C  
BRANCH  14  15
HETATM   15  C   UNL     1      -8.843  10.714  65.355  1.00  0.00    -0.204 C  
BRANCH  15  16
HETATM   16  C   UNL     1      -7.992   9.613  64.741  1.00  0.00    -0.129 A  
HETATM   17  C   UNL     1      -8.588   8.446  64.245  1.00  0.00     0.044 A  
HETATM   18  C   UNL     1      -6.594   9.723  64.692  1.00  0.00    -0.112 A  
HETATM   19  C   UNL     1      -7.806   7.415  63.719  1.00  0.00    -0.108 A  
HETATM   20  C   UNL     1      -6.419   7.541  63.670  1.00  0.00    -0.053 A  
HETATM   21  C   UNL     1      -5.812   8.699  64.150  1.00  0.00    -0.066 A  
ENDBRANCH  15  16
ENDBRANCH  14  15
BRANCH  14  22
HETATM   22  C   UNL     1      -8.546  12.525  67.143  1.00  0.00    -0.200 C  
HETATM   23  O   UNL     1      -7.255  13.037  66.784  1.00  0.00    -0.310 OA 
HETATM   24  H   UNL     1      -7.206  13.972  66.944  1.00  0.00     0.000 HD 
BRANCH  22  25
HETATM   25  C   UNL     1      -8.978  13.043  68.529  1.00  0.00    -0.048 C  
BRANCH  25  26
HETATM   26  N   UNL     1      -9.980  14.189  68.625  1.00  0.00    -0.234 N  
BRANCH  26  27
HETATM   27  C   UNL     1      -9.950  15.052  67.364  1.00  0.00    -0.226 C  
HETATM   28  C   UNL     1     -10.342  16.542  67.462  1.00  0.00    -0.294 C  
HETATM   29  C   UNL     1      -9.427  17.370  68.361  1.00  0.00    -0.293 C  
HETATM   30  C   UNL     1     -10.298  17.168  66.055  1.00  0.00    -0.317 C  
ENDBRANCH  26  27
BRANCH  26  31
HETATM   31  S   UNL     1     -11.586  13.529  68.937  1.00  0.00    -0.346 S  
HETATM   32  O   UNL     1     -12.503  14.058  67.958  1.00  0.00    -0.110 OA 
HETATM   33  O   UNL     1     -11.409  12.100  69.118  1.00  0.00    -0.246 OA 
BRANCH  31  34
HETATM   34  C   UNL     1     -12.054  14.214  70.525  1.00  0.00    -0.350 A  
HETATM   35  C   UNL     1     -13.313  14.067  72.583  1.00  0.00    -0.643 A  
HETATM   36  C   UNL     1     -12.895  13.493  71.372  1.00  0.00    -0.440 A  
HETATM   37  C   UNL     1     -12.937  15.368  72.937  1.00  0.00    -0.470 A  
HETATM   38  N   UNL     1     -13.272  15.887  74.188  1.00  0.00    -0.805 NA 
HETATM   39  C   UNL     1     -12.028  16.040  72.117  1.00  0.00    -0.629 A  
HETATM   40  H1  UNL     1     -12.998  16.835  74.446  1.00  0.00     0.000 HD 
HETATM   41  C   UNL     1     -11.595  15.479  70.908  1.00  0.00    -0.410 A  
HETATM   42  H2  UNL     1     -12.922  15.249  74.903  1.00  0.00     0.000 HD 
ENDBRANCH  31  34
ENDBRANCH  26  31
ENDBRANCH  25  26
ENDBRANCH  22  25
ENDBRANCH  14  22
ENDBRANCH  12  14
ENDBRANCH   9  10
ENDBRANCH   8   9
TORSDOF 11
ENDMDL
MODEL       95
REMARK 921   NORMALIZED FREE ENERGY PREDICTED BY IDOCK:   -5.88 KCAL/MOL
REMARK 922        TOTAL FREE ENERGY PREDICTED BY IDOCK:  -12.29 KCAL/MOL
REMARK 923 INTER-LIGAND FREE ENERGY PREDICTED BY IDOCK:   -9.67 KCAL/MOL
REMARK 924 INTRA-LIGAND FREE ENERGY PREDICTED BY IDOCK:   -2.62 KCAL/MOL
REMARK 927      BINDING AFFINITY PREDICTED BY RF-SCORE:    0.00 PKD
ROOT
HETATM    1  C   UNL     1     -12.312  13.770  66.310  1.00  0.00    -0.479 C  
HETATM    2  C   UNL     1     -12.577  12.782  65.189  1.00  0.00    -0.513 C  
HETATM    3  C   UNL     1     -12.003  13.442  63.950  1.00  0.00    -0.465 C  
HETATM    4  O   UNL     1     -11.367  14.656  64.345  1.00  0.00    -0.323 OA 
HETATM    5  C   UNL     1     -11.204  14.632  65.756  1.00  0.00    -0.336 C  
HETATM    6  O   UNL     1      -9.983  13.998  66.133  1.00  0.00    -0.293 OA 
HETATM    7  C   UNL     1     -10.214  13.331  67.379  1.00  0.00    -0.229 C  
HETATM    8  C   UNL     1     -11.723  13.216  67.595  1.00  0.00    -0.369 C  
ENDROOT
BRANCH   8   9
HETATM    9  O   UNL     1     -12.056  11.832  67.790  1.00  0.00    -0.595 OA 
BRANCH   9  10
HETATM   10  C   UNL     1     -11.789  11.317  69.016  1.00  0.00    -0.352 C  
HETATM   11  O   UNL     1     -11.901  11.922  70.068  1.00  0.00    -0.323 OA 
HETATM   12  N   UNL     1     -11.293  10.056  68.856  1.00  0.00    -0.463 N  
HETATM   13  H   UNL     1     -11.346   9.630  67.931  1.00  0.00     0.000 HD 
BRANCH  12  14
HETATM   14  C   UNL     1     -10.686   9.280  69.947  1.00  0.00    -0.234 C  
BRANCH  14  15
HETATM   15  C   UNL     1     -11.382   7.891  70.123  1.00  0.00    -0.099 C  
BRANCH  15  16
HETATM   16  C   UNL     1     -11.128   7.170  71.437  1.00  0.00    -0.267 A  
HETATM   17  C   UNL     1     -10.667   7.873  72.557  1.00  0.00    -0.391 A  
HETATM   18  C   UNL     1     -11.312   5.783  71.548  1.00  0.00    -0.195 A  
HETATM   19  C   UNL     1     -10.392   7.206  73.754  1.00  0.00    -0.390 A  
HETATM   20  C   UNL     1     -10.585   5.829  73.851  1.00  0.00    -0.266 A  
HETATM   21  C   UNL     1     -11.053   5.118  72.749  1.00  0.00    -0.330 A  
ENDBRANCH  15  16
ENDBRANCH  14  15
BRANCH  14  22
HETATM   22  C   UNL     1      -9.143   9.096  69.809  1.00  0.00    -0.167 C  
HETATM   23  O   UNL     1      -8.442  10.047  70.622  1.00  0.00    -0.369 OA 
HETATM   24  H   UNL     1      -7.502   9.935  70.537  1.00  0.00     0.000 HD 
BRANCH  22  25
HETATM   25  C   UNL     1      -8.548   9.040  68.387  1.00  0.00    -0.130 C  
BRANCH  25  26
HETATM   26  N   UNL     1      -9.068   8.006  67.393  1.00  0.00    -0.133 N  
BRANCH  26  27
HETATM   27  C   UNL     1      -9.467   8.666  66.074  1.00  0.00    -0.208 C  
HETATM   28  C   UNL     1      -9.002  10.109  65.783  1.00  0.00    -0.187 C  
HETATM   29  C   UNL     1      -7.486  10.271  65.702  1.00  0.00    -0.149 C  
HETATM   30  C   UNL     1      -9.589  10.566  64.434  1.00  0.00    -0.357 C  
ENDBRANCH  26  27
BRANCH  26  31
HETATM   31  S   UNL     1      -7.845   6.757  67.165  1.00  0.00    -0.113 S  
HETATM   32  O   UNL     1      -8.065   6.119  65.890  1.00  0.00    -0.110 OA 
HETATM   33  O   UNL     1      -6.572   7.368  67.498  1.00  0.00    -0.057 OA 
BRANCH  31  34
HETATM   34  C   UNL     1      -8.201   5.541  68.432  1.00  0.00    -0.099 A  
HETATM   35  C   UNL     1      -7.808   4.636  70.639  1.00  0.00    -0.061 A  
HETATM   36  C   UNL     1      -7.578   5.631  69.676  1.00  0.00    -0.075 A  
HETATM   37  C   UNL     1      -8.618   3.529  70.358  1.00  0.00    -0.062 A  
HETATM   38  N   UNL     1      -8.923   2.602  71.356  1.00  0.00    -0.081 NA 
HETATM   39  C   UNL     1      -9.299   3.501  69.139  1.00  0.00    -0.242 A  
HETATM   40  H1  UNL     1      -9.513   1.796  71.151  1.00  0.00     0.000 HD 
HETATM   41  C   UNL     1      -9.086   4.490  68.169  1.00  0.00    -0.155 A  
HETATM   42  H2  UNL     1      -9.331   3.104  72.144  1.00  0.00     0.000 HD 
ENDBRANCH  31  34
ENDBRANCH  26  31
ENDBRANCH  25  26
ENDBRANCH  22  25
ENDBRANCH  14  22
ENDBRANCH  12  14
ENDBRANCH   9  10
ENDBRANCH   8   9
TORSDOF 11
ENDMDL
MODEL       96
REMARK 921   NORMALIZED FREE ENERGY PREDICTED BY IDOCK:   -5.87 KCAL/MOL
REMARK 922        TOTAL FREE ENERGY PREDICTED BY IDOCK:  -12.26 KCAL/MOL
REMARK 923 INTER-LIGAND FREE ENERGY PREDICTED BY IDOCK:  -10.36 KCAL/MOL
REMARK 924 INTRA-LIGAND FREE ENERGY PREDICTED BY IDOCK:   -1.91 KCAL/MOL
REMARK 927      BINDING AFFINITY PREDICTED BY RF-SCORE:    0.00 PKD
ROOT
HETATM    1  C   UNL     1      -9.123   4.568  64.930  1.00  0.00    -0.152 C  
HETATM    2  C   UNL     1      -9.435   3.330  65.750  1.00  0.00    -0.091 C  
HETATM    3  C   UNL     1      -8.693   2.207  65.051  1.00  0.00    -0.115 C  
HETATM    4  O   UNL     1      -7.931   2.773  63.985  1.00  0.00    -0.079 OA 
HETATM    5  C   UNL     1      -7.874   4.179  64.178  1.00  0.00    -0.085 C  
HETATM    6  O   UNL     1      -6.778   4.551  65.012  1.00  0.00    -0.046 OA 
HETATM    7  C   UNL     1      -7.184   5.698  65.765  1.00  0.00    -0.072 C  
HETATM    8  C   UNL     1      -8.707   5.814  65.690  1.00  0.00    -0.149 C  
ENDROOT
BRANCH   8   9
HETATM    9  O   UNL     1      -9.232   5.833  67.028  1.00  0.00    -0.116 OA 
BRANCH   9  10
HETATM   10  C   UNL     1     -10.194   6.754  67.282  1.00  0.00    -0.210 C  
HETATM   11  O   UNL     1     -11.380   6.615  67.035  1.00  0.00    -0.348 OA 
HETATM   12  N   UNL     1      -9.596   7.880  67.767  1.00  0.00    -0.144 N  
HETATM   13  H   UNL     1      -8.609   7.831  68.024  1.00  0.00     0.000 HD 
BRANCH  12  14
HETATM   14  C   UNL     1     -10.298   9.161  67.942  1.00  0.00    -0.232 C  
BRANCH  14  15
HETATM   15  C   UNL     1     -10.046   9.768  69.360  1.00  0.00    -0.221 C  
BRANCH  15  16
HETATM   16  C   UNL     1     -11.164   9.599  70.375  1.00  0.00    -0.342 A  
HETATM   17  C   UNL     1     -11.487   8.331  70.874  1.00  0.00    -0.296 A  
HETATM   18  C   UNL     1     -11.922  10.700  70.806  1.00  0.00    -0.477 A  
HETATM   19  C   UNL     1     -12.542   8.166  71.776  1.00  0.00    -0.360 A  
HETATM   20  C   UNL     1     -13.281   9.269  72.199  1.00  0.00    -0.535 A  
HETATM   21  C   UNL     1     -12.966  10.538  71.720  1.00  0.00    -0.582 A  
ENDBRANCH  15  16
ENDBRANCH  14  15
BRANCH  14  22
HETATM   22  C   UNL     1      -9.974  10.213  66.838  1.00  0.00    -0.207 C  
HETATM   23  O   UNL     1      -8.924   9.744  65.980  1.00  0.00    -0.144 OA 
HETATM   24  H   UNL     1      -8.726  10.385  65.307  1.00  0.00     0.000 HD 
BRANCH  22  25
HETATM   25  C   UNL     1      -9.716  11.668  67.280  1.00  0.00    -0.180 C  
BRANCH  25  26
HETATM   26  N   UNL     1     -10.352  12.815  66.501  1.00  0.00    -0.248 N  
BRANCH  26  27
HETATM   27  C   UNL     1     -11.445  12.303  65.564  1.00  0.00    -0.361 C  
HETATM   28  C   UNL     1     -11.309  12.546  64.046  1.00  0.00    -0.467 C  
HETATM   29  C   UNL     1     -10.093  11.874  63.412  1.00  0.00    -0.464 C  
HETATM   30  C   UNL     1     -12.562  12.001  63.334  1.00  0.00    -0.592 C  
ENDBRANCH  26  27
BRANCH  26  31
HETATM   31  S   UNL     1     -10.964  14.016  67.638  1.00  0.00    -0.275 S  
HETATM   32  O   UNL     1     -12.363  14.240  67.369  1.00  0.00    -0.311 OA 
HETATM   33  O   UNL     1     -10.500  13.607  68.951  1.00  0.00    -0.226 OA 
BRANCH  31  34
HETATM   34  C   UNL     1     -10.096  15.524  67.211  1.00  0.00    -0.250 A  
HETATM   35  C   UNL     1      -9.974  17.938  67.185  1.00  0.00    -0.327 A  
HETATM   36  C   UNL     1     -10.624  16.760  67.584  1.00  0.00    -0.325 A  
HETATM   37  C   UNL     1      -8.829  17.899  66.382  1.00  0.00    -0.228 A  
HETATM   38  N   UNL     1      -8.133  19.070  66.080  1.00  0.00    -0.461 NA 
HETATM   39  C   UNL     1      -8.268  16.653  66.090  1.00  0.00    -0.295 A  
HETATM   40  H1  UNL     1      -7.298  19.041  65.494  1.00  0.00     0.000 HD 
HETATM   41  C   UNL     1      -8.901  15.466  66.486  1.00  0.00    -0.347 A  
HETATM   42  H2  UNL     1      -7.892  19.533  66.956  1.00  0.00     0.000 HD 
ENDBRANCH  31  34
ENDBRANCH  26  31
ENDBRANCH  25  26
ENDBRANCH  22  25
ENDBRANCH  14  22
ENDBRANCH  12  14
ENDBRANCH   9  10
ENDBRANCH   8   9
TORSDOF 11
ENDMDL
MODEL       97
REMARK 921   NORMALIZED FREE ENERGY PREDICTED BY IDOCK:   -5.85 KCAL/MOL
REMARK 922        TOTAL FREE ENERGY PREDICTED BY IDOCK:  -12.24 KCAL/MOL
REMARK 923 INTER-LIGAND FREE ENERGY PREDICTED BY IDOCK:  -10.34 KCAL/MOL
REMARK 924 INTRA-LIGAND FREE ENERGY PREDICTED BY IDOCK:   -1.90 KCAL/MOL
REMARK 927      BINDING AFFINITY PREDICTED BY RF-SCORE:    0.00 PKD
ROOT
HETATM    1  C   UNL     1     -10.256   4.663  66.417  1.00  0.00    -0.293 C  
HETATM    2  C   UNL     1      -9.587   3.571  67.232  1.00  0.00    -0.166 C  
HETATM    3  C   UNL     1      -9.015   2.616  66.202  1.00  0.00    -0.137 C  
HETATM    4  O   UNL     1      -9.241   3.170  64.907  1.00  0.00    -0.137 OA 
HETATM    5  C   UNL     1      -9.599   4.535  65.064  1.00  0.00    -0.142 C  
HETATM    6  O   UNL     1      -8.448   5.378  65.103  1.00  0.00    -0.141 OA 
HETATM    7  C   UNL     1      -8.746   6.470  65.979  1.00  0.00    -0.148 C  
HETATM    8  C   UNL     1      -9.970   6.099  66.817  1.00  0.00    -0.172 C  
ENDROOT
BRANCH   8   9
HETATM    9  O   UNL     1      -9.626   6.214  68.208  1.00  0.00    -0.120 OA 
BRANCH   9  10
HETATM   10  C   UNL     1     -10.556   6.789  69.010  1.00  0.00    -0.230 C  
HETATM   11  O   UNL     1     -11.641   6.306  69.283  1.00  0.00    -0.363 OA 
HETATM   12  N   UNL     1     -10.107   8.025  69.374  1.00  0.00    -0.192 N  
HETATM   13  H   UNL     1      -9.139   8.269  69.163  1.00  0.00     0.000 HD 
BRANCH  12  14
HETATM   14  C   UNL     1     -10.944   9.025  70.055  1.00  0.00    -0.214 C  
BRANCH  14  15
HETATM   15  C   UNL     1     -10.348   9.427  71.443  1.00  0.00    -0.326 C  
BRANCH  15  16
HETATM   16  C   UNL     1     -10.119   8.296  72.433  1.00  0.00    -0.383 A  
HETATM   17  C   UNL     1      -8.890   8.163  73.091  1.00  0.00    -0.325 A  
HETATM   18  C   UNL     1     -11.117   7.340  72.681  1.00  0.00    -0.355 A  
HETATM   19  C   UNL     1      -8.662   7.100  73.969  1.00  0.00    -0.220 A  
HETATM   20  C   UNL     1      -9.665   6.163  74.211  1.00  0.00    -0.243 A  
HETATM   21  C   UNL     1     -10.896   6.287  73.573  1.00  0.00    -0.199 A  
ENDBRANCH  15  16
ENDBRANCH  14  15
BRANCH  14  22
HETATM   22  C   UNL     1     -11.229  10.297  69.200  1.00  0.00    -0.215 C  
HETATM   23  O   UNL     1     -12.640  10.528  69.085  1.00  0.00    -0.740 OA 
HETATM   24  H   UNL     1     -12.813  11.304  68.565  1.00  0.00     0.000 HD 
BRANCH  22  25
HETATM   25  C   UNL     1     -10.537  10.415  67.827  1.00  0.00    -0.250 C  
BRANCH  25  26
HETATM   26  N   UNL     1      -9.750  11.676  67.487  1.00  0.00    -0.176 N  
BRANCH  26  27
HETATM   27  C   UNL     1      -8.618  11.369  66.506  1.00  0.00    -0.175 C  
HETATM   28  C   UNL     1      -8.756  10.164  65.551  1.00  0.00    -0.173 C  
HETATM   29  C   UNL     1      -9.922  10.275  64.571  1.00  0.00    -0.359 C  
HETATM   30  C   UNL     1      -7.465  10.028  64.722  1.00  0.00    -0.143 C  
ENDBRANCH  26  27
BRANCH  26  31
HETATM   31  S   UNL     1     -10.856  12.897  66.859  1.00  0.00    -0.261 S  
HETATM   32  O   UNL     1     -10.196  13.624  65.804  1.00  0.00    -0.293 OA 
HETATM   33  O   UNL     1     -12.123  12.223  66.640  1.00  0.00    -0.612 OA 
BRANCH  31  34
HETATM   34  C   UNL     1     -11.088  14.037  68.222  1.00  0.00    -0.254 A  
HETATM   35  C   UNL     1     -10.372  15.971  69.484  1.00  0.00    -0.278 A  
HETATM   36  C   UNL     1     -10.226  15.123  68.375  1.00  0.00    -0.221 A  
HETATM   37  C   UNL     1     -11.339  15.723  70.465  1.00  0.00    -0.380 A  
HETATM   38  N   UNL     1     -11.543  16.629  71.506  1.00  0.00    -0.536 NA 
HETATM   39  C   UNL     1     -12.246  14.682  70.250  1.00  0.00    -0.389 A  
HETATM   40  H1  UNL     1     -12.248  16.448  72.220  1.00  0.00     0.000 HD 
HETATM   41  C   UNL     1     -12.119  13.830  69.145  1.00  0.00    -0.374 A  
HETATM   42  H2  UNL     1     -11.729  17.546  71.099  1.00  0.00     0.000 HD 
ENDBRANCH  31  34
ENDBRANCH  26  31
ENDBRANCH  25  26
ENDBRANCH  22  25
ENDBRANCH  14  22
ENDBRANCH  12  14
ENDBRANCH   9  10
ENDBRANCH   8   9
TORSDOF 11
ENDMDL
MODEL       98
REMARK 921   NORMALIZED FREE ENERGY PREDICTED BY IDOCK:   -5.84 KCAL/MOL
REMARK 922        TOTAL FREE ENERGY PREDICTED BY IDOCK:  -12.22 KCAL/MOL
REMARK 923 INTER-LIGAND FREE ENERGY PREDICTED BY IDOCK:  -10.48 KCAL/MOL
REMARK 924 INTRA-LIGAND FREE ENERGY PREDICTED BY IDOCK:   -1.75 KCAL/MOL
REMARK 927      BINDING AFFINITY PREDICTED BY RF-SCORE:    0.00 PKD
ROOT
HETATM    1  C   UNL     1      -9.134   8.345  65.460  1.00  0.00    -0.108 C  
HETATM    2  C   UNL     1      -9.983   8.110  66.696  1.00  0.00    -0.339 C  
HETATM    3  C   UNL     1      -9.099   7.300  67.624  1.00  0.00    -0.124 C  
HETATM    4  O   UNL     1      -7.813   7.174  67.017  1.00  0.00    -0.105 OA 
HETATM    5  C   UNL     1      -7.728   8.118  65.960  1.00  0.00    -0.090 C  
HETATM    6  O   UNL     1      -7.264   9.386  66.423  1.00  0.00    -0.087 OA 
HETATM    7  C   UNL     1      -7.901  10.391  65.629  1.00  0.00    -0.154 C  
HETATM    8  C   UNL     1      -9.092   9.758  64.909  1.00  0.00    -0.229 C  
ENDROOT
BRANCH   8   9
HETATM    9  O   UNL     1     -10.277  10.503  65.237  1.00  0.00    -0.298 OA 
BRANCH   9  10
HETATM   10  C   UNL     1     -10.169  11.854  65.188  1.00  0.00    -0.277 C  
HETATM   11  O   UNL     1     -10.038  12.509  64.169  1.00  0.00    -0.337 OA 
HETATM   12  N   UNL     1     -10.140  12.331  66.466  1.00  0.00    -0.212 N  
HETATM   13  H   UNL     1     -10.362  11.689  67.227  1.00  0.00     0.000 HD 
BRANCH  12  14
HETATM   14  C   UNL     1      -9.806  13.723  66.804  1.00  0.00    -0.275 C  
BRANCH  14  15
HETATM   15  C   UNL     1     -10.305  14.718  65.706  1.00  0.00    -0.358 C  
BRANCH  15  16
HETATM   16  C   UNL     1      -9.874  16.167  65.863  1.00  0.00    -0.384 A  
HETATM   17  C   UNL     1      -8.531  16.489  66.100  1.00  0.00    -0.320 A  
HETATM   18  C   UNL     1     -10.813  17.210  65.811  1.00  0.00    -0.039 A  
HETATM   19  C   UNL     1      -8.139  17.817  66.287  1.00  0.00    -0.269 A  
HETATM   20  C   UNL     1      -9.081  18.843  66.226  1.00  0.00    -0.269 A  
HETATM   21  C   UNL     1     -10.418  18.540  65.981  1.00  0.00    -0.433 A  
ENDBRANCH  15  16
ENDBRANCH  14  15
BRANCH  14  22
HETATM   22  C   UNL     1     -10.314  14.170  68.209  1.00  0.00    -0.245 C  
HETATM   23  O   UNL     1      -9.287  14.009  69.197  1.00  0.00    -0.396 OA 
HETATM   24  H   UNL     1      -9.597  14.282  70.053  1.00  0.00     0.000 HD 
BRANCH  22  25
HETATM   25  C   UNL     1     -11.655  13.596  68.709  1.00  0.00    -0.324 C  
BRANCH  25  26
HETATM   26  N   UNL     1     -11.709  12.865  70.046  1.00  0.00    -0.261 N  
BRANCH  26  27
HETATM   27  C   UNL     1     -12.712  13.524  70.992  1.00  0.00    -0.322 C  
HETATM   28  C   UNL     1     -12.213  14.581  72.000  1.00  0.00    -0.329 C  
HETATM   29  C   UNL     1     -11.616  15.828  71.352  1.00  0.00    -0.511 C  
HETATM   30  C   UNL     1     -13.394  15.037  72.878  1.00  0.00    -0.585 C  
ENDBRANCH  26  27
BRANCH  26  31
HETATM   31  S   UNL     1     -12.085  11.166  69.762  1.00  0.00    -0.335 S  
HETATM   32  O   UNL     1     -13.093  10.748  70.705  1.00  0.00    -0.308 OA 
HETATM   33  O   UNL     1     -12.282  11.027  68.330  1.00  0.00    -0.586 OA 
BRANCH  31  34
HETATM   34  C   UNL     1     -10.577  10.294  70.179  1.00  0.00    -0.246 A  
HETATM   35  C   UNL     1      -9.346   8.813  71.641  1.00  0.00    -0.345 A  
HETATM   36  C   UNL     1     -10.550   9.437  71.279  1.00  0.00    -0.400 A  
HETATM   37  C   UNL     1      -8.159   9.068  70.944  1.00  0.00    -0.169 A  
HETATM   38  N   UNL     1      -6.994   8.363  71.246  1.00  0.00    -0.061 NA 
HETATM   39  C   UNL     1      -8.224   9.861  69.796  1.00  0.00    -0.191 A  
HETATM   40  H1  UNL     1      -6.128   8.549  70.739  1.00  0.00     0.000 HD 
HETATM   41  C   UNL     1      -9.419  10.487  69.417  1.00  0.00    -0.158 A  
HETATM   42  H2  UNL     1      -7.196   7.366  71.176  1.00  0.00     0.000 HD 
ENDBRANCH  31  34
ENDBRANCH  26  31
ENDBRANCH  25  26
ENDBRANCH  22  25
ENDBRANCH  14  22
ENDBRANCH  12  14
ENDBRANCH   9  10
ENDBRANCH   8   9
TORSDOF 11
ENDMDL
MODEL       99
REMARK 921   NORMALIZED FREE ENERGY PREDICTED BY IDOCK:   -5.83 KCAL/MOL
REMARK 922        TOTAL FREE ENERGY PREDICTED BY IDOCK:  -12.21 KCAL/MOL
REMARK 923 INTER-LIGAND FREE ENERGY PREDICTED BY IDOCK:  -10.16 KCAL/MOL
REMARK 924 INTRA-LIGAND FREE ENERGY PREDICTED BY IDOCK:   -2.05 KCAL/MOL
REMARK 927      BINDING AFFINITY PREDICTED BY RF-SCORE:    0.00 PKD
ROOT
HETATM    1  C   UNL     1     -10.231  16.373  67.111  1.00  0.00    -0.282 C  
HETATM    2  C   UNL     1      -8.854  15.768  66.911  1.00  0.00    -0.273 C  
HETATM    3  C   UNL     1      -8.048  16.860  66.234  1.00  0.00    -0.316 C  
HETATM    4  O   UNL     1      -8.862  18.030  66.153  1.00  0.00    -0.461 OA 
HETATM    5  C   UNL     1      -9.974  17.857  67.020  1.00  0.00    -0.324 C  
HETATM    6  O   UNL     1      -9.677  18.289  68.348  1.00  0.00    -0.321 OA 
HETATM    7  C   UNL     1     -10.407  17.446  69.245  1.00  0.00    -0.212 C  
HETATM    8  C   UNL     1     -10.867  16.205  68.479  1.00  0.00    -0.313 C  
ENDROOT
BRANCH   8   9
HETATM    9  O   UNL     1     -10.382  15.037  69.162  1.00  0.00    -0.234 OA 
BRANCH   9  10
HETATM   10  C   UNL     1     -11.173  13.938  69.109  1.00  0.00    -0.269 C  
HETATM   11  O   UNL     1     -12.239  13.813  69.687  1.00  0.00    -0.332 OA 
HETATM   12  N   UNL     1     -10.530  12.979  68.381  1.00  0.00    -0.248 N  
HETATM   13  H   UNL     1      -9.691  13.245  67.866  1.00  0.00     0.000 HD 
BRANCH  12  14
HETATM   14  C   UNL     1     -10.984  11.582  68.301  1.00  0.00    -0.224 C  
BRANCH  14  15
HETATM   15  C   UNL     1     -10.819  11.005  66.857  1.00  0.00    -0.324 C  
BRANCH  15  16
HETATM   16  C   UNL     1     -11.307  11.886  65.718  1.00  0.00    -0.354 A  
HETATM   17  C   UNL     1     -10.859  11.669  64.409  1.00  0.00    -0.399 A  
HETATM   18  C   UNL     1     -12.183  12.957  65.957  1.00  0.00    -0.431 A  
HETATM   19  C   UNL     1     -11.272  12.503  63.367  1.00  0.00    -0.460 A  
HETATM   20  C   UNL     1     -12.148  13.558  63.618  1.00  0.00    -0.459 A  
HETATM   21  C   UNL     1     -12.610  13.781  64.912  1.00  0.00    -0.380 A  
ENDBRANCH  15  16
ENDBRANCH  14  15
BRANCH  14  22
HETATM   22  C   UNL     1     -10.306  10.638  69.340  1.00  0.00    -0.208 C  
HETATM   23  O   UNL     1      -8.937  11.009  69.548  1.00  0.00    -0.386 OA 
HETATM   24  H   UNL     1      -8.524  10.434  70.182  1.00  0.00     0.000 HD 
BRANCH  22  25
HETATM   25  C   UNL     1     -10.439   9.116  69.128  1.00  0.00    -0.217 C  
BRANCH  25  26
HETATM   26  N   UNL     1      -9.185   8.274  68.913  1.00  0.00    -0.147 N  
BRANCH  26  27
HETATM   27  C   UNL     1      -8.981   7.289  70.063  1.00  0.00    -0.142 C  
HETATM   28  C   UNL     1     -10.169   6.961  70.993  1.00  0.00    -0.213 C  
HETATM   29  C   UNL     1     -11.347   6.291  70.288  1.00  0.00    -0.457 C  
HETATM   30  C   UNL     1      -9.692   6.006  72.104  1.00  0.00    -0.171 C  
ENDBRANCH  26  27
BRANCH  26  31
HETATM   31  S   UNL     1      -9.297   7.458  67.354  1.00  0.00    -0.136 S  
HETATM   32  O   UNL     1      -8.587   6.206  67.433  1.00  0.00    -0.108 OA 
HETATM   33  O   UNL     1     -10.695   7.515  66.965  1.00  0.00    -0.346 OA 
BRANCH  31  34
HETATM   34  C   UNL     1      -8.387   8.512  66.227  1.00  0.00    -0.116 A  
HETATM   35  C   UNL     1      -7.924   9.274  63.980  1.00  0.00    -0.137 A  
HETATM   36  C   UNL     1      -8.688   8.498  64.865  1.00  0.00    -0.090 A  
HETATM   37  C   UNL     1      -6.835  10.029  64.432  1.00  0.00    -0.127 A  
HETATM   38  N   UNL     1      -6.149  10.877  63.561  1.00  0.00    -0.346 NA 
HETATM   39  C   UNL     1      -6.603  10.097  65.808  1.00  0.00    -0.109 A  
HETATM   40  H1  UNL     1      -5.356  11.427  63.890  1.00  0.00     0.000 HD 
HETATM   41  C   UNL     1      -7.361   9.333  66.706  1.00  0.00    -0.086 A  
HETATM   42  H2  UNL     1      -6.824  11.513  63.137  1.00  0.00     0.000 HD 
ENDBRANCH  31  34
ENDBRANCH  26  31
ENDBRANCH  25  26
ENDBRANCH  22  25
ENDBRANCH  14  22
ENDBRANCH  12  14
ENDBRANCH   9  10
ENDBRANCH   8   9
TORSDOF 11
ENDMDL
MODEL      100
REMARK 921   NORMALIZED FREE ENERGY PREDICTED BY IDOCK:   -5.83 KCAL/MOL
REMARK 922        TOTAL FREE ENERGY PREDICTED BY IDOCK:  -12.20 KCAL/MOL
REMARK 923 INTER-LIGAND FREE ENERGY PREDICTED BY IDOCK:  -10.76 KCAL/MOL
REMARK 924 INTRA-LIGAND FREE ENERGY PREDICTED BY IDOCK:   -1.44 KCAL/MOL
REMARK 927      BINDING AFFINITY PREDICTED BY RF-SCORE:    0.00 PKD
ROOT
HETATM    1  C   UNL     1      -9.864   6.787  71.982  1.00  0.00    -0.166 C  
HETATM    2  C   UNL     1     -10.370   5.419  71.562  1.00  0.00    -0.289 C  
HETATM    3  C   UNL     1     -10.795   4.751  72.856  1.00  0.00    -0.237 C  
HETATM    4  O   UNL     1     -10.648   5.696  73.914  1.00  0.00    -0.262 OA 
HETATM    5  C   UNL     1     -10.493   6.986  73.339  1.00  0.00    -0.347 C  
HETATM    6  O   UNL     1     -11.754   7.611  73.104  1.00  0.00    -0.176 OA 
HETATM    7  C   UNL     1     -11.619   8.416  71.928  1.00  0.00    -0.329 C  
HETATM    8  C   UNL     1     -10.356   7.981  71.184  1.00  0.00    -0.197 C  
ENDROOT
BRANCH   8   9
HETATM    9  O   UNL     1     -10.717   7.622  69.840  1.00  0.00    -0.245 OA 
BRANCH   9  10
HETATM   10  C   UNL     1     -10.119   8.329  68.849  1.00  0.00    -0.199 C  
HETATM   11  O   UNL     1      -9.056   8.039  68.326  1.00  0.00    -0.136 OA 
HETATM   12  N   UNL     1     -10.857   9.451  68.614  1.00  0.00    -0.407 N  
HETATM   13  H   UNL     1     -11.778   9.524  69.047  1.00  0.00     0.000 HD 
BRANCH  12  14
HETATM   14  C   UNL     1     -10.396  10.563  67.767  1.00  0.00    -0.212 C  
BRANCH  14  15
HETATM   15  C   UNL     1     -10.994  10.474  66.325  1.00  0.00     0.031 C  
BRANCH  15  16
HETATM   16  C   UNL     1      -9.994  10.391  65.183  1.00  0.00    -0.390 A  
HETATM   17  C   UNL     1      -8.724   9.837  65.389  1.00  0.00    -0.176 A  
HETATM   18  C   UNL     1     -10.304  10.900  63.912  1.00  0.00    -0.397 A  
HETATM   19  C   UNL     1      -7.787   9.798  64.353  1.00  0.00    -0.137 A  
HETATM   20  C   UNL     1      -8.111  10.301  63.094  1.00  0.00    -0.158 A  
HETATM   21  C   UNL     1      -9.373  10.845  62.871  1.00  0.00    -0.367 A  
ENDBRANCH  15  16
ENDBRANCH  14  15
BRANCH  14  22
HETATM   22  C   UNL     1     -10.663  11.973  68.376  1.00  0.00    -0.229 C  
HETATM   23  O   UNL     1     -10.942  11.876  69.780  1.00  0.00    -0.467 OA 
HETATM   24  H   UNL     1     -11.104  12.735  70.152  1.00  0.00     0.000 HD 
BRANCH  22  25
HETATM   25  C   UNL     1     -11.689  12.883  67.671  1.00  0.00    -0.370 C  
BRANCH  25  26
HETATM   26  N   UNL     1     -11.369  14.360  67.468  1.00  0.00    -0.312 N  
BRANCH  26  27
HETATM   27  C   UNL     1     -10.893  15.003  68.770  1.00  0.00    -0.249 C  
HETATM   28  C   UNL     1     -11.940  15.540  69.770  1.00  0.00    -0.384 C  
HETATM   29  C   UNL     1     -12.867  14.469  70.338  1.00  0.00    -0.315 C  
HETATM   30  C   UNL     1     -11.211  16.198  70.958  1.00  0.00    -0.297 C  
ENDBRANCH  26  27
BRANCH  26  31
HETATM   31  S   UNL     1     -10.179  14.522  66.177  1.00  0.00    -0.320 S  
HETATM   32  O   UNL     1      -9.012  13.749  66.521  1.00  0.00    -0.179 OA 
HETATM   33  O   UNL     1     -10.896  14.302  64.934  1.00  0.00    -0.373 OA 
BRANCH  31  34
HETATM   34  C   UNL     1      -9.701  16.248  66.219  1.00  0.00    -0.304 A  
HETATM   35  C   UNL     1      -8.023  17.952  66.579  1.00  0.00    -0.303 A  
HETATM   36  C   UNL     1      -8.375  16.597  66.478  1.00  0.00    -0.322 A  
HETATM   37  C   UNL     1      -8.987  18.961  66.468  1.00  0.00    -0.323 A  
HETATM   38  N   UNL     1      -8.609  20.304  66.465  1.00  0.00    -0.523 NA 
HETATM   39  C   UNL     1     -10.291  18.596  66.125  1.00  0.00    -0.481 A  
HETATM   40  H1  UNL     1      -9.311  21.040  66.384  1.00  0.00     0.000 HD 
HETATM   41  C   UNL     1     -10.658  17.248  66.014  1.00  0.00    -0.217 A  
HETATM   42  H2  UNL     1      -7.918  20.441  65.727  1.00  0.00     0.000 HD 
ENDBRANCH  31  34
ENDBRANCH  26  31
ENDBRANCH  25  26
ENDBRANCH  22  25
ENDBRANCH  14  22
ENDBRANCH  12  14
ENDBRANCH   9  10
ENDBRANCH   8   9
TORSDOF 11
ENDMDL
MODEL      101
REMARK 921   NORMALIZED FREE ENERGY PREDICTED BY IDOCK:   -5.82 KCAL/MOL
REMARK 922        TOTAL FREE ENERGY PREDICTED BY IDOCK:  -12.19 KCAL/MOL
REMARK 923 INTER-LIGAND FREE ENERGY PREDICTED BY IDOCK:   -9.81 KCAL/MOL
REMARK 924 INTRA-LIGAND FREE ENERGY PREDICTED BY IDOCK:   -2.39 KCAL/MOL
REMARK 927      BINDING AFFINITY PREDICTED BY RF-SCORE:    0.00 PKD
ROOT
HETATM    1  C   UNL     1     -10.394  13.194  65.112  1.00  0.00    -0.326 C  
HETATM    2  C   UNL     1     -10.957  12.797  66.464  1.00  0.00    -0.291 C  
HETATM    3  C   UNL     1     -11.612  14.058  66.994  1.00  0.00    -0.371 C  
HETATM    4  O   UNL     1     -11.527  15.062  65.984  1.00  0.00    -0.321 OA 
HETATM    5  C   UNL     1     -11.181  14.432  64.760  1.00  0.00    -0.387 C  
HETATM    6  O   UNL     1     -12.338  13.979  64.057  1.00  0.00    -0.646 OA 
HETATM    7  C   UNL     1     -11.973  12.784  63.359  1.00  0.00    -0.535 C  
HETATM    8  C   UNL     1     -10.665  12.257  63.949  1.00  0.00    -0.420 C  
ENDROOT
BRANCH   8   9
HETATM    9  O   UNL     1     -10.869  10.902  64.381  1.00  0.00    -0.299 OA 
BRANCH   9  10
HETATM   10  C   UNL     1      -9.772  10.105  64.396  1.00  0.00    -0.277 C  
HETATM   11  O   UNL     1      -8.920  10.070  63.525  1.00  0.00    -0.215 OA 
HETATM   12  N   UNL     1      -9.841   9.296  65.493  1.00  0.00    -0.452 N  
HETATM   13  H   UNL     1     -10.552   9.496  66.197  1.00  0.00     0.000 HD 
BRANCH  12  14
HETATM   14  C   UNL     1      -8.944   8.152  65.715  1.00  0.00    -0.119 C  
BRANCH  14  15
HETATM   15  C   UNL     1      -7.622   8.586  66.428  1.00  0.00    -0.091 C  
BRANCH  15  16
HETATM   16  C   UNL     1      -7.631   9.955  67.089  1.00  0.00    -0.092 A  
HETATM   17  C   UNL     1      -6.901  11.016  66.538  1.00  0.00    -0.132 A  
HETATM   18  C   UNL     1      -8.335  10.177  68.283  1.00  0.00    -0.115 A  
HETATM   19  C   UNL     1      -6.872  12.264  67.166  1.00  0.00    -0.101 A  
HETATM   20  C   UNL     1      -7.582  12.471  68.348  1.00  0.00    -0.129 A  
HETATM   21  C   UNL     1      -8.320  11.429  68.903  1.00  0.00    -0.042 A  
ENDBRANCH  15  16
ENDBRANCH  14  15
BRANCH  14  22
HETATM   22  C   UNL     1      -9.608   6.969  66.482  1.00  0.00    -0.144 C  
HETATM   23  O   UNL     1     -10.999   7.232  66.719  1.00  0.00    -0.521 OA 
HETATM   24  H   UNL     1     -11.404   6.511  67.187  1.00  0.00     0.000 HD 
BRANCH  22  25
HETATM   25  C   UNL     1      -8.918   6.460  67.764  1.00  0.00    -0.113 C  
BRANCH  25  26
HETATM   26  N   UNL     1      -9.758   5.845  68.878  1.00  0.00    -0.130 N  
BRANCH  26  27
HETATM   27  C   UNL     1      -9.685   4.318  68.842  1.00  0.00    -0.125 C  
HETATM   28  C   UNL     1      -8.480   3.638  68.157  1.00  0.00    -0.108 C  
HETATM   29  C   UNL     1      -7.136   3.944  68.813  1.00  0.00    -0.051 C  
HETATM   30  C   UNL     1      -8.677   2.111  68.191  1.00  0.00    -0.126 C  
ENDBRANCH  26  27
BRANCH  26  31
HETATM   31  S   UNL     1      -9.229   6.495  70.429  1.00  0.00    -0.155 S  
HETATM   32  O   UNL     1      -9.121   5.413  71.375  1.00  0.00    -0.142 OA 
HETATM   33  O   UNL     1      -8.104   7.367  70.141  1.00  0.00    -0.125 OA 
BRANCH  31  34
HETATM   34  C   UNL     1     -10.585   7.535  70.968  1.00  0.00    -0.221 A  
HETATM   35  C   UNL     1     -11.445   9.711  71.579  1.00  0.00    -0.439 A  
HETATM   36  C   UNL     1     -10.399   8.912  71.089  1.00  0.00    -0.338 A  
HETATM   37  C   UNL     1     -12.657   9.145  71.990  1.00  0.00    -0.390 A  
HETATM   38  N   UNL     1     -13.724   9.957  72.375  1.00  0.00    -0.594 NA 
HETATM   39  C   UNL     1     -12.854   7.778  71.781  1.00  0.00    -0.352 A  
HETATM   40  H1  UNL     1     -14.608   9.545  72.675  1.00  0.00     0.000 HD 
HETATM   41  C   UNL     1     -11.822   6.967  71.288  1.00  0.00    -0.371 A  
HETATM   42  H2  UNL     1     -13.919  10.611  71.617  1.00  0.00     0.000 HD 
ENDBRANCH  31  34
ENDBRANCH  26  31
ENDBRANCH  25  26
ENDBRANCH  22  25
ENDBRANCH  14  22
ENDBRANCH  12  14
ENDBRANCH   9  10
ENDBRANCH   8   9
TORSDOF 11
ENDMDL
MODEL      102
REMARK 921   NORMALIZED FREE ENERGY PREDICTED BY IDOCK:   -5.82 KCAL/MOL
REMARK 922        TOTAL FREE ENERGY PREDICTED BY IDOCK:  -12.19 KCAL/MOL
REMARK 923 INTER-LIGAND FREE ENERGY PREDICTED BY IDOCK:  -10.37 KCAL/MOL
REMARK 924 INTRA-LIGAND FREE ENERGY PREDICTED BY IDOCK:   -1.82 KCAL/MOL
REMARK 927      BINDING AFFINITY PREDICTED BY RF-SCORE:    0.00 PKD
ROOT
HETATM    1  C   UNL     1     -10.328  17.977  68.148  1.00  0.00    -0.398 C  
HETATM    2  C   UNL     1     -10.614  17.829  66.664  1.00  0.00    -0.224 C  
HETATM    3  C   UNL     1     -10.394  19.215  66.089  1.00  0.00    -0.484 C  
HETATM    4  O   UNL     1      -9.916  20.061  67.134  1.00  0.00    -0.386 OA 
HETATM    5  C   UNL     1      -9.502  19.239  68.216  1.00  0.00    -0.359 C  
HETATM    6  O   UNL     1      -8.142  18.830  68.075  1.00  0.00    -0.268 OA 
HETATM    7  C   UNL     1      -8.029  17.519  68.639  1.00  0.00    -0.268 C  
HETATM    8  C   UNL     1      -9.433  16.931  68.787  1.00  0.00    -0.264 C  
ENDROOT
BRANCH   8   9
HETATM    9  O   UNL     1      -9.481  15.677  68.087  1.00  0.00    -0.193 OA 
BRANCH   9  10
HETATM   10  C   UNL     1     -10.264  14.714  68.633  1.00  0.00    -0.244 C  
HETATM   11  O   UNL     1     -11.081  14.896  69.519  1.00  0.00    -0.260 OA 
HETATM   12  N   UNL     1      -9.913  13.513  68.090  1.00  0.00    -0.234 N  
HETATM   13  H   UNL     1      -9.286  13.511  67.285  1.00  0.00     0.000 HD 
BRANCH  12  14
HETATM   14  C   UNL     1     -10.391  12.220  68.604  1.00  0.00    -0.188 C  
BRANCH  14  15
HETATM   15  C   UNL     1     -11.524  11.626  67.704  1.00  0.00    -0.373 C  
BRANCH  15  16
HETATM   16  C   UNL     1     -11.466  11.977  66.226  1.00  0.00    -0.408 A  
HETATM   17  C   UNL     1     -12.302  12.969  65.697  1.00  0.00    -0.504 A  
HETATM   18  C   UNL     1     -10.605  11.292  65.354  1.00  0.00    -0.312 A  
HETATM   19  C   UNL     1     -12.281  13.264  64.331  1.00  0.00    -0.449 A  
HETATM   20  C   UNL     1     -11.415  12.580  63.478  1.00  0.00    -0.570 A  
HETATM   21  C   UNL     1     -10.571  11.599  63.991  1.00  0.00    -0.426 A  
ENDBRANCH  15  16
ENDBRANCH  14  15
BRANCH  14  22
HETATM   22  C   UNL     1      -9.261  11.167  68.813  1.00  0.00    -0.145 C  
HETATM   23  O   UNL     1      -8.026  11.626  68.245  1.00  0.00    -0.128 OA 
HETATM   24  H   UNL     1      -7.337  10.985  68.373  1.00  0.00     0.000 HD 
BRANCH  22  25
HETATM   25  C   UNL     1      -9.547   9.708  68.405  1.00  0.00    -0.144 C  
BRANCH  25  26
HETATM   26  N   UNL     1      -9.855   8.672  69.481  1.00  0.00    -0.183 N  
BRANCH  26  27
HETATM   27  C   UNL     1     -11.170   8.992  70.191  1.00  0.00    -0.171 C  
HETATM   28  C   UNL     1     -11.597   8.138  71.404  1.00  0.00    -0.314 C  
HETATM   29  C   UNL     1     -10.640   8.217  72.591  1.00  0.00    -0.414 C  
HETATM   30  C   UNL     1     -12.980   8.612  71.892  1.00  0.00    -0.409 C  
ENDBRANCH  26  27
BRANCH  26  31
HETATM   31  S   UNL     1      -9.870   7.067  68.751  1.00  0.00    -0.156 S  
HETATM   32  O   UNL     1     -11.231   6.716  68.428  1.00  0.00    -0.230 OA 
HETATM   33  O   UNL     1      -8.827   7.069  67.742  1.00  0.00    -0.124 OA 
BRANCH  31  34
HETATM   34  C   UNL     1      -9.339   5.970  70.064  1.00  0.00    -0.153 A  
HETATM   35  C   UNL     1      -9.757   4.087  71.522  1.00  0.00    -0.246 A  
HETATM   36  C   UNL     1     -10.147   4.899  70.446  1.00  0.00    -0.316 A  
HETATM   37  C   UNL     1      -8.592   4.357  72.249  1.00  0.00    -0.113 A  
HETATM   38  N   UNL     1      -8.160   3.484  73.248  1.00  0.00    -0.074 NA 
HETATM   39  C   UNL     1      -7.754   5.381  71.800  1.00  0.00    -0.110 A  
HETATM   40  H1  UNL     1      -7.311   3.681  73.778  1.00  0.00     0.000 HD 
HETATM   41  C   UNL     1      -8.126   6.197  70.723  1.00  0.00    -0.124 A  
HETATM   42  H2  UNL     1      -8.073   2.552  72.841  1.00  0.00     0.000 HD 
ENDBRANCH  31  34
ENDBRANCH  26  31
ENDBRANCH  25  26
ENDBRANCH  22  25
ENDBRANCH  14  22
ENDBRANCH  12  14
ENDBRANCH   9  10
ENDBRANCH   8   9
TORSDOF 11
ENDMDL
MODEL      103
REMARK 921   NORMALIZED FREE ENERGY PREDICTED BY IDOCK:   -5.82 KCAL/MOL
REMARK 922        TOTAL FREE ENERGY PREDICTED BY IDOCK:  -12.18 KCAL/MOL
REMARK 923 INTER-LIGAND FREE ENERGY PREDICTED BY IDOCK:   -8.86 KCAL/MOL
REMARK 924 INTRA-LIGAND FREE ENERGY PREDICTED BY IDOCK:   -3.32 KCAL/MOL
REMARK 927      BINDING AFFINITY PREDICTED BY RF-SCORE:    0.00 PKD
ROOT
HETATM    1  C   UNL     1     -12.047  13.617  66.777  1.00  0.00    -0.445 C  
HETATM    2  C   UNL     1     -12.163  12.609  65.648  1.00  0.00    -0.474 C  
HETATM    3  C   UNL     1     -11.388  13.226  64.499  1.00  0.00    -0.363 C  
HETATM    4  O   UNL     1     -10.787  14.434  64.965  1.00  0.00    -0.359 OA 
HETATM    5  C   UNL     1     -10.845  14.439  66.384  1.00  0.00    -0.314 C  
HETATM    6  O   UNL     1      -9.714  13.785  66.958  1.00  0.00    -0.237 OA 
HETATM    7  C   UNL     1     -10.152  13.154  68.165  1.00  0.00    -0.237 C  
HETATM    8  C   UNL     1     -11.679  13.080  68.148  1.00  0.00    -0.351 C  
ENDROOT
BRANCH   8   9
HETATM    9  O   UNL     1     -12.075  11.709  68.316  1.00  0.00    -0.552 OA 
BRANCH   9  10
HETATM   10  C   UNL     1     -12.022  11.219  69.580  1.00  0.00    -0.351 C  
HETATM   11  O   UNL     1     -12.342  11.834  70.583  1.00  0.00    -0.358 OA 
HETATM   12  N   UNL     1     -11.467   9.973  69.537  1.00  0.00    -0.419 N  
HETATM   13  H   UNL     1     -11.337   9.533  68.626  1.00  0.00     0.000 HD 
BRANCH  12  14
HETATM   14  C   UNL     1     -11.047   9.231  70.736  1.00  0.00    -0.285 C  
BRANCH  14  15
HETATM   15  C   UNL     1     -11.805   7.870  70.866  1.00  0.00    -0.242 C  
BRANCH  15  16
HETATM   16  C   UNL     1     -11.071   6.638  70.362  1.00  0.00    -0.374 A  
HETATM   17  C   UNL     1     -10.901   6.424  68.988  1.00  0.00    -0.385 A  
HETATM   18  C   UNL     1     -10.582   5.672  71.255  1.00  0.00    -0.321 A  
HETATM   19  C   UNL     1     -10.264   5.271  68.520  1.00  0.00    -0.214 A  
HETATM   20  C   UNL     1      -9.778   4.323  69.419  1.00  0.00    -0.257 A  
HETATM   21  C   UNL     1      -9.930   4.527  70.788  1.00  0.00    -0.269 A  
ENDBRANCH  15  16
ENDBRANCH  14  15
BRANCH  14  22
HETATM   22  C   UNL     1      -9.507   9.003  70.828  1.00  0.00    -0.251 C  
HETATM   23  O   UNL     1      -9.068   9.042  72.193  1.00  0.00    -0.372 OA 
HETATM   24  H   UNL     1      -8.130   8.902  72.250  1.00  0.00     0.000 HD 
BRANCH  22  25
HETATM   25  C   UNL     1      -8.594   9.862  69.931  1.00  0.00    -0.194 C  
BRANCH  25  26
HETATM   26  N   UNL     1      -8.003   9.258  68.661  1.00  0.00    -0.099 N  
BRANCH  26  27
HETATM   27  C   UNL     1      -8.232  10.174  67.459  1.00  0.00    -0.114 C  
HETATM   28  C   UNL     1      -8.853   9.587  66.173  1.00  0.00    -0.177 C  
HETATM   29  C   UNL     1     -10.269   9.044  66.356  1.00  0.00    -0.297 C  
HETATM   30  C   UNL     1      -8.914  10.686  65.096  1.00  0.00    -0.217 C  
ENDBRANCH  26  27
BRANCH  26  31
HETATM   31  S   UNL     1      -6.291   8.924  68.921  1.00  0.00    -0.045 S  
HETATM   32  O   UNL     1      -5.605   8.996  67.655  1.00  0.00    -0.035 OA 
HETATM   33  O   UNL     1      -5.885   9.740  70.052  1.00  0.00    -0.039 OA 
BRANCH  31  34
HETATM   34  C   UNL     1      -6.241   7.214  69.454  1.00  0.00    -0.035 A  
HETATM   35  C   UNL     1      -5.996   4.864  68.940  1.00  0.00    -0.025 A  
HETATM   36  C   UNL     1      -5.964   6.206  68.530  1.00  0.00    -0.016 A  
HETATM   37  C   UNL     1      -6.345   4.515  70.250  1.00  0.00    -0.030 A  
HETATM   38  N   UNL     1      -6.272   3.187  70.673  1.00  0.00    -0.022 NA 
HETATM   39  C   UNL     1      -6.536   5.540  71.180  1.00  0.00    -0.036 A  
HETATM   40  H1  UNL     1      -6.526   2.932  71.628  1.00  0.00     0.000 HD 
HETATM   41  C   UNL     1      -6.501   6.885  70.788  1.00  0.00    -0.048 A  
HETATM   42  H2  UNL     1      -5.327   2.846  70.493  1.00  0.00     0.000 HD 
ENDBRANCH  31  34
ENDBRANCH  26  31
ENDBRANCH  25  26
ENDBRANCH  22  25
ENDBRANCH  14  22
ENDBRANCH  12  14
ENDBRANCH   9  10
ENDBRANCH   8   9
TORSDOF 11
ENDMDL
MODEL      104
REMARK 921   NORMALIZED FREE ENERGY PREDICTED BY IDOCK:   -5.82 KCAL/MOL
REMARK 922        TOTAL FREE ENERGY PREDICTED BY IDOCK:  -12.18 KCAL/MOL
REMARK 923 INTER-LIGAND FREE ENERGY PREDICTED BY IDOCK:  -10.65 KCAL/MOL
REMARK 924 INTRA-LIGAND FREE ENERGY PREDICTED BY IDOCK:   -1.52 KCAL/MOL
REMARK 927      BINDING AFFINITY PREDICTED BY RF-SCORE:    0.00 PKD
ROOT
HETATM    1  C   UNL     1      -8.935  16.865  67.743  1.00  0.00    -0.225 C  
HETATM    2  C   UNL     1     -10.241  17.542  68.117  1.00  0.00    -0.359 C  
HETATM    3  C   UNL     1     -10.531  18.483  66.963  1.00  0.00    -0.402 C  
HETATM    4  O   UNL     1      -9.534  18.282  65.962  1.00  0.00    -0.501 OA 
HETATM    5  C   UNL     1      -8.855  17.068  66.250  1.00  0.00    -0.254 C  
HETATM    6  O   UNL     1      -9.514  15.946  65.663  1.00  0.00    -0.343 OA 
HETATM    7  C   UNL     1      -9.323  14.831  66.540  1.00  0.00    -0.290 C  
HETATM    8  C   UNL     1      -8.868  15.357  67.901  1.00  0.00    -0.168 C  
ENDROOT
BRANCH   8   9
HETATM    9  O   UNL     1      -9.777  14.877  68.906  1.00  0.00    -0.214 OA 
BRANCH   9  10
HETATM   10  C   UNL     1     -10.782  14.078  68.473  1.00  0.00    -0.256 C  
HETATM   11  O   UNL     1     -11.921  14.447  68.245  1.00  0.00    -0.329 OA 
HETATM   12  N   UNL     1     -10.324  12.793  68.431  1.00  0.00    -0.241 N  
HETATM   13  H   UNL     1      -9.324  12.632  68.548  1.00  0.00     0.000 HD 
BRANCH  12  14
HETATM   14  C   UNL     1     -11.198  11.627  68.225  1.00  0.00    -0.260 C  
BRANCH  14  15
HETATM   15  C   UNL     1     -10.750  10.784  66.987  1.00  0.00    -0.320 C  
BRANCH  15  16
HETATM   16  C   UNL     1     -11.025  11.393  65.621  1.00  0.00    -0.254 A  
HETATM   17  C   UNL     1     -10.284  10.992  64.502  1.00  0.00    -0.406 A  
HETATM   18  C   UNL     1     -11.996  12.393  65.458  1.00  0.00    -0.453 A  
HETATM   19  C   UNL     1     -10.505  11.580  63.253  1.00  0.00    -0.421 A  
HETATM   20  C   UNL     1     -11.478  12.567  63.105  1.00  0.00    -0.219 A  
HETATM   21  C   UNL     1     -12.229  12.969  64.206  1.00  0.00    -0.464 A  
ENDBRANCH  15  16
ENDBRANCH  14  15
BRANCH  14  22
HETATM   22  C   UNL     1     -11.335  10.712  69.480  1.00  0.00    -0.277 C  
HETATM   23  O   UNL     1     -11.637  11.490  70.647  1.00  0.00    -0.448 OA 
HETATM   24  H   UNL     1     -11.720  10.933  71.412  1.00  0.00     0.000 HD 
BRANCH  22  25
HETATM   25  C   UNL     1     -10.203   9.705  69.767  1.00  0.00    -0.237 C  
BRANCH  25  26
HETATM   26  N   UNL     1     -10.546   8.331  70.334  1.00  0.00    -0.219 N  
BRANCH  26  27
HETATM   27  C   UNL     1      -9.612   7.258  69.774  1.00  0.00    -0.162 C  
HETATM   28  C   UNL     1     -10.207   6.105  68.938  1.00  0.00    -0.232 C  
HETATM   29  C   UNL     1     -10.882   6.556  67.645  1.00  0.00    -0.419 C  
HETATM   30  C   UNL     1      -9.080   5.127  68.554  1.00  0.00    -0.133 C  
ENDBRANCH  26  27
BRANCH  26  31
HETATM   31  S   UNL     1     -10.491   8.402  72.095  1.00  0.00    -0.342 S  
HETATM   32  O   UNL     1      -9.193   8.881  72.501  1.00  0.00    -0.334 OA 
HETATM   33  O   UNL     1     -11.711   9.068  72.513  1.00  0.00    -0.207 OA 
BRANCH  31  34
HETATM   34  C   UNL     1     -10.610   6.692  72.619  1.00  0.00    -0.222 A  
HETATM   35  C   UNL     1     -11.893   4.656  72.856  1.00  0.00     0.012 A  
HETATM   36  C   UNL     1     -11.781   5.972  72.381  1.00  0.00    -0.322 A  
HETATM   37  C   UNL     1     -10.868   4.067  73.605  1.00  0.00    -0.255 A  
HETATM   38  N   UNL     1     -10.946   2.726  73.982  1.00  0.00    -0.184 NA 
HETATM   39  C   UNL     1      -9.672   4.772  73.760  1.00  0.00    -0.151 A  
HETATM   40  H1  UNL     1     -10.199   2.296  74.527  1.00  0.00     0.000 HD 
HETATM   41  C   UNL     1      -9.541   6.085  73.286  1.00  0.00    -0.143 A  
HETATM   42  H2  UNL     1     -11.090   2.165  73.141  1.00  0.00     0.000 HD 
ENDBRANCH  31  34
ENDBRANCH  26  31
ENDBRANCH  25  26
ENDBRANCH  22  25
ENDBRANCH  14  22
ENDBRANCH  12  14
ENDBRANCH   9  10
ENDBRANCH   8   9
TORSDOF 11
ENDMDL
MODEL      105
REMARK 921   NORMALIZED FREE ENERGY PREDICTED BY IDOCK:   -5.80 KCAL/MOL
REMARK 922        TOTAL FREE ENERGY PREDICTED BY IDOCK:  -12.15 KCAL/MOL
REMARK 923 INTER-LIGAND FREE ENERGY PREDICTED BY IDOCK:  -12.14 KCAL/MOL
REMARK 924 INTRA-LIGAND FREE ENERGY PREDICTED BY IDOCK:   -0.01 KCAL/MOL
REMARK 927      BINDING AFFINITY PREDICTED BY RF-SCORE:    0.00 PKD
ROOT
HETATM    1  C   UNL     1     -12.364  12.639  65.559  1.00  0.00    -0.455 C  
HETATM    2  C   UNL     1     -11.760  11.616  64.614  1.00  0.00    -0.157 C  
HETATM    3  C   UNL     1     -11.302  12.423  63.414  1.00  0.00    -0.433 C  
HETATM    4  O   UNL     1     -11.524  13.804  63.694  1.00  0.00    -0.105 OA 
HETATM    5  C   UNL     1     -11.763  13.941  65.088  1.00  0.00    -0.350 C  
HETATM    6  O   UNL     1     -10.547  14.102  65.816  1.00  0.00    -0.283 OA 
HETATM    7  C   UNL     1     -10.727  13.479  67.092  1.00  0.00    -0.279 C  
HETATM    8  C   UNL     1     -11.949  12.563  67.017  1.00  0.00    -0.225 C  
ENDROOT
BRANCH   8   9
HETATM    9  O   UNL     1     -11.552  11.235  67.398  1.00  0.00    -0.519 OA 
BRANCH   9  10
HETATM   10  C   UNL     1     -11.145  11.076  68.682  1.00  0.00    -0.240 C  
HETATM   11  O   UNL     1      -9.983  11.017  69.046  1.00  0.00    -0.205 OA 
HETATM   12  N   UNL     1     -12.248  10.901  69.465  1.00  0.00    -0.454 N  
HETATM   13  H   UNL     1     -13.166  11.074  69.054  1.00  0.00     0.000 HD 
BRANCH  12  14
HETATM   14  C   UNL     1     -12.184  10.476  70.872  1.00  0.00    -0.388 C  
BRANCH  14  15
HETATM   15  C   UNL     1     -13.160  11.305  71.769  1.00  0.00    -0.527 C  
BRANCH  15  16
HETATM   16  C   UNL     1     -13.051  12.817  71.666  1.00  0.00    -0.428 A  
HETATM   17  C   UNL     1     -13.632  13.641  72.640  1.00  0.00    -0.596 A  
HETATM   18  C   UNL     1     -12.402  13.423  70.579  1.00  0.00    -0.401 A  
HETATM   19  C   UNL     1     -13.570  15.032  72.526  1.00  0.00    -0.569 A  
HETATM   20  C   UNL     1     -12.916  15.619  71.444  1.00  0.00    -0.555 A  
HETATM   21  C   UNL     1     -12.325  14.815  70.474  1.00  0.00    -0.398 A  
ENDBRANCH  15  16
ENDBRANCH  14  15
BRANCH  14  22
HETATM   22  C   UNL     1     -12.423   8.949  71.082  1.00  0.00    -0.214 C  
HETATM   23  O   UNL     1     -12.926   8.689  72.400  1.00  0.00    -0.437 OA 
HETATM   24  H   UNL     1     -13.072   7.759  72.527  1.00  0.00     0.000 HD 
BRANCH  22  25
HETATM   25  C   UNL     1     -11.274   7.983  70.729  1.00  0.00    -0.265 C  
BRANCH  25  26
HETATM   26  N   UNL     1      -9.913   8.159  71.394  1.00  0.00    -0.174 N  
BRANCH  26  27
HETATM   27  C   UNL     1      -9.799   7.295  72.649  1.00  0.00    -0.169 C  
HETATM   28  C   UNL     1     -10.753   6.094  72.826  1.00  0.00    -0.268 C  
HETATM   29  C   UNL     1     -10.601   5.014  71.757  1.00  0.00    -0.204 C  
HETATM   30  C   UNL     1     -10.485   5.435  74.192  1.00  0.00    -0.310 C  
ENDBRANCH  26  27
BRANCH  26  31
HETATM   31  S   UNL     1      -8.646   7.794  70.223  1.00  0.00    -0.139 S  
HETATM   32  O   UNL     1      -8.150   9.031  69.673  1.00  0.00    -0.094 OA 
HETATM   33  O   UNL     1      -7.760   6.841  70.866  1.00  0.00    -0.090 OA 
BRANCH  31  34
HETATM   34  C   UNL     1      -9.491   6.929  68.900  1.00  0.00    -0.136 A  
HETATM   35  C   UNL     1      -9.937   4.893  67.675  1.00  0.00    -0.192 A  
HETATM   36  C   UNL     1      -9.328   5.552  68.755  1.00  0.00    -0.152 A  
HETATM   37  C   UNL     1     -10.669   5.600  66.715  1.00  0.00    -0.284 A  
HETATM   38  N   UNL     1     -11.356   4.923  65.706  1.00  0.00    -0.810 NA 
HETATM   39  C   UNL     1     -10.892   6.963  66.924  1.00  0.00    -0.380 A  
HETATM   40  H1  UNL     1     -11.890   5.438  65.007  1.00  0.00     0.000 HD 
HETATM   41  C   UNL     1     -10.297   7.635  68.001  1.00  0.00    -0.257 A  
HETATM   42  H2  UNL     1     -11.977   4.242  66.144  1.00  0.00     0.000 HD 
ENDBRANCH  31  34
ENDBRANCH  26  31
ENDBRANCH  25  26
ENDBRANCH  22  25
ENDBRANCH  14  22
ENDBRANCH  12  14
ENDBRANCH   9  10
ENDBRANCH   8   9
TORSDOF 11
ENDMDL
MODEL      106
REMARK 921   NORMALIZED FREE ENERGY PREDICTED BY IDOCK:   -5.80 KCAL/MOL
REMARK 922        TOTAL FREE ENERGY PREDICTED BY IDOCK:  -12.15 KCAL/MOL
REMARK 923 INTER-LIGAND FREE ENERGY PREDICTED BY IDOCK:   -9.53 KCAL/MOL
REMARK 924 INTRA-LIGAND FREE ENERGY PREDICTED BY IDOCK:   -2.63 KCAL/MOL
REMARK 927      BINDING AFFINITY PREDICTED BY RF-SCORE:    0.00 PKD
ROOT
HETATM    1  C   UNL     1     -10.253   7.852  71.348  1.00  0.00    -0.226 C  
HETATM    2  C   UNL     1     -10.796   6.508  70.899  1.00  0.00    -0.302 C  
HETATM    3  C   UNL     1     -11.219   5.816  72.181  1.00  0.00    -0.269 C  
HETATM    4  O   UNL     1     -11.036   6.729  73.262  1.00  0.00    -0.273 OA 
HETATM    5  C   UNL     1     -10.858   8.029  72.719  1.00  0.00    -0.369 C  
HETATM    6  O   UNL     1     -12.107   8.690  72.518  1.00  0.00    -0.374 OA 
HETATM    7  C   UNL     1     -11.969   9.522  71.362  1.00  0.00    -0.386 C  
HETATM    8  C   UNL     1     -10.727   9.078  70.589  1.00  0.00    -0.239 C  
ENDROOT
BRANCH   8   9
HETATM    9  O   UNL     1     -11.114   8.763  69.241  1.00  0.00    -0.062 OA 
BRANCH   9  10
HETATM   10  C   UNL     1     -10.360   9.312  68.256  1.00  0.00    -0.217 C  
HETATM   11  O   UNL     1     -10.316   8.916  67.104  1.00  0.00    -0.249 OA 
HETATM   12  N   UNL     1      -9.602  10.309  68.799  1.00  0.00    -0.167 N  
HETATM   13  H   UNL     1      -9.808  10.609  69.752  1.00  0.00     0.000 HD 
BRANCH  12  14
HETATM   14  C   UNL     1      -8.504  10.974  68.081  1.00  0.00    -0.135 C  
BRANCH  14  15
HETATM   15  C   UNL     1      -7.231  10.069  68.009  1.00  0.00    -0.082 C  
BRANCH  15  16
HETATM   16  C   UNL     1      -7.043   9.078  69.146  1.00  0.00    -0.063 A  
HETATM   17  C   UNL     1      -6.718   9.525  70.434  1.00  0.00    -0.093 A  
HETATM   18  C   UNL     1      -7.152   7.696  68.926  1.00  0.00    -0.079 A  
HETATM   19  C   UNL     1      -6.503   8.613  71.471  1.00  0.00    -0.069 A  
HETATM   20  C   UNL     1      -6.622   7.244  71.239  1.00  0.00    -0.043 A  
HETATM   21  C   UNL     1      -6.954   6.785  69.967  1.00  0.00    -0.062 A  
ENDBRANCH  15  16
ENDBRANCH  14  15
BRANCH  14  22
HETATM   22  C   UNL     1      -8.892  11.472  66.655  1.00  0.00    -0.187 C  
HETATM   23  O   UNL     1      -7.810  11.276  65.734  1.00  0.00    -0.368 OA 
HETATM   24  H   UNL     1      -8.047  11.579  64.866  1.00  0.00     0.000 HD 
BRANCH  22  25
HETATM   25  C   UNL     1      -9.479  12.892  66.521  1.00  0.00    -0.251 C  
BRANCH  25  26
HETATM   26  N   UNL     1     -10.028  13.599  67.757  1.00  0.00    -0.230 N  
BRANCH  26  27
HETATM   27  C   UNL     1      -9.582  15.060  67.797  1.00  0.00    -0.203 C  
HETATM   28  C   UNL     1      -8.875  15.597  69.060  1.00  0.00    -0.243 C  
HETATM   29  C   UNL     1      -7.544  14.914  69.368  1.00  0.00    -0.162 C  
HETATM   30  C   UNL     1      -8.593  17.101  68.879  1.00  0.00    -0.190 C  
ENDBRANCH  26  27
BRANCH  26  31
HETATM   31  S   UNL     1     -11.784  13.443  67.780  1.00  0.00    -0.362 S  
HETATM   32  O   UNL     1     -12.351  14.431  66.895  1.00  0.00    -0.371 OA 
HETATM   33  O   UNL     1     -12.069  12.028  67.619  1.00  0.00    -0.547 OA 
BRANCH  31  34
HETATM   34  C   UNL     1     -12.255  13.895  69.448  1.00  0.00    -0.292 A  
HETATM   35  C   UNL     1     -12.859  13.262  71.702  1.00  0.00    -0.397 A  
HETATM   36  C   UNL     1     -12.422  12.906  70.417  1.00  0.00    -0.247 A  
HETATM   37  C   UNL     1     -13.173  14.588  72.019  1.00  0.00    -0.362 A  
HETATM   38  N   UNL     1     -13.504  14.946  73.327  1.00  0.00    -0.579 NA 
HETATM   39  C   UNL     1     -12.918  15.575  71.064  1.00  0.00    -0.550 A  
HETATM   40  H1  UNL     1     -13.733  15.912  73.558  1.00  0.00     0.000 HD 
HETATM   41  C   UNL     1     -12.476  15.237  69.777  1.00  0.00    -0.223 A  
HETATM   42  H2  UNL     1     -12.750  14.640  73.942  1.00  0.00     0.000 HD 
ENDBRANCH  31  34
ENDBRANCH  26  31
ENDBRANCH  25  26
ENDBRANCH  22  25
ENDBRANCH  14  22
ENDBRANCH  12  14
ENDBRANCH   9  10
ENDBRANCH   8   9
TORSDOF 11
ENDMDL
MODEL      107
REMARK 921   NORMALIZED FREE ENERGY PREDICTED BY IDOCK:   -5.78 KCAL/MOL
REMARK 922        TOTAL FREE ENERGY PREDICTED BY IDOCK:  -12.11 KCAL/MOL
REMARK 923 INTER-LIGAND FREE ENERGY PREDICTED BY IDOCK:  -11.46 KCAL/MOL
REMARK 924 INTRA-LIGAND FREE ENERGY PREDICTED BY IDOCK:   -0.66 KCAL/MOL
REMARK 927      BINDING AFFINITY PREDICTED BY RF-SCORE:    0.00 PKD
ROOT
HETATM    1  C   UNL     1      -9.117   6.243  66.223  1.00  0.00    -0.166 C  
HETATM    2  C   UNL     1     -10.291   5.346  66.573  1.00  0.00    -0.320 C  
HETATM    3  C   UNL     1      -9.667   4.002  66.896  1.00  0.00    -0.185 C  
HETATM    4  O   UNL     1      -8.248   4.145  66.842  1.00  0.00    -0.100 OA 
HETATM    5  C   UNL     1      -7.941   5.532  66.848  1.00  0.00    -0.101 C  
HETATM    6  O   UNL     1      -7.832   6.040  68.177  1.00  0.00    -0.103 OA 
HETATM    7  C   UNL     1      -8.296   7.394  68.156  1.00  0.00    -0.124 C  
HETATM    8  C   UNL     1      -9.083   7.618  66.864  1.00  0.00    -0.144 C  
ENDROOT
BRANCH   8   9
HETATM    9  O   UNL     1     -10.397   8.090  67.203  1.00  0.00    -0.267 OA 
BRANCH   9  10
HETATM   10  C   UNL     1     -10.623   9.415  67.023  1.00  0.00    -0.201 C  
HETATM   11  O   UNL     1     -10.227  10.071  66.074  1.00  0.00    -0.252 OA 
HETATM   12  N   UNL     1     -11.280   9.893  68.119  1.00  0.00    -0.523 N  
HETATM   13  H   UNL     1     -11.644   9.222  68.795  1.00  0.00     0.000 HD 
BRANCH  12  14
HETATM   14  C   UNL     1     -11.492  11.326  68.376  1.00  0.00    -0.307 C  
BRANCH  14  15
HETATM   15  C   UNL     1     -11.794  11.602  69.885  1.00  0.00    -0.434 C  
BRANCH  15  16
HETATM   16  C   UNL     1     -11.881  10.383  70.790  1.00  0.00    -0.466 A  
HETATM   17  C   UNL     1     -13.108   9.992  71.341  1.00  0.00    -0.512 A  
HETATM   18  C   UNL     1     -10.733   9.647  71.124  1.00  0.00    -0.365 A  
HETATM   19  C   UNL     1     -13.185   8.898  72.206  1.00  0.00    -0.498 A  
HETATM   20  C   UNL     1     -12.038   8.172  72.523  1.00  0.00    -0.377 A  
HETATM   21  C   UNL     1     -10.812   8.542  71.976  1.00  0.00    -0.405 A  
ENDBRANCH  15  16
ENDBRANCH  14  15
BRANCH  14  22
HETATM   22  C   UNL     1     -10.325  12.235  67.884  1.00  0.00    -0.208 C  
HETATM   23  O   UNL     1      -9.199  12.141  68.769  1.00  0.00    -0.385 OA 
HETATM   24  H   UNL     1      -8.488  12.694  68.469  1.00  0.00     0.000 HD 
BRANCH  22  25
HETATM   25  C   UNL     1     -10.644  13.706  67.553  1.00  0.00    -0.241 C  
BRANCH  25  26
HETATM   26  N   UNL     1      -9.942  14.383  66.380  1.00  0.00    -0.283 N  
BRANCH  26  27
HETATM   27  C   UNL     1     -10.345  13.739  65.053  1.00  0.00    -0.382 C  
HETATM   28  C   UNL     1     -11.737  13.083  64.927  1.00  0.00    -0.381 C  
HETATM   29  C   UNL     1     -12.903  14.054  65.105  1.00  0.00    -0.368 C  
HETATM   30  C   UNL     1     -11.871  12.450  63.529  1.00  0.00    -0.605 C  
ENDBRANCH  26  27
BRANCH  26  31
HETATM   31  S   UNL     1     -10.297  16.110  66.412  1.00  0.00    -0.317 S  
HETATM   32  O   UNL     1     -10.553  16.557  65.065  1.00  0.00    -0.670 OA 
HETATM   33  O   UNL     1     -11.267  16.306  67.474  1.00  0.00    -0.204 OA 
BRANCH  31  34
HETATM   34  C   UNL     1      -8.765  16.874  66.940  1.00  0.00    -0.223 A  
HETATM   35  C   UNL     1      -7.388  17.824  68.686  1.00  0.00    -0.269 A  
HETATM   36  C   UNL     1      -8.561  17.162  68.290  1.00  0.00    -0.241 A  
HETATM   37  C   UNL     1      -6.439  18.242  67.747  1.00  0.00    -0.193 A  
HETATM   38  N   UNL     1      -5.231  18.805  68.161  1.00  0.00    -0.178 NA 
HETATM   39  C   UNL     1      -6.620  17.870  66.412  1.00  0.00    -0.267 A  
HETATM   40  H1  UNL     1      -4.539  19.109  67.476  1.00  0.00     0.000 HD 
HETATM   41  C   UNL     1      -7.782  17.203  66.001  1.00  0.00    -0.193 A  
HETATM   42  H2  UNL     1      -4.779  18.154  68.804  1.00  0.00     0.000 HD 
ENDBRANCH  31  34
ENDBRANCH  26  31
ENDBRANCH  25  26
ENDBRANCH  22  25
ENDBRANCH  14  22
ENDBRANCH  12  14
ENDBRANCH   9  10
ENDBRANCH   8   9
TORSDOF 11
ENDMDL
MODEL      108
REMARK 921   NORMALIZED FREE ENERGY PREDICTED BY IDOCK:   -5.77 KCAL/MOL
REMARK 922        TOTAL FREE ENERGY PREDICTED BY IDOCK:  -12.10 KCAL/MOL
REMARK 923 INTER-LIGAND FREE ENERGY PREDICTED BY IDOCK:  -10.89 KCAL/MOL
REMARK 924 INTRA-LIGAND FREE ENERGY PREDICTED BY IDOCK:   -1.21 KCAL/MOL
REMARK 927      BINDING AFFINITY PREDICTED BY RF-SCORE:    0.00 PKD
ROOT
HETATM    1  C   UNL     1     -13.022  15.046  70.972  1.00  0.00    -0.466 C  
HETATM    2  C   UNL     1     -11.681  15.616  71.395  1.00  0.00    -0.491 C  
HETATM    3  C   UNL     1     -11.979  16.415  72.649  1.00  0.00    -0.502 C  
HETATM    4  O   UNL     1     -13.355  16.230  72.979  1.00  0.00    -0.425 OA 
HETATM    5  C   UNL     1     -13.843  15.122  72.236  1.00  0.00    -0.515 C  
HETATM    6  O   UNL     1     -13.626  13.891  72.923  1.00  0.00    -0.680 OA 
HETATM    7  C   UNL     1     -13.390  12.884  71.933  1.00  0.00    -0.435 C  
HETATM    8  C   UNL     1     -13.064  13.573  70.608  1.00  0.00     0.076 C  
ENDROOT
BRANCH   8   9
HETATM    9  O   UNL     1     -11.791  13.095  70.143  1.00  0.00    -0.313 OA 
BRANCH   9  10
HETATM   10  C   UNL     1     -11.818  12.004  69.338  1.00  0.00    -0.324 C  
HETATM   11  O   UNL     1     -12.081  10.871  69.703  1.00  0.00    -0.319 OA 
HETATM   12  N   UNL     1     -11.413  12.378  68.090  1.00  0.00    -0.294 N  
HETATM   13  H   UNL     1     -11.321  13.375  67.890  1.00  0.00     0.000 HD 
BRANCH  12  14
HETATM   14  C   UNL     1     -11.104  11.421  67.017  1.00  0.00    -0.303 C  
BRANCH  14  15
HETATM   15  C   UNL     1     -10.912  12.140  65.642  1.00  0.00    -0.337 C  
BRANCH  15  16
HETATM   16  C   UNL     1     -10.511  13.605  65.696  1.00  0.00    -0.304 A  
HETATM   17  C   UNL     1      -9.341  13.998  66.359  1.00  0.00    -0.242 A  
HETATM   18  C   UNL     1     -11.318  14.597  65.119  1.00  0.00    -0.375 A  
HETATM   19  C   UNL     1      -8.991  15.348  66.447  1.00  0.00    -0.351 A  
HETATM   20  C   UNL     1      -9.800  16.322  65.863  1.00  0.00    -0.365 A  
HETATM   21  C   UNL     1     -10.960  15.946  65.192  1.00  0.00    -0.389 A  
ENDBRANCH  15  16
ENDBRANCH  14  15
BRANCH  14  22
HETATM   22  C   UNL     1      -9.880  10.505  67.322  1.00  0.00    -0.177 C  
HETATM   23  O   UNL     1      -8.869  10.652  66.315  1.00  0.00    -0.151 OA 
HETATM   24  H   UNL     1      -8.123  10.094  66.501  1.00  0.00     0.000 HD 
BRANCH  22  25
HETATM   25  C   UNL     1     -10.148   9.016  67.620  1.00  0.00    -0.216 C  
BRANCH  25  26
HETATM   26  N   UNL     1      -9.662   8.411  68.933  1.00  0.00    -0.164 N  
BRANCH  26  27
HETATM   27  C   UNL     1     -10.739   7.528  69.563  1.00  0.00    -0.217 C  
HETATM   28  C   UNL     1     -10.753   7.335  71.095  1.00  0.00    -0.244 C  
HETATM   29  C   UNL     1     -10.983   8.622  71.884  1.00  0.00    -0.412 C  
HETATM   30  C   UNL     1     -11.880   6.354  71.469  1.00  0.00    -0.355 C  
ENDBRANCH  26  27
BRANCH  26  31
HETATM   31  S   UNL     1      -8.165   7.525  68.643  1.00  0.00    -0.129 S  
HETATM   32  O   UNL     1      -7.333   8.297  67.754  1.00  0.00    -0.089 OA 
HETATM   33  O   UNL     1      -7.690   7.093  69.945  1.00  0.00    -0.102 OA 
BRANCH  31  34
HETATM   34  C   UNL     1      -8.677   6.059  67.748  1.00  0.00    -0.104 A  
HETATM   35  C   UNL     1      -9.292   3.721  67.730  1.00  0.00    -0.237 A  
HETATM   36  C   UNL     1      -8.961   4.884  68.443  1.00  0.00    -0.129 A  
HETATM   37  C   UNL     1      -9.300   3.707  66.330  1.00  0.00    -0.182 A  
HETATM   38  N   UNL     1      -9.732   2.577  65.635  1.00  0.00    -0.343 NA 
HETATM   39  C   UNL     1      -9.096   4.913  65.655  1.00  0.00    -0.151 A  
HETATM   40  H1  UNL     1      -9.738   2.566  64.615  1.00  0.00     0.000 HD 
HETATM   41  C   UNL     1      -8.771   6.084  66.352  1.00  0.00    -0.133 A  
HETATM   42  H2  UNL     1     -10.669   2.340  65.962  1.00  0.00     0.000 HD 
ENDBRANCH  31  34
ENDBRANCH  26  31
ENDBRANCH  25  26
ENDBRANCH  22  25
ENDBRANCH  14  22
ENDBRANCH  12  14
ENDBRANCH   9  10
ENDBRANCH   8   9
TORSDOF 11
ENDMDL
MODEL      109
REMARK 921   NORMALIZED FREE ENERGY PREDICTED BY IDOCK:   -5.77 KCAL/MOL
REMARK 922        TOTAL FREE ENERGY PREDICTED BY IDOCK:  -12.10 KCAL/MOL
REMARK 923 INTER-LIGAND FREE ENERGY PREDICTED BY IDOCK:   -9.96 KCAL/MOL
REMARK 924 INTRA-LIGAND FREE ENERGY PREDICTED BY IDOCK:   -2.15 KCAL/MOL
REMARK 927      BINDING AFFINITY PREDICTED BY RF-SCORE:    0.00 PKD
ROOT
HETATM    1  C   UNL     1     -10.177  15.946  66.780  1.00  0.00    -0.283 C  
HETATM    2  C   UNL     1      -8.704  15.582  66.761  1.00  0.00    -0.302 C  
HETATM    3  C   UNL     1      -8.017  16.782  66.139  1.00  0.00    -0.238 C  
HETATM    4  O   UNL     1      -9.000  17.794  65.920  1.00  0.00    -0.511 OA 
HETATM    5  C   UNL     1     -10.162  17.450  66.661  1.00  0.00    -0.324 C  
HETATM    6  O   UNL     1     -10.102  17.952  67.995  1.00  0.00    -0.320 OA 
HETATM    7  C   UNL     1     -10.782  17.015  68.836  1.00  0.00    -0.300 C  
HETATM    8  C   UNL     1     -10.934  15.699  68.072  1.00  0.00    -0.318 C  
ENDROOT
BRANCH   8   9
HETATM    9  O   UNL     1     -10.345  14.645  68.852  1.00  0.00    -0.235 OA 
BRANCH   9  10
HETATM   10  C   UNL     1     -11.082  13.516  68.989  1.00  0.00    -0.250 C  
HETATM   11  O   UNL     1     -12.211  13.468  69.446  1.00  0.00    -0.307 OA 
HETATM   12  N   UNL     1     -10.314  12.451  68.619  1.00  0.00    -0.324 N  
HETATM   13  H   UNL     1      -9.423  12.635  68.158  1.00  0.00     0.000 HD 
BRANCH  12  14
HETATM   14  C   UNL     1     -10.703  11.051  68.849  1.00  0.00    -0.211 C  
BRANCH  14  15
HETATM   15  C   UNL     1     -11.167  10.357  67.527  1.00  0.00    -0.254 C  
BRANCH  15  16
HETATM   16  C   UNL     1     -10.964  11.147  66.243  1.00  0.00    -0.227 A  
HETATM   17  C   UNL     1     -11.908  12.100  65.838  1.00  0.00    -0.342 A  
HETATM   18  C   UNL     1      -9.852  10.913  65.419  1.00  0.00    -0.308 A  
HETATM   19  C   UNL     1     -11.746  12.797  64.637  1.00  0.00    -0.405 A  
HETATM   20  C   UNL     1     -10.633  12.559  63.832  1.00  0.00    -0.472 A  
HETATM   21  C   UNL     1      -9.681  11.622  64.227  1.00  0.00    -0.196 A  
ENDBRANCH  15  16
ENDBRANCH  14  15
BRANCH  14  22
HETATM   22  C   UNL     1      -9.602  10.197  69.549  1.00  0.00    -0.221 C  
HETATM   23  O   UNL     1      -8.816   9.488  68.581  1.00  0.00    -0.129 OA 
HETATM   24  H   UNL     1      -8.145   8.967  69.008  1.00  0.00     0.000 HD 
BRANCH  22  25
HETATM   25  C   UNL     1     -10.034   9.264  70.699  1.00  0.00    -0.273 C  
BRANCH  25  26
HETATM   26  N   UNL     1      -9.279   7.960  70.933  1.00  0.00    -0.151 N  
BRANCH  26  27
HETATM   27  C   UNL     1      -8.424   8.040  72.197  1.00  0.00    -0.146 C  
HETATM   28  C   UNL     1      -6.885   8.050  72.066  1.00  0.00    -0.072 C  
HETATM   29  C   UNL     1      -6.332   9.253  71.306  1.00  0.00    -0.072 C  
HETATM   30  C   UNL     1      -6.260   8.064  73.474  1.00  0.00    -0.086 C  
ENDBRANCH  26  27
BRANCH  26  31
HETATM   31  S   UNL     1     -10.432   6.628  70.998  1.00  0.00    -0.218 S  
HETATM   32  O   UNL     1      -9.890   5.583  71.830  1.00  0.00    -0.162 OA 
HETATM   33  O   UNL     1     -11.727   7.224  71.276  1.00  0.00    -0.272 OA 
BRANCH  31  34
HETATM   34  C   UNL     1     -10.485   5.995  69.323  1.00  0.00    -0.264 A  
HETATM   35  C   UNL     1      -9.888   4.307  67.698  1.00  0.00    -0.150 A  
HETATM   36  C   UNL     1      -9.904   4.763  69.026  1.00  0.00    -0.239 A  
HETATM   37  C   UNL     1     -10.405   5.087  66.658  1.00  0.00    -0.270 A  
HETATM   38  N   UNL     1     -10.478   4.580  65.360  1.00  0.00    -0.500 NA 
HETATM   39  C   UNL     1     -11.057   6.278  66.985  1.00  0.00    -0.379 A  
HETATM   40  H1  UNL     1     -10.855   5.149  64.601  1.00  0.00     0.000 HD 
HETATM   41  C   UNL     1     -11.088   6.745  68.307  1.00  0.00    -0.222 A  
HETATM   42  H2  UNL     1     -10.997   3.703  65.388  1.00  0.00     0.000 HD 
ENDBRANCH  31  34
ENDBRANCH  26  31
ENDBRANCH  25  26
ENDBRANCH  22  25
ENDBRANCH  14  22
ENDBRANCH  12  14
ENDBRANCH   9  10
ENDBRANCH   8   9
TORSDOF 11
ENDMDL
MODEL      110
REMARK 921   NORMALIZED FREE ENERGY PREDICTED BY IDOCK:   -5.76 KCAL/MOL
REMARK 922        TOTAL FREE ENERGY PREDICTED BY IDOCK:  -12.08 KCAL/MOL
REMARK 923 INTER-LIGAND FREE ENERGY PREDICTED BY IDOCK:   -9.11 KCAL/MOL
REMARK 924 INTRA-LIGAND FREE ENERGY PREDICTED BY IDOCK:   -2.98 KCAL/MOL
REMARK 927      BINDING AFFINITY PREDICTED BY RF-SCORE:    0.00 PKD
ROOT
HETATM    1  C   UNL     1     -10.694  15.882  67.701  1.00  0.00    -0.312 C  
HETATM    2  C   UNL     1     -10.242  16.204  66.289  1.00  0.00    -0.333 C  
HETATM    3  C   UNL     1     -10.361  17.713  66.181  1.00  0.00    -0.334 C  
HETATM    4  O   UNL     1     -10.744  18.222  67.457  1.00  0.00    -0.419 OA 
HETATM    5  C   UNL     1     -10.543  17.199  68.422  1.00  0.00    -0.371 C  
HETATM    6  O   UNL     1      -9.212  17.217  68.936  1.00  0.00    -0.256 OA 
HETATM    7  C   UNL     1      -8.845  15.864  69.223  1.00  0.00    -0.249 C  
HETATM    8  C   UNL     1      -9.824  14.933  68.506  1.00  0.00    -0.217 C  
ENDROOT
BRANCH   8   9
HETATM    9  O   UNL     1      -9.076  14.040  67.665  1.00  0.00    -0.178 OA 
BRANCH   9  10
HETATM   10  C   UNL     1      -8.794  12.820  68.186  1.00  0.00    -0.194 C  
HETATM   11  O   UNL     1      -7.678  12.340  68.279  1.00  0.00    -0.127 OA 
HETATM   12  N   UNL     1      -9.970  12.200  68.493  1.00  0.00    -0.291 N  
HETATM   13  H   UNL     1     -10.829  12.750  68.463  1.00  0.00     0.000 HD 
BRANCH  12  14
HETATM   14  C   UNL     1     -10.065  10.781  68.868  1.00  0.00    -0.205 C  
BRANCH  14  15
HETATM   15  C   UNL     1     -11.285  10.513  69.808  1.00  0.00    -0.361 C  
BRANCH  15  16
HETATM   16  C   UNL     1     -11.049   9.555  70.964  1.00  0.00    -0.433 A  
HETATM   17  C   UNL     1      -9.749   9.276  71.403  1.00  0.00    -0.269 A  
HETATM   18  C   UNL     1     -12.121   8.901  71.591  1.00  0.00    -0.415 A  
HETATM   19  C   UNL     1      -9.526   8.362  72.437  1.00  0.00    -0.365 A  
HETATM   20  C   UNL     1     -10.601   7.726  73.055  1.00  0.00    -0.441 A  
HETATM   21  C   UNL     1     -11.900   8.001  72.637  1.00  0.00    -0.380 A  
ENDBRANCH  15  16
ENDBRANCH  14  15
BRANCH  14  22
HETATM   22  C   UNL     1     -10.099   9.808  67.650  1.00  0.00    -0.190 C  
HETATM   23  O   UNL     1     -11.253   8.958  67.708  1.00  0.00    -0.442 OA 
HETATM   24  H   UNL     1     -11.273   8.366  66.966  1.00  0.00     0.000 HD 
BRANCH  22  25
HETATM   25  C   UNL     1      -8.827   8.991  67.342  1.00  0.00    -0.118 C  
BRANCH  25  26
HETATM   26  N   UNL     1      -8.837   7.479  67.545  1.00  0.00    -0.127 N  
BRANCH  26  27
HETATM   27  C   UNL     1      -8.626   6.746  66.221  1.00  0.00    -0.139 C  
HETATM   28  C   UNL     1      -9.054   5.268  66.102  1.00  0.00    -0.148 C  
HETATM   29  C   UNL     1     -10.552   5.035  66.288  1.00  0.00    -0.332 C  
HETATM   30  C   UNL     1      -8.674   4.744  64.704  1.00  0.00    -0.153 C  
ENDBRANCH  26  27
BRANCH  26  31
HETATM   31  S   UNL     1      -7.616   7.048  68.742  1.00  0.00    -0.106 S  
HETATM   32  O   UNL     1      -6.599   6.251  68.102  1.00  0.00    -0.059 OA 
HETATM   33  O   UNL     1      -7.287   8.274  69.446  1.00  0.00    -0.071 OA 
BRANCH  31  34
HETATM   34  C   UNL     1      -8.475   5.983  69.898  1.00  0.00    -0.130 A  
HETATM   35  C   UNL     1      -8.425   4.351  71.682  1.00  0.00    -0.112 A  
HETATM   36  C   UNL     1      -7.750   5.236  70.827  1.00  0.00    -0.088 A  
HETATM   37  C   UNL     1      -9.809   4.170  71.591  1.00  0.00    -0.184 A  
HETATM   38  N   UNL     1     -10.482   3.368  72.514  1.00  0.00    -0.112 NA 
HETATM   39  C   UNL     1     -10.527   4.988  70.715  1.00  0.00    -0.222 A  
HETATM   40  H1  UNL     1     -11.491   3.236  72.448  1.00  0.00     0.000 HD 
HETATM   41  C   UNL     1      -9.869   5.881  69.858  1.00  0.00    -0.223 A  
HETATM   42  H2  UNL     1     -10.266   3.709  73.451  1.00  0.00     0.000 HD 
ENDBRANCH  31  34
ENDBRANCH  26  31
ENDBRANCH  25  26
ENDBRANCH  22  25
ENDBRANCH  14  22
ENDBRANCH  12  14
ENDBRANCH   9  10
ENDBRANCH   8   9
TORSDOF 11
ENDMDL
MODEL      111
REMARK 921   NORMALIZED FREE ENERGY PREDICTED BY IDOCK:   -5.74 KCAL/MOL
REMARK 922        TOTAL FREE ENERGY PREDICTED BY IDOCK:  -12.06 KCAL/MOL
REMARK 923 INTER-LIGAND FREE ENERGY PREDICTED BY IDOCK:  -10.59 KCAL/MOL
REMARK 924 INTRA-LIGAND FREE ENERGY PREDICTED BY IDOCK:   -1.47 KCAL/MOL
REMARK 927      BINDING AFFINITY PREDICTED BY RF-SCORE:    0.00 PKD
ROOT
HETATM    1  C   UNL     1     -10.920   7.580  73.060  1.00  0.00    -0.443 C  
HETATM    2  C   UNL     1      -9.418   7.635  73.265  1.00  0.00    -0.317 C  
HETATM    3  C   UNL     1      -9.026   6.217  73.634  1.00  0.00    -0.124 C  
HETATM    4  O   UNL     1     -10.189   5.395  73.542  1.00  0.00    -0.177 OA 
HETATM    5  C   UNL     1     -11.183   6.113  72.824  1.00  0.00    -0.243 C  
HETATM    6  O   UNL     1     -11.063   5.911  71.416  1.00  0.00    -0.276 OA 
HETATM    7  C   UNL     1     -11.470   7.123  70.774  1.00  0.00    -0.305 C  
HETATM    8  C   UNL     1     -11.473   8.245  71.813  1.00  0.00    -0.293 C  
ENDROOT
BRANCH   8   9
HETATM    9  O   UNL     1     -10.625   9.307  71.345  1.00  0.00    -0.314 OA 
BRANCH   9  10
HETATM   10  C   UNL     1     -11.004   9.915  70.194  1.00  0.00    -0.301 C  
HETATM   11  O   UNL     1     -12.112  10.375  69.977  1.00  0.00    -0.267 OA 
HETATM   12  N   UNL     1      -9.972   9.837  69.304  1.00  0.00    -0.181 N  
HETATM   13  H   UNL     1      -9.064   9.518  69.644  1.00  0.00     0.000 HD 
BRANCH  12  14
HETATM   14  C   UNL     1     -10.100  10.188  67.881  1.00  0.00    -0.176 C  
BRANCH  14  15
HETATM   15  C   UNL     1     -10.989   9.158  67.111  1.00  0.00     0.074 C  
BRANCH  15  16
HETATM   16  C   UNL     1     -10.366   7.797  66.843  1.00  0.00    -0.396 A  
HETATM   17  C   UNL     1      -9.086   7.699  66.282  1.00  0.00    -0.204 A  
HETATM   18  C   UNL     1     -11.071   6.614  67.113  1.00  0.00    -0.427 A  
HETATM   19  C   UNL     1      -8.528   6.450  65.994  1.00  0.00    -0.144 A  
HETATM   20  C   UNL     1      -9.237   5.283  66.274  1.00  0.00    -0.152 A  
HETATM   21  C   UNL     1     -10.506   5.364  66.841  1.00  0.00    -0.337 A  
ENDBRANCH  15  16
ENDBRANCH  14  15
BRANCH  14  22
HETATM   22  C   UNL     1     -10.616  11.638  67.634  1.00  0.00    -0.203 C  
HETATM   23  O   UNL     1     -10.958  11.828  66.254  1.00  0.00    -0.278 OA 
HETATM   24  H   UNL     1     -11.273  12.711  66.103  1.00  0.00     0.000 HD 
BRANCH  22  25
HETATM   25  C   UNL     1      -9.759  12.809  68.156  1.00  0.00    -0.223 C  
BRANCH  25  26
HETATM   26  N   UNL     1     -10.175  14.243  67.843  1.00  0.00    -0.234 N  
BRANCH  26  27
HETATM   27  C   UNL     1     -10.259  15.081  69.118  1.00  0.00    -0.241 C  
HETATM   28  C   UNL     1     -11.628  15.273  69.804  1.00  0.00    -0.335 C  
HETATM   29  C   UNL     1     -12.261  13.977  70.307  1.00  0.00    -0.430 C  
HETATM   30  C   UNL     1     -11.458  16.206  71.018  1.00  0.00    -0.424 C  
ENDBRANCH  26  27
BRANCH  26  31
HETATM   31  S   UNL     1      -9.048  14.930  66.673  1.00  0.00    -0.274 S  
HETATM   32  O   UNL     1      -7.702  14.617  67.085  1.00  0.00    -0.193 OA 
HETATM   33  O   UNL     1      -9.547  14.557  65.362  1.00  0.00    -0.212 OA 
BRANCH  31  34
HETATM   34  C   UNL     1      -9.253  16.702  66.838  1.00  0.00    -0.227 A  
HETATM   35  C   UNL     1     -10.515  18.717  66.399  1.00  0.00    -0.485 A  
HETATM   36  C   UNL     1     -10.395  17.321  66.328  1.00  0.00    -0.323 A  
HETATM   37  C   UNL     1      -9.489  19.507  66.931  1.00  0.00    -0.344 A  
HETATM   38  N   UNL     1      -9.663  20.882  67.092  1.00  0.00    -0.654 NA 
HETATM   39  C   UNL     1      -8.393  18.865  67.512  1.00  0.00    -0.294 A  
HETATM   40  H1  UNL     1      -8.916  21.458  67.480  1.00  0.00     0.000 HD 
HETATM   41  C   UNL     1      -8.261  17.470  67.456  1.00  0.00    -0.213 A  
HETATM   42  H2  UNL     1     -10.505  21.035  67.648  1.00  0.00     0.000 HD 
ENDBRANCH  31  34
ENDBRANCH  26  31
ENDBRANCH  25  26
ENDBRANCH  22  25
ENDBRANCH  14  22
ENDBRANCH  12  14
ENDBRANCH   9  10
ENDBRANCH   8   9
TORSDOF 11
ENDMDL
MODEL      112
REMARK 921   NORMALIZED FREE ENERGY PREDICTED BY IDOCK:   -5.74 KCAL/MOL
REMARK 922        TOTAL FREE ENERGY PREDICTED BY IDOCK:  -12.06 KCAL/MOL
REMARK 923 INTER-LIGAND FREE ENERGY PREDICTED BY IDOCK:  -10.27 KCAL/MOL
REMARK 924 INTRA-LIGAND FREE ENERGY PREDICTED BY IDOCK:   -1.79 KCAL/MOL
REMARK 927      BINDING AFFINITY PREDICTED BY RF-SCORE:    0.00 PKD
ROOT
HETATM    1  C   UNL     1     -11.692   7.703  72.162  1.00  0.00    -0.355 C  
HETATM    2  C   UNL     1     -10.552   7.959  73.131  1.00  0.00    -0.342 C  
HETATM    3  C   UNL     1     -10.196   6.590  73.678  1.00  0.00    -0.286 C  
HETATM    4  O   UNL     1     -10.990   5.618  72.999  1.00  0.00    -0.248 OA 
HETATM    5  C   UNL     1     -11.556   6.232  71.850  1.00  0.00    -0.317 C  
HETATM    6  O   UNL     1     -10.684   6.145  70.724  1.00  0.00    -0.237 OA 
HETATM    7  C   UNL     1     -10.876   7.328  69.941  1.00  0.00    -0.247 C  
HETATM    8  C   UNL     1     -11.602   8.365  70.799  1.00  0.00    -0.232 C  
ENDROOT
BRANCH   8   9
HETATM    9  O   UNL     1     -10.813   9.566  70.832  1.00  0.00    -0.285 OA 
BRANCH   9  10
HETATM   10  C   UNL     1     -10.839  10.331  69.713  1.00  0.00    -0.287 C  
HETATM   11  O   UNL     1     -11.847  10.659  69.111  1.00  0.00    -0.276 OA 
HETATM   12  N   UNL     1      -9.552  10.585  69.334  1.00  0.00    -0.357 N  
HETATM   13  H   UNL     1      -8.801  10.340  69.980  1.00  0.00     0.000 HD 
BRANCH  12  14
HETATM   14  C   UNL     1      -9.191  11.192  68.044  1.00  0.00    -0.159 C  
BRANCH  14  15
HETATM   15  C   UNL     1     -10.117  10.687  66.890  1.00  0.00    -0.260 C  
BRANCH  15  16
HETATM   16  C   UNL     1      -9.484  10.587  65.512  1.00  0.00    -0.265 A  
HETATM   17  C   UNL     1     -10.242  10.839  64.361  1.00  0.00    -0.432 A  
HETATM   18  C   UNL     1      -8.142  10.203  65.358  1.00  0.00    -0.149 A  
HETATM   19  C   UNL     1      -9.674  10.707  63.090  1.00  0.00    -0.375 A  
HETATM   20  C   UNL     1      -8.338  10.332  62.954  1.00  0.00    -0.172 A  
HETATM   21  C   UNL     1      -7.570  10.088  64.089  1.00  0.00    -0.140 A  
ENDBRANCH  15  16
ENDBRANCH  14  15
BRANCH  14  22
HETATM   22  C   UNL     1      -9.161  12.751  68.068  1.00  0.00    -0.208 C  
HETATM   23  O   UNL     1      -7.897  13.243  67.601  1.00  0.00    -0.140 OA 
HETATM   24  H   UNL     1      -7.878  14.193  67.616  1.00  0.00     0.000 HD 
BRANCH  22  25
HETATM   25  C   UNL     1      -9.583  13.462  69.369  1.00  0.00     0.896 C  
BRANCH  25  26
HETATM   26  N   UNL     1     -10.849  14.314  69.385  1.00  0.00    -0.210 N  
BRANCH  26  27
HETATM   27  C   UNL     1     -11.191  14.763  70.805  1.00  0.00    -0.114 C  
HETATM   28  C   UNL     1     -12.563  14.387  71.403  1.00  0.00    -0.426 C  
HETATM   29  C   UNL     1     -12.790  12.884  71.548  1.00  0.00    -0.380 C  
HETATM   30  C   UNL     1     -12.690  15.012  72.806  1.00  0.00    -0.494 C  
ENDBRANCH  26  27
BRANCH  26  31
HETATM   31  S   UNL     1     -10.639  15.681  68.291  1.00  0.00    -0.272 S  
HETATM   32  O   UNL     1     -11.517  16.747  68.706  1.00  0.00    -0.172 OA 
HETATM   33  O   UNL     1      -9.207  15.884  68.163  1.00  0.00    -0.188 OA 
BRANCH  31  34
HETATM   34  C   UNL     1     -11.237  15.089  66.709  1.00  0.00    -0.322 A  
HETATM   35  C   UNL     1     -12.503  13.490  65.411  1.00  0.00    -0.540 A  
HETATM   36  C   UNL     1     -12.096  13.991  66.657  1.00  0.00    -0.487 A  
HETATM   37  C   UNL     1     -12.029  14.044  64.217  1.00  0.00    -0.435 A  
HETATM   38  N   UNL     1     -12.522  13.606  62.987  1.00  0.00    -0.973 NA 
HETATM   39  C   UNL     1     -11.239  15.194  64.289  1.00  0.00    -0.027 A  
HETATM   40  H1  UNL     1     -12.176  14.010  62.116  1.00  0.00     0.000 HD 
HETATM   41  C   UNL     1     -10.828  15.711  65.525  1.00  0.00    -0.356 A  
HETATM   42  H2  UNL     1     -13.538  13.697  62.999  1.00  0.00     0.000 HD 
ENDBRANCH  31  34
ENDBRANCH  26  31
ENDBRANCH  25  26
ENDBRANCH  22  25
ENDBRANCH  14  22
ENDBRANCH  12  14
ENDBRANCH   9  10
ENDBRANCH   8   9
TORSDOF 11
ENDMDL
MODEL      113
REMARK 921   NORMALIZED FREE ENERGY PREDICTED BY IDOCK:   -5.74 KCAL/MOL
REMARK 922        TOTAL FREE ENERGY PREDICTED BY IDOCK:  -12.06 KCAL/MOL
REMARK 923 INTER-LIGAND FREE ENERGY PREDICTED BY IDOCK:  -10.09 KCAL/MOL
REMARK 924 INTRA-LIGAND FREE ENERGY PREDICTED BY IDOCK:   -1.97 KCAL/MOL
REMARK 927      BINDING AFFINITY PREDICTED BY RF-SCORE:    0.00 PKD
ROOT
HETATM    1  C   UNL     1     -10.040   4.374  66.318  1.00  0.00    -0.249 C  
HETATM    2  C   UNL     1      -9.301   3.456  67.275  1.00  0.00    -0.237 C  
HETATM    3  C   UNL     1      -8.769   2.336  66.403  1.00  0.00    -0.120 C  
HETATM    4  O   UNL     1      -9.082   2.642  65.045  1.00  0.00    -0.131 OA 
HETATM    5  C   UNL     1      -9.459   4.009  64.974  1.00  0.00    -0.172 C  
HETATM    6  O   UNL     1      -8.327   4.857  64.789  1.00  0.00    -0.123 OA 
HETATM    7  C   UNL     1      -8.598   6.087  65.470  1.00  0.00    -0.143 C  
HETATM    8  C   UNL     1      -9.762   5.861  66.434  1.00  0.00    -0.134 C  
ENDROOT
BRANCH   8   9
HETATM    9  O   UNL     1      -9.341   6.232  67.757  1.00  0.00    -0.116 OA 
BRANCH   9  10
HETATM   10  C   UNL     1     -10.289   6.780  68.557  1.00  0.00    -0.190 C  
HETATM   11  O   UNL     1     -11.337   6.242  68.872  1.00  0.00    -0.373 OA 
HETATM   12  N   UNL     1      -9.910   8.055  68.863  1.00  0.00    -0.170 N  
HETATM   13  H   UNL     1      -8.964   8.349  68.621  1.00  0.00     0.000 HD 
BRANCH  12  14
HETATM   14  C   UNL     1     -10.795   9.028  69.523  1.00  0.00    -0.166 C  
BRANCH  14  15
HETATM   15  C   UNL     1     -10.233   9.465  70.915  1.00  0.00    -0.373 C  
BRANCH  15  16
HETATM   16  C   UNL     1     -10.204   8.397  71.996  1.00  0.00    -0.364 A  
HETATM   17  C   UNL     1     -11.283   7.519  72.160  1.00  0.00    -0.313 A  
HETATM   18  C   UNL     1      -9.116   8.290  72.877  1.00  0.00    -0.332 A  
HETATM   19  C   UNL     1     -11.277   6.564  73.180  1.00  0.00    -0.115 A  
HETATM   20  C   UNL     1     -10.187   6.465  74.042  1.00  0.00    -0.349 A  
HETATM   21  C   UNL     1      -9.102   7.323  73.886  1.00  0.00    -0.276 A  
ENDBRANCH  15  16
ENDBRANCH  14  15
BRANCH  14  22
HETATM   22  C   UNL     1     -11.116  10.281  68.652  1.00  0.00    -0.239 C  
HETATM   23  O   UNL     1     -12.469  10.710  68.856  1.00  0.00    -0.791 OA 
HETATM   24  H   UNL     1     -12.664  11.474  68.326  1.00  0.00     0.000 HD 
BRANCH  22  25
HETATM   25  C   UNL     1     -10.776  10.223  67.149  1.00  0.00    -0.241 C  
BRANCH  25  26
HETATM   26  N   UNL     1      -9.963  11.348  66.517  1.00  0.00    -0.206 N  
BRANCH  26  27
HETATM   27  C   UNL     1      -8.724  10.799  65.809  1.00  0.00    -0.186 C  
HETATM   28  C   UNL     1      -7.351  10.901  66.508  1.00  0.00    -0.142 C  
HETATM   29  C   UNL     1      -7.260  10.126  67.821  1.00  0.00    -0.087 C  
HETATM   30  C   UNL     1      -6.265  10.347  65.567  1.00  0.00    -0.125 C  
ENDBRANCH  26  27
BRANCH  26  31
HETATM   31  S   UNL     1     -10.998  12.266  65.423  1.00  0.00    -0.311 S  
HETATM   32  O   UNL     1     -10.699  11.879  64.067  1.00  0.00    -0.307 OA 
HETATM   33  O   UNL     1     -12.343  12.170  65.961  1.00  0.00    -0.550 OA 
BRANCH  31  34
HETATM   34  C   UNL     1     -10.465  13.965  65.619  1.00  0.00    -0.312 A  
HETATM   35  C   UNL     1      -9.100  15.620  66.735  1.00  0.00    -0.281 A  
HETATM   36  C   UNL     1      -9.463  14.278  66.537  1.00  0.00    -0.306 A  
HETATM   37  C   UNL     1      -9.757  16.655  66.059  1.00  0.00    -0.278 A  
HETATM   38  N   UNL     1      -9.318  17.974  66.185  1.00  0.00    -0.503 NA 
HETATM   39  C   UNL     1     -10.697  16.316  65.083  1.00  0.00    -0.350 A  
HETATM   40  H1  UNL     1      -9.797  18.729  65.692  1.00  0.00     0.000 HD 
HETATM   41  C   UNL     1     -11.066  14.981  64.869  1.00  0.00    -0.425 A  
HETATM   42  H2  UNL     1      -8.330  18.007  65.935  1.00  0.00     0.000 HD 
ENDBRANCH  31  34
ENDBRANCH  26  31
ENDBRANCH  25  26
ENDBRANCH  22  25
ENDBRANCH  14  22
ENDBRANCH  12  14
ENDBRANCH   9  10
ENDBRANCH   8   9
TORSDOF 11
ENDMDL
MODEL      114
REMARK 921   NORMALIZED FREE ENERGY PREDICTED BY IDOCK:   -5.74 KCAL/MOL
REMARK 922        TOTAL FREE ENERGY PREDICTED BY IDOCK:  -12.05 KCAL/MOL
REMARK 923 INTER-LIGAND FREE ENERGY PREDICTED BY IDOCK:  -10.63 KCAL/MOL
REMARK 924 INTRA-LIGAND FREE ENERGY PREDICTED BY IDOCK:   -1.42 KCAL/MOL
REMARK 927      BINDING AFFINITY PREDICTED BY RF-SCORE:    0.00 PKD
ROOT
HETATM    1  C   UNL     1      -8.185  18.385  66.309  1.00  0.00    -0.245 C  
HETATM    2  C   UNL     1      -6.711  18.277  65.965  1.00  0.00    -0.301 C  
HETATM    3  C   UNL     1      -6.358  19.619  65.351  1.00  0.00    -0.249 C  
HETATM    4  O   UNL     1      -7.506  20.462  65.435  1.00  0.00    -0.196 OA 
HETATM    5  C   UNL     1      -8.422  19.875  66.348  1.00  0.00    -0.341 C  
HETATM    6  O   UNL     1      -8.160  20.282  67.691  1.00  0.00    -0.308 OA 
HETATM    7  C   UNL     1      -8.500  19.185  68.544  1.00  0.00    -0.364 C  
HETATM    8  C   UNL     1      -8.608  17.921  67.691  1.00  0.00    -0.242 C  
ENDROOT
BRANCH   8   9
HETATM    9  O   UNL     1      -7.717  16.928  68.225  1.00  0.00    -0.189 OA 
BRANCH   9  10
HETATM   10  C   UNL     1      -8.293  15.917  68.921  1.00  0.00    -0.226 C  
HETATM   11  O   UNL     1      -7.711  15.187  69.705  1.00  0.00    -0.215 OA 
HETATM   12  N   UNL     1      -9.594  15.806  68.525  1.00  0.00    -0.199 N  
HETATM   13  H   UNL     1      -9.985  16.544  67.938  1.00  0.00     0.000 HD 
BRANCH  12  14
HETATM   14  C   UNL     1     -10.462  14.679  68.899  1.00  0.00    -0.248 C  
BRANCH  14  15
HETATM   15  C   UNL     1     -11.937  15.141  69.132  1.00  0.00    -0.304 C  
BRANCH  15  16
HETATM   16  C   UNL     1     -12.373  15.304  70.579  1.00  0.00    -0.434 A  
HETATM   17  C   UNL     1     -11.698  16.189  71.430  1.00  0.00    -0.506 A  
HETATM   18  C   UNL     1     -13.432  14.547  71.105  1.00  0.00    -0.396 A  
HETATM   19  C   UNL     1     -12.069  16.309  72.772  1.00  0.00    -0.637 A  
HETATM   20  C   UNL     1     -13.127  15.556  73.278  1.00  0.00    -0.658 A  
HETATM   21  C   UNL     1     -13.814  14.680  72.442  1.00  0.00    -0.580 A  
ENDBRANCH  15  16
ENDBRANCH  14  15
BRANCH  14  22
HETATM   22  C   UNL     1     -10.422  13.490  67.891  1.00  0.00    -0.250 C  
HETATM   23  O   UNL     1     -11.715  12.883  67.768  1.00  0.00    -0.330 OA 
HETATM   24  H   UNL     1     -11.691  12.158  67.154  1.00  0.00     0.000 HD 
BRANCH  22  25
HETATM   25  C   UNL     1      -9.326  12.422  68.077  1.00  0.00    -0.204 C  
BRANCH  25  26
HETATM   26  N   UNL     1      -9.714  11.016  68.526  1.00  0.00    -0.183 N  
BRANCH  26  27
HETATM   27  C   UNL     1     -10.894  11.056  69.497  1.00  0.00    -0.216 C  
HETATM   28  C   UNL     1     -11.275   9.776  70.270  1.00  0.00    -0.347 C  
HETATM   29  C   UNL     1     -10.186   9.268  71.212  1.00  0.00    -0.383 C  
HETATM   30  C   UNL     1     -12.529  10.056  71.121  1.00  0.00    -0.480 C  
ENDBRANCH  26  27
BRANCH  26  31
HETATM   31  S   UNL     1     -10.059  10.031  67.105  1.00  0.00    -0.224 S  
HETATM   32  O   UNL     1     -11.482  10.035  66.871  1.00  0.00     0.144 OA 
HETATM   33  O   UNL     1      -9.120  10.451  66.081  1.00  0.00    -0.154 OA 
BRANCH  31  34
HETATM   34  C   UNL     1      -9.608   8.366  67.591  1.00  0.00    -0.153 A  
HETATM   35  C   UNL     1     -10.165   6.025  67.820  1.00  0.00    -0.219 A  
HETATM   36  C   UNL     1     -10.496   7.313  67.373  1.00  0.00    -0.359 A  
HETATM   37  C   UNL     1      -8.977   5.784  68.521  1.00  0.00    -0.112 A  
HETATM   38  N   UNL     1      -8.610   4.483  68.868  1.00  0.00    -0.083 NA 
HETATM   39  C   UNL     1      -8.064   6.832  68.655  1.00  0.00    -0.120 A  
HETATM   40  H1  UNL     1      -7.745   4.308  69.379  1.00  0.00     0.000 HD 
HETATM   41  C   UNL     1      -8.376   8.124  68.208  1.00  0.00    -0.126 A  
HETATM   42  H2  UNL     1      -8.600   3.917  68.020  1.00  0.00     0.000 HD 
ENDBRANCH  31  34
ENDBRANCH  26  31
ENDBRANCH  25  26
ENDBRANCH  22  25
ENDBRANCH  14  22
ENDBRANCH  12  14
ENDBRANCH   9  10
ENDBRANCH   8   9
TORSDOF 11
ENDMDL
MODEL      115
REMARK 921   NORMALIZED FREE ENERGY PREDICTED BY IDOCK:   -5.73 KCAL/MOL
REMARK 922        TOTAL FREE ENERGY PREDICTED BY IDOCK:  -12.04 KCAL/MOL
REMARK 923 INTER-LIGAND FREE ENERGY PREDICTED BY IDOCK:  -10.22 KCAL/MOL
REMARK 924 INTRA-LIGAND FREE ENERGY PREDICTED BY IDOCK:   -1.82 KCAL/MOL
REMARK 927      BINDING AFFINITY PREDICTED BY RF-SCORE:    0.00 PKD
ROOT
HETATM    1  C   UNL     1     -10.403  15.832  67.085  1.00  0.00    -0.291 C  
HETATM    2  C   UNL     1      -9.008  15.234  67.062  1.00  0.00    -0.254 C  
HETATM    3  C   UNL     1      -8.154  16.274  66.363  1.00  0.00    -0.299 C  
HETATM    4  O   UNL     1      -8.967  17.418  66.104  1.00  0.00    -0.437 OA 
HETATM    5  C   UNL     1     -10.150  17.306  66.882  1.00  0.00    -0.304 C  
HETATM    6  O   UNL     1      -9.977  17.860  68.185  1.00  0.00    -0.311 OA 
HETATM    7  C   UNL     1     -10.777  17.090  69.088  1.00  0.00    -0.253 C  
HETATM    8  C   UNL     1     -11.157  15.778  68.401  1.00  0.00    -0.341 C  
ENDROOT
BRANCH   8   9
HETATM    9  O   UNL     1     -10.724  14.685  69.228  1.00  0.00    -0.244 OA 
BRANCH   9  10
HETATM   10  C   UNL     1     -11.537  13.600  69.262  1.00  0.00    -0.311 C  
HETATM   11  O   UNL     1     -12.572  13.520  69.902  1.00  0.00    -0.187 OA 
HETATM   12  N   UNL     1     -10.952  12.600  68.542  1.00  0.00    -0.249 N  
HETATM   13  H   UNL     1     -10.138  12.827  67.972  1.00  0.00     0.000 HD 
BRANCH  12  14
HETATM   14  C   UNL     1     -11.435  11.210  68.544  1.00  0.00    -0.302 C  
BRANCH  14  15
HETATM   15  C   UNL     1     -10.992  10.445  67.255  1.00  0.00    -0.306 C  
BRANCH  15  16
HETATM   16  C   UNL     1     -11.064  11.222  65.950  1.00  0.00    -0.168 A  
HETATM   17  C   UNL     1     -11.919  12.325  65.825  1.00  0.00    -0.362 A  
HETATM   18  C   UNL     1     -10.308  10.832  64.834  1.00  0.00    -0.369 A  
HETATM   19  C   UNL     1     -12.019  13.016  64.615  1.00  0.00    -0.445 A  
HETATM   20  C   UNL     1     -11.256  12.621  63.517  1.00  0.00    -0.489 A  
HETATM   21  C   UNL     1     -10.395  11.533  63.628  1.00  0.00    -0.467 A  
ENDBRANCH  15  16
ENDBRANCH  14  15
BRANCH  14  22
HETATM   22  C   UNL     1     -11.030  10.404  69.816  1.00  0.00    -0.293 C  
HETATM   23  O   UNL     1     -11.502  11.055  71.003  1.00  0.00    -0.256 OA 
HETATM   24  H   UNL     1     -11.256  10.564  71.778  1.00  0.00     0.000 HD 
BRANCH  22  25
HETATM   25  C   UNL     1      -9.553   9.985  69.967  1.00  0.00    -0.156 C  
BRANCH  25  26
HETATM   26  N   UNL     1      -9.214   8.640  70.601  1.00  0.00    -0.162 N  
BRANCH  26  27
HETATM   27  C   UNL     1     -10.459   7.764  70.729  1.00  0.00    -0.210 C  
HETATM   28  C   UNL     1     -10.563   6.772  71.908  1.00  0.00    -0.234 C  
HETATM   29  C   UNL     1     -10.575   7.436  73.283  1.00  0.00    -0.442 C  
HETATM   30  C   UNL     1     -11.868   5.964  71.773  1.00  0.00    -0.084 C  
ENDBRANCH  26  27
BRANCH  26  31
HETATM   31  S   UNL     1      -7.948   7.857  69.655  1.00  0.00    -0.120 S  
HETATM   32  O   UNL     1      -7.222   8.867  68.925  1.00  0.00    -0.071 OA 
HETATM   33  O   UNL     1      -7.275   6.941  70.558  1.00  0.00    -0.069 OA 
BRANCH  31  34
HETATM   34  C   UNL     1      -8.832   6.868  68.452  1.00  0.00    -0.123 A  
HETATM   35  C   UNL     1     -10.057   6.691  66.375  1.00  0.00    -0.052 A  
HETATM   36  C   UNL     1      -9.305   7.457  67.279  1.00  0.00    -0.159 A  
HETATM   37  C   UNL     1     -10.381   5.357  66.648  1.00  0.00    -0.275 A  
HETATM   38  N   UNL     1     -11.038   4.577  65.696  1.00  0.00    -0.806 NA 
HETATM   39  C   UNL     1      -9.828   4.762  67.785  1.00  0.00    -0.194 A  
HETATM   40  H1  UNL     1     -11.274   3.605  65.895  1.00  0.00     0.000 HD 
HETATM   41  C   UNL     1      -9.069   5.511  68.695  1.00  0.00    -0.128 A  
HETATM   42  H2  UNL     1     -10.496   4.603  64.832  1.00  0.00     0.000 HD 
ENDBRANCH  31  34
ENDBRANCH  26  31
ENDBRANCH  25  26
ENDBRANCH  22  25
ENDBRANCH  14  22
ENDBRANCH  12  14
ENDBRANCH   9  10
ENDBRANCH   8   9
TORSDOF 11
ENDMDL
MODEL      116
REMARK 921   NORMALIZED FREE ENERGY PREDICTED BY IDOCK:   -5.73 KCAL/MOL
REMARK 922        TOTAL FREE ENERGY PREDICTED BY IDOCK:  -12.03 KCAL/MOL
REMARK 923 INTER-LIGAND FREE ENERGY PREDICTED BY IDOCK:  -10.12 KCAL/MOL
REMARK 924 INTRA-LIGAND FREE ENERGY PREDICTED BY IDOCK:   -1.91 KCAL/MOL
REMARK 927      BINDING AFFINITY PREDICTED BY RF-SCORE:    0.00 PKD
ROOT
HETATM    1  C   UNL     1     -12.425  13.721  65.573  1.00  0.00    -0.548 C  
HETATM    2  C   UNL     1     -11.789  12.497  64.939  1.00  0.00    -0.438 C  
HETATM    3  C   UNL     1     -11.944  12.712  63.446  1.00  0.00    -0.528 C  
HETATM    4  O   UNL     1     -12.521  14.000  63.239  1.00  0.00    -0.795 OA 
HETATM    5  C   UNL     1     -12.422  14.731  64.452  1.00  0.00    -0.252 C  
HETATM    6  O   UNL     1     -11.178  15.425  64.548  1.00  0.00    -0.373 OA 
HETATM    7  C   UNL     1     -10.809  15.452  65.930  1.00  0.00    -0.325 C  
HETATM    8  C   UNL     1     -11.644  14.411  66.677  1.00  0.00    -0.384 C  
ENDROOT
BRANCH   8   9
HETATM    9  O   UNL     1     -10.754  13.510  67.356  1.00  0.00    -0.259 OA 
BRANCH   9  10
HETATM   10  C   UNL     1     -11.337  12.507  68.058  1.00  0.00    -0.289 C  
HETATM   11  O   UNL     1     -12.158  12.659  68.947  1.00  0.00    -0.262 OA 
HETATM   12  N   UNL     1     -10.780  11.325  67.664  1.00  0.00    -0.212 N  
HETATM   13  H   UNL     1     -10.179  11.325  66.841  1.00  0.00     0.000 HD 
BRANCH  12  14
HETATM   14  C   UNL     1     -11.003  10.051  68.365  1.00  0.00    -0.217 C  
BRANCH  14  15
HETATM   15  C   UNL     1     -10.482   8.836  67.531  1.00  0.00    -0.340 C  
BRANCH  15  16
HETATM   16  C   UNL     1      -9.311   9.109  66.600  1.00  0.00    -0.228 A  
HETATM   17  C   UNL     1      -9.523   9.311  65.230  1.00  0.00    -0.234 A  
HETATM   18  C   UNL     1      -7.993   9.127  67.083  1.00  0.00    -0.106 A  
HETATM   19  C   UNL     1      -8.445   9.520  64.365  1.00  0.00    -0.191 A  
HETATM   20  C   UNL     1      -7.142   9.542  64.860  1.00  0.00    -0.107 A  
HETATM   21  C   UNL     1      -6.916   9.353  66.221  1.00  0.00    -0.087 A  
ENDBRANCH  15  16
ENDBRANCH  14  15
BRANCH  14  22
HETATM   22  C   UNL     1     -10.409  10.011  69.806  1.00  0.00    -0.255 C  
HETATM   23  O   UNL     1      -9.064  10.511  69.816  1.00  0.00    -0.409 OA 
HETATM   24  H   UNL     1      -8.702  10.487  70.694  1.00  0.00     0.000 HD 
BRANCH  22  25
HETATM   25  C   UNL     1     -10.512   8.690  70.594  1.00  0.00    -0.204 C  
BRANCH  25  26
HETATM   26  N   UNL     1      -9.359   7.692  70.544  1.00  0.00    -0.163 N  
BRANCH  26  27
HETATM   27  C   UNL     1      -8.550   7.722  71.841  1.00  0.00    -0.114 C  
HETATM   28  C   UNL     1      -9.243   8.159  73.150  1.00  0.00    -0.336 C  
HETATM   29  C   UNL     1     -10.388   7.248  73.583  1.00  0.00    -0.399 C  
HETATM   30  C   UNL     1      -8.205   8.173  74.288  1.00  0.00    -0.290 C  
ENDBRANCH  26  27
BRANCH  26  31
HETATM   31  S   UNL     1      -9.998   6.085  70.201  1.00  0.00    -0.188 S  
HETATM   32  O   UNL     1      -9.362   5.134  71.078  1.00  0.00    -0.142 OA 
HETATM   33  O   UNL     1     -11.442   6.225  70.152  1.00  0.00    -0.400 OA 
BRANCH  31  34
HETATM   34  C   UNL     1      -9.441   5.725  68.536  1.00  0.00    -0.123 A  
HETATM   35  C   UNL     1      -7.665   5.593  66.901  1.00  0.00    -0.100 A  
HETATM   36  C   UNL     1      -8.085   5.808  68.223  1.00  0.00    -0.108 A  
HETATM   37  C   UNL     1      -8.588   5.339  65.880  1.00  0.00    -0.128 A  
HETATM   38  N   UNL     1      -8.152   5.024  64.593  1.00  0.00    -0.111 NA 
HETATM   39  C   UNL     1      -9.931   5.176  66.228  1.00  0.00    -0.232 A  
HETATM   40  H1  UNL     1      -8.825   4.839  63.848  1.00  0.00     0.000 HD 
HETATM   41  C   UNL     1     -10.366   5.381  67.545  1.00  0.00    -0.246 A  
HETATM   42  H2  UNL     1      -7.519   4.226  64.656  1.00  0.00     0.000 HD 
ENDBRANCH  31  34
ENDBRANCH  26  31
ENDBRANCH  25  26
ENDBRANCH  22  25
ENDBRANCH  14  22
ENDBRANCH  12  14
ENDBRANCH   9  10
ENDBRANCH   8   9
TORSDOF 11
ENDMDL
MODEL      117
REMARK 921   NORMALIZED FREE ENERGY PREDICTED BY IDOCK:   -5.73 KCAL/MOL
REMARK 922        TOTAL FREE ENERGY PREDICTED BY IDOCK:  -12.03 KCAL/MOL
REMARK 923 INTER-LIGAND FREE ENERGY PREDICTED BY IDOCK:   -9.54 KCAL/MOL
REMARK 924 INTRA-LIGAND FREE ENERGY PREDICTED BY IDOCK:   -2.49 KCAL/MOL
REMARK 927      BINDING AFFINITY PREDICTED BY RF-SCORE:    0.00 PKD
ROOT
HETATM    1  C   UNL     1     -10.745  15.978  67.221  1.00  0.00    -0.295 C  
HETATM    2  C   UNL     1      -9.516  15.163  66.860  1.00  0.00    -0.253 C  
HETATM    3  C   UNL     1      -8.676  16.089  66.002  1.00  0.00    -0.232 C  
HETATM    4  O   UNL     1      -9.316  17.364  65.965  1.00  0.00    -0.476 OA 
HETATM    5  C   UNL     1     -10.293  17.401  66.995  1.00  0.00    -0.318 C  
HETATM    6  O   UNL     1      -9.735  17.840  68.233  1.00  0.00    -0.290 OA 
HETATM    7  C   UNL     1     -10.431  17.157  69.282  1.00  0.00    -0.267 C  
HETATM    8  C   UNL     1     -11.178  15.969  68.676  1.00  0.00    -0.366 C  
ENDROOT
BRANCH   8   9
HETATM    9  O   UNL     1     -10.766  14.772  69.356  1.00  0.00    -0.242 OA 
BRANCH   9  10
HETATM   10  C   UNL     1     -11.616  13.719  69.285  1.00  0.00    -0.312 C  
HETATM   11  O   UNL     1     -12.707  13.662  69.826  1.00  0.00    -0.114 OA 
HETATM   12  N   UNL     1     -11.003  12.715  68.592  1.00  0.00    -0.247 N  
HETATM   13  H   UNL     1     -10.133  12.927  68.104  1.00  0.00     0.000 HD 
BRANCH  12  14
HETATM   14  C   UNL     1     -11.533  11.345  68.510  1.00  0.00    -0.297 C  
BRANCH  14  15
HETATM   15  C   UNL     1     -11.022  10.606  67.231  1.00  0.00    -0.348 C  
BRANCH  15  16
HETATM   16  C   UNL     1     -11.179  11.348  65.914  1.00  0.00    -0.172 A  
HETATM   17  C   UNL     1     -10.345  11.053  64.828  1.00  0.00    -0.389 A  
HETATM   18  C   UNL     1     -12.133  12.367  65.767  1.00  0.00    -0.381 A  
HETATM   19  C   UNL     1     -10.458  11.763  63.629  1.00  0.00    -0.490 A  
HETATM   20  C   UNL     1     -11.415  12.768  63.496  1.00  0.00    -0.521 A  
HETATM   21  C   UNL     1     -12.258  13.065  64.563  1.00  0.00    -0.476 A  
ENDBRANCH  15  16
ENDBRANCH  14  15
BRANCH  14  22
HETATM   22  C   UNL     1     -11.254  10.485  69.780  1.00  0.00    -0.298 C  
HETATM   23  O   UNL     1     -12.092  10.897  70.869  1.00  0.00    -0.332 OA 
HETATM   24  H   UNL     1     -11.923  10.373  71.642  1.00  0.00     0.000 HD 
BRANCH  22  25
HETATM   25  C   UNL     1      -9.791  10.328  70.239  1.00  0.00     0.183 C  
BRANCH  25  26
HETATM   26  N   UNL     1      -9.195   8.931  70.390  1.00  0.00    -0.178 N  
BRANCH  26  27
HETATM   27  C   UNL     1      -9.832   7.954  69.402  1.00  0.00    -0.180 C  
HETATM   28  C   UNL     1     -10.554   6.701  69.943  1.00  0.00    -0.268 C  
HETATM   29  C   UNL     1     -11.768   7.009  70.816  1.00  0.00    -0.394 C  
HETATM   30  C   UNL     1     -11.042   5.849  68.756  1.00  0.00    -0.218 C  
ENDBRANCH  26  27
BRANCH  26  31
HETATM   31  S   UNL     1      -7.445   9.025  70.193  1.00  0.00    -0.084 S  
HETATM   32  O   UNL     1      -6.941  10.094  71.019  1.00  0.00    -0.320 OA 
HETATM   33  O   UNL     1      -6.949   7.667  70.323  1.00  0.00    -0.049 OA 
BRANCH  31  34
HETATM   34  C   UNL     1      -7.209   9.518  68.487  1.00  0.00    -0.071 A  
HETATM   35  C   UNL     1      -6.402   9.041  66.258  1.00  0.00    -0.065 A  
HETATM   36  C   UNL     1      -6.648   8.623  67.576  1.00  0.00    -0.058 A  
HETATM   37  C   UNL     1      -6.668  10.353  65.852  1.00  0.00    -0.127 A  
HETATM   38  N   UNL     1      -6.518  10.727  64.517  1.00  0.00    -0.359 NA 
HETATM   39  C   UNL     1      -7.307  11.208  66.754  1.00  0.00    -0.146 A  
HETATM   40  H1  UNL     1      -6.712  11.684  64.220  1.00  0.00     0.000 HD 
HETATM   41  C   UNL     1      -7.566  10.805  68.071  1.00  0.00    -0.092 A  
HETATM   42  H2  UNL     1      -7.078  10.096  63.943  1.00  0.00     0.000 HD 
ENDBRANCH  31  34
ENDBRANCH  26  31
ENDBRANCH  25  26
ENDBRANCH  22  25
ENDBRANCH  14  22
ENDBRANCH  12  14
ENDBRANCH   9  10
ENDBRANCH   8   9
TORSDOF 11
ENDMDL
MODEL      118
REMARK 921   NORMALIZED FREE ENERGY PREDICTED BY IDOCK:   -5.72 KCAL/MOL
REMARK 922        TOTAL FREE ENERGY PREDICTED BY IDOCK:  -12.02 KCAL/MOL
REMARK 923 INTER-LIGAND FREE ENERGY PREDICTED BY IDOCK:   -9.74 KCAL/MOL
REMARK 924 INTRA-LIGAND FREE ENERGY PREDICTED BY IDOCK:   -2.28 KCAL/MOL
REMARK 927      BINDING AFFINITY PREDICTED BY RF-SCORE:    0.00 PKD
ROOT
HETATM    1  C   UNL     1     -10.456  16.388  67.232  1.00  0.00    -0.303 C  
HETATM    2  C   UNL     1      -9.187  15.598  66.971  1.00  0.00    -0.239 C  
HETATM    3  C   UNL     1      -8.345  16.501  66.090  1.00  0.00    -0.270 C  
HETATM    4  O   UNL     1      -9.027  17.746  65.948  1.00  0.00    -0.511 OA 
HETATM    5  C   UNL     1     -10.046  17.809  66.935  1.00  0.00    -0.342 C  
HETATM    6  O   UNL     1      -9.554  18.344  68.164  1.00  0.00    -0.291 OA 
HETATM    7  C   UNL     1     -10.268  17.702  69.225  1.00  0.00    -0.147 C  
HETATM    8  C   UNL     1     -10.948  16.451  68.667  1.00  0.00    -0.345 C  
ENDROOT
BRANCH   8   9
HETATM    9  O   UNL     1     -10.522  15.314  69.436  1.00  0.00    -0.226 OA 
BRANCH   9  10
HETATM   10  C   UNL     1     -11.420  14.307  69.566  1.00  0.00    -0.287 C  
HETATM   11  O   UNL     1     -12.472  14.382  70.179  1.00  0.00    -0.342 OA 
HETATM   12  N   UNL     1     -10.903  13.189  68.980  1.00  0.00    -0.394 N  
HETATM   13  H   UNL     1     -10.061  13.286  68.413  1.00  0.00     0.000 HD 
BRANCH  12  14
HETATM   14  C   UNL     1     -11.496  11.850  69.122  1.00  0.00    -0.296 C  
BRANCH  14  15
HETATM   15  C   UNL     1     -12.023  11.305  67.755  1.00  0.00    -0.014 C  
BRANCH  15  16
HETATM   16  C   UNL     1     -11.763  12.176  66.536  1.00  0.00    -0.392 A  
HETATM   17  C   UNL     1     -10.663  11.927  65.706  1.00  0.00    -0.327 A  
HETATM   18  C   UNL     1     -12.593  13.268  66.238  1.00  0.00    -0.140 A  
HETATM   19  C   UNL     1     -10.397  12.752  64.609  1.00  0.00    -0.362 A  
HETATM   20  C   UNL     1     -11.234  13.828  64.321  1.00  0.00    -0.321 A  
HETATM   21  C   UNL     1     -12.338  14.082  65.131  1.00  0.00    -0.468 A  
ENDBRANCH  15  16
ENDBRANCH  14  15
BRANCH  14  22
HETATM   22  C   UNL     1     -10.549  10.808  69.790  1.00  0.00    -0.140 C  
HETATM   23  O   UNL     1      -9.869  10.028  68.797  1.00  0.00    -0.156 OA 
HETATM   24  H   UNL     1      -9.291   9.393  69.203  1.00  0.00     0.000 HD 
BRANCH  22  25
HETATM   25  C   UNL     1     -11.132   9.905  70.896  1.00  0.00    -0.348 C  
BRANCH  25  26
HETATM   26  N   UNL     1     -10.433   8.594  71.243  1.00  0.00    -0.223 N  
BRANCH  26  27
HETATM   27  C   UNL     1      -9.297   8.824  72.239  1.00  0.00    -0.153 C  
HETATM   28  C   UNL     1      -8.215   7.737  72.410  1.00  0.00    -0.155 C  
HETATM   29  C   UNL     1      -7.398   7.465  71.148  1.00  0.00    -0.072 C  
HETATM   30  C   UNL     1      -7.231   8.174  73.512  1.00  0.00    -0.174 C  
ENDBRANCH  26  27
BRANCH  26  31
HETATM   31  S   UNL     1     -11.626   7.447  71.853  1.00  0.00    -0.283 S  
HETATM   32  O   UNL     1     -11.735   7.606  73.282  1.00  0.00    -0.142 OA 
HETATM   33  O   UNL     1     -12.784   7.565  70.985  1.00  0.00    -0.265 OA 
BRANCH  31  34
HETATM   34  C   UNL     1     -10.897   5.838  71.554  1.00  0.00    -0.253 A  
HETATM   35  C   UNL     1     -10.019   3.746  72.389  1.00  0.00    -0.232 A  
HETATM   36  C   UNL     1     -10.654   4.975  72.623  1.00  0.00    -0.274 A  
HETATM   37  C   UNL     1      -9.583   3.387  71.108  1.00  0.00    -0.164 A  
HETATM   38  N   UNL     1      -9.048   2.120  70.870  1.00  0.00    -0.083 NA 
HETATM   39  C   UNL     1      -9.911   4.225  70.040  1.00  0.00    -0.275 A  
HETATM   40  H1  UNL     1      -8.731   1.859  69.937  1.00  0.00     0.000 HD 
HETATM   41  C   UNL     1     -10.551   5.453  70.255  1.00  0.00    -0.329 A  
HETATM   42  H2  UNL     1      -9.724   1.424  71.184  1.00  0.00     0.000 HD 
ENDBRANCH  31  34
ENDBRANCH  26  31
ENDBRANCH  25  26
ENDBRANCH  22  25
ENDBRANCH  14  22
ENDBRANCH  12  14
ENDBRANCH   9  10
ENDBRANCH   8   9
TORSDOF 11
ENDMDL
MODEL      119
REMARK 921   NORMALIZED FREE ENERGY PREDICTED BY IDOCK:   -5.71 KCAL/MOL
REMARK 922        TOTAL FREE ENERGY PREDICTED BY IDOCK:  -12.00 KCAL/MOL
REMARK 923 INTER-LIGAND FREE ENERGY PREDICTED BY IDOCK:  -10.40 KCAL/MOL
REMARK 924 INTRA-LIGAND FREE ENERGY PREDICTED BY IDOCK:   -1.59 KCAL/MOL
REMARK 927      BINDING AFFINITY PREDICTED BY RF-SCORE:    0.00 PKD
ROOT
HETATM    1  C   UNL     1      -9.350  16.309  67.123  1.00  0.00    -0.232 C  
HETATM    2  C   UNL     1      -8.117  16.060  67.973  1.00  0.00    -0.148 C  
HETATM    3  C   UNL     1      -7.646  17.442  68.384  1.00  0.00    -0.255 C  
HETATM    4  O   UNL     1      -8.591  18.396  67.902  1.00  0.00    -0.262 OA 
HETATM    5  C   UNL     1      -9.771  17.701  67.526  1.00  0.00    -0.280 C  
HETATM    6  O   UNL     1     -10.661  17.540  68.631  1.00  0.00    -0.350 OA 
HETATM    7  C   UNL     1     -11.340  16.293  68.455  1.00  0.00    -0.312 C  
HETATM    8  C   UNL     1     -10.576  15.465  67.421  1.00  0.00    -0.289 C  
ENDROOT
BRANCH   8   9
HETATM    9  O   UNL     1     -10.233  14.200  68.008  1.00  0.00    -0.224 OA 
BRANCH   9  10
HETATM   10  C   UNL     1     -10.821  13.106  67.464  1.00  0.00    -0.255 C  
HETATM   11  O   UNL     1     -11.850  13.116  66.810  1.00  0.00    -0.360 OA 
HETATM   12  N   UNL     1     -10.119  12.001  67.851  1.00  0.00    -0.190 N  
HETATM   13  H   UNL     1      -9.219  12.137  68.312  1.00  0.00     0.000 HD 
BRANCH  12  14
HETATM   14  C   UNL     1     -10.592  10.625  67.638  1.00  0.00    -0.246 C  
BRANCH  14  15
HETATM   15  C   UNL     1      -9.587   9.798  66.771  1.00  0.00    -0.228 C  
BRANCH  15  16
HETATM   16  C   UNL     1      -9.457  10.208  65.313  1.00  0.00    -0.306 A  
HETATM   17  C   UNL     1      -8.301   9.897  64.586  1.00  0.00    -0.166 A  
HETATM   18  C   UNL     1     -10.472  10.939  64.674  1.00  0.00    -0.384 A  
HETATM   19  C   UNL     1      -8.161  10.309  63.258  1.00  0.00    -0.157 A  
HETATM   20  C   UNL     1      -9.179  11.028  62.636  1.00  0.00    -0.363 A  
HETATM   21  C   UNL     1     -10.339  11.336  63.341  1.00  0.00    -0.449 A  
ENDBRANCH  15  16
ENDBRANCH  14  15
BRANCH  14  22
HETATM   22  C   UNL     1     -10.924   9.860  68.956  1.00  0.00    -0.190 C  
HETATM   23  O   UNL     1     -10.848   8.442  68.755  1.00  0.00    -0.418 OA 
HETATM   24  H   UNL     1     -11.050   7.976  69.558  1.00  0.00     0.000 HD 
BRANCH  22  25
HETATM   25  C   UNL     1     -12.215  10.243  69.707  1.00  0.00    -0.006 C  
BRANCH  25  26
HETATM   26  N   UNL     1     -12.198  10.343  71.229  1.00  0.00    -0.380 N  
BRANCH  26  27
HETATM   27  C   UNL     1     -13.202  11.385  71.721  1.00  0.00    -0.367 C  
HETATM   28  C   UNL     1     -12.736  12.843  71.924  1.00  0.00    -0.202 C  
HETATM   29  C   UNL     1     -12.261  13.529  70.645  1.00  0.00    -0.434 C  
HETATM   30  C   UNL     1     -13.906  13.672  72.488  1.00  0.00    -0.620 C  
ENDBRANCH  26  27
BRANCH  26  31
HETATM   31  S   UNL     1     -12.507   8.750  71.918  1.00  0.00    -0.400 S  
HETATM   32  O   UNL     1     -13.436   8.888  73.011  1.00  0.00    -0.299 OA 
HETATM   33  O   UNL     1     -12.779   7.869  70.797  1.00  0.00    -0.019 OA 
BRANCH  31  34
HETATM   34  C   UNL     1     -10.935   8.250  72.619  1.00  0.00    -0.316 A  
HETATM   35  C   UNL     1      -8.519   8.311  72.605  1.00  0.00    -0.248 A  
HETATM   36  C   UNL     1      -9.747   8.761  72.097  1.00  0.00    -0.335 A  
HETATM   37  C   UNL     1      -8.462   7.325  73.597  1.00  0.00    -0.149 A  
HETATM   38  N   UNL     1      -7.241   6.962  74.167  1.00  0.00    -0.092 NA 
HETATM   39  C   UNL     1      -9.661   6.888  74.165  1.00  0.00    -0.308 A  
HETATM   40  H1  UNL     1      -7.200   6.243  74.890  1.00  0.00     0.000 HD 
HETATM   41  C   UNL     1     -10.896   7.332  73.674  1.00  0.00    -0.169 A  
HETATM   42  H2  UNL     1      -6.795   7.804  74.529  1.00  0.00     0.000 HD 
ENDBRANCH  31  34
ENDBRANCH  26  31
ENDBRANCH  25  26
ENDBRANCH  22  25
ENDBRANCH  14  22
ENDBRANCH  12  14
ENDBRANCH   9  10
ENDBRANCH   8   9
TORSDOF 11
ENDMDL
MODEL      120
REMARK 921   NORMALIZED FREE ENERGY PREDICTED BY IDOCK:   -5.71 KCAL/MOL
REMARK 922        TOTAL FREE ENERGY PREDICTED BY IDOCK:  -12.00 KCAL/MOL
REMARK 923 INTER-LIGAND FREE ENERGY PREDICTED BY IDOCK:  -10.66 KCAL/MOL
REMARK 924 INTRA-LIGAND FREE ENERGY PREDICTED BY IDOCK:   -1.34 KCAL/MOL
REMARK 927      BINDING AFFINITY PREDICTED BY RF-SCORE:    0.00 PKD
ROOT
HETATM    1  C   UNL     1     -10.971  15.491  66.382  1.00  0.00    -0.238 C  
HETATM    2  C   UNL     1     -11.416  14.744  65.138  1.00  0.00    -0.371 C  
HETATM    3  C   UNL     1     -11.602  15.821  64.087  1.00  0.00    -0.076 C  
HETATM    4  O   UNL     1     -11.193  17.067  64.649  1.00  0.00    -0.968 OA 
HETATM    5  C   UNL     1     -10.457  16.799  65.833  1.00  0.00    -0.301 C  
HETATM    6  O   UNL     1      -9.072  16.595  65.556  1.00  0.00    -0.405 OA 
HETATM    7  C   UNL     1      -8.584  15.636  66.501  1.00  0.00    -0.300 C  
HETATM    8  C   UNL     1      -9.780  14.929  67.137  1.00  0.00    -0.228 C  
ENDROOT
BRANCH   8   9
HETATM    9  O   UNL     1      -9.634  13.513  66.940  1.00  0.00    -0.241 OA 
BRANCH   9  10
HETATM   10  C   UNL     1      -9.507  12.761  68.061  1.00  0.00    -0.213 C  
HETATM   11  O   UNL     1      -8.457  12.311  68.487  1.00  0.00    -0.152 OA 
HETATM   12  N   UNL     1     -10.752  12.523  68.566  1.00  0.00    -0.234 N  
HETATM   13  H   UNL     1     -11.539  13.041  68.174  1.00  0.00     0.000 HD 
BRANCH  12  14
HETATM   14  C   UNL     1     -11.020  11.559  69.644  1.00  0.00    -0.064 C  
BRANCH  14  15
HETATM   15  C   UNL     1     -12.438  11.771  70.266  1.00  0.00    -0.237 C  
BRANCH  15  16
HETATM   16  C   UNL     1     -12.702  13.127  70.900  1.00  0.00    -0.313 A  
HETATM   17  C   UNL     1     -13.335  13.219  72.147  1.00  0.00    -0.618 A  
HETATM   18  C   UNL     1     -12.355  14.315  70.237  1.00  0.00    -0.418 A  
HETATM   19  C   UNL     1     -13.617  14.465  72.713  1.00  0.00    -0.531 A  
HETATM   20  C   UNL     1     -13.260  15.636  72.046  1.00  0.00    -0.541 A  
HETATM   21  C   UNL     1     -12.622  15.561  70.811  1.00  0.00    -0.505 A  
ENDBRANCH  15  16
ENDBRANCH  14  15
BRANCH  14  22
HETATM   22  C   UNL     1     -10.832  10.071  69.221  1.00  0.00    -0.230 C  
HETATM   23  O   UNL     1     -11.593   9.777  68.041  1.00  0.00    -0.535 OA 
HETATM   24  H   UNL     1     -11.479   8.870  67.783  1.00  0.00     0.000 HD 
BRANCH  22  25
HETATM   25  C   UNL     1     -11.038   8.983  70.294  1.00  0.00    -0.235 C  
BRANCH  25  26
HETATM   26  N   UNL     1      -9.858   8.114  70.720  1.00  0.00    -0.179 N  
BRANCH  26  27
HETATM   27  C   UNL     1      -8.623   8.967  71.007  1.00  0.00    -0.210 C  
HETATM   28  C   UNL     1      -7.286   8.609  70.325  1.00  0.00    -0.049 C  
HETATM   29  C   UNL     1      -7.317   8.709  68.801  1.00  0.00    -0.083 C  
HETATM   30  C   UNL     1      -6.190   9.568  70.829  1.00  0.00    -0.078 C  
ENDBRANCH  26  27
BRANCH  26  31
HETATM   31  S   UNL     1     -10.330   7.141  72.113  1.00  0.00    -0.198 S  
HETATM   32  O   UNL     1      -9.405   7.393  73.190  1.00  0.00    -0.155 OA 
HETATM   33  O   UNL     1     -11.759   7.335  72.279  1.00  0.00    -0.275 OA 
BRANCH  31  34
HETATM   34  C   UNL     1     -10.079   5.447  71.586  1.00  0.00    -0.203 A  
HETATM   35  C   UNL     1      -9.747   3.112  72.118  1.00  0.00    -0.230 A  
HETATM   36  C   UNL     1     -10.014   4.426  72.534  1.00  0.00    -0.225 A  
HETATM   37  C   UNL     1      -9.501   2.814  70.773  1.00  0.00    -0.149 A  
HETATM   38  N   UNL     1      -9.341   1.491  70.358  1.00  0.00    -0.094 NA 
HETATM   39  C   UNL     1      -9.654   3.833  69.830  1.00  0.00    -0.255 A  
HETATM   40  H1  UNL     1      -9.161   1.273  69.378  1.00  0.00     0.000 HD 
HETATM   41  C   UNL     1      -9.926   5.149  70.228  1.00  0.00    -0.320 A  
HETATM   42  H2  UNL     1     -10.160   0.961  70.658  1.00  0.00     0.000 HD 
ENDBRANCH  31  34
ENDBRANCH  26  31
ENDBRANCH  25  26
ENDBRANCH  22  25
ENDBRANCH  14  22
ENDBRANCH  12  14
ENDBRANCH   9  10
ENDBRANCH   8   9
TORSDOF 11
ENDMDL
MODEL      121
REMARK 921   NORMALIZED FREE ENERGY PREDICTED BY IDOCK:   -5.68 KCAL/MOL
REMARK 922        TOTAL FREE ENERGY PREDICTED BY IDOCK:  -11.95 KCAL/MOL
REMARK 923 INTER-LIGAND FREE ENERGY PREDICTED BY IDOCK:  -10.61 KCAL/MOL
REMARK 924 INTRA-LIGAND FREE ENERGY PREDICTED BY IDOCK:   -1.35 KCAL/MOL
REMARK 927      BINDING AFFINITY PREDICTED BY RF-SCORE:    0.00 PKD
ROOT
HETATM    1  C   UNL     1     -11.766   8.984  70.780  1.00  0.00    -0.286 C  
HETATM    2  C   UNL     1     -12.107  10.423  71.124  1.00  0.00    -0.487 C  
HETATM    3  C   UNL     1     -13.400  10.334  71.913  1.00  0.00    -0.383 C  
HETATM    4  O   UNL     1     -13.714   8.955  72.100  1.00  0.00    -0.414 OA 
HETATM    5  C   UNL     1     -12.558   8.190  71.790  1.00  0.00    -0.330 C  
HETATM    6  O   UNL     1     -11.709   8.037  72.927  1.00  0.00    -0.369 OA 
HETATM    7  C   UNL     1     -10.360   8.002  72.451  1.00  0.00    -0.289 C  
HETATM    8  C   UNL     1     -10.335   8.538  71.019  1.00  0.00    -0.209 C  
ENDROOT
BRANCH   8   9
HETATM    9  O   UNL     1      -9.408   9.634  70.955  1.00  0.00    -0.169 OA 
BRANCH   9  10
HETATM   10  C   UNL     1      -8.619   9.689  69.854  1.00  0.00    -0.203 C  
HETATM   11  O   UNL     1      -7.479   9.261  69.786  1.00  0.00    -0.062 OA 
HETATM   12  N   UNL     1      -9.283  10.379  68.882  1.00  0.00    -0.168 N  
HETATM   13  H   UNL     1     -10.269  10.594  69.029  1.00  0.00     0.000 HD 
BRANCH  12  14
HETATM   14  C   UNL     1      -8.651  10.830  67.632  1.00  0.00    -0.123 C  
BRANCH  14  15
HETATM   15  C   UNL     1      -9.279  10.129  66.384  1.00  0.00    -0.190 C  
BRANCH  15  16
HETATM   16  C   UNL     1      -9.404   8.616  66.451  1.00  0.00    -0.271 A  
HETATM   17  C   UNL     1      -8.374   7.795  65.976  1.00  0.00    -0.134 A  
HETATM   18  C   UNL     1     -10.566   8.008  66.953  1.00  0.00    -0.324 A  
HETATM   19  C   UNL     1      -8.504   6.403  65.997  1.00  0.00    -0.144 A  
HETATM   20  C   UNL     1      -9.660   5.814  66.505  1.00  0.00    -0.175 A  
HETATM   21  C   UNL     1     -10.689   6.617  66.990  1.00  0.00    -0.437 A  
ENDBRANCH  15  16
ENDBRANCH  14  15
BRANCH  14  22
HETATM   22  C   UNL     1      -8.659  12.378  67.443  1.00  0.00    -0.181 C  
HETATM   23  O   UNL     1      -8.352  13.042  68.677  1.00  0.00    -0.311 OA 
HETATM   24  H   UNL     1      -8.356  13.986  68.562  1.00  0.00     0.000 HD 
BRANCH  22  25
HETATM   25  C   UNL     1      -9.887  13.017  66.764  1.00  0.00    -0.243 C  
BRANCH  25  26
HETATM   26  N   UNL     1      -9.697  13.863  65.509  1.00  0.00    -0.158 N  
BRANCH  26  27
HETATM   27  C   UNL     1     -10.435  13.252  64.318  1.00  0.00    -0.352 C  
HETATM   28  C   UNL     1     -11.603  12.276  64.577  1.00  0.00    -0.418 C  
HETATM   29  C   UNL     1     -12.784  12.899  65.317  1.00  0.00    -0.389 C  
HETATM   30  C   UNL     1     -12.128  11.750  63.227  1.00  0.00    -0.375 C  
ENDBRANCH  26  27
BRANCH  26  31
HETATM   31  S   UNL     1     -10.225  15.513  65.839  1.00  0.00    -0.375 S  
HETATM   32  O   UNL     1      -9.103  16.402  65.672  1.00  0.00    -0.446 OA 
HETATM   33  O   UNL     1     -11.460  15.700  65.098  1.00  0.00    -0.224 OA 
BRANCH  31  34
HETATM   34  C   UNL     1     -10.645  15.512  67.581  1.00  0.00    -0.291 A  
HETATM   35  C   UNL     1     -10.135  16.134  69.861  1.00  0.00    -0.074 A  
HETATM   36  C   UNL     1      -9.840  16.198  68.490  1.00  0.00    -0.226 A  
HETATM   37  C   UNL     1     -11.198  15.358  70.338  1.00  0.00    -0.323 A  
HETATM   38  N   UNL     1     -11.545  15.385  71.689  1.00  0.00    -0.389 NA 
HETATM   39  C   UNL     1     -12.042  14.748  69.407  1.00  0.00    -0.305 A  
HETATM   40  H1  UNL     1     -12.320  14.819  72.037  1.00  0.00     0.000 HD 
HETATM   41  C   UNL     1     -11.765  14.807  68.034  1.00  0.00    -0.360 A  
HETATM   42  H2  UNL     1     -11.714  16.355  71.956  1.00  0.00     0.000 HD 
ENDBRANCH  31  34
ENDBRANCH  26  31
ENDBRANCH  25  26
ENDBRANCH  22  25
ENDBRANCH  14  22
ENDBRANCH  12  14
ENDBRANCH   9  10
ENDBRANCH   8   9
TORSDOF 11
ENDMDL
MODEL      122
REMARK 921   NORMALIZED FREE ENERGY PREDICTED BY IDOCK:   -5.66 KCAL/MOL
REMARK 922        TOTAL FREE ENERGY PREDICTED BY IDOCK:  -11.92 KCAL/MOL
REMARK 923 INTER-LIGAND FREE ENERGY PREDICTED BY IDOCK:   -9.85 KCAL/MOL
REMARK 924 INTRA-LIGAND FREE ENERGY PREDICTED BY IDOCK:   -2.07 KCAL/MOL
REMARK 927      BINDING AFFINITY PREDICTED BY RF-SCORE:    0.00 PKD
ROOT
HETATM    1  C   UNL     1     -10.770   9.629  70.504  1.00  0.00    -0.374 C  
HETATM    2  C   UNL     1     -11.106   8.449  69.611  1.00  0.00    -0.011 C  
HETATM    3  C   UNL     1     -11.217   7.269  70.558  1.00  0.00    -0.279 C  
HETATM    4  O   UNL     1     -11.067   7.752  71.892  1.00  0.00    -0.240 OA 
HETATM    5  C   UNL     1     -11.210   9.165  71.870  1.00  0.00    -0.329 C  
HETATM    6  O   UNL     1     -12.576   9.557  72.000  1.00  0.00    -0.379 OA 
HETATM    7  C   UNL     1     -12.751  10.755  71.238  1.00  0.00    -0.441 C  
HETATM    8  C   UNL     1     -11.562  10.906  70.289  1.00  0.00    -0.334 C  
ENDROOT
BRANCH   8   9
HETATM    9  O   UNL     1     -12.058  11.015  68.945  1.00  0.00    -0.479 OA 
BRANCH   9  10
HETATM   10  C   UNL     1     -11.892  12.217  68.339  1.00  0.00    -0.303 C  
HETATM   11  O   UNL     1     -12.227  12.477  67.197  1.00  0.00    -0.474 OA 
HETATM   12  N   UNL     1     -11.210  13.038  69.190  1.00  0.00    -0.346 N  
HETATM   13  H   UNL     1     -11.079  12.733  70.155  1.00  0.00     0.000 HD 
BRANCH  12  14
HETATM   14  C   UNL     1     -10.655  14.340  68.789  1.00  0.00    -0.252 C  
BRANCH  14  15
HETATM   15  C   UNL     1     -10.547  15.318  70.004  1.00  0.00    -0.288 C  
BRANCH  15  16
HETATM   16  C   UNL     1     -11.682  15.268  71.014  1.00  0.00    -0.394 A  
HETATM   17  C   UNL     1     -13.014  15.380  70.594  1.00  0.00    -0.450 A  
HETATM   18  C   UNL     1     -11.422  15.149  72.388  1.00  0.00    -0.395 A  
HETATM   19  C   UNL     1     -14.057  15.377  71.524  1.00  0.00    -0.596 A  
HETATM   20  C   UNL     1     -13.784  15.251  72.885  1.00  0.00    -0.531 A  
HETATM   21  C   UNL     1     -12.466  15.129  73.317  1.00  0.00    -0.598 A  
ENDBRANCH  15  16
ENDBRANCH  14  15
BRANCH  14  22
HETATM   22  C   UNL     1      -9.285  14.241  68.052  1.00  0.00    -0.192 C  
HETATM   23  O   UNL     1      -9.478  14.069  66.641  1.00  0.00    -0.270 OA 
HETATM   24  H   UNL     1      -8.643  14.009  66.191  1.00  0.00     0.000 HD 
BRANCH  22  25
HETATM   25  C   UNL     1      -8.244  13.241  68.593  1.00  0.00    -0.014 C  
BRANCH  25  26
HETATM   26  N   UNL     1      -8.225  11.812  68.059  1.00  0.00    -0.143 N  
BRANCH  26  27
HETATM   27  C   UNL     1      -8.649  11.769  66.591  1.00  0.00    -0.170 C  
HETATM   28  C   UNL     1      -8.874  10.400  65.913  1.00  0.00    -0.179 C  
HETATM   29  C   UNL     1     -10.003   9.577  66.529  1.00  0.00    -0.329 C  
HETATM   30  C   UNL     1      -9.221  10.625  64.429  1.00  0.00    -0.267 C  
ENDBRANCH  26  27
BRANCH  26  31
HETATM   31  S   UNL     1      -6.621  11.123  68.305  1.00  0.00    -0.059 S  
HETATM   32  O   UNL     1      -6.092  10.707  67.030  1.00  0.00    -0.057 OA 
HETATM   33  O   UNL     1      -5.904  12.056  69.156  1.00  0.00    -0.060 OA 
BRANCH  31  34
HETATM   34  C   UNL     1      -6.910   9.639  69.267  1.00  0.00    -0.050 A  
HETATM   35  C   UNL     1      -7.373   7.269  69.378  1.00  0.00    -0.089 A  
HETATM   36  C   UNL     1      -7.077   8.414  68.622  1.00  0.00    -0.072 A  
HETATM   37  C   UNL     1      -7.549   7.341  70.764  1.00  0.00    -0.084 A  
HETATM   38  N   UNL     1      -7.739   6.181  71.517  1.00  0.00    -0.099 NA 
HETATM   39  C   UNL     1      -7.295   8.558  71.401  1.00  0.00    -0.104 A  
HETATM   40  H1  UNL     1      -7.867   6.234  72.527  1.00  0.00     0.000 HD 
HETATM   41  C   UNL     1      -6.991   9.710  70.662  1.00  0.00    -0.115 A  
HETATM   42  H2  UNL     1      -6.964   5.546  71.326  1.00  0.00     0.000 HD 
ENDBRANCH  31  34
ENDBRANCH  26  31
ENDBRANCH  25  26
ENDBRANCH  22  25
ENDBRANCH  14  22
ENDBRANCH  12  14
ENDBRANCH   9  10
ENDBRANCH   8   9
TORSDOF 11
ENDMDL
MODEL      123
REMARK 921   NORMALIZED FREE ENERGY PREDICTED BY IDOCK:   -5.65 KCAL/MOL
REMARK 922        TOTAL FREE ENERGY PREDICTED BY IDOCK:  -11.90 KCAL/MOL
REMARK 923 INTER-LIGAND FREE ENERGY PREDICTED BY IDOCK:  -11.14 KCAL/MOL
REMARK 924 INTRA-LIGAND FREE ENERGY PREDICTED BY IDOCK:   -0.76 KCAL/MOL
REMARK 927      BINDING AFFINITY PREDICTED BY RF-SCORE:    0.00 PKD
ROOT
HETATM    1  C   UNL     1     -12.809  15.652  70.895  1.00  0.00    -0.498 C  
HETATM    2  C   UNL     1     -12.115  16.179  72.138  1.00  0.00    -0.593 C  
HETATM    3  C   UNL     1     -13.094  15.915  73.266  1.00  0.00    -0.589 C  
HETATM    4  O   UNL     1     -14.207  15.199  72.733  1.00  0.00    -0.369 OA 
HETATM    5  C   UNL     1     -13.844  14.706  71.451  1.00  0.00    -0.403 C  
HETATM    6  O   UNL     1     -13.208  13.431  71.540  1.00  0.00    -0.357 OA 
HETATM    7  C   UNL     1     -12.241  13.362  70.487  1.00  0.00    -0.352 C  
HETATM    8  C   UNL     1     -11.989  14.776  69.965  1.00  0.00    -0.316 C  
ENDROOT
BRANCH   8   9
HETATM    9  O   UNL     1     -10.582  15.056  70.058  1.00  0.00    -0.226 OA 
BRANCH   9  10
HETATM   10  C   UNL     1      -9.867  14.920  68.914  1.00  0.00    -0.230 C  
HETATM   11  O   UNL     1      -8.663  14.734  68.859  1.00  0.00    -0.175 OA 
HETATM   12  N   UNL     1     -10.704  15.120  67.855  1.00  0.00    -0.262 N  
HETATM   13  H   UNL     1     -11.707  15.166  68.034  1.00  0.00     0.000 HD 
BRANCH  12  14
HETATM   14  C   UNL     1     -10.235  15.272  66.469  1.00  0.00    -0.275 C  
BRANCH  14  15
HETATM   15  C   UNL     1      -9.004  16.231  66.379  1.00  0.00    -0.343 C  
BRANCH  15  16
HETATM   16  C   UNL     1      -9.268  17.697  66.681  1.00  0.00    -0.284 A  
HETATM   17  C   UNL     1     -10.506  18.276  66.373  1.00  0.00    -0.387 A  
HETATM   18  C   UNL     1      -8.269  18.512  67.239  1.00  0.00    -0.254 A  
HETATM   19  C   UNL     1     -10.737  19.634  66.611  1.00  0.00    -0.552 A  
HETATM   20  C   UNL     1      -9.738  20.428  67.171  1.00  0.00    -0.601 A  
HETATM   21  C   UNL     1      -8.506  19.865  67.493  1.00  0.00    -0.378 A  
ENDBRANCH  15  16
ENDBRANCH  14  15
BRANCH  14  22
HETATM   22  C   UNL     1      -9.919  13.920  65.758  1.00  0.00    -0.284 C  
HETATM   23  O   UNL     1     -10.574  13.849  64.484  1.00  0.00    -0.492 OA 
HETATM   24  H   UNL     1     -10.381  13.026  64.051  1.00  0.00     0.000 HD 
BRANCH  22  25
HETATM   25  C   UNL     1     -10.126  12.618  66.558  1.00  0.00    -0.248 C  
BRANCH  25  26
HETATM   26  N   UNL     1      -9.075  11.515  66.484  1.00  0.00    -0.189 N  
BRANCH  26  27
HETATM   27  C   UNL     1      -9.028  10.714  67.785  1.00  0.00    -0.140 C  
HETATM   28  C   UNL     1     -10.131  10.930  68.842  1.00  0.00    -0.211 C  
HETATM   29  C   UNL     1     -11.534  10.560  68.365  1.00  0.00    -0.285 C  
HETATM   30  C   UNL     1      -9.820  10.066  70.079  1.00  0.00    -0.247 C  
ENDBRANCH  26  27
BRANCH  26  31
HETATM   31  S   UNL     1      -9.409  10.490  65.088  1.00  0.00    -0.238 S  
HETATM   32  O   UNL     1     -10.781  10.682  64.688  1.00  0.00    -0.234 OA 
HETATM   33  O   UNL     1      -8.312  10.697  64.160  1.00  0.00    -0.132 OA 
BRANCH  31  34
HETATM   34  C   UNL     1      -9.271   8.817  65.714  1.00  0.00    -0.206 A  
HETATM   35  C   UNL     1     -10.210   6.945  66.921  1.00  0.00    -0.310 A  
HETATM   36  C   UNL     1     -10.350   8.229  66.373  1.00  0.00    -0.019 A  
HETATM   37  C   UNL     1      -8.991   6.259  66.859  1.00  0.00    -0.120 A  
HETATM   38  N   UNL     1      -8.894   4.944  67.314  1.00  0.00    -0.103 NA 
HETATM   39  C   UNL     1      -7.949   6.828  66.123  1.00  0.00    -0.110 A  
HETATM   40  H1  UNL     1      -8.005   4.444  67.269  1.00  0.00     0.000 HD 
HETATM   41  C   UNL     1      -8.075   8.107  65.563  1.00  0.00    -0.130 A  
HETATM   42  H2  UNL     1      -9.599   4.386  66.833  1.00  0.00     0.000 HD 
ENDBRANCH  31  34
ENDBRANCH  26  31
ENDBRANCH  25  26
ENDBRANCH  22  25
ENDBRANCH  14  22
ENDBRANCH  12  14
ENDBRANCH   9  10
ENDBRANCH   8   9
TORSDOF 11
ENDMDL
MODEL      124
REMARK 921   NORMALIZED FREE ENERGY PREDICTED BY IDOCK:   -5.65 KCAL/MOL
REMARK 922        TOTAL FREE ENERGY PREDICTED BY IDOCK:  -11.90 KCAL/MOL
REMARK 923 INTER-LIGAND FREE ENERGY PREDICTED BY IDOCK:   -9.93 KCAL/MOL
REMARK 924 INTRA-LIGAND FREE ENERGY PREDICTED BY IDOCK:   -1.97 KCAL/MOL
REMARK 927      BINDING AFFINITY PREDICTED BY RF-SCORE:    0.00 PKD
ROOT
HETATM    1  C   UNL     1      -8.695   4.631  69.283  1.00  0.00    -0.113 C  
HETATM    2  C   UNL     1      -7.378   5.362  69.466  1.00  0.00    -0.065 C  
HETATM    3  C   UNL     1      -6.413   4.301  69.959  1.00  0.00    -0.032 C  
HETATM    4  O   UNL     1      -7.091   3.046  69.953  1.00  0.00    -0.040 OA 
HETATM    5  C   UNL     1      -8.276   3.185  69.184  1.00  0.00    -0.059 C  
HETATM    6  O   UNL     1      -8.036   2.936  67.799  1.00  0.00    -0.073 OA 
HETATM    7  C   UNL     1      -8.916   3.784  67.054  1.00  0.00    -0.143 C  
HETATM    8  C   UNL     1      -9.446   4.874  67.986  1.00  0.00    -0.136 C  
ENDROOT
BRANCH   8   9
HETATM    9  O   UNL     1      -9.139   6.156  67.415  1.00  0.00    -0.112 OA 
BRANCH   9  10
HETATM   10  C   UNL     1     -10.092   7.113  67.540  1.00  0.00    -0.188 C  
HETATM   11  O   UNL     1     -11.269   6.970  67.255  1.00  0.00    -0.281 OA 
HETATM   12  N   UNL     1      -9.491   8.270  67.944  1.00  0.00    -0.144 N  
HETATM   13  H   UNL     1      -8.518   8.229  68.246  1.00  0.00     0.000 HD 
BRANCH  12  14
HETATM   14  C   UNL     1     -10.175   9.572  67.967  1.00  0.00    -0.201 C  
BRANCH  14  15
HETATM   15  C   UNL     1     -10.009  10.285  69.349  1.00  0.00    -0.254 C  
BRANCH  15  16
HETATM   16  C   UNL     1     -11.087  10.009  70.384  1.00  0.00    -0.393 A  
HETATM   17  C   UNL     1     -10.926   8.981  71.322  1.00  0.00    -0.384 A  
HETATM   18  C   UNL     1     -12.279  10.750  70.401  1.00  0.00    -0.437 A  
HETATM   19  C   UNL     1     -11.934   8.698  72.248  1.00  0.00    -0.438 A  
HETATM   20  C   UNL     1     -13.109   9.446  72.257  1.00  0.00    -0.509 A  
HETATM   21  C   UNL     1     -13.280  10.477  71.338  1.00  0.00    -0.441 A  
ENDBRANCH  15  16
ENDBRANCH  14  15
BRANCH  14  22
HETATM   22  C   UNL     1      -9.749  10.529  66.812  1.00  0.00    -0.179 C  
HETATM   23  O   UNL     1      -8.596  10.018  66.128  1.00  0.00    -0.130 OA 
HETATM   24  H   UNL     1      -8.336  10.601  65.423  1.00  0.00     0.000 HD 
BRANCH  22  25
HETATM   25  C   UNL     1      -9.578  12.026  67.139  1.00  0.00    -0.192 C  
BRANCH  25  26
HETATM   26  N   UNL     1     -10.455  13.055  66.432  1.00  0.00    -0.273 N  
BRANCH  26  27
HETATM   27  C   UNL     1     -11.544  12.373  65.605  1.00  0.00    -0.392 C  
HETATM   28  C   UNL     1     -11.567  12.576  64.075  1.00  0.00    -0.485 C  
HETATM   29  C   UNL     1     -10.330  12.044  63.357  1.00  0.00    -0.468 C  
HETATM   30  C   UNL     1     -12.792  11.849  63.488  1.00  0.00    -0.435 C  
ENDBRANCH  26  27
BRANCH  26  31
HETATM   31  S   UNL     1     -11.127  14.161  67.629  1.00  0.00    -0.292 S  
HETATM   32  O   UNL     1     -12.536  14.328  67.369  1.00  0.00    -0.204 OA 
HETATM   33  O   UNL     1     -10.642  13.708  68.920  1.00  0.00    -0.245 OA 
BRANCH  31  34
HETATM   34  C   UNL     1     -10.337  15.732  67.284  1.00  0.00    -0.290 A  
HETATM   35  C   UNL     1     -10.151  18.113  67.659  1.00  0.00    -0.367 A  
HETATM   36  C   UNL     1     -10.725  16.874  67.984  1.00  0.00    -0.364 A  
HETATM   37  C   UNL     1      -9.227  18.232  66.615  1.00  0.00    -0.295 A  
HETATM   38  N   UNL     1      -8.586  19.447  66.370  1.00  0.00    -0.343 NA 
HETATM   39  C   UNL     1      -8.788  17.066  65.983  1.00  0.00    -0.170 A  
HETATM   40  H1  UNL     1      -7.912  19.534  65.608  1.00  0.00     0.000 HD 
HETATM   41  C   UNL     1      -9.347  15.820  66.300  1.00  0.00    -0.360 A  
HETATM   42  H2  UNL     1      -8.133  19.749  67.232  1.00  0.00     0.000 HD 
ENDBRANCH  31  34
ENDBRANCH  26  31
ENDBRANCH  25  26
ENDBRANCH  22  25
ENDBRANCH  14  22
ENDBRANCH  12  14
ENDBRANCH   9  10
ENDBRANCH   8   9
TORSDOF 11
ENDMDL
MODEL      125
REMARK 921   NORMALIZED FREE ENERGY PREDICTED BY IDOCK:   -5.64 KCAL/MOL
REMARK 922        TOTAL FREE ENERGY PREDICTED BY IDOCK:  -11.90 KCAL/MOL
REMARK 923 INTER-LIGAND FREE ENERGY PREDICTED BY IDOCK:  -10.29 KCAL/MOL
REMARK 924 INTRA-LIGAND FREE ENERGY PREDICTED BY IDOCK:   -1.61 KCAL/MOL
REMARK 927      BINDING AFFINITY PREDICTED BY RF-SCORE:    0.00 PKD
ROOT
HETATM    1  C   UNL     1      -7.551  19.067  66.319  1.00  0.00    -0.291 C  
HETATM    2  C   UNL     1      -6.069  19.241  66.040  1.00  0.00    -0.201 C  
HETATM    3  C   UNL     1      -5.823  20.731  66.183  1.00  0.00    -0.222 C  
HETATM    4  O   UNL     1      -7.037  21.344  66.615  1.00  0.00    -0.265 OA 
HETATM    5  C   UNL     1      -7.911  20.323  67.074  1.00  0.00    -0.329 C  
HETATM    6  O   UNL     1      -7.697  20.029  68.454  1.00  0.00    -0.275 OA 
HETATM    7  C   UNL     1      -7.953  18.633  68.639  1.00  0.00    -0.327 C  
HETATM    8  C   UNL     1      -7.949  17.953  67.270  1.00  0.00    -0.211 C  
ENDROOT
BRANCH   8   9
HETATM    9  O   UNL     1      -6.984  16.888  67.290  1.00  0.00    -0.140 OA 
BRANCH   9  10
HETATM   10  C   UNL     1      -7.482  15.629  67.361  1.00  0.00    -0.205 C  
HETATM   11  O   UNL     1      -6.823  14.608  67.256  1.00  0.00    -0.254 OA 
HETATM   12  N   UNL     1      -8.839  15.707  67.476  1.00  0.00    -0.177 N  
HETATM   13  H   UNL     1      -9.257  16.620  67.657  1.00  0.00     0.000 HD 
BRANCH  12  14
HETATM   14  C   UNL     1      -9.732  14.544  67.353  1.00  0.00    -0.222 C  
BRANCH  14  15
HETATM   15  C   UNL     1      -9.257  13.570  66.226  1.00  0.00    -0.070 C  
BRANCH  15  16
HETATM   16  C   UNL     1     -10.344  12.980  65.342  1.00  0.00    -0.313 A  
HETATM   17  C   UNL     1     -10.054  11.925  64.467  1.00  0.00    -0.302 A  
HETATM   18  C   UNL     1     -11.648  13.499  65.354  1.00  0.00    -0.334 A  
HETATM   19  C   UNL     1     -11.040  11.408  63.622  1.00  0.00    -0.411 A  
HETATM   20  C   UNL     1     -12.332  11.930  63.651  1.00  0.00    -0.591 A  
HETATM   21  C   UNL     1     -12.639  12.971  64.523  1.00  0.00    -0.387 A  
ENDBRANCH  15  16
ENDBRANCH  14  15
BRANCH  14  22
HETATM   22  C   UNL     1      -9.940  13.765  68.687  1.00  0.00    -0.174 C  
HETATM   23  O   UNL     1      -8.838  12.883  68.939  1.00  0.00    -0.370 OA 
HETATM   24  H   UNL     1      -8.965  12.408  69.752  1.00  0.00     0.000 HD 
BRANCH  22  25
HETATM   25  C   UNL     1     -11.286  13.042  68.899  1.00  0.00    -0.278 C  
BRANCH  25  26
HETATM   26  N   UNL     1     -11.667  12.556  70.294  1.00  0.00    -0.202 N  
BRANCH  26  27
HETATM   27  C   UNL     1     -12.832  13.368  70.859  1.00  0.00    -0.205 C  
HETATM   28  C   UNL     1     -12.535  14.547  71.811  1.00  0.00    -0.420 C  
HETATM   29  C   UNL     1     -11.722  15.672  71.176  1.00  0.00    -0.461 C  
HETATM   30  C   UNL     1     -13.867  15.153  72.293  1.00  0.00    -0.618 C  
ENDBRANCH  26  27
BRANCH  26  31
HETATM   31  S   UNL     1     -12.034  10.832  70.225  1.00  0.00    -0.380 S  
HETATM   32  O   UNL     1     -11.874  10.270  71.543  1.00  0.00    -0.336 OA 
HETATM   33  O   UNL     1     -13.283  10.712  69.495  1.00  0.00     0.110 OA 
BRANCH  31  34
HETATM   34  C   UNL     1     -10.745  10.138  69.193  1.00  0.00    -0.226 A  
HETATM   35  C   UNL     1      -9.968   9.378  67.034  1.00  0.00    -0.282 A  
HETATM   36  C   UNL     1     -10.956   9.987  67.823  1.00  0.00    -0.310 A  
HETATM   37  C   UNL     1      -8.792   8.877  67.603  1.00  0.00    -0.134 A  
HETATM   38  N   UNL     1      -7.773   8.369  66.796  1.00  0.00    -0.090 NA 
HETATM   39  C   UNL     1      -8.562   9.113  68.961  1.00  0.00    -0.133 A  
HETATM   40  H1  UNL     1      -6.916   8.004  67.211  1.00  0.00     0.000 HD 
HETATM   41  C   UNL     1      -9.535   9.726  69.762  1.00  0.00    -0.253 A  
HETATM   42  H2  UNL     1      -7.518   9.084  66.115  1.00  0.00     0.000 HD 
ENDBRANCH  31  34
ENDBRANCH  26  31
ENDBRANCH  25  26
ENDBRANCH  22  25
ENDBRANCH  14  22
ENDBRANCH  12  14
ENDBRANCH   9  10
ENDBRANCH   8   9
TORSDOF 11
ENDMDL
MODEL      126
REMARK 921   NORMALIZED FREE ENERGY PREDICTED BY IDOCK:   -5.64 KCAL/MOL
REMARK 922        TOTAL FREE ENERGY PREDICTED BY IDOCK:  -11.89 KCAL/MOL
REMARK 923 INTER-LIGAND FREE ENERGY PREDICTED BY IDOCK:   -9.86 KCAL/MOL
REMARK 924 INTRA-LIGAND FREE ENERGY PREDICTED BY IDOCK:   -2.04 KCAL/MOL
REMARK 927      BINDING AFFINITY PREDICTED BY RF-SCORE:    0.00 PKD
ROOT
HETATM    1  C   UNL     1     -10.370  16.866  66.785  1.00  0.00    -0.298 C  
HETATM    2  C   UNL     1      -8.897  16.888  66.422  1.00  0.00    -0.322 C  
HETATM    3  C   UNL     1      -8.511  18.354  66.464  1.00  0.00    -0.270 C  
HETATM    4  O   UNL     1      -9.640  19.099  66.920  1.00  0.00    -0.303 OA 
HETATM    5  C   UNL     1     -10.574  18.189  67.482  1.00  0.00    -0.401 C  
HETATM    6  O   UNL     1     -10.310  17.952  68.865  1.00  0.00    -0.367 OA 
HETATM    7  C   UNL     1     -10.679  16.598  69.145  1.00  0.00    -0.342 C  
HETATM    8  C   UNL     1     -10.811  15.847  67.820  1.00  0.00    -0.324 C  
ENDROOT
BRANCH   8   9
HETATM    9  O   UNL     1      -9.946  14.700  67.854  1.00  0.00    -0.218 OA 
BRANCH   9  10
HETATM   10  C   UNL     1     -10.489  13.526  67.446  1.00  0.00    -0.247 C  
HETATM   11  O   UNL     1     -11.606  13.397  66.976  1.00  0.00    -0.320 OA 
HETATM   12  N   UNL     1      -9.613  12.521  67.739  1.00  0.00    -0.197 N  
HETATM   13  H   UNL     1      -8.670  12.773  68.037  1.00  0.00     0.000 HD 
BRANCH  12  14
HETATM   14  C   UNL     1      -9.956  11.094  67.646  1.00  0.00    -0.174 C  
BRANCH  14  15
HETATM   15  C   UNL     1      -8.897  10.300  66.815  1.00  0.00    -0.143 C  
BRANCH  15  16
HETATM   16  C   UNL     1      -8.970  10.455  65.304  1.00  0.00    -0.212 A  
HETATM   17  C   UNL     1     -10.083  11.059  64.704  1.00  0.00    -0.370 A  
HETATM   18  C   UNL     1      -7.948   9.964  64.477  1.00  0.00    -0.145 A  
HETATM   19  C   UNL     1     -10.173  11.165  63.313  1.00  0.00    -0.403 A  
HETATM   20  C   UNL     1      -9.147  10.679  62.505  1.00  0.00    -0.326 A  
HETATM   21  C   UNL     1      -8.030  10.085  63.087  1.00  0.00    -0.148 A  
ENDBRANCH  15  16
ENDBRANCH  14  15
BRANCH  14  22
HETATM   22  C   UNL     1     -10.182  10.408  69.028  1.00  0.00    -0.217 C  
HETATM   23  O   UNL     1      -8.995  10.478  69.831  1.00  0.00    -0.388 OA 
HETATM   24  H   UNL     1      -9.133  10.060  70.673  1.00  0.00     0.000 HD 
BRANCH  22  25
HETATM   25  C   UNL     1     -10.773   8.984  69.040  1.00  0.00    -0.141 C  
BRANCH  25  26
HETATM   26  N   UNL     1     -10.785   8.185  70.340  1.00  0.00    -0.229 N  
BRANCH  26  27
HETATM   27  C   UNL     1     -12.158   7.563  70.589  1.00  0.00    -0.087 C  
HETATM   28  C   UNL     1     -13.037   8.113  71.733  1.00  0.00    -0.367 C  
HETATM   29  C   UNL     1     -13.446   9.574  71.558  1.00  0.00    -0.444 C  
HETATM   30  C   UNL     1     -14.329   7.278  71.822  1.00  0.00    -0.560 C  
ENDBRANCH  26  27
BRANCH  26  31
HETATM   31  S   UNL     1      -9.508   6.970  70.283  1.00  0.00    -0.164 S  
HETATM   32  O   UNL     1      -8.248   7.606  70.578  1.00  0.00    -0.117 OA 
HETATM   33  O   UNL     1      -9.988   5.840  71.058  1.00  0.00    -0.178 OA 
BRANCH  31  34
HETATM   34  C   UNL     1      -9.452   6.455  68.568  1.00  0.00    -0.120 A  
HETATM   35  C   UNL     1     -10.360   5.169  66.734  1.00  0.00    -0.306 A  
HETATM   36  C   UNL     1     -10.449   5.624  68.058  1.00  0.00    -0.264 A  
HETATM   37  C   UNL     1      -9.265   5.497  65.926  1.00  0.00    -0.147 A  
HETATM   38  N   UNL     1      -9.239   5.126  64.581  1.00  0.00    -0.358 NA 
HETATM   39  C   UNL     1      -8.322   6.398  66.426  1.00  0.00    -0.119 A  
HETATM   40  H1  UNL     1      -8.441   5.365  63.993  1.00  0.00     0.000 HD 
HETATM   41  C   UNL     1      -8.399   6.867  67.744  1.00  0.00    -0.120 A  
HETATM   42  H2  UNL     1     -10.084   5.484  64.135  1.00  0.00     0.000 HD 
ENDBRANCH  31  34
ENDBRANCH  26  31
ENDBRANCH  25  26
ENDBRANCH  22  25
ENDBRANCH  14  22
ENDBRANCH  12  14
ENDBRANCH   9  10
ENDBRANCH   8   9
TORSDOF 11
ENDMDL
MODEL      127
REMARK 921   NORMALIZED FREE ENERGY PREDICTED BY IDOCK:   -5.64 KCAL/MOL
REMARK 922        TOTAL FREE ENERGY PREDICTED BY IDOCK:  -11.89 KCAL/MOL
REMARK 923 INTER-LIGAND FREE ENERGY PREDICTED BY IDOCK:  -12.07 KCAL/MOL
REMARK 924 INTRA-LIGAND FREE ENERGY PREDICTED BY IDOCK:    0.18 KCAL/MOL
REMARK 927      BINDING AFFINITY PREDICTED BY RF-SCORE:    0.00 PKD
ROOT
HETATM    1  C   UNL     1     -13.159  15.583  71.545  1.00  0.00    -0.573 C  
HETATM    2  C   UNL     1     -12.132  15.914  72.612  1.00  0.00    -0.615 C  
HETATM    3  C   UNL     1     -12.504  15.034  73.791  1.00  0.00    -0.533 C  
HETATM    4  O   UNL     1     -13.584  14.191  73.394  1.00  0.00    -0.250 OA 
HETATM    5  C   UNL     1     -13.686  14.237  71.978  1.00  0.00    -0.450 C  
HETATM    6  O   UNL     1     -12.845  13.265  71.359  1.00  0.00    -0.357 OA 
HETATM    7  C   UNL     1     -12.392  13.819  70.119  1.00  0.00    -0.323 C  
HETATM    8  C   UNL     1     -12.639  15.327  70.142  1.00  0.00    -0.296 C  
ENDROOT
BRANCH   8   9
HETATM    9  O   UNL     1     -11.394  16.000  69.895  1.00  0.00    -0.312 OA 
BRANCH   9  10
HETATM   10  C   UNL     1     -10.892  15.892  68.640  1.00  0.00    -0.291 C  
HETATM   11  O   UNL     1     -11.404  16.362  67.638  1.00  0.00    -0.145 OA 
HETATM   12  N   UNL     1      -9.783  15.098  68.686  1.00  0.00    -0.208 N  
HETATM   13  H   UNL     1      -9.402  14.853  69.599  1.00  0.00     0.000 HD 
BRANCH  12  14
HETATM   14  C   UNL     1      -9.109  14.577  67.486  1.00  0.00    -0.193 C  
BRANCH  14  15
HETATM   15  C   UNL     1     -10.105  14.406  66.294  1.00  0.00    -0.308 C  
BRANCH  15  16
HETATM   16  C   UNL     1     -10.131  13.040  65.627  1.00  0.00    -0.276 A  
HETATM   17  C   UNL     1      -9.938  11.876  66.382  1.00  0.00    -0.237 A  
HETATM   18  C   UNL     1     -10.310  12.916  64.240  1.00  0.00    -0.396 A  
HETATM   19  C   UNL     1      -9.919  10.622  65.765  1.00  0.00    -0.315 A  
HETATM   20  C   UNL     1     -10.105  10.514  64.388  1.00  0.00    -0.395 A  
HETATM   21  C   UNL     1     -10.308  11.661  63.626  1.00  0.00    -0.466 A  
ENDBRANCH  15  16
ENDBRANCH  14  15
BRANCH  14  22
HETATM   22  C   UNL     1      -7.874  15.419  67.041  1.00  0.00    -0.209 C  
HETATM   23  O   UNL     1      -7.185  15.954  68.180  1.00  0.00    -0.121 OA 
HETATM   24  H   UNL     1      -6.433  16.466  67.909  1.00  0.00     0.000 HD 
BRANCH  22  25
HETATM   25  C   UNL     1      -8.089  16.505  65.968  1.00  0.00    -0.018 C  
BRANCH  25  26
HETATM   26  N   UNL     1      -7.867  17.971  66.325  1.00  0.00    -0.264 N  
BRANCH  26  27
HETATM   27  C   UNL     1      -8.559  18.326  67.641  1.00  0.00    -0.255 C  
HETATM   28  C   UNL     1      -9.415  19.608  67.719  1.00  0.00    -0.446 C  
HETATM   29  C   UNL     1     -10.624  19.608  66.786  1.00  0.00    -0.602 C  
HETATM   30  C   UNL     1      -9.940  19.777  69.158  1.00  0.00    -0.391 C  
ENDBRANCH  26  27
BRANCH  26  31
HETATM   31  S   UNL     1      -6.135  18.297  66.379  1.00  0.00    -0.188 S  
HETATM   32  O   UNL     1      -5.425  17.043  66.351  1.00  0.00    -0.313 OA 
HETATM   33  O   UNL     1      -5.885  19.333  65.393  1.00  0.00    -0.171 OA 
BRANCH  31  34
HETATM   34  C   UNL     1      -5.863  19.023  67.995  1.00  0.00    -0.199 A  
HETATM   35  C   UNL     1      -5.485  18.773  70.369  1.00  0.00    -0.231 A  
HETATM   36  C   UNL     1      -5.627  18.200  69.096  1.00  0.00    -0.202 A  
HETATM   37  C   UNL     1      -5.621  20.152  70.563  1.00  0.00    -0.298 A  
HETATM   38  N   UNL     1      -5.375  20.721  71.814  1.00  0.00    -0.592 NA 
HETATM   39  C   UNL     1      -5.773  20.966  69.438  1.00  0.00    -0.334 A  
HETATM   40  H1  UNL     1      -5.474  21.726  71.955  1.00  0.00     0.000 HD 
HETATM   41  C   UNL     1      -5.910  20.411  68.159  1.00  0.00    -0.288 A  
HETATM   42  H2  UNL     1      -4.437  20.448  72.109  1.00  0.00     0.000 HD 
ENDBRANCH  31  34
ENDBRANCH  26  31
ENDBRANCH  25  26
ENDBRANCH  22  25
ENDBRANCH  14  22
ENDBRANCH  12  14
ENDBRANCH   9  10
ENDBRANCH   8   9
TORSDOF 11
ENDMDL
MODEL      128
REMARK 921   NORMALIZED FREE ENERGY PREDICTED BY IDOCK:   -5.63 KCAL/MOL
REMARK 922        TOTAL FREE ENERGY PREDICTED BY IDOCK:  -11.88 KCAL/MOL
REMARK 923 INTER-LIGAND FREE ENERGY PREDICTED BY IDOCK:  -10.35 KCAL/MOL
REMARK 924 INTRA-LIGAND FREE ENERGY PREDICTED BY IDOCK:   -1.52 KCAL/MOL
REMARK 927      BINDING AFFINITY PREDICTED BY RF-SCORE:    0.00 PKD
ROOT
HETATM    1  C   UNL     1      -8.464   5.209  68.019  1.00  0.00    -0.100 C  
HETATM    2  C   UNL     1      -8.996   4.628  66.722  1.00  0.00    -0.112 C  
HETATM    3  C   UNL     1      -9.227   3.160  67.023  1.00  0.00    -0.172 C  
HETATM    4  O   UNL     1      -8.954   2.940  68.406  1.00  0.00    -0.110 OA 
HETATM    5  C   UNL     1      -8.904   4.202  69.054  1.00  0.00    -0.098 C  
HETATM    6  O   UNL     1     -10.197   4.621  69.489  1.00  0.00    -0.203 OA 
HETATM    7  C   UNL     1     -10.239   6.049  69.389  1.00  0.00    -0.211 C  
HETATM    8  C   UNL     1      -9.083   6.508  68.501  1.00  0.00    -0.127 C  
ENDROOT
BRANCH   8   9
HETATM    9  O   UNL     1      -9.617   7.287  67.418  1.00  0.00    -0.134 OA 
BRANCH   9  10
HETATM   10  C   UNL     1      -9.628   8.632  67.593  1.00  0.00    -0.155 C  
HETATM   11  O   UNL     1      -8.657   9.306  67.894  1.00  0.00    -0.120 OA 
HETATM   12  N   UNL     1     -10.913   9.073  67.469  1.00  0.00    -0.447 N  
HETATM   13  H   UNL     1     -11.615   8.423  67.115  1.00  0.00     0.000 HD 
BRANCH  12  14
HETATM   14  C   UNL     1     -11.338  10.438  67.817  1.00  0.00    -0.128 C  
BRANCH  14  15
HETATM   15  C   UNL     1     -10.818  10.860  69.229  1.00  0.00    -0.286 C  
BRANCH  15  16
HETATM   16  C   UNL     1     -11.431  10.139  70.419  1.00  0.00    -0.400 A  
HETATM   17  C   UNL     1     -10.683   9.205  71.148  1.00  0.00    -0.380 A  
HETATM   18  C   UNL     1     -12.767  10.362  70.789  1.00  0.00    -0.460 A  
HETATM   19  C   UNL     1     -11.258   8.509  72.215  1.00  0.00    -0.432 A  
HETATM   20  C   UNL     1     -12.583   8.746  72.575  1.00  0.00    -0.375 A  
HETATM   21  C   UNL     1     -13.336   9.679  71.867  1.00  0.00    -0.526 A  
ENDBRANCH  15  16
ENDBRANCH  14  15
BRANCH  14  22
HETATM   22  C   UNL     1     -10.949  11.510  66.755  1.00  0.00    -0.294 C  
HETATM   23  O   UNL     1     -10.172  10.924  65.701  1.00  0.00    -0.247 OA 
HETATM   24  H   UNL     1      -9.935  11.578  65.053  1.00  0.00     0.000 HD 
BRANCH  22  25
HETATM   25  C   UNL     1     -10.304  12.819  67.253  1.00  0.00    -0.232 C  
BRANCH  25  26
HETATM   26  N   UNL     1     -11.064  14.134  67.111  1.00  0.00    -0.299 N  
BRANCH  26  27
HETATM   27  C   UNL     1     -10.739  15.083  68.265  1.00  0.00    -0.253 C  
HETATM   28  C   UNL     1     -11.826  15.388  69.318  1.00  0.00    -0.365 C  
HETATM   29  C   UNL     1     -12.285  14.168  70.112  1.00  0.00    -0.415 C  
HETATM   30  C   UNL     1     -11.277  16.417  70.325  1.00  0.00    -0.259 C  
ENDBRANCH  26  27
BRANCH  26  31
HETATM   31  S   UNL     1     -10.696  14.850  65.542  1.00  0.00    -0.385 S  
HETATM   32  O   UNL     1      -9.685  14.052  64.893  1.00  0.00    -0.092 OA 
HETATM   33  O   UNL     1     -11.974  15.119  64.908  1.00  0.00    -0.293 OA 
BRANCH  31  34
HETATM   34  C   UNL     1      -9.950  16.431  65.932  1.00  0.00    -0.332 A  
HETATM   35  C   UNL     1     -10.142  18.822  66.240  1.00  0.00    -0.447 A  
HETATM   36  C   UNL     1     -10.744  17.576  66.003  1.00  0.00    -0.116 A  
HETATM   37  C   UNL     1      -8.753  18.944  66.363  1.00  0.00    -0.303 A  
HETATM   38  N   UNL     1      -8.176  20.169  66.701  1.00  0.00    -0.408 NA 
HETATM   39  C   UNL     1      -7.985  17.778  66.374  1.00  0.00    -0.306 A  
HETATM   40  H1  UNL     1      -7.164  20.258  66.791  1.00  0.00     0.000 HD 
HETATM   41  C   UNL     1      -8.571  16.525  66.145  1.00  0.00    -0.334 A  
HETATM   42  H2  UNL     1      -8.603  20.494  67.569  1.00  0.00     0.000 HD 
ENDBRANCH  31  34
ENDBRANCH  26  31
ENDBRANCH  25  26
ENDBRANCH  22  25
ENDBRANCH  14  22
ENDBRANCH  12  14
ENDBRANCH   9  10
ENDBRANCH   8   9
TORSDOF 11
ENDMDL
MODEL      129
REMARK 921   NORMALIZED FREE ENERGY PREDICTED BY IDOCK:   -5.63 KCAL/MOL
REMARK 922        TOTAL FREE ENERGY PREDICTED BY IDOCK:  -11.87 KCAL/MOL
REMARK 923 INTER-LIGAND FREE ENERGY PREDICTED BY IDOCK:   -9.51 KCAL/MOL
REMARK 924 INTRA-LIGAND FREE ENERGY PREDICTED BY IDOCK:   -2.36 KCAL/MOL
REMARK 927      BINDING AFFINITY PREDICTED BY RF-SCORE:    0.00 PKD
ROOT
HETATM    1  C   UNL     1     -10.779   7.632  70.597  1.00  0.00    -0.237 C  
HETATM    2  C   UNL     1     -12.287   7.743  70.731  1.00  0.00    -0.030 C  
HETATM    3  C   UNL     1     -12.669   6.646  71.706  1.00  0.00    -0.231 C  
HETATM    4  O   UNL     1     -11.471   6.029  72.175  1.00  0.00    -0.289 OA 
HETATM    5  C   UNL     1     -10.378   6.869  71.836  1.00  0.00    -0.189 C  
HETATM    6  O   UNL     1     -10.137   7.851  72.844  1.00  0.00    -0.263 OA 
HETATM    7  C   UNL     1      -9.660   9.030  72.187  1.00  0.00     0.058 C  
HETATM    8  C   UNL     1      -9.979   8.918  70.696  1.00  0.00    -0.216 C  
ENDROOT
BRANCH   8   9
HETATM    9  O   UNL     1     -10.750  10.066  70.305  1.00  0.00    -0.276 OA 
BRANCH   9  10
HETATM   10  C   UNL     1     -10.646  10.445  69.007  1.00  0.00    -0.221 C  
HETATM   11  O   UNL     1     -11.565  10.862  68.323  1.00  0.00    -0.391 OA 
HETATM   12  N   UNL     1      -9.374  10.190  68.584  1.00  0.00    -0.154 N  
HETATM   13  H   UNL     1      -8.674   9.937  69.282  1.00  0.00     0.000 HD 
BRANCH  12  14
HETATM   14  C   UNL     1      -8.957  10.263  67.175  1.00  0.00    -0.135 C  
BRANCH  14  15
HETATM   15  C   UNL     1      -9.729   9.229  66.293  1.00  0.00    -0.340 C  
BRANCH  15  16
HETATM   16  C   UNL     1      -9.665   7.778  66.742  1.00  0.00    -0.296 A  
HETATM   17  C   UNL     1      -8.432   7.171  67.015  1.00  0.00    -0.122 A  
HETATM   18  C   UNL     1     -10.831   7.005  66.857  1.00  0.00    -0.350 A  
HETATM   19  C   UNL     1      -8.367   5.825  67.387  1.00  0.00    -0.104 A  
HETATM   20  C   UNL     1      -9.534   5.072  67.504  1.00  0.00    -0.152 A  
HETATM   21  C   UNL     1     -10.768   5.664  67.246  1.00  0.00    -0.299 A  
ENDBRANCH  15  16
ENDBRANCH  14  15
BRANCH  14  22
HETATM   22  C   UNL     1      -9.070  11.690  66.557  1.00  0.00    -0.197 C  
HETATM   23  O   UNL     1      -8.992  11.633  65.126  1.00  0.00    -0.412 OA 
HETATM   24  H   UNL     1      -9.061  12.503  64.750  1.00  0.00     0.000 HD 
BRANCH  22  25
HETATM   25  C   UNL     1      -8.151  12.795  67.117  1.00  0.00    -0.129 C  
BRANCH  25  26
HETATM   26  N   UNL     1      -8.742  14.153  67.482  1.00  0.00    -0.192 N  
BRANCH  26  27
HETATM   27  C   UNL     1      -9.864  14.004  68.509  1.00  0.00    -0.225 C  
HETATM   28  C   UNL     1     -11.224  14.685  68.241  1.00  0.00    -0.301 C  
HETATM   29  C   UNL     1     -11.945  14.170  66.997  1.00  0.00    -0.471 C  
HETATM   30  C   UNL     1     -12.153  14.447  69.447  1.00  0.00    -0.338 C  
ENDBRANCH  26  27
BRANCH  26  31
HETATM   31  S   UNL     1      -7.453  15.209  68.058  1.00  0.00    -0.132 S  
HETATM   32  O   UNL     1      -7.324  15.049  69.486  1.00  0.00    -0.185 OA 
HETATM   33  O   UNL     1      -6.327  14.999  67.166  1.00  0.00    -0.267 OA 
BRANCH  31  34
HETATM   34  C   UNL     1      -8.064  16.867  67.765  1.00  0.00    -0.181 A  
HETATM   35  C   UNL     1      -8.309  19.167  68.469  1.00  0.00    -0.399 A  
HETATM   36  C   UNL     1      -7.768  17.888  68.669  1.00  0.00    -0.293 A  
HETATM   37  C   UNL     1      -9.177  19.429  67.403  1.00  0.00    -0.305 A  
HETATM   38  N   UNL     1      -9.625  20.727  67.155  1.00  0.00    -0.664 NA 
HETATM   39  C   UNL     1      -9.394  18.418  66.463  1.00  0.00    -0.311 A  
HETATM   40  H1  UNL     1     -10.258  20.918  66.378  1.00  0.00     0.000 HD 
HETATM   41  C   UNL     1      -8.857  17.137  66.644  1.00  0.00    -0.279 A  
HETATM   42  H2  UNL     1      -8.810  21.333  67.058  1.00  0.00     0.000 HD 
ENDBRANCH  31  34
ENDBRANCH  26  31
ENDBRANCH  25  26
ENDBRANCH  22  25
ENDBRANCH  14  22
ENDBRANCH  12  14
ENDBRANCH   9  10
ENDBRANCH   8   9
TORSDOF 11
ENDMDL
MODEL      130
REMARK 921   NORMALIZED FREE ENERGY PREDICTED BY IDOCK:   -5.63 KCAL/MOL
REMARK 922        TOTAL FREE ENERGY PREDICTED BY IDOCK:  -11.87 KCAL/MOL
REMARK 923 INTER-LIGAND FREE ENERGY PREDICTED BY IDOCK:  -10.09 KCAL/MOL
REMARK 924 INTRA-LIGAND FREE ENERGY PREDICTED BY IDOCK:   -1.78 KCAL/MOL
REMARK 927      BINDING AFFINITY PREDICTED BY RF-SCORE:    0.00 PKD
ROOT
HETATM    1  C   UNL     1      -8.554   5.250  67.217  1.00  0.00    -0.105 C  
HETATM    2  C   UNL     1      -7.404   5.744  68.076  1.00  0.00    -0.073 C  
HETATM    3  C   UNL     1      -6.411   4.598  68.087  1.00  0.00    -0.041 C  
HETATM    4  O   UNL     1      -6.900   3.576  67.219  1.00  0.00    -0.048 OA 
HETATM    5  C   UNL     1      -7.932   4.132  66.417  1.00  0.00    -0.098 C  
HETATM    6  O   UNL     1      -7.411   4.735  65.234  1.00  0.00    -0.070 OA 
HETATM    7  C   UNL     1      -8.246   5.855  64.921  1.00  0.00    -0.135 C  
HETATM    8  C   UNL     1      -9.080   6.198  66.155  1.00  0.00    -0.145 C  
ENDROOT
BRANCH   8   9
HETATM    9  O   UNL     1      -8.850   7.575  66.496  1.00  0.00    -0.134 OA 
BRANCH   9  10
HETATM   10  C   UNL     1      -9.832   8.192  67.198  1.00  0.00    -0.217 C  
HETATM   11  O   UNL     1     -11.017   7.913  67.138  1.00  0.00    -0.219 OA 
HETATM   12  N   UNL     1      -9.279   9.224  67.899  1.00  0.00    -0.130 N  
HETATM   13  H   UNL     1      -8.262   9.287  67.944  1.00  0.00     0.000 HD 
BRANCH  12  14
HETATM   14  C   UNL     1     -10.072  10.250  68.593  1.00  0.00    -0.174 C  
BRANCH  14  15
HETATM   15  C   UNL     1     -10.069  10.031  70.141  1.00  0.00    -0.266 C  
BRANCH  15  16
HETATM   16  C   UNL     1     -11.262   9.287  70.720  1.00  0.00    -0.351 A  
HETATM   17  C   UNL     1     -11.303   7.887  70.708  1.00  0.00    -0.283 A  
HETATM   18  C   UNL     1     -12.363   9.984  71.244  1.00  0.00    -0.496 A  
HETATM   19  C   UNL     1     -12.417   7.202  71.200  1.00  0.00    -0.400 A  
HETATM   20  C   UNL     1     -13.499   7.907  71.724  1.00  0.00    -0.379 A  
HETATM   21  C   UNL     1     -13.469   9.299  71.753  1.00  0.00    -0.483 A  
ENDBRANCH  15  16
ENDBRANCH  14  15
BRANCH  14  22
HETATM   22  C   UNL     1      -9.649  11.712  68.254  1.00  0.00    -0.198 C  
HETATM   23  O   UNL     1      -8.427  12.056  68.923  1.00  0.00    -0.360 OA 
HETATM   24  H   UNL     1      -8.169  12.946  68.716  1.00  0.00     0.000 HD 
BRANCH  22  25
HETATM   25  C   UNL     1     -10.701  12.826  68.421  1.00  0.00    -0.250 C  
BRANCH  25  26
HETATM   26  N   UNL     1     -10.546  14.130  67.645  1.00  0.00    -0.251 N  
BRANCH  26  27
HETATM   27  C   UNL     1     -11.608  14.249  66.553  1.00  0.00    -0.378 C  
HETATM   28  C   UNL     1     -11.164  14.338  65.077  1.00  0.00    -0.364 C  
HETATM   29  C   UNL     1     -10.417  13.104  64.575  1.00  0.00    -0.425 C  
HETATM   30  C   UNL     1     -12.407  14.521  64.187  1.00  0.00    -0.317 C  
ENDBRANCH  26  27
BRANCH  26  31
HETATM   31  S   UNL     1     -10.602  15.485  68.773  1.00  0.00    -0.254 S  
HETATM   32  O   UNL     1     -11.980  15.779  69.078  1.00  0.00    -0.385 OA 
HETATM   33  O   UNL     1      -9.641  15.183  69.819  1.00  0.00    -0.174 OA 
BRANCH  31  34
HETATM   34  C   UNL     1      -9.957  16.873  67.842  1.00  0.00    -0.274 A  
HETATM   35  C   UNL     1      -8.220  17.861  66.481  1.00  0.00    -0.298 A  
HETATM   36  C   UNL     1      -8.753  16.747  67.150  1.00  0.00    -0.218 A  
HETATM   37  C   UNL     1      -8.852  19.108  66.532  1.00  0.00    -0.334 A  
HETATM   38  N   UNL     1      -8.370  20.179  65.779  1.00  0.00    -0.496 NA 
HETATM   39  C   UNL     1     -10.098  19.193  67.158  1.00  0.00    -0.457 A  
HETATM   40  H1  UNL     1      -8.831  21.089  65.816  1.00  0.00     0.000 HD 
HETATM   41  C   UNL     1     -10.648  18.090  67.825  1.00  0.00    -0.409 A  
HETATM   42  H2  UNL     1      -8.321  19.887  64.803  1.00  0.00     0.000 HD 
ENDBRANCH  31  34
ENDBRANCH  26  31
ENDBRANCH  25  26
ENDBRANCH  22  25
ENDBRANCH  14  22
ENDBRANCH  12  14
ENDBRANCH   9  10
ENDBRANCH   8   9
TORSDOF 11
ENDMDL
MODEL      131
REMARK 921   NORMALIZED FREE ENERGY PREDICTED BY IDOCK:   -5.61 KCAL/MOL
REMARK 922        TOTAL FREE ENERGY PREDICTED BY IDOCK:  -11.84 KCAL/MOL
REMARK 923 INTER-LIGAND FREE ENERGY PREDICTED BY IDOCK:  -10.13 KCAL/MOL
REMARK 924 INTRA-LIGAND FREE ENERGY PREDICTED BY IDOCK:   -1.71 KCAL/MOL
REMARK 927      BINDING AFFINITY PREDICTED BY RF-SCORE:    0.00 PKD
ROOT
HETATM    1  C   UNL     1     -13.050  15.691  71.257  1.00  0.00    -0.542 C  
HETATM    2  C   UNL     1     -12.186  16.038  72.455  1.00  0.00    -0.612 C  
HETATM    3  C   UNL     1     -12.689  15.136  73.567  1.00  0.00    -0.547 C  
HETATM    4  O   UNL     1     -13.683  14.269  73.022  1.00  0.00    -0.613 OA 
HETATM    5  C   UNL     1     -13.594  14.327  71.606  1.00  0.00    -0.381 C  
HETATM    6  O   UNL     1     -12.651  13.384  71.099  1.00  0.00    -0.358 OA 
HETATM    7  C   UNL     1     -12.051  13.962  69.936  1.00  0.00    -0.344 C  
HETATM    8  C   UNL     1     -12.340  15.463  69.935  1.00  0.00    -0.293 C  
ENDROOT
BRANCH   8   9
HETATM    9  O   UNL     1     -11.091  16.171  69.863  1.00  0.00    -0.318 OA 
BRANCH   9  10
HETATM   10  C   UNL     1     -10.508  16.237  68.640  1.00  0.00    -0.282 C  
HETATM   11  O   UNL     1     -10.904  16.920  67.712  1.00  0.00    -0.345 OA 
HETATM   12  N   UNL     1      -9.475  15.347  68.607  1.00  0.00    -0.197 N  
HETATM   13  H   UNL     1      -9.183  14.911  69.482  1.00  0.00     0.000 HD 
BRANCH  12  14
HETATM   14  C   UNL     1      -8.758  14.982  67.375  1.00  0.00    -0.194 C  
BRANCH  14  15
HETATM   15  C   UNL     1      -7.411  15.763  67.240  1.00  0.00    -0.257 C  
BRANCH  15  16
HETATM   16  C   UNL     1      -7.500  17.279  67.299  1.00  0.00    -0.201 A  
HETATM   17  C   UNL     1      -7.990  18.006  66.206  1.00  0.00    -0.276 A  
HETATM   18  C   UNL     1      -7.061  17.986  68.430  1.00  0.00    -0.247 A  
HETATM   19  C   UNL     1      -8.034  19.403  66.241  1.00  0.00    -0.330 A  
HETATM   20  C   UNL     1      -7.601  20.090  67.374  1.00  0.00    -0.316 A  
HETATM   21  C   UNL     1      -7.121  19.382  68.472  1.00  0.00    -0.350 A  
ENDBRANCH  15  16
ENDBRANCH  14  15
BRANCH  14  22
HETATM   22  C   UNL     1      -8.512  13.450  67.218  1.00  0.00    -0.200 C  
HETATM   23  O   UNL     1      -8.873  13.009  65.902  1.00  0.00    -0.292 OA 
HETATM   24  H   UNL     1      -8.723  12.076  65.806  1.00  0.00     0.000 HD 
BRANCH  22  25
HETATM   25  C   UNL     1      -9.096  12.511  68.293  1.00  0.00    -0.183 C  
BRANCH  25  26
HETATM   26  N   UNL     1      -9.058  11.002  68.075  1.00  0.00    -0.147 N  
BRANCH  26  27
HETATM   27  C   UNL     1      -7.771  10.398  68.638  1.00  0.00    -0.101 C  
HETATM   28  C   UNL     1      -6.908   9.490  67.735  1.00  0.00    -0.078 C  
HETATM   29  C   UNL     1      -6.343  10.192  66.503  1.00  0.00    -0.074 C  
HETATM   30  C   UNL     1      -5.716   8.956  68.552  1.00  0.00    -0.041 C  
ENDBRANCH  26  27
BRANCH  26  31
HETATM   31  S   UNL     1     -10.497  10.277  68.790  1.00  0.00    -0.217 S  
HETATM   32  O   UNL     1     -10.664  10.795  70.125  1.00  0.00    -0.188 OA 
HETATM   33  O   UNL     1     -11.548  10.393  67.795  1.00  0.00    -0.405 OA 
BRANCH  31  34
HETATM   34  C   UNL     1     -10.097   8.538  68.943  1.00  0.00    -0.203 A  
HETATM   35  C   UNL     1      -9.792   6.359  67.940  1.00  0.00    -0.130 A  
HETATM   36  C   UNL     1     -10.037   7.735  67.805  1.00  0.00    -0.242 A  
HETATM   37  C   UNL     1      -9.650   5.769  69.201  1.00  0.00    -0.135 A  
HETATM   38  N   UNL     1      -9.304   4.422  69.319  1.00  0.00    -0.141 NA 
HETATM   39  C   UNL     1      -9.629   6.601  70.322  1.00  0.00    -0.169 A  
HETATM   40  H1  UNL     1      -9.201   3.992  70.238  1.00  0.00     0.000 HD 
HETATM   41  C   UNL     1      -9.865   7.978  70.204  1.00  0.00    -0.184 A  
HETATM   42  H2  UNL     1      -8.442   4.267  68.795  1.00  0.00     0.000 HD 
ENDBRANCH  31  34
ENDBRANCH  26  31
ENDBRANCH  25  26
ENDBRANCH  22  25
ENDBRANCH  14  22
ENDBRANCH  12  14
ENDBRANCH   9  10
ENDBRANCH   8   9
TORSDOF 11
ENDMDL
MODEL      132
REMARK 921   NORMALIZED FREE ENERGY PREDICTED BY IDOCK:   -5.60 KCAL/MOL
REMARK 922        TOTAL FREE ENERGY PREDICTED BY IDOCK:  -11.83 KCAL/MOL
REMARK 923 INTER-LIGAND FREE ENERGY PREDICTED BY IDOCK:  -10.39 KCAL/MOL
REMARK 924 INTRA-LIGAND FREE ENERGY PREDICTED BY IDOCK:   -1.44 KCAL/MOL
REMARK 927      BINDING AFFINITY PREDICTED BY RF-SCORE:    0.00 PKD
ROOT
HETATM    1  C   UNL     1     -11.289   6.202  72.791  1.00  0.00    -0.259 C  
HETATM    2  C   UNL     1     -10.249   6.799  73.721  1.00  0.00    -0.378 C  
HETATM    3  C   UNL     1      -9.175   5.733  73.832  1.00  0.00    -0.127 C  
HETATM    4  O   UNL     1      -9.517   4.662  72.954  1.00  0.00    -0.129 OA 
HETATM    5  C   UNL     1     -10.525   5.122  72.065  1.00  0.00    -0.215 C  
HETATM    6  O   UNL     1      -9.963   5.743  70.910  1.00  0.00    -0.176 OA 
HETATM    7  C   UNL     1     -10.855   6.788  70.510  1.00  0.00    -0.258 C  
HETATM    8  C   UNL     1     -11.804   7.087  71.671  1.00  0.00    -0.313 C  
ENDROOT
BRANCH   8   9
HETATM    9  O   UNL     1     -11.706   8.484  71.996  1.00  0.00    -0.312 OA 
BRANCH   9  10
HETATM   10  C   UNL     1     -11.210   9.292  71.027  1.00  0.00    -0.321 C  
HETATM   11  O   UNL     1     -10.033   9.575  70.886  1.00  0.00    -0.284 OA 
HETATM   12  N   UNL     1     -12.256   9.799  70.311  1.00  0.00    -0.481 N  
HETATM   13  H   UNL     1     -13.184   9.404  70.465  1.00  0.00     0.000 HD 
BRANCH  12  14
HETATM   14  C   UNL     1     -12.115  10.885  69.329  1.00  0.00    -0.261 C  
BRANCH  14  15
HETATM   15  C   UNL     1     -11.440  12.147  69.958  1.00  0.00    -0.156 C  
BRANCH  15  16
HETATM   16  C   UNL     1     -12.360  13.111  70.688  1.00  0.00    -0.405 A  
HETATM   17  C   UNL     1     -12.385  14.469  70.343  1.00  0.00    -0.400 A  
HETATM   18  C   UNL     1     -13.174  12.674  71.745  1.00  0.00    -0.457 A  
HETATM   19  C   UNL     1     -13.199  15.366  71.040  1.00  0.00    -0.560 A  
HETATM   20  C   UNL     1     -14.007  14.916  72.083  1.00  0.00    -0.598 A  
HETATM   21  C   UNL     1     -14.001  13.568  72.431  1.00  0.00    -0.638 A  
ENDBRANCH  15  16
ENDBRANCH  14  15
BRANCH  14  22
HETATM   22  C   UNL     1     -11.366  10.464  68.027  1.00  0.00    -0.204 C  
HETATM   23  O   UNL     1     -11.252   9.037  67.944  1.00  0.00    -0.476 OA 
HETATM   24  H   UNL     1     -10.797   8.780  67.151  1.00  0.00     0.000 HD 
BRANCH  22  25
HETATM   25  C   UNL     1     -10.018  11.144  67.717  1.00  0.00    -0.175 C  
BRANCH  25  26
HETATM   26  N   UNL     1      -9.621  11.403  66.267  1.00  0.00    -0.207 N  
BRANCH  26  27
HETATM   27  C   UNL     1      -9.714  12.891  65.930  1.00  0.00    -0.184 C  
HETATM   28  C   UNL     1     -10.834  13.380  64.987  1.00  0.00    -0.337 C  
HETATM   29  C   UNL     1     -12.246  13.150  65.523  1.00  0.00    -0.513 C  
HETATM   30  C   UNL     1     -10.669  14.893  64.751  1.00  0.00    -0.365 C  
ENDBRANCH  26  27
BRANCH  26  31
HETATM   31  S   UNL     1      -8.002  10.761  65.987  1.00  0.00    -0.131 S  
HETATM   32  O   UNL     1      -7.791  10.637  64.566  1.00  0.00    -0.050 OA 
HETATM   33  O   UNL     1      -7.106  11.540  66.823  1.00  0.00    -0.141 OA 
BRANCH  31  34
HETATM   34  C   UNL     1      -8.053   9.102  66.661  1.00  0.00    -0.111 A  
HETATM   35  C   UNL     1      -8.931   6.849  66.626  1.00  0.00    -0.157 A  
HETATM   36  C   UNL     1      -8.842   8.127  66.051  1.00  0.00    -0.206 A  
HETATM   37  C   UNL     1      -8.277   6.547  67.826  1.00  0.00    -0.115 A  
HETATM   38  N   UNL     1      -8.288   5.247  68.331  1.00  0.00    -0.093 NA 
HETATM   39  C   UNL     1      -7.426   7.508  68.375  1.00  0.00    -0.108 A  
HETATM   40  H1  UNL     1      -7.811   5.026  69.206  1.00  0.00     0.000 HD 
HETATM   41  C   UNL     1      -7.320   8.787  67.810  1.00  0.00    -0.088 A  
HETATM   42  H2  UNL     1      -7.933   4.620  67.608  1.00  0.00     0.000 HD 
ENDBRANCH  31  34
ENDBRANCH  26  31
ENDBRANCH  25  26
ENDBRANCH  22  25
ENDBRANCH  14  22
ENDBRANCH  12  14
ENDBRANCH   9  10
ENDBRANCH   8   9
TORSDOF 11
ENDMDL
MODEL      133
REMARK 921   NORMALIZED FREE ENERGY PREDICTED BY IDOCK:   -5.59 KCAL/MOL
REMARK 922        TOTAL FREE ENERGY PREDICTED BY IDOCK:  -11.80 KCAL/MOL
REMARK 923 INTER-LIGAND FREE ENERGY PREDICTED BY IDOCK:  -10.20 KCAL/MOL
REMARK 924 INTRA-LIGAND FREE ENERGY PREDICTED BY IDOCK:   -1.60 KCAL/MOL
REMARK 927      BINDING AFFINITY PREDICTED BY RF-SCORE:    0.00 PKD
ROOT
HETATM    1  C   UNL     1     -10.433  16.299  66.987  1.00  0.00    -0.306 C  
HETATM    2  C   UNL     1      -8.924  16.170  67.096  1.00  0.00    -0.218 C  
HETATM    3  C   UNL     1      -8.493  17.366  67.923  1.00  0.00    -0.228 C  
HETATM    4  O   UNL     1      -9.665  18.062  68.345  1.00  0.00    -0.309 OA 
HETATM    5  C   UNL     1     -10.784  17.213  68.136  1.00  0.00    -0.366 C  
HETATM    6  O   UNL     1     -11.017  16.364  69.260  1.00  0.00    -0.305 OA 
HETATM    7  C   UNL     1     -11.535  15.126  68.760  1.00  0.00    -0.319 C  
HETATM    8  C   UNL     1     -11.255  15.053  67.259  1.00  0.00    -0.338 C  
ENDROOT
BRANCH   8   9
HETATM    9  O   UNL     1     -10.518  13.849  66.988  1.00  0.00    -0.274 OA 
BRANCH   9  10
HETATM   10  C   UNL     1     -11.207  12.686  67.096  1.00  0.00    -0.300 C  
HETATM   11  O   UNL     1     -12.293  12.467  66.588  1.00  0.00    -0.477 OA 
HETATM   12  N   UNL     1     -10.524  11.856  67.936  1.00  0.00    -0.199 N  
HETATM   13  H   UNL     1      -9.578  12.120  68.213  1.00  0.00     0.000 HD 
BRANCH  12  14
HETATM   14  C   UNL     1     -11.080  10.601  68.464  1.00  0.00    -0.263 C  
BRANCH  14  15
HETATM   15  C   UNL     1     -10.754   9.389  67.531  1.00  0.00    -0.290 C  
BRANCH  15  16
HETATM   16  C   UNL     1      -9.609   9.582  66.551  1.00  0.00    -0.259 A  
HETATM   17  C   UNL     1      -8.279   9.473  66.979  1.00  0.00    -0.113 A  
HETATM   18  C   UNL     1      -9.854   9.909  65.208  1.00  0.00    -0.373 A  
HETATM   19  C   UNL     1      -7.224   9.691  66.090  1.00  0.00    -0.098 A  
HETATM   20  C   UNL     1      -7.483  10.008  64.757  1.00  0.00    -0.143 A  
HETATM   21  C   UNL     1      -8.798  10.110  64.314  1.00  0.00    -0.244 A  
ENDBRANCH  15  16
ENDBRANCH  14  15
BRANCH  14  22
HETATM   22  C   UNL     1     -10.647  10.286  69.929  1.00  0.00    -0.276 C  
HETATM   23  O   UNL     1      -9.218  10.296  70.050  1.00  0.00    -0.399 OA 
HETATM   24  H   UNL     1      -8.954  10.104  70.943  1.00  0.00     0.000 HD 
BRANCH  22  25
HETATM   25  C   UNL     1     -11.250   9.040  70.608  1.00  0.00    -0.270 C  
BRANCH  25  26
HETATM   26  N   UNL     1     -10.331   7.908  71.055  1.00  0.00    -0.201 N  
BRANCH  26  27
HETATM   27  C   UNL     1      -9.819   8.144  72.476  1.00  0.00    -0.293 C  
HETATM   28  C   UNL     1      -8.374   7.736  72.834  1.00  0.00    -0.188 C  
HETATM   29  C   UNL     1      -7.301   8.486  72.048  1.00  0.00    -0.110 C  
HETATM   30  C   UNL     1      -8.129   8.010  74.330  1.00  0.00    -0.312 C  
ENDBRANCH  26  27
BRANCH  26  31
HETATM   31  S   UNL     1     -11.188   6.374  70.907  1.00  0.00    -0.339 S  
HETATM   32  O   UNL     1     -10.760   5.498  71.969  1.00  0.00    -0.225 OA 
HETATM   33  O   UNL     1     -12.588   6.708  70.716  1.00  0.00    -0.261 OA 
BRANCH  31  34
HETATM   34  C   UNL     1     -10.592   5.672  69.370  1.00  0.00    -0.304 A  
HETATM   35  C   UNL     1     -10.613   5.592  66.954  1.00  0.00    -0.367 A  
HETATM   36  C   UNL     1     -11.029   6.193  68.152  1.00  0.00    -0.398 A  
HETATM   37  C   UNL     1      -9.802   4.452  66.958  1.00  0.00    -0.194 A  
HETATM   38  N   UNL     1      -9.310   3.927  65.762  1.00  0.00    -0.153 NA 
HETATM   39  C   UNL     1      -9.307   3.997  68.182  1.00  0.00    -0.218 A  
HETATM   40  H1  UNL     1      -8.719   3.095  65.765  1.00  0.00     0.000 HD 
HETATM   41  C   UNL     1      -9.707   4.589  69.388  1.00  0.00    -0.272 A  
HETATM   42  H2  UNL     1      -8.815   4.669  65.268  1.00  0.00     0.000 HD 
ENDBRANCH  31  34
ENDBRANCH  26  31
ENDBRANCH  25  26
ENDBRANCH  22  25
ENDBRANCH  14  22
ENDBRANCH  12  14
ENDBRANCH   9  10
ENDBRANCH   8   9
TORSDOF 11
ENDMDL
MODEL      134
REMARK 921   NORMALIZED FREE ENERGY PREDICTED BY IDOCK:   -5.58 KCAL/MOL
REMARK 922        TOTAL FREE ENERGY PREDICTED BY IDOCK:  -11.79 KCAL/MOL
REMARK 923 INTER-LIGAND FREE ENERGY PREDICTED BY IDOCK:  -11.64 KCAL/MOL
REMARK 924 INTRA-LIGAND FREE ENERGY PREDICTED BY IDOCK:   -0.16 KCAL/MOL
REMARK 927      BINDING AFFINITY PREDICTED BY RF-SCORE:    0.00 PKD
ROOT
HETATM    1  C   UNL     1     -12.026  11.523  64.488  1.00  0.00     0.043 C  
HETATM    2  C   UNL     1     -11.443  11.503  65.889  1.00  0.00    -0.086 C  
HETATM    3  C   UNL     1     -10.152  10.718  65.759  1.00  0.00    -0.261 C  
HETATM    4  O   UNL     1      -9.956  10.409  64.380  1.00  0.00    -0.335 OA 
HETATM    5  C   UNL     1     -10.834  11.222  63.614  1.00  0.00    -0.333 C  
HETATM    6  O   UNL     1     -10.243  12.483  63.301  1.00  0.00    -0.370 OA 
HETATM    7  C   UNL     1     -11.296  13.452  63.271  1.00  0.00     0.431 C  
HETATM    8  C   UNL     1     -12.522  12.859  63.965  1.00  0.00    -0.326 C  
ENDROOT
BRANCH   8   9
HETATM    9  O   UNL     1     -12.921  13.742  65.027  1.00  0.00    -0.732 OA 
BRANCH   9  10
HETATM   10  C   UNL     1     -11.966  14.579  65.501  1.00  0.00    -0.312 C  
HETATM   11  O   UNL     1     -11.183  15.210  64.812  1.00  0.00    -0.394 OA 
HETATM   12  N   UNL     1     -11.976  14.517  66.865  1.00  0.00    -0.410 N  
HETATM   13  H   UNL     1     -12.747  14.030  67.321  1.00  0.00     0.000 HD 
BRANCH  12  14
HETATM   14  C   UNL     1     -10.932  15.116  67.711  1.00  0.00    -0.306 C  
BRANCH  14  15
HETATM   15  C   UNL     1     -11.281  16.591  68.097  1.00  0.00    -0.241 C  
BRANCH  15  16
HETATM   16  C   UNL     1     -10.431  17.675  67.455  1.00  0.00    -0.365 A  
HETATM   17  C   UNL     1      -9.150  17.381  66.968  1.00  0.00    -0.251 A  
HETATM   18  C   UNL     1     -10.891  18.999  67.370  1.00  0.00    -0.496 A  
HETATM   19  C   UNL     1      -8.350  18.385  66.416  1.00  0.00    -0.272 A  
HETATM   20  C   UNL     1      -8.823  19.693  66.332  1.00  0.00    -0.419 A  
HETATM   21  C   UNL     1     -10.097  19.999  66.802  1.00  0.00    -0.607 A  
ENDBRANCH  15  16
ENDBRANCH  14  15
BRANCH  14  22
HETATM   22  C   UNL     1     -10.604  14.287  68.990  1.00  0.00    -0.232 C  
HETATM   23  O   UNL     1      -9.188  14.108  69.131  1.00  0.00    -0.395 OA 
HETATM   24  H   UNL     1      -8.988  13.603  69.910  1.00  0.00     0.000 HD 
BRANCH  22  25
HETATM   25  C   UNL     1     -11.351  12.954  69.198  1.00  0.00    -0.273 C  
BRANCH  25  26
HETATM   26  N   UNL     1     -11.929  12.621  70.570  1.00  0.00    -0.279 N  
BRANCH  26  27
HETATM   27  C   UNL     1     -13.023  13.615  70.960  1.00  0.00    -0.232 C  
HETATM   28  C   UNL     1     -12.834  14.485  72.222  1.00  0.00    -0.427 C  
HETATM   29  C   UNL     1     -11.639  15.433  72.153  1.00  0.00    -0.554 C  
HETATM   30  C   UNL     1     -14.095  15.344  72.435  1.00  0.00    -0.645 C  
ENDBRANCH  26  27
BRANCH  26  31
HETATM   31  S   UNL     1     -12.518  10.959  70.562  1.00  0.00    -0.345 S  
HETATM   32  O   UNL     1     -13.350  10.755  71.722  1.00  0.00    -0.395 OA 
HETATM   33  O   UNL     1     -13.011  10.709  69.220  1.00  0.00     0.019 OA 
BRANCH  31  34
HETATM   34  C   UNL     1     -11.047   9.960  70.784  1.00  0.00    -0.347 A  
HETATM   35  C   UNL     1      -9.750   8.400  72.100  1.00  0.00    -0.370 A  
HETATM   36  C   UNL     1     -10.934   9.127  71.897  1.00  0.00    -0.372 A  
HETATM   37  C   UNL     1      -8.662   8.531  71.230  1.00  0.00    -0.181 A  
HETATM   38  N   UNL     1      -7.531   7.727  71.382  1.00  0.00    -0.073 NA 
HETATM   39  C   UNL     1      -8.825   9.303  70.077  1.00  0.00    -0.212 A  
HETATM   40  H1  UNL     1      -6.738   7.822  70.748  1.00  0.00     0.000 HD 
HETATM   41  C   UNL     1     -10.003  10.029  69.856  1.00  0.00    -0.280 A  
HETATM   42  H2  UNL     1      -7.830   6.751  71.376  1.00  0.00     0.000 HD 
ENDBRANCH  31  34
ENDBRANCH  26  31
ENDBRANCH  25  26
ENDBRANCH  22  25
ENDBRANCH  14  22
ENDBRANCH  12  14
ENDBRANCH   9  10
ENDBRANCH   8   9
TORSDOF 11
ENDMDL
MODEL      135
REMARK 921   NORMALIZED FREE ENERGY PREDICTED BY IDOCK:   -5.58 KCAL/MOL
REMARK 922        TOTAL FREE ENERGY PREDICTED BY IDOCK:  -11.78 KCAL/MOL
REMARK 923 INTER-LIGAND FREE ENERGY PREDICTED BY IDOCK:   -9.73 KCAL/MOL
REMARK 924 INTRA-LIGAND FREE ENERGY PREDICTED BY IDOCK:   -2.06 KCAL/MOL
REMARK 927      BINDING AFFINITY PREDICTED BY RF-SCORE:    0.00 PKD
ROOT
HETATM    1  C   UNL     1     -10.944  16.463  67.895  1.00  0.00    -0.298 C  
HETATM    2  C   UNL     1     -10.502  16.713  66.465  1.00  0.00    -0.262 C  
HETATM    3  C   UNL     1     -10.123  18.181  66.429  1.00  0.00    -0.389 C  
HETATM    4  O   UNL     1     -10.233  18.702  67.753  1.00  0.00    -0.347 OA 
HETATM    5  C   UNL     1     -10.319  17.608  68.654  1.00  0.00    -0.359 C  
HETATM    6  O   UNL     1      -9.027  17.157  69.058  1.00  0.00    -0.223 OA 
HETATM    7  C   UNL     1      -9.111  15.742  69.257  1.00  0.00    -0.263 C  
HETATM    8  C   UNL     1     -10.386  15.232  68.586  1.00  0.00    -0.232 C  
ENDROOT
BRANCH   8   9
HETATM    9  O   UNL     1     -10.031  14.200  67.650  1.00  0.00    -0.228 OA 
BRANCH   9  10
HETATM   10  C   UNL     1     -10.939  13.207  67.479  1.00  0.00    -0.263 C  
HETATM   11  O   UNL     1     -12.143  13.327  67.623  1.00  0.00    -0.335 OA 
HETATM   12  N   UNL     1     -10.266  12.050  67.215  1.00  0.00    -0.203 N  
HETATM   13  H   UNL     1      -9.266  12.105  67.020  1.00  0.00     0.000 HD 
BRANCH  12  14
HETATM   14  C   UNL     1     -10.908  10.726  67.195  1.00  0.00    -0.277 C  
BRANCH  14  15
HETATM   15  C   UNL     1     -10.056   9.685  66.398  1.00  0.00    -0.317 C  
BRANCH  15  16
HETATM   16  C   UNL     1      -9.591  10.111  65.015  1.00  0.00    -0.362 A  
HETATM   17  C   UNL     1      -8.357   9.676  64.514  1.00  0.00    -0.172 A  
HETATM   18  C   UNL     1     -10.365  10.977  64.227  1.00  0.00    -0.430 A  
HETATM   19  C   UNL     1      -7.907  10.100  63.261  1.00  0.00    -0.155 A  
HETATM   20  C   UNL     1      -8.690  10.955  62.486  1.00  0.00    -0.332 A  
HETATM   21  C   UNL     1      -9.924  11.387  62.966  1.00  0.00    -0.354 A  
ENDBRANCH  15  16
ENDBRANCH  14  15
BRANCH  14  22
HETATM   22  C   UNL     1     -11.252  10.171  68.611  1.00  0.00    -0.168 C  
HETATM   23  O   UNL     1     -12.564  10.585  69.015  1.00  0.00    -0.722 OA 
HETATM   24  H   UNL     1     -12.774  10.247  69.878  1.00  0.00     0.000 HD 
BRANCH  22  25
HETATM   25  C   UNL     1     -10.230  10.396  69.743  1.00  0.00    -0.184 C  
BRANCH  25  26
HETATM   26  N   UNL     1      -9.185   9.324  70.038  1.00  0.00    -0.192 N  
BRANCH  26  27
HETATM   27  C   UNL     1      -7.772   9.901  69.967  1.00  0.00    -0.178 C  
HETATM   28  C   UNL     1      -6.634   9.036  69.384  1.00  0.00    -0.044 C  
HETATM   29  C   UNL     1      -6.829   8.654  67.919  1.00  0.00    -0.067 C  
HETATM   30  C   UNL     1      -5.307   9.811  69.488  1.00  0.00    -0.034 C  
ENDBRANCH  26  27
BRANCH  26  31
HETATM   31  S   UNL     1      -9.526   8.601  71.610  1.00  0.00    -0.289 S  
HETATM   32  O   UNL     1      -8.429   8.886  72.501  1.00  0.00    -0.395 OA 
HETATM   33  O   UNL     1     -10.889   8.974  71.942  1.00  0.00    -0.350 OA 
BRANCH  31  34
HETATM   34  C   UNL     1      -9.516   6.836  71.305  1.00  0.00    -0.165 A  
HETATM   35  C   UNL     1      -9.946   4.957  69.846  1.00  0.00    -0.317 A  
HETATM   36  C   UNL     1      -9.890   6.343  70.055  1.00  0.00    -0.193 A  
HETATM   37  C   UNL     1      -9.677   4.056  70.883  1.00  0.00    -0.187 A  
HETATM   38  N   UNL     1      -9.634   2.683  70.636  1.00  0.00    -0.133 NA 
HETATM   39  C   UNL     1      -9.222   4.566  72.101  1.00  0.00    -0.165 A  
HETATM   40  H1  UNL     1      -9.438   2.026  71.392  1.00  0.00     0.000 HD 
HETATM   41  C   UNL     1      -9.154   5.948  72.324  1.00  0.00    -0.142 A  
HETATM   42  H2  UNL     1      -8.965   2.514  69.885  1.00  0.00     0.000 HD 
ENDBRANCH  31  34
ENDBRANCH  26  31
ENDBRANCH  25  26
ENDBRANCH  22  25
ENDBRANCH  14  22
ENDBRANCH  12  14
ENDBRANCH   9  10
ENDBRANCH   8   9
TORSDOF 11
ENDMDL
MODEL      136
REMARK 921   NORMALIZED FREE ENERGY PREDICTED BY IDOCK:   -5.57 KCAL/MOL
REMARK 922        TOTAL FREE ENERGY PREDICTED BY IDOCK:  -11.77 KCAL/MOL
REMARK 923 INTER-LIGAND FREE ENERGY PREDICTED BY IDOCK:  -10.04 KCAL/MOL
REMARK 924 INTRA-LIGAND FREE ENERGY PREDICTED BY IDOCK:   -1.73 KCAL/MOL
REMARK 927      BINDING AFFINITY PREDICTED BY RF-SCORE:    0.00 PKD
ROOT
HETATM    1  C   UNL     1      -8.555  17.493  67.672  1.00  0.00    -0.219 C  
HETATM    2  C   UNL     1      -8.599  18.610  68.699  1.00  0.00    -0.338 C  
HETATM    3  C   UNL     1      -7.627  19.651  68.179  1.00  0.00    -0.307 C  
HETATM    4  O   UNL     1      -7.149  19.218  66.906  1.00  0.00    -0.203 OA 
HETATM    5  C   UNL     1      -7.994  18.173  66.447  1.00  0.00    -0.266 C  
HETATM    6  O   UNL     1      -9.117  18.684  65.729  1.00  0.00    -0.402 OA 
HETATM    7  C   UNL     1     -10.219  17.805  65.978  1.00  0.00    -0.293 C  
HETATM    8  C   UNL     1      -9.886  16.941  67.194  1.00  0.00    -0.270 C  
ENDROOT
BRANCH   8   9
HETATM    9  O   UNL     1     -10.924  17.106  68.174  1.00  0.00    -0.361 OA 
BRANCH   9  10
HETATM   10  C   UNL     1     -11.279  15.996  68.866  1.00  0.00    -0.353 C  
HETATM   11  O   UNL     1     -11.611  15.977  70.039  1.00  0.00    -0.332 OA 
HETATM   12  N   UNL     1     -11.111  14.911  68.055  1.00  0.00    -0.283 N  
HETATM   13  H   UNL     1     -10.926  15.071  67.065  1.00  0.00     0.000 HD 
BRANCH  12  14
HETATM   14  C   UNL     1     -11.183  13.522  68.535  1.00  0.00    -0.278 C  
BRANCH  14  15
HETATM   15  C   UNL     1     -12.159  12.663  67.667  1.00  0.00    -0.166 C  
BRANCH  15  16
HETATM   16  C   UNL     1     -11.990  12.764  66.160  1.00  0.00    -0.476 A  
HETATM   17  C   UNL     1     -12.618  13.789  65.440  1.00  0.00    -0.534 A  
HETATM   18  C   UNL     1     -11.235  11.815  65.452  1.00  0.00    -0.310 A  
HETATM   19  C   UNL     1     -12.499  13.859  64.050  1.00  0.00    -0.263 A  
HETATM   20  C   UNL     1     -11.740  12.914  63.361  1.00  0.00    -0.526 A  
HETATM   21  C   UNL     1     -11.101  11.896  64.063  1.00  0.00    -0.459 A  
ENDBRANCH  15  16
ENDBRANCH  14  15
BRANCH  14  22
HETATM   22  C   UNL     1      -9.795  12.819  68.642  1.00  0.00    -0.063 C  
HETATM   23  O   UNL     1      -8.836  13.452  67.783  1.00  0.00    -0.177 OA 
HETATM   24  H   UNL     1      -7.990  13.024  67.848  1.00  0.00     0.000 HD 
BRANCH  22  25
HETATM   25  C   UNL     1      -9.747  11.286  68.485  1.00  0.00    -0.198 C  
BRANCH  25  26
HETATM   26  N   UNL     1      -9.332  10.421  69.671  1.00  0.00    -0.133 N  
BRANCH  26  27
HETATM   27  C   UNL     1     -10.423   9.408  70.020  1.00  0.00    -0.234 C  
HETATM   28  C   UNL     1     -11.397   9.720  71.176  1.00  0.00    -0.459 C  
HETATM   29  C   UNL     1     -12.261  10.958  70.947  1.00  0.00    -0.485 C  
HETATM   30  C   UNL     1     -12.346   8.523  71.372  1.00  0.00    -0.332 C  
ENDBRANCH  26  27
BRANCH  26  31
HETATM   31  S   UNL     1      -7.795   9.638  69.306  1.00  0.00    -0.108 S  
HETATM   32  O   UNL     1      -6.768  10.647  69.222  1.00  0.00    -0.057 OA 
HETATM   33  O   UNL     1      -7.684   8.516  70.220  1.00  0.00    -0.071 OA 
BRANCH  31  34
HETATM   34  C   UNL     1      -8.012   8.966  67.659  1.00  0.00    -0.102 A  
HETATM   35  C   UNL     1      -8.869   7.246  66.192  1.00  0.00    -0.181 A  
HETATM   36  C   UNL     1      -8.763   7.805  67.475  1.00  0.00    -0.125 A  
HETATM   37  C   UNL     1      -8.198   7.807  65.099  1.00  0.00    -0.132 A  
HETATM   38  N   UNL     1      -8.395   7.305  63.812  1.00  0.00    -0.360 NA 
HETATM   39  C   UNL     1      -7.522   9.015  65.287  1.00  0.00    -0.093 A  
HETATM   40  H1  UNL     1      -7.907   7.714  63.016  1.00  0.00     0.000 HD 
HETATM   41  C   UNL     1      -7.411   9.590  66.561  1.00  0.00    -0.093 A  
HETATM   42  H2  UNL     1      -9.396   7.319  63.614  1.00  0.00     0.000 HD 
ENDBRANCH  31  34
ENDBRANCH  26  31
ENDBRANCH  25  26
ENDBRANCH  22  25
ENDBRANCH  14  22
ENDBRANCH  12  14
ENDBRANCH   9  10
ENDBRANCH   8   9
TORSDOF 11
ENDMDL
MODEL      137
REMARK 921   NORMALIZED FREE ENERGY PREDICTED BY IDOCK:   -5.57 KCAL/MOL
REMARK 922        TOTAL FREE ENERGY PREDICTED BY IDOCK:  -11.77 KCAL/MOL
REMARK 923 INTER-LIGAND FREE ENERGY PREDICTED BY IDOCK:   -9.71 KCAL/MOL
REMARK 924 INTRA-LIGAND FREE ENERGY PREDICTED BY IDOCK:   -2.06 KCAL/MOL
REMARK 927      BINDING AFFINITY PREDICTED BY RF-SCORE:    0.00 PKD
ROOT
HETATM    1  C   UNL     1     -10.328  19.146  67.856  1.00  0.00    -0.505 C  
HETATM    2  C   UNL     1     -10.358  18.978  66.348  1.00  0.00    -0.520 C  
HETATM    3  C   UNL     1      -9.243  19.871  65.837  1.00  0.00    -0.158 C  
HETATM    4  O   UNL     1      -8.561  20.420  66.964  1.00  0.00    -0.328 OA 
HETATM    5  C   UNL     1      -8.941  19.681  68.116  1.00  0.00    -0.324 C  
HETATM    6  O   UNL     1      -8.106  18.539  68.306  1.00  0.00    -0.284 OA 
HETATM    7  C   UNL     1      -8.914  17.510  68.885  1.00  0.00    -0.144 C  
HETATM    8  C   UNL     1     -10.385  17.882  68.694  1.00  0.00    -0.337 C  
ENDROOT
BRANCH   8   9
HETATM    9  O   UNL     1     -11.045  16.807  68.007  1.00  0.00    -0.336 OA 
BRANCH   9  10
HETATM   10  C   UNL     1     -11.221  15.662  68.712  1.00  0.00    -0.332 C  
HETATM   11  O   UNL     1     -11.910  15.554  69.712  1.00  0.00    -0.316 OA 
HETATM   12  N   UNL     1     -10.428  14.694  68.168  1.00  0.00    -0.234 N  
HETATM   13  H   UNL     1      -9.979  14.884  67.272  1.00  0.00     0.000 HD 
BRANCH  12  14
HETATM   14  C   UNL     1     -10.188  13.390  68.804  1.00  0.00    -0.119 C  
BRANCH  14  15
HETATM   15  C   UNL     1     -11.338  12.377  68.494  1.00  0.00    -0.336 C  
BRANCH  15  16
HETATM   16  C   UNL     1     -11.764  11.469  69.636  1.00  0.00    -0.419 A  
HETATM   17  C   UNL     1     -12.680  11.915  70.597  1.00  0.00    -0.176 A  
HETATM   18  C   UNL     1     -11.222  10.181  69.777  1.00  0.00    -0.325 A  
HETATM   19  C   UNL     1     -13.041  11.098  71.672  1.00  0.00    -0.529 A  
HETATM   20  C   UNL     1     -12.501   9.819  71.794  1.00  0.00    -0.485 A  
HETATM   21  C   UNL     1     -11.597   9.357  70.842  1.00  0.00    -0.380 A  
ENDBRANCH  15  16
ENDBRANCH  14  15
BRANCH  14  22
HETATM   22  C   UNL     1      -8.805  12.761  68.452  1.00  0.00    -0.117 C  
HETATM   23  O   UNL     1      -7.734  13.601  68.904  1.00  0.00    -0.258 OA 
HETATM   24  H   UNL     1      -6.892  13.218  68.690  1.00  0.00     0.000 HD 
BRANCH  22  25
HETATM   25  C   UNL     1      -8.570  12.300  67.000  1.00  0.00    -0.191 C  
BRANCH  25  26
HETATM   26  N   UNL     1      -8.127  10.866  66.728  1.00  0.00    -0.136 N  
BRANCH  26  27
HETATM   27  C   UNL     1      -8.121  10.040  68.014  1.00  0.00    -0.112 C  
HETATM   28  C   UNL     1      -6.842   9.270  68.408  1.00  0.00    -0.063 C  
HETATM   29  C   UNL     1      -5.632  10.163  68.672  1.00  0.00    -0.038 C  
HETATM   30  C   UNL     1      -7.114   8.466  69.694  1.00  0.00    -0.052 C  
ENDBRANCH  26  27
BRANCH  26  31
HETATM   31  S   UNL     1      -9.171  10.162  65.494  1.00  0.00    -0.210 S  
HETATM   32  O   UNL     1     -10.463  10.797  65.560  1.00  0.00    -0.252 OA 
HETATM   33  O   UNL     1      -8.396  10.145  64.267  1.00  0.00    -0.158 OA 
BRANCH  31  34
HETATM   34  C   UNL     1      -9.392   8.460  66.008  1.00  0.00    -0.177 A  
HETATM   35  C   UNL     1     -10.567   6.799  67.314  1.00  0.00    -0.390 A  
HETATM   36  C   UNL     1     -10.443   8.121  66.860  1.00  0.00    -0.379 A  
HETATM   37  C   UNL     1      -9.629   5.821  66.964  1.00  0.00    -0.135 A  
HETATM   38  N   UNL     1      -9.820   4.490  67.335  1.00  0.00    -0.177 NA 
HETATM   39  C   UNL     1      -8.633   6.159  66.045  1.00  0.00    -0.145 A  
HETATM   40  H1  UNL     1      -9.136   3.777  67.080  1.00  0.00     0.000 HD 
HETATM   41  C   UNL     1      -8.499   7.473  65.576  1.00  0.00    -0.129 A  
HETATM   42  H2  UNL     1     -10.734   4.191  66.994  1.00  0.00     0.000 HD 
ENDBRANCH  31  34
ENDBRANCH  26  31
ENDBRANCH  25  26
ENDBRANCH  22  25
ENDBRANCH  14  22
ENDBRANCH  12  14
ENDBRANCH   9  10
ENDBRANCH   8   9
TORSDOF 11
ENDMDL
MODEL      138
REMARK 921   NORMALIZED FREE ENERGY PREDICTED BY IDOCK:   -5.56 KCAL/MOL
REMARK 922        TOTAL FREE ENERGY PREDICTED BY IDOCK:  -11.75 KCAL/MOL
REMARK 923 INTER-LIGAND FREE ENERGY PREDICTED BY IDOCK:  -10.24 KCAL/MOL
REMARK 924 INTRA-LIGAND FREE ENERGY PREDICTED BY IDOCK:   -1.51 KCAL/MOL
REMARK 927      BINDING AFFINITY PREDICTED BY RF-SCORE:    0.00 PKD
ROOT
HETATM    1  C   UNL     1     -12.861  10.578  70.351  1.00  0.00    -0.274 C  
HETATM    2  C   UNL     1     -13.133  10.716  71.838  1.00  0.00    -0.563 C  
HETATM    3  C   UNL     1     -13.048   9.301  72.379  1.00  0.00    -0.406 C  
HETATM    4  O   UNL     1     -12.653   8.440  71.313  1.00  0.00    -0.292 OA 
HETATM    5  C   UNL     1     -12.161   9.245  70.251  1.00  0.00     0.192 C  
HETATM    6  O   UNL     1     -10.768   9.518  70.400  1.00  0.00    -0.239 OA 
HETATM    7  C   UNL     1     -10.529  10.825  69.868  1.00  0.00    -0.004 C  
HETATM    8  C   UNL     1     -11.869  11.549  69.737  1.00  0.00    -0.357 C  
ENDROOT
BRANCH   8   9
HETATM    9  O   UNL     1     -11.797  12.784  70.468  1.00  0.00    -0.253 OA 
BRANCH   9  10
HETATM   10  C   UNL     1     -11.642  13.910  69.729  1.00  0.00    -0.270 C  
HETATM   11  O   UNL     1     -12.551  14.626  69.345  1.00  0.00    -0.139 OA 
HETATM   12  N   UNL     1     -10.320  14.043  69.418  1.00  0.00    -0.432 N  
HETATM   13  H   UNL     1      -9.650  13.433  69.886  1.00  0.00     0.000 HD 
BRANCH  12  14
HETATM   14  C   UNL     1      -9.811  15.021  68.443  1.00  0.00    -0.222 C  
BRANCH  14  15
HETATM   15  C   UNL     1      -9.300  16.321  69.145  1.00  0.00    -0.236 C  
BRANCH  15  16
HETATM   16  C   UNL     1      -9.352  17.597  68.322  1.00  0.00    -0.290 A  
HETATM   17  C   UNL     1      -8.441  18.635  68.559  1.00  0.00    -0.367 A  
HETATM   18  C   UNL     1     -10.333  17.782  67.335  1.00  0.00    -0.370 A  
HETATM   19  C   UNL     1      -8.513  19.826  67.832  1.00  0.00    -0.348 A  
HETATM   20  C   UNL     1      -9.488  19.992  66.851  1.00  0.00    -0.529 A  
HETATM   21  C   UNL     1     -10.394  18.966  66.596  1.00  0.00    -0.479 A  
ENDBRANCH  15  16
ENDBRANCH  14  15
BRANCH  14  22
HETATM   22  C   UNL     1      -8.713  14.451  67.495  1.00  0.00    -0.197 C  
HETATM   23  O   UNL     1      -9.008  14.767  66.127  1.00  0.00    -0.482 OA 
HETATM   24  H   UNL     1      -8.338  14.421  65.549  1.00  0.00     0.000 HD 
BRANCH  22  25
HETATM   25  C   UNL     1      -8.325  12.966  67.646  1.00  0.00    -0.176 C  
BRANCH  25  26
HETATM   26  N   UNL     1      -9.076  11.907  66.845  1.00  0.00    -0.190 N  
BRANCH  26  27
HETATM   27  C   UNL     1      -9.696  12.510  65.585  1.00  0.00    -0.158 C  
HETATM   28  C   UNL     1     -11.194  12.274  65.296  1.00  0.00    -0.372 C  
HETATM   29  C   UNL     1     -12.132  12.861  66.348  1.00  0.00    -0.400 C  
HETATM   30  C   UNL     1     -11.554  12.918  63.943  1.00  0.00    -0.515 C  
ENDBRANCH  26  27
BRANCH  26  31
HETATM   31  S   UNL     1      -7.979  10.578  66.473  1.00  0.00    -0.138 S  
HETATM   32  O   UNL     1      -7.874  10.449  65.041  1.00  0.00    -0.147 OA 
HETATM   33  O   UNL     1      -6.807  10.773  67.306  1.00  0.00    -0.075 OA 
BRANCH  31  34
HETATM   34  C   UNL     1      -8.823   9.116  67.075  1.00  0.00    -0.123 A  
HETATM   35  C   UNL     1     -10.759   7.668  67.088  1.00  0.00    -0.361 A  
HETATM   36  C   UNL     1     -10.074   8.775  66.562  1.00  0.00    -0.349 A  
HETATM   37  C   UNL     1     -10.230   6.926  68.150  1.00  0.00    -0.176 A  
HETATM   38  N   UNL     1     -10.869   5.768  68.594  1.00  0.00    -0.243 NA 
HETATM   39  C   UNL     1      -8.940   7.231  68.592  1.00  0.00    -0.128 A  
HETATM   40  H1  UNL     1     -10.484   5.227  69.368  1.00  0.00     0.000 HD 
HETATM   41  C   UNL     1      -8.240   8.328  68.073  1.00  0.00    -0.128 A  
HETATM   42  H2  UNL     1     -10.989   5.143  67.797  1.00  0.00     0.000 HD 
ENDBRANCH  31  34
ENDBRANCH  26  31
ENDBRANCH  25  26
ENDBRANCH  22  25
ENDBRANCH  14  22
ENDBRANCH  12  14
ENDBRANCH   9  10
ENDBRANCH   8   9
TORSDOF 11
ENDMDL
MODEL      139
REMARK 921   NORMALIZED FREE ENERGY PREDICTED BY IDOCK:   -5.52 KCAL/MOL
REMARK 922        TOTAL FREE ENERGY PREDICTED BY IDOCK:  -11.69 KCAL/MOL
REMARK 923 INTER-LIGAND FREE ENERGY PREDICTED BY IDOCK:   -9.44 KCAL/MOL
REMARK 924 INTRA-LIGAND FREE ENERGY PREDICTED BY IDOCK:   -2.25 KCAL/MOL
REMARK 927      BINDING AFFINITY PREDICTED BY RF-SCORE:    0.00 PKD
ROOT
HETATM    1  C   UNL     1      -8.644   9.651  64.455  1.00  0.00    -0.205 C  
HETATM    2  C   UNL     1      -7.193  10.087  64.354  1.00  0.00    -0.134 C  
HETATM    3  C   UNL     1      -6.717   9.533  63.025  1.00  0.00    -0.102 C  
HETATM    4  O   UNL     1      -7.829   8.926  62.370  1.00  0.00    -0.118 OA 
HETATM    5  C   UNL     1      -9.016   9.353  63.024  1.00  0.00    -0.152 C  
HETATM    6  O   UNL     1      -9.504  10.578  62.479  1.00  0.00    -0.280 OA 
HETATM    7  C   UNL     1     -10.115  11.308  63.547  1.00  0.00    -0.396 C  
HETATM    8  C   UNL     1      -9.654  10.704  64.874  1.00  0.00    -0.269 C  
ENDROOT
BRANCH   8   9
HETATM    9  O   UNL     1      -9.057  11.741  65.669  1.00  0.00    -0.153 OA 
BRANCH   9  10
HETATM   10  C   UNL     1      -9.644  11.995  66.864  1.00  0.00    -0.203 C  
HETATM   11  O   UNL     1     -10.074  13.080  67.216  1.00  0.00    -0.231 OA 
HETATM   12  N   UNL     1      -9.584  10.863  67.624  1.00  0.00    -0.162 N  
HETATM   13  H   UNL     1      -9.292   9.995  67.175  1.00  0.00     0.000 HD 
BRANCH  12  14
HETATM   14  C   UNL     1      -9.920  10.829  69.056  1.00  0.00    -0.199 C  
BRANCH  14  15
HETATM   15  C   UNL     1     -11.455  10.643  69.283  1.00  0.00    -0.351 C  
BRANCH  15  16
HETATM   16  C   UNL     1     -12.130  11.656  70.194  1.00  0.00    -0.414 A  
HETATM   17  C   UNL     1     -11.978  13.029  69.967  1.00  0.00    -0.383 A  
HETATM   18  C   UNL     1     -12.885  11.241  71.302  1.00  0.00    -0.491 A  
HETATM   19  C   UNL     1     -12.562  13.963  70.827  1.00  0.00    -0.424 A  
HETATM   20  C   UNL     1     -13.316  13.536  71.919  1.00  0.00    -0.529 A  
HETATM   21  C   UNL     1     -13.484  12.174  72.153  1.00  0.00    -0.383 A  
ENDBRANCH  15  16
ENDBRANCH  14  15
BRANCH  14  22
HETATM   22  C   UNL     1      -9.121   9.762  69.865  1.00  0.00    -0.229 C  
HETATM   23  O   UNL     1      -8.486   8.824  68.984  1.00  0.00    -0.127 OA 
HETATM   24  H   UNL     1      -7.999   8.175  69.477  1.00  0.00     0.000 HD 
BRANCH  22  25
HETATM   25  C   UNL     1      -9.846   9.035  71.015  1.00  0.00    -0.282 C  
BRANCH  25  26
HETATM   26  N   UNL     1      -9.556   7.560  71.274  1.00  0.00    -0.157 N  
BRANCH  26  27
HETATM   27  C   UNL     1      -9.067   7.340  72.705  1.00  0.00    -0.137 C  
HETATM   28  C   UNL     1      -7.625   6.841  72.940  1.00  0.00    -0.094 C  
HETATM   29  C   UNL     1      -6.544   7.799  72.445  1.00  0.00    -0.060 C  
HETATM   30  C   UNL     1      -7.403   6.633  74.450  1.00  0.00    -0.098 C  
ENDBRANCH  26  27
BRANCH  26  31
HETATM   31  S   UNL     1     -11.000   6.614  70.916  1.00  0.00    -0.285 S  
HETATM   32  O   UNL     1     -11.014   5.447  71.762  1.00  0.00    -0.213 OA 
HETATM   33  O   UNL     1     -12.107   7.553  70.900  1.00  0.00    -0.293 OA 
BRANCH  31  34
HETATM   34  C   UNL     1     -10.760   6.045  69.234  1.00  0.00    -0.332 A  
HETATM   35  C   UNL     1      -9.876   4.421  67.675  1.00  0.00    -0.168 A  
HETATM   36  C   UNL     1     -10.123   4.827  68.996  1.00  0.00    -0.171 A  
HETATM   37  C   UNL     1     -10.218   5.237  66.591  1.00  0.00    -0.253 A  
HETATM   38  N   UNL     1     -10.063   4.779  65.282  1.00  0.00    -0.396 NA 
HETATM   39  C   UNL     1     -10.930   6.412  66.845  1.00  0.00    -0.413 A  
HETATM   40  H1  UNL     1     -10.312   5.374  64.492  1.00  0.00     0.000 HD 
HETATM   41  C   UNL     1     -11.190   6.828  68.158  1.00  0.00    -0.154 A  
HETATM   42  H2  UNL     1     -10.569   3.898  65.190  1.00  0.00     0.000 HD 
ENDBRANCH  31  34
ENDBRANCH  26  31
ENDBRANCH  25  26
ENDBRANCH  22  25
ENDBRANCH  14  22
ENDBRANCH  12  14
ENDBRANCH   9  10
ENDBRANCH   8   9
TORSDOF 11
ENDMDL
MODEL      140
REMARK 921   NORMALIZED FREE ENERGY PREDICTED BY IDOCK:   -5.52 KCAL/MOL
REMARK 922        TOTAL FREE ENERGY PREDICTED BY IDOCK:  -11.69 KCAL/MOL
REMARK 923 INTER-LIGAND FREE ENERGY PREDICTED BY IDOCK:  -10.88 KCAL/MOL
REMARK 924 INTRA-LIGAND FREE ENERGY PREDICTED BY IDOCK:   -0.82 KCAL/MOL
REMARK 927      BINDING AFFINITY PREDICTED BY RF-SCORE:    0.00 PKD
ROOT
HETATM    1  C   UNL     1      -8.759  19.831  68.537  1.00  0.00    -0.275 C  
HETATM    2  C   UNL     1      -8.639  20.466  67.163  1.00  0.00    -0.402 C  
HETATM    3  C   UNL     1      -7.197  20.929  67.077  1.00  0.00    -0.288 C  
HETATM    4  O   UNL     1      -6.520  20.499  68.257  1.00  0.00    -0.293 OA 
HETATM    5  C   UNL     1      -7.328  19.524  68.901  1.00  0.00    -0.363 C  
HETATM    6  O   UNL     1      -7.066  18.212  68.405  1.00  0.00    -0.234 OA 
HETATM    7  C   UNL     1      -8.296  17.483  68.452  1.00  0.00    -0.278 C  
HETATM    8  C   UNL     1      -9.445  18.479  68.615  1.00  0.00    -0.345 C  
ENDROOT
BRANCH   8   9
HETATM    9  O   UNL     1     -10.379  18.283  67.542  1.00  0.00    -0.361 OA 
BRANCH   9  10
HETATM   10  C   UNL     1     -10.309  17.093  66.895  1.00  0.00    -0.308 C  
HETATM   11  O   UNL     1     -10.067  16.955  65.708  1.00  0.00    -0.502 OA 
HETATM   12  N   UNL     1     -10.644  16.104  67.773  1.00  0.00    -0.302 N  
HETATM   13  H   UNL     1     -10.724  16.342  68.762  1.00  0.00     0.000 HD 
BRANCH  12  14
HETATM   14  C   UNL     1     -10.894  14.712  67.369  1.00  0.00    -0.298 C  
BRANCH  14  15
HETATM   15  C   UNL     1      -9.961  14.277  66.192  1.00  0.00    -0.330 C  
BRANCH  15  16
HETATM   16  C   UNL     1     -10.586  13.389  65.128  1.00  0.00    -0.353 A  
HETATM   17  C   UNL     1     -11.708  13.821  64.410  1.00  0.00    -0.436 A  
HETATM   18  C   UNL     1     -10.079  12.106  64.869  1.00  0.00    -0.280 A  
HETATM   19  C   UNL     1     -12.311  12.990  63.461  1.00  0.00    -0.500 A  
HETATM   20  C   UNL     1     -11.792  11.721  63.210  1.00  0.00    -0.342 A  
HETATM   21  C   UNL     1     -10.671  11.281  63.908  1.00  0.00    -0.451 A  
ENDBRANCH  15  16
ENDBRANCH  14  15
BRANCH  14  22
HETATM   22  C   UNL     1     -10.797  13.688  68.541  1.00  0.00    -0.257 C  
HETATM   23  O   UNL     1     -11.139  14.308  69.788  1.00  0.00    -0.381 OA 
HETATM   24  H   UNL     1     -11.080  13.684  70.503  1.00  0.00     0.000 HD 
BRANCH  22  25
HETATM   25  C   UNL     1      -9.502  12.861  68.673  1.00  0.00     0.004 C  
BRANCH  25  26
HETATM   26  N   UNL     1      -9.471  11.425  68.161  1.00  0.00    -0.174 N  
BRANCH  26  27
HETATM   27  C   UNL     1      -8.179  10.722  68.575  1.00  0.00    -0.136 C  
HETATM   28  C   UNL     1      -7.216  10.212  67.482  1.00  0.00    -0.088 C  
HETATM   29  C   UNL     1      -6.636  11.313  66.597  1.00  0.00    -0.135 C  
HETATM   30  C   UNL     1      -6.033   9.485  68.151  1.00  0.00    -0.047 C  
ENDBRANCH  26  27
BRANCH  26  31
HETATM   31  S   UNL     1     -10.902  10.573  68.742  1.00  0.00    -0.249 S  
HETATM   32  O   UNL     1     -11.015  10.771  70.165  1.00  0.00    -0.263 OA 
HETATM   33  O   UNL     1     -11.981  10.929  67.838  1.00  0.00    -0.585 OA 
BRANCH  31  34
HETATM   34  C   UNL     1     -10.534   8.840  68.476  1.00  0.00    -0.175 A  
HETATM   35  C   UNL     1     -10.205   6.971  66.978  1.00  0.00    -0.330 A  
HETATM   36  C   UNL     1     -10.425   8.343  67.177  1.00  0.00    -0.380 A  
HETATM   37  C   UNL     1     -10.138   6.083  68.057  1.00  0.00    -0.159 A  
HETATM   38  N   UNL     1      -9.816   4.741  67.853  1.00  0.00    -0.153 NA 
HETATM   39  C   UNL     1     -10.164   6.611  69.351  1.00  0.00    -0.207 A  
HETATM   40  H1  UNL     1      -9.767   4.094  68.640  1.00  0.00     0.000 HD 
HETATM   41  C   UNL     1     -10.376   7.979  69.568  1.00  0.00    -0.221 A  
HETATM   42  H2  UNL     1      -8.930   4.698  67.349  1.00  0.00     0.000 HD 
ENDBRANCH  31  34
ENDBRANCH  26  31
ENDBRANCH  25  26
ENDBRANCH  22  25
ENDBRANCH  14  22
ENDBRANCH  12  14
ENDBRANCH   9  10
ENDBRANCH   8   9
TORSDOF 11
ENDMDL
MODEL      141
REMARK 921   NORMALIZED FREE ENERGY PREDICTED BY IDOCK:   -5.50 KCAL/MOL
REMARK 922        TOTAL FREE ENERGY PREDICTED BY IDOCK:  -11.66 KCAL/MOL
REMARK 923 INTER-LIGAND FREE ENERGY PREDICTED BY IDOCK:   -9.51 KCAL/MOL
REMARK 924 INTRA-LIGAND FREE ENERGY PREDICTED BY IDOCK:   -2.15 KCAL/MOL
REMARK 927      BINDING AFFINITY PREDICTED BY RF-SCORE:    0.00 PKD
ROOT
HETATM    1  C   UNL     1      -9.543   6.409  71.828  1.00  0.00    -0.162 C  
HETATM    2  C   UNL     1      -8.173   5.918  72.258  1.00  0.00    -0.111 C  
HETATM    3  C   UNL     1      -8.423   4.541  72.842  1.00  0.00    -0.106 C  
HETATM    4  O   UNL     1      -9.802   4.224  72.663  1.00  0.00    -0.137 OA 
HETATM    5  C   UNL     1     -10.348   5.137  71.721  1.00  0.00    -0.209 C  
HETATM    6  O   UNL     1     -10.180   4.674  70.382  1.00  0.00    -0.227 OA 
HETATM    7  C   UNL     1     -10.000   5.825  69.551  1.00  0.00    -0.191 C  
HETATM    8  C   UNL     1      -9.655   7.018  70.443  1.00  0.00    -0.169 C  
ENDROOT
BRANCH   8   9
HETATM    9  O   UNL     1      -8.411   7.581  69.996  1.00  0.00    -0.131 OA 
BRANCH   9  10
HETATM   10  C   UNL     1      -8.299   7.811  68.665  1.00  0.00    -0.129 C  
HETATM   11  O   UNL     1      -7.714   7.089  67.876  1.00  0.00    -0.108 OA 
HETATM   12  N   UNL     1      -8.868   9.020  68.387  1.00  0.00    -0.133 N  
HETATM   13  H   UNL     1      -9.414   9.477  69.118  1.00  0.00     0.000 HD 
BRANCH  12  14
HETATM   14  C   UNL     1      -8.735   9.699  67.089  1.00  0.00    -0.132 C  
BRANCH  14  15
HETATM   15  C   UNL     1      -9.964   9.418  66.164  1.00  0.00    -0.351 C  
BRANCH  15  16
HETATM   16  C   UNL     1     -10.142  10.349  64.976  1.00  0.00    -0.379 A  
HETATM   17  C   UNL     1     -11.260  11.189  64.891  1.00  0.00    -0.027 A  
HETATM   18  C   UNL     1      -9.215  10.362  63.922  1.00  0.00    -0.301 A  
HETATM   19  C   UNL     1     -11.448  12.016  63.780  1.00  0.00    -0.547 A  
HETATM   20  C   UNL     1     -10.515  12.023  62.745  1.00  0.00     0.511 A  
HETATM   21  C   UNL     1      -9.394  11.202  62.819  1.00  0.00    -0.377 A  
ENDBRANCH  15  16
ENDBRANCH  14  15
BRANCH  14  22
HETATM   22  C   UNL     1      -8.486  11.234  67.202  1.00  0.00    -0.149 C  
HETATM   23  O   UNL     1      -7.143  11.561  66.817  1.00  0.00    -0.168 OA 
HETATM   24  H   UNL     1      -6.991  12.496  66.886  1.00  0.00     0.000 HD 
BRANCH  22  25
HETATM   25  C   UNL     1      -8.866  11.932  68.524  1.00  0.00    -0.108 C  
BRANCH  25  26
HETATM   26  N   UNL     1     -10.068  12.870  68.560  1.00  0.00    -0.220 N  
BRANCH  26  27
HETATM   27  C   UNL     1     -10.363  13.439  67.173  1.00  0.00    -0.246 C  
HETATM   28  C   UNL     1      -9.953  14.893  66.853  1.00  0.00    -0.245 C  
HETATM   29  C   UNL     1      -8.449  15.146  66.920  1.00  0.00    -0.278 C  
HETATM   30  C   UNL     1     -10.420  15.246  65.428  1.00  0.00    -0.422 C  
ENDBRANCH  26  27
BRANCH  26  31
HETATM   31  S   UNL     1     -11.454  12.008  69.229  1.00  0.00    -0.305 S  
HETATM   32  O   UNL     1     -12.406  11.767  68.173  1.00  0.00    -0.389 OA 
HETATM   33  O   UNL     1     -10.911  10.921  70.025  1.00  0.00    -0.248 OA 
BRANCH  31  34
HETATM   34  C   UNL     1     -12.206  13.174  70.362  1.00  0.00    -0.316 A  
HETATM   35  C   UNL     1     -12.582  15.450  71.085  1.00  0.00    -0.485 A  
HETATM   36  C   UNL     1     -12.050  14.545  70.155  1.00  0.00    -0.394 A  
HETATM   37  C   UNL     1     -13.229  15.004  72.243  1.00  0.00    -0.375 A  
HETATM   38  N   UNL     1     -13.845  15.910  73.107  1.00  0.00    -0.682 NA 
HETATM   39  C   UNL     1     -13.449  13.632  72.391  1.00  0.00    -0.685 A  
HETATM   40  H1  UNL     1     -14.317  15.585  73.951  1.00  0.00     0.000 HD 
HETATM   41  C   UNL     1     -12.930  12.714  71.467  1.00  0.00    -0.380 A  
HETATM   42  H2  UNL     1     -14.507  16.467  72.566  1.00  0.00     0.000 HD 
ENDBRANCH  31  34
ENDBRANCH  26  31
ENDBRANCH  25  26
ENDBRANCH  22  25
ENDBRANCH  14  22
ENDBRANCH  12  14
ENDBRANCH   9  10
ENDBRANCH   8   9
TORSDOF 11
ENDMDL
MODEL      142
REMARK 921   NORMALIZED FREE ENERGY PREDICTED BY IDOCK:   -5.49 KCAL/MOL
REMARK 922        TOTAL FREE ENERGY PREDICTED BY IDOCK:  -11.65 KCAL/MOL
REMARK 923 INTER-LIGAND FREE ENERGY PREDICTED BY IDOCK:   -9.72 KCAL/MOL
REMARK 924 INTRA-LIGAND FREE ENERGY PREDICTED BY IDOCK:   -1.93 KCAL/MOL
REMARK 927      BINDING AFFINITY PREDICTED BY RF-SCORE:    0.00 PKD
ROOT
HETATM    1  C   UNL     1     -10.048  15.565  66.509  1.00  0.00    -0.290 C  
HETATM    2  C   UNL     1     -10.729  16.356  67.611  1.00  0.00    -0.312 C  
HETATM    3  C   UNL     1     -10.547  17.808  67.213  1.00  0.00    -0.316 C  
HETATM    4  O   UNL     1      -9.911  17.844  65.937  1.00  0.00    -0.533 OA 
HETATM    5  C   UNL     1      -9.992  16.546  65.364  1.00  0.00     0.036 C  
HETATM    6  O   UNL     1     -11.205  16.370  64.633  1.00  0.00    -0.587 OA 
HETATM    7  C   UNL     1     -11.589  14.997  64.767  1.00  0.00    -0.395 C  
HETATM    8  C   UNL     1     -10.810  14.386  65.932  1.00  0.00    -0.304 C  
ENDROOT
BRANCH   8   9
HETATM    9  O   UNL     1     -11.746  13.835  66.871  1.00  0.00    -0.351 OA 
BRANCH   9  10
HETATM   10  C   UNL     1     -11.550  12.540  67.225  1.00  0.00    -0.367 C  
HETATM   11  O   UNL     1     -12.346  11.855  67.844  1.00  0.00    -0.367 OA 
HETATM   12  N   UNL     1     -10.287  12.179  66.854  1.00  0.00    -0.211 N  
HETATM   13  H   UNL     1      -9.760  12.812  66.253  1.00  0.00     0.000 HD 
BRANCH  12  14
HETATM   14  C   UNL     1      -9.647  10.923  67.275  1.00  0.00    -0.164 C  
BRANCH  14  15
HETATM   15  C   UNL     1      -8.238  10.747  66.621  1.00  0.00    -0.140 C  
BRANCH  15  16
HETATM   16  C   UNL     1      -7.896   9.354  66.118  1.00  0.00    -0.100 A  
HETATM   17  C   UNL     1      -8.311   8.934  64.848  1.00  0.00    -0.181 A  
HETATM   18  C   UNL     1      -7.194   8.446  66.927  1.00  0.00    -0.079 A  
HETATM   19  C   UNL     1      -8.035   7.639  64.400  1.00  0.00    -0.123 A  
HETATM   20  C   UNL     1      -7.330   6.751  65.211  1.00  0.00    -0.084 A  
HETATM   21  C   UNL     1      -6.903   7.157  66.472  1.00  0.00    -0.065 A  
ENDBRANCH  15  16
ENDBRANCH  14  15
BRANCH  14  22
HETATM   22  C   UNL     1      -9.549  10.753  68.822  1.00  0.00    -0.189 C  
HETATM   23  O   UNL     1      -8.247  11.127  69.294  1.00  0.00    -0.354 OA 
HETATM   24  H   UNL     1      -8.187  11.024  70.236  1.00  0.00     0.000 HD 
BRANCH  22  25
HETATM   25  C   UNL     1      -9.989   9.407  69.430  1.00  0.00    -0.183 C  
BRANCH  25  26
HETATM   26  N   UNL     1     -10.445   9.351  70.885  1.00  0.00    -0.288 N  
BRANCH  26  27
HETATM   27  C   UNL     1     -11.860   8.783  70.996  1.00  0.00    -0.271 C  
HETATM   28  C   UNL     1     -12.835   9.387  72.029  1.00  0.00    -0.496 C  
HETATM   29  C   UNL     1     -13.168  10.858  71.788  1.00  0.00    -0.513 C  
HETATM   30  C   UNL     1     -14.159   8.600  71.993  1.00  0.00    -0.523 C  
ENDBRANCH  26  27
BRANCH  26  31
HETATM   31  S   UNL     1      -9.281   8.415  71.821  1.00  0.00    -0.243 S  
HETATM   32  O   UNL     1      -7.971   8.990  71.643  1.00  0.00    -0.326 OA 
HETATM   33  O   UNL     1      -9.862   8.245  73.140  1.00  0.00    -0.253 OA 
BRANCH  31  34
HETATM   34  C   UNL     1      -9.262   6.805  71.035  1.00  0.00    -0.156 A  
HETATM   35  C   UNL     1      -8.388   5.300  69.356  1.00  0.00    -0.095 A  
HETATM   36  C   UNL     1      -8.349   6.539  70.014  1.00  0.00    -0.134 A  
HETATM   37  C   UNL     1      -9.355   4.340  69.675  1.00  0.00    -0.165 A  
HETATM   38  N   UNL     1      -9.319   3.075  69.088  1.00  0.00    -0.157 NA 
HETATM   39  C   UNL     1     -10.205   4.590  70.755  1.00  0.00    -0.164 A  
HETATM   40  H1  UNL     1     -10.024   2.375  69.321  1.00  0.00     0.000 HD 
HETATM   41  C   UNL     1     -10.175   5.820  71.427  1.00  0.00    -0.269 A  
HETATM   42  H2  UNL     1      -8.399   2.669  69.260  1.00  0.00     0.000 HD 
ENDBRANCH  31  34
ENDBRANCH  26  31
ENDBRANCH  25  26
ENDBRANCH  22  25
ENDBRANCH  14  22
ENDBRANCH  12  14
ENDBRANCH   9  10
ENDBRANCH   8   9
TORSDOF 11
ENDMDL
MODEL      143
REMARK 921   NORMALIZED FREE ENERGY PREDICTED BY IDOCK:   -5.49 KCAL/MOL
REMARK 922        TOTAL FREE ENERGY PREDICTED BY IDOCK:  -11.63 KCAL/MOL
REMARK 923 INTER-LIGAND FREE ENERGY PREDICTED BY IDOCK:  -10.71 KCAL/MOL
REMARK 924 INTRA-LIGAND FREE ENERGY PREDICTED BY IDOCK:   -0.93 KCAL/MOL
REMARK 927      BINDING AFFINITY PREDICTED BY RF-SCORE:    0.00 PKD
ROOT
HETATM    1  C   UNL     1     -12.418  13.627  65.576  1.00  0.00    -0.544 C  
HETATM    2  C   UNL     1     -11.651  12.507  64.897  1.00  0.00    -0.386 C  
HETATM    3  C   UNL     1     -11.809  12.777  63.413  1.00  0.00    -0.518 C  
HETATM    4  O   UNL     1     -12.512  14.008  63.256  1.00  0.00    -0.795 OA 
HETATM    5  C   UNL     1     -12.505  14.686  64.504  1.00  0.00    -0.292 C  
HETATM    6  O   UNL     1     -11.341  15.497  64.654  1.00  0.00    -0.424 OA 
HETATM    7  C   UNL     1     -10.994  15.496  66.043  1.00  0.00    -0.251 C  
HETATM    8  C   UNL     1     -11.727  14.340  66.725  1.00  0.00    -0.405 C  
ENDROOT
BRANCH   8   9
HETATM    9  O   UNL     1     -10.758  13.503  67.377  1.00  0.00    -0.259 OA 
BRANCH   9  10
HETATM   10  C   UNL     1     -11.248  12.447  68.072  1.00  0.00    -0.268 C  
HETATM   11  O   UNL     1     -12.134  12.508  68.907  1.00  0.00    -0.264 OA 
HETATM   12  N   UNL     1     -10.521  11.340  67.744  1.00  0.00    -0.180 N  
HETATM   13  H   UNL     1      -9.875  11.401  66.956  1.00  0.00     0.000 HD 
BRANCH  12  14
HETATM   14  C   UNL     1     -10.620  10.061  68.465  1.00  0.00    -0.215 C  
BRANCH  14  15
HETATM   15  C   UNL     1     -10.213   8.855  67.558  1.00  0.00    -0.309 C  
BRANCH  15  16
HETATM   16  C   UNL     1      -9.275   9.166  66.403  1.00  0.00    -0.233 A  
HETATM   17  C   UNL     1      -7.886   9.147  66.588  1.00  0.00    -0.100 A  
HETATM   18  C   UNL     1      -9.776   9.514  65.139  1.00  0.00    -0.207 A  
HETATM   19  C   UNL     1      -7.023   9.473  65.539  1.00  0.00    -0.089 A  
HETATM   20  C   UNL     1      -7.535   9.811  64.288  1.00  0.00    -0.132 A  
HETATM   21  C   UNL     1      -8.912   9.824  64.085  1.00  0.00    -0.276 A  
ENDBRANCH  15  16
ENDBRANCH  14  15
BRANCH  14  22
HETATM   22  C   UNL     1      -9.816  10.028  69.801  1.00  0.00    -0.235 C  
HETATM   23  O   UNL     1      -8.519  10.615  69.630  1.00  0.00    -0.375 OA 
HETATM   24  H   UNL     1      -8.030  10.595  70.444  1.00  0.00     0.000 HD 
BRANCH  22  25
HETATM   25  C   UNL     1      -9.718   8.684  70.552  1.00  0.00    -0.180 C  
BRANCH  25  26
HETATM   26  N   UNL     1      -9.988   8.640  72.052  1.00  0.00    -0.312 N  
BRANCH  26  27
HETATM   27  C   UNL     1     -11.384   8.089  72.343  1.00  0.00    -0.382 C  
HETATM   28  C   UNL     1     -12.314   7.733  71.163  1.00  0.00    -0.268 C  
HETATM   29  C   UNL     1     -11.782   6.620  70.264  1.00  0.00    -0.432 C  
HETATM   30  C   UNL     1     -13.675   7.272  71.716  1.00  0.00    -0.399 C  
ENDBRANCH  26  27
BRANCH  26  31
HETATM   31  S   UNL     1      -8.726   7.691  72.839  1.00  0.00    -0.171 S  
HETATM   32  O   UNL     1      -7.589   7.609  71.957  1.00  0.00    -0.077 OA 
HETATM   33  O   UNL     1      -8.605   8.216  74.187  1.00  0.00    -0.256 OA 
BRANCH  31  34
HETATM   34  C   UNL     1      -9.416   6.043  72.968  1.00  0.00    -0.143 A  
HETATM   35  C   UNL     1      -9.896   3.887  71.985  1.00  0.00    -0.245 A  
HETATM   36  C   UNL     1      -9.292   5.151  71.903  1.00  0.00    -0.171 A  
HETATM   37  C   UNL     1     -10.659   3.519  73.099  1.00  0.00    -0.179 A  
HETATM   38  N   UNL     1     -11.167   2.224  73.215  1.00  0.00    -0.165 NA 
HETATM   39  C   UNL     1     -10.702   4.391  74.189  1.00  0.00    -0.313 A  
HETATM   40  H1  UNL     1     -11.723   1.956  74.027  1.00  0.00     0.000 HD 
HETATM   41  C   UNL     1     -10.099   5.655  74.126  1.00  0.00    -0.258 A  
HETATM   42  H2  UNL     1     -10.390   1.568  73.130  1.00  0.00     0.000 HD 
ENDBRANCH  31  34
ENDBRANCH  26  31
ENDBRANCH  25  26
ENDBRANCH  22  25
ENDBRANCH  14  22
ENDBRANCH  12  14
ENDBRANCH   9  10
ENDBRANCH   8   9
TORSDOF 11
ENDMDL
MODEL      144
REMARK 921   NORMALIZED FREE ENERGY PREDICTED BY IDOCK:   -5.48 KCAL/MOL
REMARK 922        TOTAL FREE ENERGY PREDICTED BY IDOCK:  -11.62 KCAL/MOL
REMARK 923 INTER-LIGAND FREE ENERGY PREDICTED BY IDOCK:   -8.92 KCAL/MOL
REMARK 924 INTRA-LIGAND FREE ENERGY PREDICTED BY IDOCK:   -2.71 KCAL/MOL
REMARK 927      BINDING AFFINITY PREDICTED BY RF-SCORE:    0.00 PKD
ROOT
HETATM    1  C   UNL     1      -9.257  15.252  66.193  1.00  0.00    -0.345 C  
HETATM    2  C   UNL     1      -8.182  16.314  66.344  1.00  0.00    -0.354 C  
HETATM    3  C   UNL     1      -8.931  17.631  66.283  1.00  0.00    -0.183 C  
HETATM    4  O   UNL     1     -10.327  17.348  66.213  1.00  0.00    -0.345 OA 
HETATM    5  C   UNL     1     -10.522  15.986  66.566  1.00  0.00    -0.302 C  
HETATM    6  O   UNL     1     -10.672  15.824  67.976  1.00  0.00    -0.276 OA 
HETATM    7  C   UNL     1     -10.100  14.559  68.324  1.00  0.00    -0.232 C  
HETATM    8  C   UNL     1      -9.220  14.088  67.166  1.00  0.00    -0.235 C  
ENDROOT
BRANCH   8   9
HETATM    9  O   UNL     1      -7.896  13.842  67.666  1.00  0.00    -0.150 OA 
BRANCH   9  10
HETATM   10  C   UNL     1      -7.234  12.792  67.121  1.00  0.00    -0.004 C  
HETATM   11  O   UNL     1      -6.027  12.731  66.961  1.00  0.00    -0.307 OA 
HETATM   12  N   UNL     1      -8.152  11.872  66.705  1.00  0.00    -0.345 N  
HETATM   13  H   UNL     1      -9.124  11.996  66.990  1.00  0.00     0.000 HD 
BRANCH  12  14
HETATM   14  C   UNL     1      -7.815  10.711  65.867  1.00  0.00    -0.150 C  
BRANCH  14  15
HETATM   15  C   UNL     1      -6.412  10.126  66.232  1.00  0.00    -0.085 C  
BRANCH  15  16
HETATM   16  C   UNL     1      -6.374   9.131  67.381  1.00  0.00    -0.059 A  
HETATM   17  C   UNL     1      -6.581   9.557  68.699  1.00  0.00    -0.052 A  
HETATM   18  C   UNL     1      -6.093   7.774  67.153  1.00  0.00    -0.052 A  
HETATM   19  C   UNL     1      -6.505   8.652  69.761  1.00  0.00    -0.038 A  
HETATM   20  C   UNL     1      -6.232   7.307  69.519  1.00  0.00    -0.031 A  
HETATM   21  C   UNL     1      -6.033   6.866  68.213  1.00  0.00    -0.028 A  
ENDBRANCH  15  16
ENDBRANCH  14  15
BRANCH  14  22
HETATM   22  C   UNL     1      -8.892   9.584  65.888  1.00  0.00    -0.164 C  
HETATM   23  O   UNL     1      -9.003   8.962  64.600  1.00  0.00    -0.398 OA 
HETATM   24  H   UNL     1      -9.659   8.275  64.613  1.00  0.00     0.000 HD 
BRANCH  22  25
HETATM   25  C   UNL     1     -10.284   9.925  66.458  1.00  0.00    -0.222 C  
BRANCH  25  26
HETATM   26  N   UNL     1     -10.785   9.201  67.703  1.00  0.00    -0.242 N  
BRANCH  26  27
HETATM   27  C   UNL     1      -9.854   8.048  68.080  1.00  0.00    -0.167 C  
HETATM   28  C   UNL     1     -10.410   6.608  68.099  1.00  0.00    -0.223 C  
HETATM   29  C   UNL     1     -10.899   6.109  66.740  1.00  0.00    -0.360 C  
HETATM   30  C   UNL     1      -9.304   5.647  68.574  1.00  0.00    -0.139 C  
ENDBRANCH  26  27
BRANCH  26  31
HETATM   31  S   UNL     1     -10.961  10.364  69.017  1.00  0.00    -0.251 S  
HETATM   32  O   UNL     1      -9.798  11.215  69.044  1.00  0.00    -0.189 OA 
HETATM   33  O   UNL     1     -12.300  10.912  68.897  1.00  0.00    -0.486 OA 
BRANCH  31  34
HETATM   34  C   UNL     1     -10.924   9.369  70.507  1.00  0.00    -0.274 A  
HETATM   35  C   UNL     1     -12.077   8.091  72.204  1.00  0.00    -0.391 A  
HETATM   36  C   UNL     1     -12.103   8.809  70.999  1.00  0.00    -0.262 A  
HETATM   37  C   UNL     1     -10.898   7.963  72.947  1.00  0.00    -0.386 A  
HETATM   38  N   UNL     1     -10.861   7.160  74.087  1.00  0.00    -0.454 NA 
HETATM   39  C   UNL     1      -9.713   8.457  72.396  1.00  0.00    -0.376 A  
HETATM   40  H1  UNL     1     -10.001   7.066  74.628  1.00  0.00     0.000 HD 
HETATM   41  C   UNL     1      -9.720   9.171  71.190  1.00  0.00    -0.360 A  
HETATM   42  H2  UNL     1     -11.179   6.225  73.830  1.00  0.00     0.000 HD 
ENDBRANCH  31  34
ENDBRANCH  26  31
ENDBRANCH  25  26
ENDBRANCH  22  25
ENDBRANCH  14  22
ENDBRANCH  12  14
ENDBRANCH   9  10
ENDBRANCH   8   9
TORSDOF 11
ENDMDL
MODEL      145
REMARK 921   NORMALIZED FREE ENERGY PREDICTED BY IDOCK:   -5.48 KCAL/MOL
REMARK 922        TOTAL FREE ENERGY PREDICTED BY IDOCK:  -11.62 KCAL/MOL
REMARK 923 INTER-LIGAND FREE ENERGY PREDICTED BY IDOCK:  -10.39 KCAL/MOL
REMARK 924 INTRA-LIGAND FREE ENERGY PREDICTED BY IDOCK:   -1.23 KCAL/MOL
REMARK 927      BINDING AFFINITY PREDICTED BY RF-SCORE:    0.00 PKD
ROOT
HETATM    1  C   UNL     1     -12.016  11.833  65.052  1.00  0.00    -0.021 C  
HETATM    2  C   UNL     1     -10.892  11.102  64.340  1.00  0.00    -0.340 C  
HETATM    3  C   UNL     1     -10.773  11.794  62.995  1.00  0.00    -0.101 C  
HETATM    4  O   UNL     1     -11.677  12.898  62.980  1.00  0.00    -0.354 OA 
HETATM    5  C   UNL     1     -12.094  13.148  64.315  1.00  0.00    -0.414 C  
HETATM    6  O   UNL     1     -11.198  14.032  64.988  1.00  0.00    -0.324 OA 
HETATM    7  C   UNL     1     -11.175  13.649  66.367  1.00  0.00    -0.308 C  
HETATM    8  C   UNL     1     -11.769  12.246  66.491  1.00  0.00    -0.352 C  
ENDROOT
BRANCH   8   9
HETATM    9  O   UNL     1     -10.809  11.397  67.141  1.00  0.00    -0.238 OA 
BRANCH   9  10
HETATM   10  C   UNL     1     -10.659  11.572  68.477  1.00  0.00    -0.210 C  
HETATM   11  O   UNL     1      -9.624  11.909  69.027  1.00  0.00     0.015 OA 
HETATM   12  N   UNL     1     -11.825  11.220  69.092  1.00  0.00    -0.332 N  
HETATM   13  H   UNL     1     -12.647  11.054  68.511  1.00  0.00     0.000 HD 
BRANCH  12  14
HETATM   14  C   UNL     1     -11.959  11.068  70.549  1.00  0.00    -0.379 C  
BRANCH  14  15
HETATM   15  C   UNL     1     -13.159  11.901  71.107  1.00  0.00    -0.131 C  
BRANCH  15  16
HETATM   16  C   UNL     1     -12.869  13.352  71.454  1.00  0.00    -0.420 A  
HETATM   17  C   UNL     1     -11.940  14.090  70.709  1.00  0.00    -0.364 A  
HETATM   18  C   UNL     1     -13.494  13.973  72.547  1.00  0.00    -0.661 A  
HETATM   19  C   UNL     1     -11.640  15.411  71.052  1.00  0.00    -0.410 A  
HETATM   20  C   UNL     1     -12.274  16.016  72.136  1.00  0.00    -0.597 A  
HETATM   21  C   UNL     1     -13.207  15.299  72.879  1.00  0.00    -0.610 A  
ENDBRANCH  15  16
ENDBRANCH  14  15
BRANCH  14  22
HETATM   22  C   UNL     1     -12.065   9.586  71.021  1.00  0.00    -0.318 C  
HETATM   23  O   UNL     1     -12.311   9.517  72.432  1.00  0.00    -0.241 OA 
HETATM   24  H   UNL     1     -12.376   8.614  72.720  1.00  0.00     0.000 HD 
BRANCH  22  25
HETATM   25  C   UNL     1     -10.941   8.614  70.609  1.00  0.00    -0.240 C  
BRANCH  25  26
HETATM   26  N   UNL     1     -11.293   7.191  70.186  1.00  0.00    -0.266 N  
BRANCH  26  27
HETATM   27  C   UNL     1     -10.737   6.878  68.797  1.00  0.00    -0.219 C  
HETATM   28  C   UNL     1     -10.014   7.991  68.008  1.00  0.00    -0.216 C  
HETATM   29  C   UNL     1      -8.745   8.509  68.681  1.00  0.00    -0.139 C  
HETATM   30  C   UNL     1      -9.615   7.447  66.622  1.00  0.00    -0.251 C  
ENDBRANCH  26  27
BRANCH  26  31
HETATM   31  S   UNL     1     -10.702   6.062  71.405  1.00  0.00    -0.267 S  
HETATM   32  O   UNL     1     -11.718   5.894  72.414  1.00  0.00    -0.309 OA 
HETATM   33  O   UNL     1     -10.158   4.929  70.679  1.00  0.00    -0.224 OA 
BRANCH  31  34
HETATM   34  C   UNL     1      -9.326   6.912  72.176  1.00  0.00    -0.138 A  
HETATM   35  C   UNL     1      -8.474   8.442  73.843  1.00  0.00    -0.143 A  
HETATM   36  C   UNL     1      -9.546   7.725  73.288  1.00  0.00    -0.346 A  
HETATM   37  C   UNL     1      -7.196   8.391  73.275  1.00  0.00    -0.065 A  
HETATM   38  N   UNL     1      -6.118   9.024  73.895  1.00  0.00    -0.298 NA 
HETATM   39  C   UNL     1      -6.978   7.507  72.216  1.00  0.00    -0.064 A  
HETATM   40  H1  UNL     1      -5.187   8.986  73.481  1.00  0.00     0.000 HD 
HETATM   41  C   UNL     1      -8.035   6.778  71.654  1.00  0.00    -0.102 A  
HETATM   42  H2  UNL     1      -6.055   8.680  74.854  1.00  0.00     0.000 HD 
ENDBRANCH  31  34
ENDBRANCH  26  31
ENDBRANCH  25  26
ENDBRANCH  22  25
ENDBRANCH  14  22
ENDBRANCH  12  14
ENDBRANCH   9  10
ENDBRANCH   8   9
TORSDOF 11
ENDMDL
MODEL      146
REMARK 921   NORMALIZED FREE ENERGY PREDICTED BY IDOCK:   -5.46 KCAL/MOL
REMARK 922        TOTAL FREE ENERGY PREDICTED BY IDOCK:  -11.60 KCAL/MOL
REMARK 923 INTER-LIGAND FREE ENERGY PREDICTED BY IDOCK:   -9.86 KCAL/MOL
REMARK 924 INTRA-LIGAND FREE ENERGY PREDICTED BY IDOCK:   -1.74 KCAL/MOL
REMARK 927      BINDING AFFINITY PREDICTED BY RF-SCORE:    0.00 PKD
ROOT
HETATM    1  C   UNL     1      -8.488   6.300  66.589  1.00  0.00    -0.114 C  
HETATM    2  C   UNL     1      -8.154   6.660  65.153  1.00  0.00    -0.133 C  
HETATM    3  C   UNL     1      -7.594   5.383  64.555  1.00  0.00    -0.078 C  
HETATM    4  O   UNL     1      -7.701   4.349  65.533  1.00  0.00    -0.084 OA 
HETATM    5  C   UNL     1      -8.582   4.794  66.555  1.00  0.00    -0.109 C  
HETATM    6  O   UNL     1      -9.941   4.490  66.245  1.00  0.00    -0.206 OA 
HETATM    7  C   UNL     1     -10.749   5.538  66.790  1.00  0.00    -0.253 C  
HETATM    8  C   UNL     1      -9.847   6.730  67.111  1.00  0.00    -0.161 C  
ENDROOT
BRANCH   8   9
HETATM    9  O   UNL     1     -10.351   7.885  66.421  1.00  0.00    -0.173 OA 
BRANCH   9  10
HETATM   10  C   UNL     1     -10.147   9.081  67.027  1.00  0.00    -0.250 C  
HETATM   11  O   UNL     1      -9.583  10.036  66.520  1.00  0.00    -0.170 OA 
HETATM   12  N   UNL     1     -10.595   8.995  68.313  1.00  0.00    -0.359 N  
HETATM   13  H   UNL     1     -11.139   8.176  68.582  1.00  0.00     0.000 HD 
BRANCH  12  14
HETATM   14  C   UNL     1     -10.334  10.023  69.333  1.00  0.00    -0.227 C  
BRANCH  14  15
HETATM   15  C   UNL     1      -8.812  10.366  69.429  1.00  0.00    -0.138 C  
BRANCH  15  16
HETATM   16  C   UNL     1      -7.968   9.454  70.304  1.00  0.00    -0.172 A  
HETATM   17  C   UNL     1      -6.626   9.759  70.564  1.00  0.00    -0.117 A  
HETATM   18  C   UNL     1      -8.500   8.270  70.838  1.00  0.00    -0.144 A  
HETATM   19  C   UNL     1      -5.836   8.901  71.333  1.00  0.00    -0.054 A  
HETATM   20  C   UNL     1      -6.380   7.732  71.863  1.00  0.00    -0.040 A  
HETATM   21  C   UNL     1      -7.715   7.420  71.622  1.00  0.00    -0.086 A  
ENDBRANCH  15  16
ENDBRANCH  14  15
BRANCH  14  22
HETATM   22  C   UNL     1     -11.170  11.326  69.144  1.00  0.00    -0.273 C  
HETATM   23  O   UNL     1     -12.225  11.120  68.193  1.00  0.00    -0.708 OA 
HETATM   24  H   UNL     1     -12.734  11.914  68.078  1.00  0.00     0.000 HD 
BRANCH  22  25
HETATM   25  C   UNL     1     -10.411  12.636  68.851  1.00  0.00    -0.080 C  
BRANCH  25  26
HETATM   26  N   UNL     1     -11.191  13.936  68.687  1.00  0.00    -0.255 N  
BRANCH  26  27
HETATM   27  C   UNL     1     -11.090  14.798  69.946  1.00  0.00    -0.233 C  
HETATM   28  C   UNL     1     -12.352  15.024  70.806  1.00  0.00    -0.400 C  
HETATM   29  C   UNL     1     -12.928  13.747  71.415  1.00  0.00    -0.433 C  
HETATM   30  C   UNL     1     -12.007  15.976  71.967  1.00  0.00    -0.622 C  
ENDBRANCH  26  27
BRANCH  26  31
HETATM   31  S   UNL     1     -10.607  14.785  67.256  1.00  0.00    -0.277 S  
HETATM   32  O   UNL     1     -11.259  16.068  67.178  1.00  0.00    -0.171 OA 
HETATM   33  O   UNL     1      -9.160  14.669  67.277  1.00  0.00    -0.188 OA 
BRANCH  31  34
HETATM   34  C   UNL     1     -11.200  13.805  65.878  1.00  0.00    -0.302 A  
HETATM   35  C   UNL     1     -13.021  12.769  64.672  1.00  0.00    -0.231 A  
HETATM   36  C   UNL     1     -12.569  13.595  65.712  1.00  0.00    -0.511 A  
HETATM   37  C   UNL     1     -12.122  12.115  63.823  1.00  0.00    -0.525 A  
HETATM   38  N   UNL     1     -12.584  11.381  62.729  1.00  0.00    -0.763 NA 
HETATM   39  C   UNL     1     -10.761  12.404  63.951  1.00  0.00    -0.465 A  
HETATM   40  H1  UNL     1     -11.928  10.904  62.110  1.00  0.00     0.000 HD 
HETATM   41  C   UNL     1     -10.293  13.232  64.981  1.00  0.00    -0.355 A  
HETATM   42  H2  UNL     1     -13.172  11.991  62.161  1.00  0.00     0.000 HD 
ENDBRANCH  31  34
ENDBRANCH  26  31
ENDBRANCH  25  26
ENDBRANCH  22  25
ENDBRANCH  14  22
ENDBRANCH  12  14
ENDBRANCH   9  10
ENDBRANCH   8   9
TORSDOF 11
ENDMDL
MODEL      147
REMARK 921   NORMALIZED FREE ENERGY PREDICTED BY IDOCK:   -5.42 KCAL/MOL
REMARK 922        TOTAL FREE ENERGY PREDICTED BY IDOCK:  -11.53 KCAL/MOL
REMARK 923 INTER-LIGAND FREE ENERGY PREDICTED BY IDOCK:   -9.12 KCAL/MOL
REMARK 924 INTRA-LIGAND FREE ENERGY PREDICTED BY IDOCK:   -2.41 KCAL/MOL
REMARK 927      BINDING AFFINITY PREDICTED BY RF-SCORE:    0.00 PKD
ROOT
HETATM    1  C   UNL     1     -11.967  13.388  66.632  1.00  0.00    -0.452 C  
HETATM    2  C   UNL     1     -12.149  12.424  65.473  1.00  0.00    -0.417 C  
HETATM    3  C   UNL     1     -11.459  13.095  64.301  1.00  0.00    -0.384 C  
HETATM    4  O   UNL     1     -10.840  14.291  64.773  1.00  0.00    -0.390 OA 
HETATM    5  C   UNL     1     -10.801  14.239  66.192  1.00  0.00    -0.310 C  
HETATM    6  O   UNL     1      -9.628  13.577  66.662  1.00  0.00    -0.264 OA 
HETATM    7  C   UNL     1      -9.978  12.893  67.870  1.00  0.00    -0.233 C  
HETATM    8  C   UNL     1     -11.501  12.802  67.952  1.00  0.00    -0.317 C  
ENDROOT
BRANCH   8   9
HETATM    9  O   UNL     1     -11.872  11.420  68.091  1.00  0.00    -0.530 OA 
BRANCH   9  10
HETATM   10  C   UNL     1     -12.049  10.971  69.358  1.00  0.00    -0.318 C  
HETATM   11  O   UNL     1     -12.577  11.602  70.258  1.00  0.00    -0.187 OA 
HETATM   12  N   UNL     1     -11.455   9.747  69.469  1.00  0.00    -0.440 N  
HETATM   13  H   UNL     1     -11.137   9.286  68.617  1.00  0.00     0.000 HD 
BRANCH  12  14
HETATM   14  C   UNL     1     -11.251   9.059  70.753  1.00  0.00    -0.275 C  
BRANCH  14  15
HETATM   15  C   UNL     1     -12.130   7.770  70.861  1.00  0.00    -0.199 C  
BRANCH  15  16
HETATM   16  C   UNL     1     -11.393   6.473  71.153  1.00  0.00    -0.367 A  
HETATM   17  C   UNL     1     -11.303   5.985  72.463  1.00  0.00    -0.344 A  
HETATM   18  C   UNL     1     -10.755   5.757  70.128  1.00  0.00    -0.390 A  
HETATM   19  C   UNL     1     -10.590   4.815  72.741  1.00  0.00    -0.272 A  
HETATM   20  C   UNL     1      -9.968   4.111  71.711  1.00  0.00    -0.246 A  
HETATM   21  C   UNL     1     -10.057   4.578  70.402  1.00  0.00    -0.229 A  
ENDBRANCH  15  16
ENDBRANCH  14  15
BRANCH  14  22
HETATM   22  C   UNL     1      -9.759   8.722  71.057  1.00  0.00    -0.230 C  
HETATM   23  O   UNL     1      -9.471   8.900  72.451  1.00  0.00    -0.315 OA 
HETATM   24  H   UNL     1      -8.562   8.694  72.636  1.00  0.00     0.000 HD 
BRANCH  22  25
HETATM   25  C   UNL     1      -8.676   9.383  70.181  1.00  0.00    -0.221 C  
BRANCH  25  26
HETATM   26  N   UNL     1      -8.362   8.802  68.806  1.00  0.00    -0.123 N  
BRANCH  26  27
HETATM   27  C   UNL     1      -7.784   9.869  67.878  1.00  0.00    -0.090 C  
HETATM   28  C   UNL     1      -7.978   9.726  66.353  1.00  0.00    -0.109 C  
HETATM   29  C   UNL     1      -9.437   9.759  65.904  1.00  0.00    -0.285 C  
HETATM   30  C   UNL     1      -7.248  10.881  65.641  1.00  0.00     0.061 C  
ENDBRANCH  26  27
BRANCH  26  31
HETATM   31  S   UNL     1      -7.272   7.428  68.994  1.00  0.00    -0.087 S  
HETATM   32  O   UNL     1      -5.972   7.794  68.490  1.00  0.00    -0.030 OA 
HETATM   33  O   UNL     1      -7.453   6.949  70.352  1.00  0.00    -0.082 OA 
BRANCH  31  34
HETATM   34  C   UNL     1      -7.932   6.176  67.894  1.00  0.00    -0.110 A  
HETATM   35  C   UNL     1      -9.662   5.406  66.391  1.00  0.00    -0.183 A  
HETATM   36  C   UNL     1      -9.115   6.418  67.195  1.00  0.00    -0.121 A  
HETATM   37  C   UNL     1      -9.067   4.142  66.311  1.00  0.00    -0.134 A  
HETATM   38  N   UNL     1      -9.561   3.180  65.429  1.00  0.00    -0.337 NA 
HETATM   39  C   UNL     1      -7.841   3.947  66.951  1.00  0.00    -0.088 A  
HETATM   40  H1  UNL     1      -9.127   2.258  65.372  1.00  0.00     0.000 HD 
HETATM   41  C   UNL     1      -7.277   4.949  67.753  1.00  0.00    -0.070 A  
HETATM   42  H2  UNL     1      -9.577   3.584  64.493  1.00  0.00     0.000 HD 
ENDBRANCH  31  34
ENDBRANCH  26  31
ENDBRANCH  25  26
ENDBRANCH  22  25
ENDBRANCH  14  22
ENDBRANCH  12  14
ENDBRANCH   9  10
ENDBRANCH   8   9
TORSDOF 11
ENDMDL
MODEL      148
REMARK 921   NORMALIZED FREE ENERGY PREDICTED BY IDOCK:   -5.42 KCAL/MOL
REMARK 922        TOTAL FREE ENERGY PREDICTED BY IDOCK:  -11.53 KCAL/MOL
REMARK 923 INTER-LIGAND FREE ENERGY PREDICTED BY IDOCK:  -10.31 KCAL/MOL
REMARK 924 INTRA-LIGAND FREE ENERGY PREDICTED BY IDOCK:   -1.21 KCAL/MOL
REMARK 927      BINDING AFFINITY PREDICTED BY RF-SCORE:    0.00 PKD
ROOT
HETATM    1  C   UNL     1      -8.340  18.695  66.877  1.00  0.00    -0.269 C  
HETATM    2  C   UNL     1      -7.300  18.757  67.980  1.00  0.00    -0.269 C  
HETATM    3  C   UNL     1      -6.956  20.229  68.104  1.00  0.00    -0.279 C  
HETATM    4  O   UNL     1      -7.807  20.961  67.223  1.00  0.00    -0.324 OA 
HETATM    5  C   UNL     1      -8.869  20.108  66.821  1.00  0.00    -0.314 C  
HETATM    6  O   UNL     1      -9.960  20.159  67.739  1.00  0.00    -0.389 OA 
HETATM    7  C   UNL     1     -10.559  18.859  67.764  1.00  0.00    -0.398 C  
HETATM    8  C   UNL     1      -9.581  17.862  67.143  1.00  0.00    -0.280 C  
ENDROOT
BRANCH   8   9
HETATM    9  O   UNL     1      -9.333  16.810  68.090  1.00  0.00    -0.224 OA 
BRANCH   9  10
HETATM   10  C   UNL     1      -9.001  15.602  67.572  1.00  0.00    -0.192 C  
HETATM   11  O   UNL     1      -8.169  15.418  66.701  1.00  0.00    -0.248 OA 
HETATM   12  N   UNL     1      -9.817  14.657  68.124  1.00  0.00    -0.219 N  
HETATM   13  H   UNL     1     -10.401  14.925  68.916  1.00  0.00     0.000 HD 
BRANCH  12  14
HETATM   14  C   UNL     1      -9.898  13.271  67.637  1.00  0.00    -0.230 C  
BRANCH  14  15
HETATM   15  C   UNL     1      -8.594  12.471  67.958  1.00  0.00    -0.185 C  
BRANCH  15  16
HETATM   16  C   UNL     1      -8.042  11.602  66.840  1.00  0.00    -0.164 A  
HETATM   17  C   UNL     1      -8.891  11.093  65.848  1.00  0.00    -0.193 A  
HETATM   18  C   UNL     1      -6.682  11.258  66.795  1.00  0.00    -0.140 A  
HETATM   19  C   UNL     1      -8.394  10.260  64.843  1.00  0.00    -0.173 A  
HETATM   20  C   UNL     1      -7.040   9.933  64.808  1.00  0.00    -0.133 A  
HETATM   21  C   UNL     1      -6.181  10.439  65.780  1.00  0.00    -0.123 A  
ENDBRANCH  15  16
ENDBRANCH  14  15
BRANCH  14  22
HETATM   22  C   UNL     1     -11.149  12.494  68.149  1.00  0.00    -0.243 C  
HETATM   23  O   UNL     1     -11.931  12.007  67.050  1.00  0.00    -0.609 OA 
HETATM   24  H   UNL     1     -12.693  11.533  67.362  1.00  0.00     0.000 HD 
BRANCH  22  25
HETATM   25  C   UNL     1     -12.044  13.180  69.201  1.00  0.00    -0.214 C  
BRANCH  25  26
HETATM   26  N   UNL     1     -12.010  12.696  70.648  1.00  0.00    -0.228 N  
BRANCH  26  27
HETATM   27  C   UNL     1     -12.819  13.623  71.555  1.00  0.00    -0.359 C  
HETATM   28  C   UNL     1     -12.093  14.754  72.315  1.00  0.00    -0.355 C  
HETATM   29  C   UNL     1     -11.436  15.793  71.408  1.00  0.00    -0.496 C  
HETATM   30  C   UNL     1     -13.108  15.494  73.207  1.00  0.00    -0.658 C  
ENDBRANCH  26  27
BRANCH  26  31
HETATM   31  S   UNL     1     -12.590  11.032  70.715  1.00  0.00    -0.358 S  
HETATM   32  O   UNL     1     -13.370  10.860  71.915  1.00  0.00    -0.421 OA 
HETATM   33  O   UNL     1     -13.141  10.741  69.403  1.00  0.00     0.049 OA 
BRANCH  31  34
HETATM   34  C   UNL     1     -11.107  10.045  70.902  1.00  0.00    -0.314 A  
HETATM   35  C   UNL     1      -8.972   9.286  70.058  1.00  0.00    -0.216 A  
HETATM   36  C   UNL     1     -10.099  10.114  69.940  1.00  0.00    -0.268 A  
HETATM   37  C   UNL     1      -8.860   8.358  71.101  1.00  0.00    -0.164 A  
HETATM   38  N   UNL     1      -7.691   7.616  71.267  1.00  0.00    -0.083 NA 
HETATM   39  C   UNL     1      -9.837   8.364  72.099  1.00  0.00    -0.372 A  
HETATM   40  H1  UNL     1      -7.609   6.940  72.026  1.00  0.00     0.000 HD 
HETATM   41  C   UNL     1     -10.966   9.190  72.000  1.00  0.00    -0.262 A  
HETATM   42  H2  UNL     1      -6.906   8.265  71.331  1.00  0.00     0.000 HD 
ENDBRANCH  31  34
ENDBRANCH  26  31
ENDBRANCH  25  26
ENDBRANCH  22  25
ENDBRANCH  14  22
ENDBRANCH  12  14
ENDBRANCH   9  10
ENDBRANCH   8   9
TORSDOF 11
ENDMDL
MODEL      149
REMARK 921   NORMALIZED FREE ENERGY PREDICTED BY IDOCK:   -5.41 KCAL/MOL
REMARK 922        TOTAL FREE ENERGY PREDICTED BY IDOCK:  -11.51 KCAL/MOL
REMARK 923 INTER-LIGAND FREE ENERGY PREDICTED BY IDOCK:   -8.71 KCAL/MOL
REMARK 924 INTRA-LIGAND FREE ENERGY PREDICTED BY IDOCK:   -2.80 KCAL/MOL
REMARK 927      BINDING AFFINITY PREDICTED BY RF-SCORE:    0.00 PKD
ROOT
HETATM    1  C   UNL     1     -10.769  13.386  64.774  1.00  0.00    -0.403 C  
HETATM    2  C   UNL     1     -11.571  13.099  66.030  1.00  0.00    -0.393 C  
HETATM    3  C   UNL     1     -12.870  13.860  65.840  1.00  0.00    -0.339 C  
HETATM    4  O   UNL     1     -12.858  14.444  64.538  1.00  0.00    -0.634 OA 
HETATM    5  C   UNL     1     -11.820  13.831  63.787  1.00  0.00    -0.262 C  
HETATM    6  O   UNL     1     -12.275  12.647  63.132  1.00  0.00    -0.482 OA 
HETATM    7  C   UNL     1     -11.174  11.734  63.089  1.00  0.00    -0.133 C  
HETATM    8  C   UNL     1     -10.115  12.201  64.087  1.00  0.00    -0.308 C  
ENDROOT
BRANCH   8   9
HETATM    9  O   UNL     1      -9.841  11.128  65.002  1.00  0.00    -0.235 OA 
BRANCH   9  10
HETATM   10  C   UNL     1      -8.571  11.048  65.471  1.00  0.00    -0.102 C  
HETATM   11  O   UNL     1      -7.765  10.185  65.166  1.00  0.00    -0.133 OA 
HETATM   12  N   UNL     1      -8.390  12.032  66.398  1.00  0.00    -0.391 N  
HETATM   13  H   UNL     1      -9.109  12.751  66.487  1.00  0.00     0.000 HD 
BRANCH  12  14
HETATM   14  C   UNL     1      -7.213  12.111  67.278  1.00  0.00    -0.144 C  
BRANCH  14  15
HETATM   15  C   UNL     1      -6.970  13.570  67.785  1.00  0.00    -0.164 C  
BRANCH  15  16
HETATM   16  C   UNL     1      -8.176  14.496  67.781  1.00  0.00    -0.171 A  
HETATM   17  C   UNL     1      -9.172  14.371  68.758  1.00  0.00    -0.144 A  
HETATM   18  C   UNL     1      -8.339  15.467  66.780  1.00  0.00    -0.285 A  
HETATM   19  C   UNL     1     -10.303  15.192  68.732  1.00  0.00    -0.236 A  
HETATM   20  C   UNL     1     -10.447  16.157  67.736  1.00  0.00    -0.295 A  
HETATM   21  C   UNL     1      -9.461  16.300  66.764  1.00  0.00    -0.253 A  
ENDBRANCH  15  16
ENDBRANCH  14  15
BRANCH  14  22
HETATM   22  C   UNL     1      -7.258  11.122  68.482  1.00  0.00    -0.088 C  
HETATM   23  O   UNL     1      -6.507   9.934  68.193  1.00  0.00    -0.055 OA 
HETATM   24  H   UNL     1      -6.534   9.331  68.927  1.00  0.00     0.000 HD 
BRANCH  22  25
HETATM   25  C   UNL     1      -8.636  10.771  69.078  1.00  0.00    -0.138 C  
BRANCH  25  26
HETATM   26  N   UNL     1      -8.926   9.337  69.510  1.00  0.00    -0.144 N  
BRANCH  26  27
HETATM   27  C   UNL     1      -8.823   9.190  71.028  1.00  0.00    -0.202 C  
HETATM   28  C   UNL     1      -8.073   7.975  71.618  1.00  0.00    -0.134 C  
HETATM   29  C   UNL     1      -6.591   7.920  71.254  1.00  0.00    -0.041 C  
HETATM   30  C   UNL     1      -8.171   8.020  73.154  1.00  0.00    -0.244 C  
ENDBRANCH  26  27
BRANCH  26  31
HETATM   31  S   UNL     1     -10.512   8.860  68.906  1.00  0.00    -0.174 S  
HETATM   32  O   UNL     1     -11.266   8.278  69.988  1.00  0.00    -0.203 OA 
HETATM   33  O   UNL     1     -11.017   9.993  68.152  1.00  0.00    -0.255 OA 
BRANCH  31  34
HETATM   34  C   UNL     1     -10.171   7.549  67.733  1.00  0.00    -0.201 A  
HETATM   35  C   UNL     1     -10.559   5.302  66.928  1.00  0.00    -0.283 A  
HETATM   36  C   UNL     1     -10.880   6.350  67.806  1.00  0.00    -0.418 A  
HETATM   37  C   UNL     1      -9.509   5.422  66.010  1.00  0.00    -0.146 A  
HETATM   38  N   UNL     1      -9.267   4.415  65.075  1.00  0.00    -0.151 NA 
HETATM   39  C   UNL     1      -8.868   6.657  65.896  1.00  0.00    -0.126 A  
HETATM   40  H1  UNL     1      -8.502   4.502  64.406  1.00  0.00     0.000 HD 
HETATM   41  C   UNL     1      -9.181   7.716  66.759  1.00  0.00    -0.197 A  
HETATM   42  H2  UNL     1     -10.129   4.249  64.554  1.00  0.00     0.000 HD 
ENDBRANCH  31  34
ENDBRANCH  26  31
ENDBRANCH  25  26
ENDBRANCH  22  25
ENDBRANCH  14  22
ENDBRANCH  12  14
ENDBRANCH   9  10
ENDBRANCH   8   9
TORSDOF 11
ENDMDL
MODEL      150
REMARK 921   NORMALIZED FREE ENERGY PREDICTED BY IDOCK:   -5.41 KCAL/MOL
REMARK 922        TOTAL FREE ENERGY PREDICTED BY IDOCK:  -11.51 KCAL/MOL
REMARK 923 INTER-LIGAND FREE ENERGY PREDICTED BY IDOCK:   -9.53 KCAL/MOL
REMARK 924 INTRA-LIGAND FREE ENERGY PREDICTED BY IDOCK:   -1.98 KCAL/MOL
REMARK 927      BINDING AFFINITY PREDICTED BY RF-SCORE:    0.00 PKD
ROOT
HETATM    1  C   UNL     1      -9.347   6.773  73.026  1.00  0.00    -0.153 C  
HETATM    2  C   UNL     1      -9.486   5.506  72.202  1.00  0.00    -0.169 C  
HETATM    3  C   UNL     1     -10.468   4.648  72.978  1.00  0.00    -0.198 C  
HETATM    4  O   UNL     1     -10.936   5.403  74.094  1.00  0.00    -0.208 OA 
HETATM    5  C   UNL     1     -10.588   6.765  73.885  1.00  0.00    -0.240 C  
HETATM    6  O   UNL     1     -11.590   7.454  73.138  1.00  0.00    -0.177 OA 
HETATM    7  C   UNL     1     -10.926   8.436  72.336  1.00  0.00    -0.355 C  
HETATM    8  C   UNL     1      -9.437   8.094  72.283  1.00  0.00    -0.245 C  
ENDROOT
BRANCH   8   9
HETATM    9  O   UNL     1      -9.043   7.968  70.907  1.00  0.00    -0.144 OA 
BRANCH   9  10
HETATM   10  C   UNL     1      -8.910   9.125  70.213  1.00  0.00    -0.213 C  
HETATM   11  O   UNL     1      -8.085   9.992  70.447  1.00  0.00    -0.187 OA 
HETATM   12  N   UNL     1      -9.907   9.188  69.283  1.00  0.00    -0.170 N  
HETATM   13  H   UNL     1     -10.470   8.353  69.121  1.00  0.00     0.000 HD 
BRANCH  12  14
HETATM   14  C   UNL     1     -10.213  10.397  68.503  1.00  0.00    -0.173 C  
BRANCH  14  15
HETATM   15  C   UNL     1     -10.532  10.055  67.012  1.00  0.00    -0.302 C  
BRANCH  15  16
HETATM   16  C   UNL     1      -9.375  10.163  66.032  1.00  0.00    -0.216 A  
HETATM   17  C   UNL     1      -9.535   9.773  64.696  1.00  0.00    -0.295 A  
HETATM   18  C   UNL     1      -8.114  10.617  66.450  1.00  0.00    -0.148 A  
HETATM   19  C   UNL     1      -8.461   9.831  63.803  1.00  0.00    -0.186 A  
HETATM   20  C   UNL     1      -7.217  10.291  64.231  1.00  0.00    -0.063 A  
HETATM   21  C   UNL     1      -7.045  10.691  65.553  1.00  0.00    -0.048 A  
ENDBRANCH  15  16
ENDBRANCH  14  15
BRANCH  14  22
HETATM   22  C   UNL     1     -11.353  11.269  69.113  1.00  0.00    -0.282 C  
HETATM   23  O   UNL     1     -12.578  10.526  69.190  1.00  0.00    -0.740 OA 
HETATM   24  H   UNL     1     -13.272  11.057  69.561  1.00  0.00     0.000 HD 
BRANCH  22  25
HETATM   25  C   UNL     1     -11.595  12.668  68.509  1.00  0.00    -0.323 C  
BRANCH  25  26
HETATM   26  N   UNL     1     -10.413  13.608  68.294  1.00  0.00    -0.242 N  
BRANCH  26  27
HETATM   27  C   UNL     1     -10.107  13.774  66.805  1.00  0.00    -0.265 C  
HETATM   28  C   UNL     1     -11.142  13.290  65.766  1.00  0.00    -0.296 C  
HETATM   29  C   UNL     1     -12.482  14.018  65.834  1.00  0.00    -0.513 C  
HETATM   30  C   UNL     1     -10.571  13.502  64.351  1.00  0.00    -0.394 C  
ENDBRANCH  26  27
BRANCH  26  31
HETATM   31  S   UNL     1     -10.754  15.152  69.074  1.00  0.00    -0.250 S  
HETATM   32  O   UNL     1     -12.156  15.450  68.924  1.00  0.00    -0.300 OA 
HETATM   33  O   UNL     1     -10.127  15.093  70.382  1.00  0.00    -0.080 OA 
BRANCH  31  34
HETATM   34  C   UNL     1      -9.850  16.357  68.104  1.00  0.00    -0.238 A  
HETATM   35  C   UNL     1      -9.765  17.947  66.284  1.00  0.00    -0.278 A  
HETATM   36  C   UNL     1     -10.497  17.057  67.085  1.00  0.00    -0.291 A  
HETATM   37  C   UNL     1      -8.386  18.113  66.458  1.00  0.00    -0.265 A  
HETATM   38  N   UNL     1      -7.690  19.076  65.727  1.00  0.00    -0.465 NA 
HETATM   39  C   UNL     1      -7.773  17.469  67.536  1.00  0.00    -0.210 A  
HETATM   40  H1  UNL     1      -6.685  19.197  65.854  1.00  0.00     0.000 HD 
HETATM   41  C   UNL     1      -8.491  16.581  68.350  1.00  0.00    -0.208 A  
HETATM   42  H2  UNL     1      -8.141  19.978  65.876  1.00  0.00     0.000 HD 
ENDBRANCH  31  34
ENDBRANCH  26  31
ENDBRANCH  25  26
ENDBRANCH  22  25
ENDBRANCH  14  22
ENDBRANCH  12  14
ENDBRANCH   9  10
ENDBRANCH   8   9
TORSDOF 11
ENDMDL
MODEL      151
REMARK 921   NORMALIZED FREE ENERGY PREDICTED BY IDOCK:   -5.41 KCAL/MOL
REMARK 922        TOTAL FREE ENERGY PREDICTED BY IDOCK:  -11.50 KCAL/MOL
REMARK 923 INTER-LIGAND FREE ENERGY PREDICTED BY IDOCK:   -9.36 KCAL/MOL
REMARK 924 INTRA-LIGAND FREE ENERGY PREDICTED BY IDOCK:   -2.15 KCAL/MOL
REMARK 927      BINDING AFFINITY PREDICTED BY RF-SCORE:    0.00 PKD
ROOT
HETATM    1  C   UNL     1      -9.867  16.496  66.770  1.00  0.00    -0.274 C  
HETATM    2  C   UNL     1     -10.279  15.747  65.515  1.00  0.00    -0.407 C  
HETATM    3  C   UNL     1     -10.953  16.792  64.647  1.00  0.00     0.109 C  
HETATM    4  O   UNL     1     -10.841  18.055  65.300  1.00  0.00    -0.627 OA 
HETATM    5  C   UNL     1      -9.865  17.938  66.326  1.00  0.00    -0.301 C  
HETATM    6  O   UNL     1      -8.551  18.199  65.835  1.00  0.00    -0.507 OA 
HETATM    7  C   UNL     1      -7.647  17.370  66.571  1.00  0.00    -0.282 C  
HETATM    8  C   UNL     1      -8.452  16.276  67.273  1.00  0.00    -0.177 C  
ENDROOT
BRANCH   8   9
HETATM    9  O   UNL     1      -7.930  14.997  66.878  1.00  0.00    -0.195 OA 
BRANCH   9  10
HETATM   10  C   UNL     1      -8.288  13.939  67.647  1.00  0.00    -0.181 C  
HETATM   11  O   UNL     1      -8.143  13.871  68.856  1.00  0.00    -0.086 OA 
HETATM   12  N   UNL     1      -8.744  12.946  66.830  1.00  0.00    -0.381 N  
HETATM   13  H   UNL     1      -8.911  13.167  65.848  1.00  0.00     0.000 HD 
BRANCH  12  14
HETATM   14  C   UNL     1      -9.008  11.574  67.290  1.00  0.00    -0.162 C  
BRANCH  14  15
HETATM   15  C   UNL     1     -10.447  11.103  66.902  1.00  0.00    -0.289 C  
BRANCH  15  16
HETATM   16  C   UNL     1     -11.096  11.817  65.727  1.00  0.00    -0.351 A  
HETATM   17  C   UNL     1     -10.644  11.594  64.420  1.00  0.00    -0.377 A  
HETATM   18  C   UNL     1     -12.134  12.740  65.927  1.00  0.00    -0.485 A  
HETATM   19  C   UNL     1     -11.211  12.280  63.343  1.00  0.00    -0.497 A  
HETATM   20  C   UNL     1     -12.246  13.189  63.557  1.00  0.00    -0.552 A  
HETATM   21  C   UNL     1     -12.713  13.414  64.848  1.00  0.00    -0.365 A  
ENDBRANCH  15  16
ENDBRANCH  14  15
BRANCH  14  22
HETATM   22  C   UNL     1      -7.950  10.534  66.810  1.00  0.00    -0.121 C  
HETATM   23  O   UNL     1      -7.284  10.994  65.626  1.00  0.00    -0.358 OA 
HETATM   24  H   UNL     1      -6.640  10.360  65.334  1.00  0.00     0.000 HD 
BRANCH  22  25
HETATM   25  C   UNL     1      -8.399   9.066  66.656  1.00  0.00    -0.118 C  
BRANCH  25  26
HETATM   26  N   UNL     1      -8.364   8.138  67.865  1.00  0.00    -0.128 N  
BRANCH  26  27
HETATM   27  C   UNL     1      -7.544   8.747  69.002  1.00  0.00    -0.090 C  
HETATM   28  C   UNL     1      -6.521   7.865  69.750  1.00  0.00    -0.034 C  
HETATM   29  C   UNL     1      -5.389   7.340  68.870  1.00  0.00    -0.018 C  
HETATM   30  C   UNL     1      -5.883   8.686  70.886  1.00  0.00    -0.034 C  
ENDBRANCH  26  27
BRANCH  26  31
HETATM   31  S   UNL     1     -10.016   7.773  68.363  1.00  0.00    -0.183 S  
HETATM   32  O   UNL     1     -10.407   8.703  69.394  1.00  0.00    -0.210 OA 
HETATM   33  O   UNL     1     -10.786   7.628  67.141  1.00  0.00    -0.332 OA 
BRANCH  31  34
HETATM   34  C   UNL     1      -9.910   6.154  69.123  1.00  0.00    -0.145 A  
HETATM   35  C   UNL     1      -9.793   4.769  71.102  1.00  0.00    -0.260 A  
HETATM   36  C   UNL     1      -9.946   6.034  70.512  1.00  0.00    -0.233 A  
HETATM   37  C   UNL     1      -9.559   3.630  70.323  1.00  0.00    -0.176 A  
HETATM   38  N   UNL     1      -9.513   2.366  70.911  1.00  0.00    -0.144 NA 
HETATM   39  C   UNL     1      -9.611   3.757  68.933  1.00  0.00    -0.183 A  
HETATM   40  H1  UNL     1      -9.343   1.536  70.344  1.00  0.00     0.000 HD 
HETATM   41  C   UNL     1      -9.770   5.012  68.328  1.00  0.00    -0.200 A  
HETATM   42  H2  UNL     1     -10.378   2.224  71.433  1.00  0.00     0.000 HD 
ENDBRANCH  31  34
ENDBRANCH  26  31
ENDBRANCH  25  26
ENDBRANCH  22  25
ENDBRANCH  14  22
ENDBRANCH  12  14
ENDBRANCH   9  10
ENDBRANCH   8   9
TORSDOF 11
ENDMDL
MODEL      152
REMARK 921   NORMALIZED FREE ENERGY PREDICTED BY IDOCK:   -5.39 KCAL/MOL
REMARK 922        TOTAL FREE ENERGY PREDICTED BY IDOCK:  -11.48 KCAL/MOL
REMARK 923 INTER-LIGAND FREE ENERGY PREDICTED BY IDOCK:  -10.20 KCAL/MOL
REMARK 924 INTRA-LIGAND FREE ENERGY PREDICTED BY IDOCK:   -1.28 KCAL/MOL
REMARK 927      BINDING AFFINITY PREDICTED BY RF-SCORE:    0.00 PKD
ROOT
HETATM    1  C   UNL     1      -7.664   4.496  67.123  1.00  0.00    -0.090 C  
HETATM    2  C   UNL     1      -6.594   5.295  66.403  1.00  0.00    -0.052 C  
HETATM    3  C   UNL     1      -5.646   4.253  65.842  1.00  0.00    -0.017 C  
HETATM    4  O   UNL     1      -6.185   2.962  66.123  1.00  0.00    -0.023 OA 
HETATM    5  C   UNL     1      -7.543   3.124  66.507  1.00  0.00    -0.076 C  
HETATM    6  O   UNL     1      -8.413   3.120  65.375  1.00  0.00    -0.098 OA 
HETATM    7  C   UNL     1      -9.503   3.999  65.671  1.00  0.00    -0.176 C  
HETATM    8  C   UNL     1      -9.109   4.879  66.857  1.00  0.00    -0.118 C  
ENDROOT
BRANCH   8   9
HETATM    9  O   UNL     1      -9.242   6.257  66.472  1.00  0.00    -0.147 OA 
BRANCH   9  10
HETATM   10  C   UNL     1     -10.183   6.977  67.131  1.00  0.00    -0.248 C  
HETATM   11  O   UNL     1     -11.387   6.827  67.015  1.00  0.00    -0.337 OA 
HETATM   12  N   UNL     1      -9.554   7.943  67.860  1.00  0.00    -0.145 N  
HETATM   13  H   UNL     1      -8.539   7.897  67.952  1.00  0.00     0.000 HD 
BRANCH  12  14
HETATM   14  C   UNL     1     -10.263   9.050  68.522  1.00  0.00    -0.200 C  
BRANCH  14  15
HETATM   15  C   UNL     1     -10.229   8.906  70.078  1.00  0.00    -0.214 C  
BRANCH  15  16
HETATM   16  C   UNL     1     -11.575   8.861  70.782  1.00  0.00    -0.301 A  
HETATM   17  C   UNL     1     -12.187  10.041  71.224  1.00  0.00    -0.498 A  
HETATM   18  C   UNL     1     -12.216   7.639  71.039  1.00  0.00    -0.261 A  
HETATM   19  C   UNL     1     -13.405  10.000  71.909  1.00  0.00    -0.516 A  
HETATM   20  C   UNL     1     -14.033   8.779  72.150  1.00  0.00    -0.522 A  
HETATM   21  C   UNL     1     -13.442   7.598  71.709  1.00  0.00    -0.379 A  
ENDBRANCH  15  16
ENDBRANCH  14  15
BRANCH  14  22
HETATM   22  C   UNL     1      -9.761  10.464  68.098  1.00  0.00    -0.151 C  
HETATM   23  O   UNL     1      -9.214  11.167  69.222  1.00  0.00    -0.397 OA 
HETATM   24  H   UNL     1      -8.908  12.029  68.964  1.00  0.00     0.000 HD 
BRANCH  22  25
HETATM   25  C   UNL     1     -10.726  11.364  67.301  1.00  0.00    -0.241 C  
BRANCH  25  26
HETATM   26  N   UNL     1     -10.224  12.687  66.732  1.00  0.00    -0.235 N  
BRANCH  26  27
HETATM   27  C   UNL     1      -9.586  12.487  65.358  1.00  0.00     0.000 C  
HETATM   28  C   UNL     1     -10.223  11.486  64.370  1.00  0.00    -0.350 C  
HETATM   29  C   UNL     1     -11.643  11.850  63.943  1.00  0.00    -0.515 C  
HETATM   30  C   UNL     1      -9.360  11.415  63.097  1.00  0.00    -0.307 C  
ENDBRANCH  26  27
BRANCH  26  31
HETATM   31  S   UNL     1     -11.558  13.839  66.680  1.00  0.00    -0.391 S  
HETATM   32  O   UNL     1     -11.188  14.941  65.828  1.00  0.00    -0.335 OA 
HETATM   33  O   UNL     1     -12.758  13.059  66.435  1.00  0.00    -0.231 OA 
BRANCH  31  34
HETATM   34  C   UNL     1     -11.669  14.475  68.351  1.00  0.00    -0.333 A  
HETATM   35  C   UNL     1     -11.279  16.245  69.952  1.00  0.00    -0.319 A  
HETATM   36  C   UNL     1     -11.254  15.778  68.628  1.00  0.00    -0.351 A  
HETATM   37  C   UNL     1     -11.669  15.413  71.007  1.00  0.00    -0.364 A  
HETATM   38  N   UNL     1     -11.789  15.919  72.302  1.00  0.00    -0.475 NA 
HETATM   39  C   UNL     1     -12.160  14.142  70.700  1.00  0.00    -0.421 A  
HETATM   40  H1  UNL     1     -12.074  15.313  73.071  1.00  0.00     0.000 HD 
HETATM   41  C   UNL     1     -12.149  13.662  69.383  1.00  0.00    -0.364 A  
HETATM   42  H2  UNL     1     -12.422  16.719  72.275  1.00  0.00     0.000 HD 
ENDBRANCH  31  34
ENDBRANCH  26  31
ENDBRANCH  25  26
ENDBRANCH  22  25
ENDBRANCH  14  22
ENDBRANCH  12  14
ENDBRANCH   9  10
ENDBRANCH   8   9
TORSDOF 11
ENDMDL
MODEL      153
REMARK 921   NORMALIZED FREE ENERGY PREDICTED BY IDOCK:   -5.39 KCAL/MOL
REMARK 922        TOTAL FREE ENERGY PREDICTED BY IDOCK:  -11.48 KCAL/MOL
REMARK 923 INTER-LIGAND FREE ENERGY PREDICTED BY IDOCK:   -9.66 KCAL/MOL
REMARK 924 INTRA-LIGAND FREE ENERGY PREDICTED BY IDOCK:   -1.81 KCAL/MOL
REMARK 927      BINDING AFFINITY PREDICTED BY RF-SCORE:    0.00 PKD
ROOT
HETATM    1  C   UNL     1      -7.817   8.824  65.300  1.00  0.00    -0.109 C  
HETATM    2  C   UNL     1      -6.710   9.611  65.977  1.00  0.00    -0.084 C  
HETATM    3  C   UNL     1      -6.071  10.415  64.861  1.00  0.00    -0.108 C  
HETATM    4  O   UNL     1      -6.818  10.192  63.666  1.00  0.00    -0.130 OA 
HETATM    5  C   UNL     1      -8.055   9.591  64.022  1.00  0.00    -0.152 C  
HETATM    6  O   UNL     1      -9.046  10.572  64.328  1.00  0.00    -0.198 OA 
HETATM    7  C   UNL     1      -9.889  10.023  65.346  1.00  0.00    -0.314 C  
HETATM    8  C   UNL     1      -9.177   8.825  65.974  1.00  0.00    -0.222 C  
ENDROOT
BRANCH   8   9
HETATM    9  O   UNL     1      -9.079   9.039  67.391  1.00  0.00    -0.130 OA 
BRANCH   9  10
HETATM   10  C   UNL     1     -10.131   8.619  68.136  1.00  0.00    -0.197 C  
HETATM   11  O   UNL     1     -11.033   7.905  67.734  1.00  0.00    -0.075 OA 
HETATM   12  N   UNL     1     -10.049   9.204  69.366  1.00  0.00    -0.190 N  
HETATM   13  H   UNL     1      -9.191   9.699  69.611  1.00  0.00     0.000 HD 
BRANCH  12  14
HETATM   14  C   UNL     1     -11.134   9.159  70.359  1.00  0.00    -0.253 C  
BRANCH  14  15
HETATM   15  C   UNL     1     -10.601   8.771  71.777  1.00  0.00    -0.417 C  
BRANCH  15  16
HETATM   16  C   UNL     1     -10.520   7.285  72.084  1.00  0.00    -0.233 A  
HETATM   17  C   UNL     1     -10.445   6.835  73.409  1.00  0.00    -0.335 A  
HETATM   18  C   UNL     1     -10.479   6.334  71.052  1.00  0.00    -0.274 A  
HETATM   19  C   UNL     1     -10.327   5.472  73.693  1.00  0.00    -0.261 A  
HETATM   20  C   UNL     1     -10.295   4.539  72.658  1.00  0.00    -0.252 A  
HETATM   21  C   UNL     1     -10.379   4.970  71.336  1.00  0.00    -0.251 A  
ENDBRANCH  15  16
ENDBRANCH  14  15
BRANCH  14  22
HETATM   22  C   UNL     1     -11.972  10.471  70.438  1.00  0.00    -0.335 C  
HETATM   23  O   UNL     1     -13.278  10.275  69.877  1.00  0.00    -0.533 OA 
HETATM   24  H   UNL     1     -13.789  11.075  69.925  1.00  0.00     0.000 HD 
BRANCH  22  25
HETATM   25  C   UNL     1     -11.333  11.770  69.906  1.00  0.00    -0.121 C  
BRANCH  25  26
HETATM   26  N   UNL     1     -12.227  12.884  69.370  1.00  0.00    -0.169 N  
BRANCH  26  27
HETATM   27  C   UNL     1     -12.224  14.089  70.310  1.00  0.00    -0.361 C  
HETATM   28  C   UNL     1     -13.397  14.278  71.296  1.00  0.00    -0.388 C  
HETATM   29  C   UNL     1     -13.536  13.155  72.321  1.00  0.00    -0.677 C  
HETATM   30  C   UNL     1     -13.195  15.592  72.074  1.00  0.00    -0.549 C  
ENDBRANCH  26  27
BRANCH  26  31
HETATM   31  S   UNL     1     -11.704  13.313  67.742  1.00  0.00    -0.358 S  
HETATM   32  O   UNL     1     -11.940  12.191  66.867  1.00  0.00    -0.603 OA 
HETATM   33  O   UNL     1     -12.267  14.622  67.466  1.00  0.00    -0.277 OA 
BRANCH  31  34
HETATM   34  C   UNL     1      -9.929  13.514  67.877  1.00  0.00    -0.245 A  
HETATM   35  C   UNL     1      -7.710  12.557  67.966  1.00  0.00    -0.140 A  
HETATM   36  C   UNL     1      -9.094  12.400  67.789  1.00  0.00    -0.193 A  
HETATM   37  C   UNL     1      -7.156  13.804  68.274  1.00  0.00    -0.109 A  
HETATM   38  N   UNL     1      -5.772  13.967  68.345  1.00  0.00    -0.096 NA 
HETATM   39  C   UNL     1      -7.996  14.920  68.275  1.00  0.00    -0.130 A  
HETATM   40  H1  UNL     1      -5.367  14.877  68.569  1.00  0.00     0.000 HD 
HETATM   41  C   UNL     1      -9.379  14.782  68.093  1.00  0.00    -0.197 A  
HETATM   42  H2  UNL     1      -5.367  13.647  67.465  1.00  0.00     0.000 HD 
ENDBRANCH  31  34
ENDBRANCH  26  31
ENDBRANCH  25  26
ENDBRANCH  22  25
ENDBRANCH  14  22
ENDBRANCH  12  14
ENDBRANCH   9  10
ENDBRANCH   8   9
TORSDOF 11
ENDMDL
MODEL      154
REMARK 921   NORMALIZED FREE ENERGY PREDICTED BY IDOCK:   -5.39 KCAL/MOL
REMARK 922        TOTAL FREE ENERGY PREDICTED BY IDOCK:  -11.47 KCAL/MOL
REMARK 923 INTER-LIGAND FREE ENERGY PREDICTED BY IDOCK:   -9.25 KCAL/MOL
REMARK 924 INTRA-LIGAND FREE ENERGY PREDICTED BY IDOCK:   -2.22 KCAL/MOL
REMARK 927      BINDING AFFINITY PREDICTED BY RF-SCORE:    0.00 PKD
ROOT
HETATM    1  C   UNL     1      -8.472   8.472  72.677  1.00  0.00    -0.169 C  
HETATM    2  C   UNL     1      -7.194   7.684  72.452  1.00  0.00    -0.082 C  
HETATM    3  C   UNL     1      -7.309   6.490  73.380  1.00  0.00    -0.085 C  
HETATM    4  O   UNL     1      -8.591   6.531  74.003  1.00  0.00    -0.121 OA 
HETATM    5  C   UNL     1      -9.402   7.453  73.289  1.00  0.00    -0.200 C  
HETATM    6  O   UNL     1     -10.074   6.825  72.197  1.00  0.00    -0.181 OA 
HETATM    7  C   UNL     1     -10.190   7.796  71.152  1.00  0.00    -0.195 C  
HETATM    8  C   UNL     1      -9.221   8.942  71.443  1.00  0.00    -0.258 C  
ENDROOT
BRANCH   8   9
HETATM    9  O   UNL     1      -8.350   9.106  70.312  1.00  0.00    -0.134 OA 
BRANCH   9  10
HETATM   10  C   UNL     1      -8.954   9.284  69.111  1.00  0.00    -0.144 C  
HETATM   11  O   UNL     1      -9.040   8.438  68.238  1.00  0.00    -0.139 OA 
HETATM   12  N   UNL     1      -9.357  10.585  69.020  1.00  0.00    -0.192 N  
HETATM   13  H   UNL     1      -9.318  11.163  69.859  1.00  0.00     0.000 HD 
BRANCH  12  14
HETATM   14  C   UNL     1      -9.846  11.197  67.774  1.00  0.00    -0.171 C  
BRANCH  14  15
HETATM   15  C   UNL     1     -11.321  11.695  67.917  1.00  0.00    -0.369 C  
BRANCH  15  16
HETATM   16  C   UNL     1     -11.902  11.689  69.322  1.00  0.00    -0.396 A  
HETATM   17  C   UNL     1     -12.391  10.503  69.885  1.00  0.00    -0.247 A  
HETATM   18  C   UNL     1     -11.997  12.873  70.070  1.00  0.00    -0.380 A  
HETATM   19  C   UNL     1     -12.964  10.502  71.160  1.00  0.00    -0.506 A  
HETATM   20  C   UNL     1     -13.045  11.684  71.893  1.00  0.00    -0.490 A  
HETATM   21  C   UNL     1     -12.555  12.869  71.352  1.00  0.00    -0.319 A  
ENDBRANCH  15  16
ENDBRANCH  14  15
BRANCH  14  22
HETATM   22  C   UNL     1      -8.939  12.345  67.237  1.00  0.00    -0.190 C  
HETATM   23  O   UNL     1      -8.103  11.876  66.169  1.00  0.00    -0.378 OA 
HETATM   24  H   UNL     1      -7.550  12.576  65.841  1.00  0.00     0.000 HD 
BRANCH  22  25
HETATM   25  C   UNL     1      -8.121  13.158  68.260  1.00  0.00    -0.152 C  
BRANCH  25  26
HETATM   26  N   UNL     1      -8.224  14.680  68.266  1.00  0.00    -0.138 N  
BRANCH  26  27
HETATM   27  C   UNL     1      -9.248  15.157  69.296  1.00  0.00    -0.205 C  
HETATM   28  C   UNL     1     -10.371  16.118  68.851  1.00  0.00    -0.250 C  
HETATM   29  C   UNL     1     -11.315  15.532  67.804  1.00  0.00    -0.286 C  
HETATM   30  C   UNL     1     -11.221  16.501  70.078  1.00  0.00    -0.159 C  
ENDBRANCH  26  27
BRANCH  26  31
HETATM   31  S   UNL     1      -6.626  15.367  68.556  1.00  0.00    -0.115 S  
HETATM   32  O   UNL     1      -6.350  15.322  69.970  1.00  0.00    -0.156 OA 
HETATM   33  O   UNL     1      -5.737  14.750  67.588  1.00  0.00    -0.299 OA 
BRANCH  31  34
HETATM   34  C   UNL     1      -6.789  17.093  68.103  1.00  0.00    -0.176 A  
HETATM   35  C   UNL     1      -6.435  19.433  68.597  1.00  0.00    -0.293 A  
HETATM   36  C   UNL     1      -6.242  18.082  68.922  1.00  0.00    -0.215 A  
HETATM   37  C   UNL     1      -7.205  19.811  67.491  1.00  0.00    -0.244 A  
HETATM   38  N   UNL     1      -7.302  21.152  67.119  1.00  0.00    -0.710 NA 
HETATM   39  C   UNL     1      -7.672  18.808  66.638  1.00  0.00    -0.262 A  
HETATM   40  H1  UNL     1      -7.863  21.427  66.313  1.00  0.00     0.000 HD 
HETATM   41  C   UNL     1      -7.483  17.454  66.943  1.00  0.00    -0.244 A  
HETATM   42  H2  UNL     1      -6.358  21.517  66.990  1.00  0.00     0.000 HD 
ENDBRANCH  31  34
ENDBRANCH  26  31
ENDBRANCH  25  26
ENDBRANCH  22  25
ENDBRANCH  14  22
ENDBRANCH  12  14
ENDBRANCH   9  10
ENDBRANCH   8   9
TORSDOF 11
ENDMDL
MODEL      155
REMARK 921   NORMALIZED FREE ENERGY PREDICTED BY IDOCK:   -5.38 KCAL/MOL
REMARK 922        TOTAL FREE ENERGY PREDICTED BY IDOCK:  -11.47 KCAL/MOL
REMARK 923 INTER-LIGAND FREE ENERGY PREDICTED BY IDOCK:   -9.86 KCAL/MOL
REMARK 924 INTRA-LIGAND FREE ENERGY PREDICTED BY IDOCK:   -1.61 KCAL/MOL
REMARK 927      BINDING AFFINITY PREDICTED BY RF-SCORE:    0.00 PKD
ROOT
HETATM    1  C   UNL     1      -8.392  10.608  65.551  1.00  0.00    -0.158 C  
HETATM    2  C   UNL     1      -9.767  10.439  64.933  1.00  0.00    -0.372 C  
HETATM    3  C   UNL     1      -9.521  10.447  63.436  1.00  0.00    -0.315 C  
HETATM    4  O   UNL     1      -8.112  10.506  63.217  1.00  0.00    -0.151 OA 
HETATM    5  C   UNL     1      -7.460  10.194  64.439  1.00  0.00    -0.123 C  
HETATM    6  O   UNL     1      -7.267   8.788  64.588  1.00  0.00    -0.092 OA 
HETATM    7  C   UNL     1      -7.366   8.488  65.984  1.00  0.00    -0.081 C  
HETATM    8  C   UNL     1      -8.025   9.673  66.689  1.00  0.00    -0.109 C  
ENDROOT
BRANCH   8   9
HETATM    9  O   UNL     1      -9.184   9.200  67.395  1.00  0.00    -0.129 OA 
BRANCH   9  10
HETATM   10  C   UNL     1      -9.508   9.866  68.531  1.00  0.00    -0.146 C  
HETATM   11  O   UNL     1      -8.718  10.464  69.242  1.00  0.00    -0.159 OA 
HETATM   12  N   UNL     1     -10.835   9.670  68.783  1.00  0.00    -0.353 N  
HETATM   13  H   UNL     1     -11.406   9.236  68.057  1.00  0.00     0.000 HD 
BRANCH  12  14
HETATM   14  C   UNL     1     -11.486  10.053  70.045  1.00  0.00    -0.248 C  
BRANCH  14  15
HETATM   15  C   UNL     1     -10.666   9.571  71.286  1.00  0.00    -0.386 C  
BRANCH  15  16
HETATM   16  C   UNL     1     -10.646   8.072  71.541  1.00  0.00    -0.273 A  
HETATM   17  C   UNL     1     -11.763   7.429  72.088  1.00  0.00    -0.328 A  
HETATM   18  C   UNL     1      -9.499   7.309  71.271  1.00  0.00    -0.156 A  
HETATM   19  C   UNL     1     -11.732   6.059  72.363  1.00  0.00    -0.322 A  
HETATM   20  C   UNL     1     -10.589   5.312  72.084  1.00  0.00    -0.281 A  
HETATM   21  C   UNL     1      -9.474   5.936  71.530  1.00  0.00    -0.171 A  
ENDBRANCH  15  16
ENDBRANCH  14  15
BRANCH  14  22
HETATM   22  C   UNL     1     -11.792  11.577  70.160  1.00  0.00    -0.356 C  
HETATM   23  O   UNL     1     -12.674  11.839  71.261  1.00  0.00    -0.387 OA 
HETATM   24  H   UNL     1     -12.860  12.767  71.331  1.00  0.00     0.000 HD 
BRANCH  22  25
HETATM   25  C   UNL     1     -12.262  12.317  68.891  1.00  0.00     0.042 C  
BRANCH  25  26
HETATM   26  N   UNL     1     -12.005  13.815  68.755  1.00  0.00    -0.361 N  
BRANCH  26  27
HETATM   27  C   UNL     1     -11.515  14.410  70.075  1.00  0.00    -0.238 C  
HETATM   28  C   UNL     1     -12.346  15.519  70.755  1.00  0.00    -0.463 C  
HETATM   29  C   UNL     1     -13.747  15.081  71.176  1.00  0.00    -0.484 C  
HETATM   30  C   UNL     1     -11.610  15.996  72.021  1.00  0.00    -0.512 C  
ENDBRANCH  26  27
BRANCH  26  31
HETATM   31  S   UNL     1     -10.862  14.089  67.441  1.00  0.00    -0.286 S  
HETATM   32  O   UNL     1      -9.762  13.168  67.581  1.00  0.00    -0.203 OA 
HETATM   33  O   UNL     1     -11.650  14.151  66.223  1.00  0.00    -0.344 OA 
BRANCH  31  34
HETATM   34  C   UNL     1     -10.216  15.733  67.742  1.00  0.00    -0.251 A  
HETATM   35  C   UNL     1      -8.450  17.179  68.539  1.00  0.00    -0.262 A  
HETATM   36  C   UNL     1      -8.923  15.892  68.240  1.00  0.00    -0.184 A  
HETATM   37  C   UNL     1      -9.268  18.305  68.389  1.00  0.00    -0.317 A  
HETATM   38  N   UNL     1      -8.754  19.587  68.589  1.00  0.00    -0.360 NA 
HETATM   39  C   UNL     1     -10.528  18.135  67.810  1.00  0.00    -0.421 A  
HETATM   40  H1  UNL     1      -9.350  20.407  68.480  1.00  0.00     0.000 HD 
HETATM   41  C   UNL     1     -11.013  16.857  67.499  1.00  0.00    -0.120 A  
HETATM   42  H2  UNL     1      -7.939  19.702  67.987  1.00  0.00     0.000 HD 
ENDBRANCH  31  34
ENDBRANCH  26  31
ENDBRANCH  25  26
ENDBRANCH  22  25
ENDBRANCH  14  22
ENDBRANCH  12  14
ENDBRANCH   9  10
ENDBRANCH   8   9
TORSDOF 11
ENDMDL
MODEL      156
REMARK 921   NORMALIZED FREE ENERGY PREDICTED BY IDOCK:   -5.37 KCAL/MOL
REMARK 922        TOTAL FREE ENERGY PREDICTED BY IDOCK:  -11.45 KCAL/MOL
REMARK 923 INTER-LIGAND FREE ENERGY PREDICTED BY IDOCK:  -10.07 KCAL/MOL
REMARK 924 INTRA-LIGAND FREE ENERGY PREDICTED BY IDOCK:   -1.38 KCAL/MOL
REMARK 927      BINDING AFFINITY PREDICTED BY RF-SCORE:    0.00 PKD
ROOT
HETATM    1  C   UNL     1      -7.074   7.962  72.163  1.00  0.00    -0.080 C  
HETATM    2  C   UNL     1      -8.387   8.451  72.746  1.00  0.00    -0.203 C  
HETATM    3  C   UNL     1      -8.469   7.800  74.113  1.00  0.00    -0.251 C  
HETATM    4  O   UNL     1      -7.255   7.085  74.340  1.00  0.00    -0.099 OA 
HETATM    5  C   UNL     1      -6.301   7.516  73.380  1.00  0.00    -0.065 C  
HETATM    6  O   UNL     1      -5.582   8.663  73.833  1.00  0.00    -0.096 OA 
HETATM    7  C   UNL     1      -5.280   9.460  72.683  1.00  0.00    -0.072 C  
HETATM    8  C   UNL     1      -6.170   9.002  71.528  1.00  0.00    -0.075 C  
ENDROOT
BRANCH   8   9
HETATM    9  O   UNL     1      -6.907  10.134  71.039  1.00  0.00    -0.341 OA 
BRANCH   9  10
HETATM   10  C   UNL     1      -7.404  10.030  69.781  1.00  0.00    -0.141 C  
HETATM   11  O   UNL     1      -6.755   9.724  68.795  1.00  0.00    -0.050 OA 
HETATM   12  N   UNL     1      -8.713  10.412  69.801  1.00  0.00    -0.385 N  
HETATM   13  H   UNL     1      -9.164  10.545  70.707  1.00  0.00     0.000 HD 
BRANCH  12  14
HETATM   14  C   UNL     1      -9.510  10.641  68.586  1.00  0.00    -0.176 C  
BRANCH  14  15
HETATM   15  C   UNL     1     -10.760   9.704  68.531  1.00  0.00    -0.239 C  
BRANCH  15  16
HETATM   16  C   UNL     1     -11.146   9.018  69.832  1.00  0.00    -0.155 A  
HETATM   17  C   UNL     1     -10.983   7.635  69.983  1.00  0.00    -0.237 A  
HETATM   18  C   UNL     1     -11.709   9.744  70.893  1.00  0.00    -0.429 A  
HETATM   19  C   UNL     1     -11.376   6.995  71.161  1.00  0.00    -0.319 A  
HETATM   20  C   UNL     1     -11.927   7.730  72.209  1.00  0.00    -0.356 A  
HETATM   21  C   UNL     1     -12.087   9.107  72.078  1.00  0.00    -0.431 A  
ENDBRANCH  15  16
ENDBRANCH  14  15
BRANCH  14  22
HETATM   22  C   UNL     1      -9.939  12.126  68.384  1.00  0.00    -0.206 C  
HETATM   23  O   UNL     1     -11.345  12.217  68.111  1.00  0.00    -0.251 OA 
HETATM   24  H   UNL     1     -11.606  13.122  67.988  1.00  0.00     0.000 HD 
BRANCH  22  25
HETATM   25  C   UNL     1      -9.129  12.984  67.391  1.00  0.00    -0.201 C  
BRANCH  25  26
HETATM   26  N   UNL     1      -9.533  14.434  67.144  1.00  0.00    -0.214 N  
BRANCH  26  27
HETATM   27  C   UNL     1     -10.843  14.512  66.360  1.00  0.00    -0.318 C  
HETATM   28  C   UNL     1     -10.809  14.378  64.823  1.00  0.00    -0.415 C  
HETATM   29  C   UNL     1     -10.293  13.029  64.326  1.00  0.00    -0.385 C  
HETATM   30  C   UNL     1     -12.234  14.561  64.269  1.00  0.00    -0.441 C  
ENDBRANCH  26  27
BRANCH  26  31
HETATM   31  S   UNL     1      -9.636  15.276  68.690  1.00  0.00    -0.215 S  
HETATM   32  O   UNL     1     -10.928  15.018  69.275  1.00  0.00    -0.241 OA 
HETATM   33  O   UNL     1      -8.407  14.973  69.401  1.00  0.00    -0.198 OA 
BRANCH  31  34
HETATM   34  C   UNL     1      -9.589  17.015  68.259  1.00  0.00    -0.273 A  
HETATM   35  C   UNL     1     -10.671  18.986  67.372  1.00  0.00    -0.559 A  
HETATM   36  C   UNL     1     -10.735  17.642  67.773  1.00  0.00    -0.336 A  
HETATM   37  C   UNL     1      -9.466  19.697  67.409  1.00  0.00    -0.329 A  
HETATM   38  N   UNL     1      -9.436  21.059  67.107  1.00  0.00    -0.662 NA 
HETATM   39  C   UNL     1      -8.350  19.078  67.978  1.00  0.00    -0.335 A  
HETATM   40  H1  UNL     1      -8.558  21.577  67.135  1.00  0.00     0.000 HD 
HETATM   41  C   UNL     1      -8.399  17.739  68.389  1.00  0.00    -0.295 A  
HETATM   42  H2  UNL     1     -10.106  21.535  67.712  1.00  0.00     0.000 HD 
ENDBRANCH  31  34
ENDBRANCH  26  31
ENDBRANCH  25  26
ENDBRANCH  22  25
ENDBRANCH  14  22
ENDBRANCH  12  14
ENDBRANCH   9  10
ENDBRANCH   8   9
TORSDOF 11
ENDMDL
MODEL      157
REMARK 921   NORMALIZED FREE ENERGY PREDICTED BY IDOCK:   -5.37 KCAL/MOL
REMARK 922        TOTAL FREE ENERGY PREDICTED BY IDOCK:  -11.45 KCAL/MOL
REMARK 923 INTER-LIGAND FREE ENERGY PREDICTED BY IDOCK:   -9.07 KCAL/MOL
REMARK 924 INTRA-LIGAND FREE ENERGY PREDICTED BY IDOCK:   -2.38 KCAL/MOL
REMARK 927      BINDING AFFINITY PREDICTED BY RF-SCORE:    0.00 PKD
ROOT
HETATM    1  C   UNL     1     -10.127   6.240  70.930  1.00  0.00    -0.227 C  
HETATM    2  C   UNL     1      -9.953   4.759  70.646  1.00  0.00    -0.300 C  
HETATM    3  C   UNL     1      -9.899   4.109  72.015  1.00  0.00    -0.174 C  
HETATM    4  O   UNL     1     -10.132   5.117  72.997  1.00  0.00    -0.160 OA 
HETATM    5  C   UNL     1     -10.659   6.261  72.342  1.00  0.00    -0.211 C  
HETATM    6  O   UNL     1     -12.080   6.196  72.230  1.00  0.00    -0.311 OA 
HETATM    7  C   UNL     1     -12.443   6.843  71.007  1.00  0.00    -0.313 C  
HETATM    8  C   UNL     1     -11.193   6.975  70.137  1.00  0.00    -0.284 C  
ENDROOT
BRANCH   8   9
HETATM    9  O   UNL     1     -11.449   6.352  68.867  1.00  0.00    -0.314 OA 
BRANCH   9  10
HETATM   10  C   UNL     1     -10.857   6.922  67.789  1.00  0.00    -0.241 C  
HETATM   11  O   UNL     1     -10.929   6.501  66.647  1.00  0.00    -0.293 OA 
HETATM   12  N   UNL     1     -10.105   7.977  68.217  1.00  0.00    -0.190 N  
HETATM   13  H   UNL     1     -10.212   8.286  69.183  1.00  0.00     0.000 HD 
BRANCH  12  14
HETATM   14  C   UNL     1      -9.147   8.691  67.358  1.00  0.00    -0.133 C  
BRANCH  14  15
HETATM   15  C   UNL     1      -7.901   7.807  67.027  1.00  0.00    -0.112 C  
BRANCH  15  16
HETATM   16  C   UNL     1      -7.280   7.052  68.190  1.00  0.00    -0.091 A  
HETATM   17  C   UNL     1      -6.723   7.745  69.273  1.00  0.00    -0.044 A  
HETATM   18  C   UNL     1      -7.216   5.649  68.190  1.00  0.00    -0.072 A  
HETATM   19  C   UNL     1      -6.114   7.054  70.324  1.00  0.00    -0.024 A  
HETATM   20  C   UNL     1      -6.065   5.661  70.313  1.00  0.00    -0.026 A  
HETATM   21  C   UNL     1      -6.623   4.958  69.250  1.00  0.00    -0.040 A  
ENDBRANCH  15  16
ENDBRANCH  14  15
BRANCH  14  22
HETATM   22  C   UNL     1      -9.774   9.253  66.046  1.00  0.00    -0.289 C  
HETATM   23  O   UNL     1      -9.326   8.507  64.906  1.00  0.00    -0.355 OA 
HETATM   24  H   UNL     1      -9.709   8.849  64.107  1.00  0.00     0.000 HD 
BRANCH  22  25
HETATM   25  C   UNL     1      -9.669  10.770  65.788  1.00  0.00    -0.228 C  
BRANCH  25  26
HETATM   26  N   UNL     1      -9.908  11.747  66.934  1.00  0.00    -0.201 N  
BRANCH  26  27
HETATM   27  C   UNL     1      -9.286  13.110  66.633  1.00  0.00    -0.215 C  
HETATM   28  C   UNL     1      -8.468  13.823  67.731  1.00  0.00    -0.181 C  
HETATM   29  C   UNL     1      -7.218  13.063  68.171  1.00  0.00    -0.116 C  
HETATM   30  C   UNL     1      -8.012  15.199  67.206  1.00  0.00    -0.234 C  
ENDBRANCH  26  27
BRANCH  26  31
HETATM   31  S   UNL     1     -11.640  11.864  67.243  1.00  0.00    -0.248 S  
HETATM   32  O   UNL     1     -12.293  12.352  66.053  1.00  0.00    -0.627 OA 
HETATM   33  O   UNL     1     -12.029  10.610  67.862  1.00  0.00    -0.420 OA 
BRANCH  31  34
HETATM   34  C   UNL     1     -11.790  13.143  68.490  1.00  0.00    -0.342 A  
HETATM   35  C   UNL     1     -11.925  13.802  70.812  1.00  0.00    -0.318 A  
HETATM   36  C   UNL     1     -11.737  12.805  69.842  1.00  0.00    -0.321 A  
HETATM   37  C   UNL     1     -12.210  15.123  70.448  1.00  0.00    -0.344 A  
HETATM   38  N   UNL     1     -12.291  16.124  71.416  1.00  0.00    -0.583 NA 
HETATM   39  C   UNL     1     -12.175  15.458  69.092  1.00  0.00    -0.192 A  
HETATM   40  H1  UNL     1     -12.498  17.087  71.151  1.00  0.00     0.000 HD 
HETATM   41  C   UNL     1     -11.981  14.476  68.111  1.00  0.00    -0.296 A  
HETATM   42  H2  UNL     1     -11.423  16.121  71.953  1.00  0.00     0.000 HD 
ENDBRANCH  31  34
ENDBRANCH  26  31
ENDBRANCH  25  26
ENDBRANCH  22  25
ENDBRANCH  14  22
ENDBRANCH  12  14
ENDBRANCH   9  10
ENDBRANCH   8   9
TORSDOF 11
ENDMDL
MODEL      158
REMARK 921   NORMALIZED FREE ENERGY PREDICTED BY IDOCK:   -5.36 KCAL/MOL
REMARK 922        TOTAL FREE ENERGY PREDICTED BY IDOCK:  -11.43 KCAL/MOL
REMARK 923 INTER-LIGAND FREE ENERGY PREDICTED BY IDOCK:   -9.47 KCAL/MOL
REMARK 924 INTRA-LIGAND FREE ENERGY PREDICTED BY IDOCK:   -1.96 KCAL/MOL
REMARK 927      BINDING AFFINITY PREDICTED BY RF-SCORE:    0.00 PKD
ROOT
HETATM    1  C   UNL     1      -8.105  17.992  67.264  1.00  0.00    -0.218 C  
HETATM    2  C   UNL     1      -7.416  18.380  68.559  1.00  0.00    -0.309 C  
HETATM    3  C   UNL     1      -7.296  19.891  68.495  1.00  0.00    -0.278 C  
HETATM    4  O   UNL     1      -7.959  20.340  67.314  1.00  0.00    -0.315 OA 
HETATM    5  C   UNL     1      -8.764  19.277  66.825  1.00  0.00    -0.313 C  
HETATM    6  O   UNL     1     -10.060  19.281  67.421  1.00  0.00    -0.345 OA 
HETATM    7  C   UNL     1     -10.484  17.919  67.534  1.00  0.00    -0.390 C  
HETATM    8  C   UNL     1      -9.263  17.015  67.363  1.00  0.00    -0.234 C  
ENDROOT
BRANCH   8   9
HETATM    9  O   UNL     1      -9.156  16.164  68.517  1.00  0.00    -0.192 OA 
BRANCH   9  10
HETATM   10  C   UNL     1      -9.790  14.968  68.441  1.00  0.00    -0.222 C  
HETATM   11  O   UNL     1     -10.876  14.720  68.936  1.00  0.00    -0.237 OA 
HETATM   12  N   UNL     1      -8.968  14.083  67.806  1.00  0.00    -0.177 N  
HETATM   13  H   UNL     1      -8.130  14.444  67.351  1.00  0.00     0.000 HD 
BRANCH  12  14
HETATM   14  C   UNL     1      -9.228  12.637  67.744  1.00  0.00    -0.195 C  
BRANCH  14  15
HETATM   15  C   UNL     1      -9.030  12.078  66.297  1.00  0.00    -0.129 C  
BRANCH  15  16
HETATM   16  C   UNL     1     -10.199  12.251  65.341  1.00  0.00    -0.297 A  
HETATM   17  C   UNL     1     -11.328  12.988  65.723  1.00  0.00    -0.331 A  
HETATM   18  C   UNL     1     -10.192  11.648  64.074  1.00  0.00    -0.391 A  
HETATM   19  C   UNL     1     -12.422  13.113  64.862  1.00  0.00    -0.490 A  
HETATM   20  C   UNL     1     -12.397  12.514  63.604  1.00  0.00    -0.618 A  
HETATM   21  C   UNL     1     -11.278  11.787  63.206  1.00  0.00    -0.357 A  
ENDBRANCH  15  16
ENDBRANCH  14  15
BRANCH  14  22
HETATM   22  C   UNL     1      -8.395  11.802  68.764  1.00  0.00    -0.009 C  
HETATM   23  O   UNL     1      -7.356  12.600  69.348  1.00  0.00    -0.317 OA 
HETATM   24  H   UNL     1      -6.849  12.091  69.969  1.00  0.00     0.000 HD 
BRANCH  22  25
HETATM   25  C   UNL     1      -7.848  10.436  68.303  1.00  0.00    -0.105 C  
BRANCH  25  26
HETATM   26  N   UNL     1      -8.696   9.182  68.496  1.00  0.00    -0.129 N  
BRANCH  26  27
HETATM   27  C   UNL     1      -9.957   9.490  69.302  1.00  0.00    -0.187 C  
HETATM   28  C   UNL     1     -10.295   8.622  70.532  1.00  0.00    -0.234 C  
HETATM   29  C   UNL     1      -9.255   8.689  71.648  1.00  0.00    -0.326 C  
HETATM   30  C   UNL     1     -11.640   9.087  71.124  1.00  0.00    -0.372 C  
ENDBRANCH  26  27
BRANCH  26  31
HETATM   31  S   UNL     1      -9.072   8.490  66.918  1.00  0.00    -0.154 S  
HETATM   32  O   UNL     1     -10.382   8.937  66.515  1.00  0.00    -0.276 OA 
HETATM   33  O   UNL     1      -7.903   8.716  66.086  1.00  0.00    -0.095 OA 
BRANCH  31  34
HETATM   34  C   UNL     1      -9.183   6.727  67.214  1.00  0.00    -0.133 A  
HETATM   35  C   UNL     1     -10.035   4.547  66.607  1.00  0.00    -0.253 A  
HETATM   36  C   UNL     1      -9.895   5.916  66.330  1.00  0.00    -0.161 A  
HETATM   37  C   UNL     1      -9.512   3.987  67.778  1.00  0.00    -0.178 A  
HETATM   38  N   UNL     1      -9.568   2.609  67.991  1.00  0.00    -0.284 NA 
HETATM   39  C   UNL     1      -8.732   4.796  68.607  1.00  0.00    -0.111 A  
HETATM   40  H1  UNL     1      -9.186   2.201  68.845  1.00  0.00     0.000 HD 
HETATM   41  C   UNL     1      -8.575   6.164  68.342  1.00  0.00    -0.112 A  
HETATM   42  H2  UNL     1      -9.133   2.145  67.194  1.00  0.00     0.000 HD 
ENDBRANCH  31  34
ENDBRANCH  26  31
ENDBRANCH  25  26
ENDBRANCH  22  25
ENDBRANCH  14  22
ENDBRANCH  12  14
ENDBRANCH   9  10
ENDBRANCH   8   9
TORSDOF 11
ENDMDL
MODEL      159
REMARK 921   NORMALIZED FREE ENERGY PREDICTED BY IDOCK:   -5.35 KCAL/MOL
REMARK 922        TOTAL FREE ENERGY PREDICTED BY IDOCK:  -11.42 KCAL/MOL
REMARK 923 INTER-LIGAND FREE ENERGY PREDICTED BY IDOCK:  -10.24 KCAL/MOL
REMARK 924 INTRA-LIGAND FREE ENERGY PREDICTED BY IDOCK:   -1.18 KCAL/MOL
REMARK 927      BINDING AFFINITY PREDICTED BY RF-SCORE:    0.00 PKD
ROOT
HETATM    1  C   UNL     1     -10.288  18.240  67.952  1.00  0.00    -0.417 C  
HETATM    2  C   UNL     1     -10.424  18.291  66.441  1.00  0.00    -0.387 C  
HETATM    3  C   UNL     1     -10.307  19.763  66.093  1.00  0.00    -0.524 C  
HETATM    4  O   UNL     1     -10.018  20.482  67.291  1.00  0.00    -0.450 OA 
HETATM    5  C   UNL     1      -9.615  19.549  68.283  1.00  0.00    -0.379 C  
HETATM    6  O   UNL     1      -8.211  19.297  68.227  1.00  0.00    -0.311 OA 
HETATM    7  C   UNL     1      -8.006  17.933  68.609  1.00  0.00    -0.281 C  
HETATM    8  C   UNL     1      -9.344  17.199  68.526  1.00  0.00    -0.274 C  
ENDROOT
BRANCH   8   9
HETATM    9  O   UNL     1      -9.193  16.066  67.654  1.00  0.00    -0.203 OA 
BRANCH   9  10
HETATM   10  C   UNL     1      -9.070  14.857  68.256  1.00  0.00    -0.179 C  
HETATM   11  O   UNL     1      -8.013  14.318  68.535  1.00  0.00    -0.135 OA 
HETATM   12  N   UNL     1     -10.316  14.321  68.405  1.00  0.00    -0.241 N  
HETATM   13  H   UNL     1     -11.124  14.917  68.225  1.00  0.00     0.000 HD 
BRANCH  12  14
HETATM   14  C   UNL     1     -10.556  12.928  68.813  1.00  0.00    -0.190 C  
BRANCH  14  15
HETATM   15  C   UNL     1     -11.931  12.769  69.539  1.00  0.00    -0.338 C  
BRANCH  15  16
HETATM   16  C   UNL     1     -12.202  13.725  70.690  1.00  0.00    -0.434 A  
HETATM   17  C   UNL     1     -13.336  13.565  71.496  1.00  0.00    -0.363 A  
HETATM   18  C   UNL     1     -11.346  14.808  70.946  1.00  0.00    -0.206 A  
HETATM   19  C   UNL     1     -13.610  14.467  72.528  1.00  0.00    -0.586 A  
HETATM   20  C   UNL     1     -12.748  15.534  72.774  1.00  0.00    -0.532 A  
HETATM   21  C   UNL     1     -11.611  15.701  71.988  1.00  0.00    -0.540 A  
ENDBRANCH  15  16
ENDBRANCH  14  15
BRANCH  14  22
HETATM   22  C   UNL     1     -10.439  11.900  67.647  1.00  0.00    -0.208 C  
HETATM   23  O   UNL     1     -11.665  11.173  67.484  1.00  0.00    -0.574 OA 
HETATM   24  H   UNL     1     -11.594  10.547  66.773  1.00  0.00     0.000 HD 
BRANCH  22  25
HETATM   25  C   UNL     1      -9.227  10.946  67.643  1.00  0.00    -0.152 C  
BRANCH  25  26
HETATM   26  N   UNL     1      -9.361   9.564  67.012  1.00  0.00    -0.144 N  
BRANCH  26  27
HETATM   27  C   UNL     1      -8.151   9.241  66.136  1.00  0.00    -0.110 C  
HETATM   28  C   UNL     1      -8.379   8.720  64.700  1.00  0.00    -0.175 C  
HETATM   29  C   UNL     1      -9.102   9.706  63.786  1.00  0.00    -0.220 C  
HETATM   30  C   UNL     1      -7.015   8.405  64.056  1.00  0.00    -0.075 C  
ENDBRANCH  26  27
BRANCH  26  31
HETATM   31  S   UNL     1      -9.592   8.367  68.286  1.00  0.00    -0.147 S  
HETATM   32  O   UNL     1      -8.504   8.473  69.227  1.00  0.00    -0.124 OA 
HETATM   33  O   UNL     1     -10.976   8.485  68.709  1.00  0.00    -0.023 OA 
BRANCH  31  34
HETATM   34  C   UNL     1      -9.421   6.787  67.457  1.00  0.00    -0.127 A  
HETATM   35  C   UNL     1     -10.405   4.922  66.276  1.00  0.00    -0.336 A  
HETATM   36  C   UNL     1     -10.532   6.191  66.862  1.00  0.00    -0.340 A  
HETATM   37  C   UNL     1      -9.193   4.223  66.316  1.00  0.00    -0.146 A  
HETATM   38  N   UNL     1      -9.051   3.010  65.640  1.00  0.00    -0.149 NA 
HETATM   39  C   UNL     1      -8.073   4.871  66.841  1.00  0.00    -0.107 A  
HETATM   40  H1  UNL     1      -8.167   2.501  65.670  1.00  0.00     0.000 HD 
HETATM   41  C   UNL     1      -8.181   6.141  67.424  1.00  0.00    -0.109 A  
HETATM   42  H2  UNL     1      -9.301   3.158  64.662  1.00  0.00     0.000 HD 
ENDBRANCH  31  34
ENDBRANCH  26  31
ENDBRANCH  25  26
ENDBRANCH  22  25
ENDBRANCH  14  22
ENDBRANCH  12  14
ENDBRANCH   9  10
ENDBRANCH   8   9
TORSDOF 11
ENDMDL
MODEL      160
REMARK 921   NORMALIZED FREE ENERGY PREDICTED BY IDOCK:   -5.35 KCAL/MOL
REMARK 922        TOTAL FREE ENERGY PREDICTED BY IDOCK:  -11.42 KCAL/MOL
REMARK 923 INTER-LIGAND FREE ENERGY PREDICTED BY IDOCK:   -9.90 KCAL/MOL
REMARK 924 INTRA-LIGAND FREE ENERGY PREDICTED BY IDOCK:   -1.51 KCAL/MOL
REMARK 927      BINDING AFFINITY PREDICTED BY RF-SCORE:    0.00 PKD
ROOT
HETATM    1  C   UNL     1     -10.725  17.934  67.631  1.00  0.00    -0.343 C  
HETATM    2  C   UNL     1     -10.651  18.194  66.138  1.00  0.00    -0.289 C  
HETATM    3  C   UNL     1     -10.552  19.702  66.013  1.00  0.00    -0.483 C  
HETATM    4  O   UNL     1     -10.466  20.253  67.327  1.00  0.00    -0.346 OA 
HETATM    5  C   UNL     1     -10.163  19.200  68.230  1.00  0.00    -0.401 C  
HETATM    6  O   UNL     1      -8.756  18.994  68.343  1.00  0.00    -0.321 OA 
HETATM    7  C   UNL     1      -8.545  17.595  68.563  1.00  0.00    -0.285 C  
HETATM    8  C   UNL     1      -9.824  16.846  68.188  1.00  0.00    -0.264 C  
ENDROOT
BRANCH   8   9
HETATM    9  O   UNL     1      -9.503  15.852  67.202  1.00  0.00    -0.209 OA 
BRANCH   9  10
HETATM   10  C   UNL     1      -9.302  14.593  67.663  1.00  0.00    -0.200 C  
HETATM   11  O   UNL     1      -8.365  14.243  68.360  1.00  0.00    -0.152 OA 
HETATM   12  N   UNL     1     -10.268  13.783  67.139  1.00  0.00    -0.242 N  
HETATM   13  H   UNL     1     -11.052  14.218  66.654  1.00  0.00     0.000 HD 
BRANCH  12  14
HETATM   14  C   UNL     1     -10.236  12.315  67.238  1.00  0.00    -0.210 C  
BRANCH  14  15
HETATM   15  C   UNL     1      -8.961  11.719  66.558  1.00  0.00    -0.196 C  
BRANCH  15  16
HETATM   16  C   UNL     1      -9.140  11.171  65.151  1.00  0.00    -0.161 A  
HETATM   17  C   UNL     1      -8.469  10.009  64.750  1.00  0.00    -0.180 A  
HETATM   18  C   UNL     1      -9.948  11.833  64.214  1.00  0.00    -0.287 A  
HETATM   19  C   UNL     1      -8.598   9.525  63.445  1.00  0.00    -0.215 A  
HETATM   20  C   UNL     1      -9.409  10.190  62.528  1.00  0.00    -0.313 A  
HETATM   21  C   UNL     1     -10.091  11.341  62.914  1.00  0.00    -0.243 A  
ENDBRANCH  15  16
ENDBRANCH  14  15
BRANCH  14  22
HETATM   22  C   UNL     1     -10.372  11.778  68.695  1.00  0.00    -0.214 C  
HETATM   23  O   UNL     1      -9.084  11.662  69.317  1.00  0.00    -0.359 OA 
HETATM   24  H   UNL     1      -9.166  11.335  70.205  1.00  0.00     0.000 HD 
BRANCH  22  25
HETATM   25  C   UNL     1     -11.209  10.503  68.921  1.00  0.00    -0.266 C  
BRANCH  25  26
HETATM   26  N   UNL     1     -10.983   9.667  70.176  1.00  0.00    -0.258 N  
BRANCH  26  27
HETATM   27  C   UNL     1     -12.306   9.134  70.726  1.00  0.00    -0.053 C  
HETATM   28  C   UNL     1     -12.854   9.704  72.051  1.00  0.00    -0.497 C  
HETATM   29  C   UNL     1     -13.180  11.195  72.002  1.00  0.00    -0.428 C  
HETATM   30  C   UNL     1     -14.151   8.959  72.423  1.00  0.00    -0.493 C  
ENDBRANCH  26  27
BRANCH  26  31
HETATM   31  S   UNL     1      -9.848   8.368  69.809  1.00  0.00    -0.190 S  
HETATM   32  O   UNL     1     -10.345   7.622  68.680  1.00  0.00    -0.197 OA 
HETATM   33  O   UNL     1      -8.528   8.973  69.798  1.00  0.00    -0.118 OA 
BRANCH  31  34
HETATM   34  C   UNL     1      -9.927   7.285  71.234  1.00  0.00    -0.188 A  
HETATM   35  C   UNL     1      -9.401   6.822  73.548  1.00  0.00    -0.179 A  
HETATM   36  C   UNL     1      -9.398   7.703  72.455  1.00  0.00    -0.215 A  
HETATM   37  C   UNL     1      -9.885   5.514  73.424  1.00  0.00    -0.162 A  
HETATM   38  N   UNL     1      -9.979   4.684  74.541  1.00  0.00    -0.183 NA 
HETATM   39  C   UNL     1     -10.486   5.143  72.219  1.00  0.00    -0.277 A  
HETATM   40  H1  UNL     1     -10.331   3.731  74.451  1.00  0.00     0.000 HD 
HETATM   41  C   UNL     1     -10.498   6.013  71.120  1.00  0.00    -0.284 A  
HETATM   42  H2  UNL     1     -10.534   5.163  75.250  1.00  0.00     0.000 HD 
ENDBRANCH  31  34
ENDBRANCH  26  31
ENDBRANCH  25  26
ENDBRANCH  22  25
ENDBRANCH  14  22
ENDBRANCH  12  14
ENDBRANCH   9  10
ENDBRANCH   8   9
TORSDOF 11
ENDMDL
MODEL      161
REMARK 921   NORMALIZED FREE ENERGY PREDICTED BY IDOCK:   -5.35 KCAL/MOL
REMARK 922        TOTAL FREE ENERGY PREDICTED BY IDOCK:  -11.40 KCAL/MOL
REMARK 923 INTER-LIGAND FREE ENERGY PREDICTED BY IDOCK:  -10.02 KCAL/MOL
REMARK 924 INTRA-LIGAND FREE ENERGY PREDICTED BY IDOCK:   -1.38 KCAL/MOL
REMARK 927      BINDING AFFINITY PREDICTED BY RF-SCORE:    0.00 PKD
ROOT
HETATM    1  C   UNL     1      -8.606  17.758  67.476  1.00  0.00    -0.228 C  
HETATM    2  C   UNL     1      -8.514  18.806  68.570  1.00  0.00    -0.379 C  
HETATM    3  C   UNL     1      -7.640  19.899  67.984  1.00  0.00    -0.297 C  
HETATM    4  O   UNL     1      -7.347  19.557  66.630  1.00  0.00    -0.225 OA 
HETATM    5  C   UNL     1      -8.237  18.525  66.230  1.00  0.00    -0.225 C  
HETATM    6  O   UNL     1      -9.458  19.055  65.716  1.00  0.00    -0.399 OA 
HETATM    7  C   UNL     1     -10.502  18.139  66.064  1.00  0.00    -0.335 C  
HETATM    8  C   UNL     1      -9.985  17.207  67.160  1.00  0.00    -0.283 C  
ENDROOT
BRANCH   8   9
HETATM    9  O   UNL     1     -10.871  17.289  68.288  1.00  0.00    -0.365 OA 
BRANCH   9  10
HETATM   10  C   UNL     1     -11.111  16.130  68.948  1.00  0.00    -0.347 C  
HETATM   11  O   UNL     1     -11.300  16.033  70.149  1.00  0.00    -0.328 OA 
HETATM   12  N   UNL     1     -11.012  15.099  68.060  1.00  0.00    -0.284 N  
HETATM   13  H   UNL     1     -10.951  15.321  67.066  1.00  0.00     0.000 HD 
BRANCH  12  14
HETATM   14  C   UNL     1     -10.987  13.683  68.460  1.00  0.00    -0.267 C  
BRANCH  14  15
HETATM   15  C   UNL     1     -12.071  12.851  67.699  1.00  0.00    -0.239 C  
BRANCH  15  16
HETATM   16  C   UNL     1     -12.026  12.912  66.181  1.00  0.00    -0.491 A  
HETATM   17  C   UNL     1     -11.324  11.943  65.451  1.00  0.00    -0.334 A  
HETATM   18  C   UNL     1     -12.651  13.955  65.480  1.00  0.00    -0.560 A  
HETATM   19  C   UNL     1     -11.245  12.020  64.058  1.00  0.00    -0.468 A  
HETATM   20  C   UNL     1     -11.877  13.058  63.375  1.00  0.00    -0.543 A  
HETATM   21  C   UNL     1     -12.586  14.022  64.086  1.00  0.00    -0.127 A  
ENDBRANCH  15  16
ENDBRANCH  14  15
BRANCH  14  22
HETATM   22  C   UNL     1      -9.589  13.010  68.313  1.00  0.00    -0.213 C  
HETATM   23  O   UNL     1      -8.867  13.571  67.207  1.00  0.00    -0.204 OA 
HETATM   24  H   UNL     1      -8.015  13.162  67.118  1.00  0.00     0.000 HD 
BRANCH  22  25
HETATM   25  C   UNL     1      -9.527  11.470  68.286  1.00  0.00    -0.189 C  
BRANCH  25  26
HETATM   26  N   UNL     1      -9.158  10.709  69.556  1.00  0.00    -0.049 N  
BRANCH  26  27
HETATM   27  C   UNL     1     -10.193   9.630  69.870  1.00  0.00    -0.245 C  
HETATM   28  C   UNL     1     -11.165   9.839  71.052  1.00  0.00    -0.451 C  
HETATM   29  C   UNL     1     -12.090  11.043  70.893  1.00  0.00    -0.444 C  
HETATM   30  C   UNL     1     -12.052   8.589  71.202  1.00  0.00    -0.283 C  
ENDBRANCH  26  27
BRANCH  26  31
HETATM   31  S   UNL     1      -7.537  10.039  69.378  1.00  0.00    -0.139 S  
HETATM   32  O   UNL     1      -7.030  10.387  68.074  1.00  0.00    -0.076 OA 
HETATM   33  O   UNL     1      -6.818  10.388  70.590  1.00  0.00    -0.328 OA 
BRANCH  31  34
HETATM   34  C   UNL     1      -7.779   8.264  69.394  1.00  0.00    -0.102 A  
HETATM   35  C   UNL     1      -7.903   6.175  70.605  1.00  0.00    -0.106 A  
HETATM   36  C   UNL     1      -7.783   7.574  70.606  1.00  0.00    -0.090 A  
HETATM   37  C   UNL     1      -7.975   5.454  69.408  1.00  0.00    -0.089 A  
HETATM   38  N   UNL     1      -8.199   4.077  69.421  1.00  0.00    -0.058 NA 
HETATM   39  C   UNL     1      -8.054   6.168  68.210  1.00  0.00    -0.111 A  
HETATM   40  H1  UNL     1      -8.251   3.552  68.548  1.00  0.00     0.000 HD 
HETATM   41  C   UNL     1      -7.943   7.565  68.193  1.00  0.00    -0.123 A  
HETATM   42  H2  UNL     1      -9.050   3.897  69.953  1.00  0.00     0.000 HD 
ENDBRANCH  31  34
ENDBRANCH  26  31
ENDBRANCH  25  26
ENDBRANCH  22  25
ENDBRANCH  14  22
ENDBRANCH  12  14
ENDBRANCH   9  10
ENDBRANCH   8   9
TORSDOF 11
ENDMDL
MODEL      162
REMARK 921   NORMALIZED FREE ENERGY PREDICTED BY IDOCK:   -5.34 KCAL/MOL
REMARK 922        TOTAL FREE ENERGY PREDICTED BY IDOCK:  -11.40 KCAL/MOL
REMARK 923 INTER-LIGAND FREE ENERGY PREDICTED BY IDOCK:  -10.32 KCAL/MOL
REMARK 924 INTRA-LIGAND FREE ENERGY PREDICTED BY IDOCK:   -1.08 KCAL/MOL
REMARK 927      BINDING AFFINITY PREDICTED BY RF-SCORE:    0.00 PKD
ROOT
HETATM    1  C   UNL     1      -9.007   6.764  73.261  1.00  0.00    -0.142 C  
HETATM    2  C   UNL     1      -9.035   5.504  72.416  1.00  0.00    -0.137 C  
HETATM    3  C   UNL     1     -10.043   4.602  73.102  1.00  0.00    -0.158 C  
HETATM    4  O   UNL     1     -10.625   5.326  74.184  1.00  0.00    -0.278 OA 
HETATM    5  C   UNL     1     -10.312   6.701  74.018  1.00  0.00    -0.351 C  
HETATM    6  O   UNL     1     -11.275   7.365  73.200  1.00  0.00    -0.335 OA 
HETATM    7  C   UNL     1     -10.585   8.379  72.464  1.00  0.00    -0.298 C  
HETATM    8  C   UNL     1      -9.085   8.090  72.527  1.00  0.00    -0.209 C  
ENDROOT
BRANCH   8   9
HETATM    9  O   UNL     1      -8.578   7.997  71.186  1.00  0.00    -0.122 OA 
BRANCH   9  10
HETATM   10  C   UNL     1      -8.581   9.143  70.462  1.00  0.00    -0.219 C  
HETATM   11  O   UNL     1      -7.832  10.087  70.643  1.00  0.00    -0.236 OA 
HETATM   12  N   UNL     1      -9.615   9.089  69.573  1.00  0.00    -0.162 N  
HETATM   13  H   UNL     1     -10.103   8.202  69.452  1.00  0.00     0.000 HD 
BRANCH  12  14
HETATM   14  C   UNL     1     -10.063  10.245  68.780  1.00  0.00    -0.187 C  
BRANCH  14  15
HETATM   15  C   UNL     1     -10.387   9.840  67.305  1.00  0.00    -0.308 C  
BRANCH  15  16
HETATM   16  C   UNL     1      -9.236   9.921  66.315  1.00  0.00    -0.208 A  
HETATM   17  C   UNL     1      -8.048  10.579  66.657  1.00  0.00    -0.127 A  
HETATM   18  C   UNL     1      -9.351   9.374  65.027  1.00  0.00    -0.258 A  
HETATM   19  C   UNL     1      -7.005  10.693  65.734  1.00  0.00    -0.094 A  
HETATM   20  C   UNL     1      -7.130  10.138  64.461  1.00  0.00    -0.119 A  
HETATM   21  C   UNL     1      -8.301   9.472  64.110  1.00  0.00    -0.174 A  
ENDBRANCH  15  16
ENDBRANCH  14  15
BRANCH  14  22
HETATM   22  C   UNL     1     -11.268  11.011  69.406  1.00  0.00    -0.268 C  
HETATM   23  O   UNL     1     -12.502  10.603  68.799  1.00  0.00    -0.795 OA 
HETATM   24  H   UNL     1     -13.236  11.069  69.181  1.00  0.00     0.000 HD 
BRANCH  22  25
HETATM   25  C   UNL     1     -11.179  12.548  69.496  1.00  0.00    -0.093 C  
BRANCH  25  26
HETATM   26  N   UNL     1     -10.781  13.352  68.262  1.00  0.00    -0.250 N  
BRANCH  26  27
HETATM   27  C   UNL     1     -11.890  13.327  67.210  1.00  0.00    -0.372 C  
HETATM   28  C   UNL     1     -11.561  13.742  65.760  1.00  0.00    -0.342 C  
HETATM   29  C   UNL     1     -10.535  12.845  65.071  1.00  0.00    -0.337 C  
HETATM   30  C   UNL     1     -12.851  13.701  64.919  1.00  0.00    -0.256 C  
ENDBRANCH  26  27
BRANCH  26  31
HETATM   31  S   UNL     1     -10.370  14.995  68.750  1.00  0.00    -0.247 S  
HETATM   32  O   UNL     1      -9.020  15.005  69.259  1.00  0.00    -0.206 OA 
HETATM   33  O   UNL     1     -10.774  15.858  67.655  1.00  0.00    -0.301 OA 
BRANCH  31  34
HETATM   34  C   UNL     1     -11.458  15.341  70.131  1.00  0.00    -0.292 A  
HETATM   35  C   UNL     1     -11.776  15.963  72.446  1.00  0.00    -0.582 A  
HETATM   36  C   UNL     1     -10.924  15.762  71.349  1.00  0.00    -0.082 A  
HETATM   37  C   UNL     1     -13.149  15.705  72.354  1.00  0.00    -0.460 A  
HETATM   38  N   UNL     1     -14.000  16.007  73.417  1.00  0.00    -0.701 NA 
HETATM   39  C   UNL     1     -13.676  15.366  71.105  1.00  0.00    -0.497 A  
HETATM   40  H1  UNL     1     -15.001  15.820  73.350  1.00  0.00     0.000 HD 
HETATM   41  C   UNL     1     -12.839  15.168  69.998  1.00  0.00    -0.121 A  
HETATM   42  H2  UNL     1     -13.876  16.991  73.656  1.00  0.00     0.000 HD 
ENDBRANCH  31  34
ENDBRANCH  26  31
ENDBRANCH  25  26
ENDBRANCH  22  25
ENDBRANCH  14  22
ENDBRANCH  12  14
ENDBRANCH   9  10
ENDBRANCH   8   9
TORSDOF 11
ENDMDL
MODEL      163
REMARK 921   NORMALIZED FREE ENERGY PREDICTED BY IDOCK:   -5.33 KCAL/MOL
REMARK 922        TOTAL FREE ENERGY PREDICTED BY IDOCK:  -11.38 KCAL/MOL
REMARK 923 INTER-LIGAND FREE ENERGY PREDICTED BY IDOCK:   -9.56 KCAL/MOL
REMARK 924 INTRA-LIGAND FREE ENERGY PREDICTED BY IDOCK:   -1.82 KCAL/MOL
REMARK 927      BINDING AFFINITY PREDICTED BY RF-SCORE:    0.00 PKD
ROOT
HETATM    1  C   UNL     1     -10.250  18.676  68.301  1.00  0.00    -0.423 C  
HETATM    2  C   UNL     1     -10.605  19.034  66.869  1.00  0.00    -0.518 C  
HETATM    3  C   UNL     1      -9.606  20.107  66.480  1.00  0.00    -0.404 C  
HETATM    4  O   UNL     1      -8.687  20.272  67.560  1.00  0.00    -0.335 OA 
HETATM    5  C   UNL     1      -8.828  19.163  68.436  1.00  0.00    -0.347 C  
HETATM    6  O   UNL     1      -7.997  18.073  68.041  1.00  0.00    -0.241 OA 
HETATM    7  C   UNL     1      -8.686  16.865  68.383  1.00  0.00    -0.244 C  
HETATM    8  C   UNL     1     -10.155  17.200  68.642  1.00  0.00    -0.329 C  
ENDROOT
BRANCH   8   9
HETATM    9  O   UNL     1     -10.970  16.392  67.777  1.00  0.00    -0.325 OA 
BRANCH   9  10
HETATM   10  C   UNL     1     -10.334  15.395  67.113  1.00  0.00    -0.271 C  
HETATM   11  O   UNL     1      -9.844  15.497  66.001  1.00  0.00    -0.284 OA 
HETATM   12  N   UNL     1     -10.423  14.255  67.857  1.00  0.00    -0.238 N  
HETATM   13  H   UNL     1     -10.769  14.328  68.814  1.00  0.00     0.000 HD 
BRANCH  12  14
HETATM   14  C   UNL     1     -10.046  12.926  67.352  1.00  0.00    -0.223 C  
BRANCH  14  15
HETATM   15  C   UNL     1      -8.818  12.344  68.124  1.00  0.00    -0.191 C  
BRANCH  15  16
HETATM   16  C   UNL     1      -7.827  11.533  67.304  1.00  0.00    -0.153 A  
HETATM   17  C   UNL     1      -8.192  11.017  66.054  1.00  0.00    -0.129 A  
HETATM   18  C   UNL     1      -6.542  11.251  67.795  1.00  0.00    -0.068 A  
HETATM   19  C   UNL     1      -7.299  10.235  65.317  1.00  0.00    -0.139 A  
HETATM   20  C   UNL     1      -6.024   9.969  65.814  1.00  0.00    -0.077 A  
HETATM   21  C   UNL     1      -5.642  10.484  67.050  1.00  0.00    -0.043 A  
ENDBRANCH  15  16
ENDBRANCH  14  15
BRANCH  14  22
HETATM   22  C   UNL     1     -11.217  11.897  67.347  1.00  0.00    -0.305 C  
HETATM   23  O   UNL     1     -12.223  12.275  66.396  1.00  0.00    -0.613 OA 
HETATM   24  H   UNL     1     -12.936  11.648  66.393  1.00  0.00     0.000 HD 
BRANCH  22  25
HETATM   25  C   UNL     1     -11.853  11.520  68.700  1.00  0.00    -0.318 C  
BRANCH  25  26
HETATM   26  N   UNL     1     -11.769  10.079  69.195  1.00  0.00     0.039 N  
BRANCH  26  27
HETATM   27  C   UNL     1     -10.337   9.551  69.108  1.00  0.00    -0.207 C  
HETATM   28  C   UNL     1     -10.067   8.229  68.357  1.00  0.00    -0.227 C  
HETATM   29  C   UNL     1     -10.415   8.273  66.871  1.00  0.00    -0.365 C  
HETATM   30  C   UNL     1      -8.571   7.882  68.473  1.00  0.00    -0.128 C  
ENDBRANCH  26  27
BRANCH  26  31
HETATM   31  S   UNL     1     -12.407   9.993  70.837  1.00  0.00    -0.346 S  
HETATM   32  O   UNL     1     -11.949  11.145  71.574  1.00  0.00    -0.027 OA 
HETATM   33  O   UNL     1     -13.820   9.687  70.708  1.00  0.00    -0.105 OA 
BRANCH  31  34
HETATM   34  C   UNL     1     -11.613   8.556  71.554  1.00  0.00    -0.292 A  
HETATM   35  C   UNL     1      -9.769   7.563  72.761  1.00  0.00    -0.239 A  
HETATM   36  C   UNL     1     -10.421   8.702  72.263  1.00  0.00    -0.376 A  
HETATM   37  C   UNL     1     -10.269   6.278  72.522  1.00  0.00    -0.184 A  
HETATM   38  N   UNL     1      -9.671   5.163  73.109  1.00  0.00    -0.147 NA 
HETATM   39  C   UNL     1     -11.506   6.158  71.884  1.00  0.00    -0.355 A  
HETATM   40  H1  UNL     1     -10.036   4.226  72.934  1.00  0.00     0.000 HD 
HETATM   41  C   UNL     1     -12.174   7.286  71.386  1.00  0.00    -0.384 A  
HETATM   42  H2  UNL     1      -9.642   5.310  74.118  1.00  0.00     0.000 HD 
ENDBRANCH  31  34
ENDBRANCH  26  31
ENDBRANCH  25  26
ENDBRANCH  22  25
ENDBRANCH  14  22
ENDBRANCH  12  14
ENDBRANCH   9  10
ENDBRANCH   8   9
TORSDOF 11
ENDMDL
MODEL      164
REMARK 921   NORMALIZED FREE ENERGY PREDICTED BY IDOCK:   -5.33 KCAL/MOL
REMARK 922        TOTAL FREE ENERGY PREDICTED BY IDOCK:  -11.37 KCAL/MOL
REMARK 923 INTER-LIGAND FREE ENERGY PREDICTED BY IDOCK:  -10.49 KCAL/MOL
REMARK 924 INTRA-LIGAND FREE ENERGY PREDICTED BY IDOCK:   -0.89 KCAL/MOL
REMARK 927      BINDING AFFINITY PREDICTED BY RF-SCORE:    0.00 PKD
ROOT
HETATM    1  C   UNL     1     -11.419  11.629  65.076  1.00  0.00    -0.189 C  
HETATM    2  C   UNL     1     -10.357  10.601  64.733  1.00  0.00    -0.353 C  
HETATM    3  C   UNL     1      -9.513  11.262  63.659  1.00  0.00    -0.228 C  
HETATM    4  O   UNL     1      -9.985  12.596  63.480  1.00  0.00    -0.359 OA 
HETATM    5  C   UNL     1     -10.821  12.923  64.582  1.00  0.00    -0.342 C  
HETATM    6  O   UNL     1     -10.068  13.453  65.672  1.00  0.00    -0.289 OA 
HETATM    7  C   UNL     1     -10.716  13.038  66.880  1.00  0.00    -0.262 C  
HETATM    8  C   UNL     1     -11.675  11.894  66.548  1.00  0.00    -0.170 C  
ENDROOT
BRANCH   8   9
HETATM    9  O   UNL     1     -11.340  10.762  67.368  1.00  0.00    -0.416 OA 
BRANCH   9  10
HETATM   10  C   UNL     1     -11.116  11.018  68.681  1.00  0.00    -0.240 C  
HETATM   11  O   UNL     1     -10.024  11.247  69.173  1.00  0.00    -0.154 OA 
HETATM   12  N   UNL     1     -12.294  10.881  69.355  1.00  0.00    -0.469 N  
HETATM   13  H   UNL     1     -13.153  10.788  68.813  1.00  0.00     0.000 HD 
BRANCH  12  14
HETATM   14  C   UNL     1     -12.391  10.861  70.823  1.00  0.00    -0.390 C  
BRANCH  14  15
HETATM   15  C   UNL     1     -13.488  11.847  71.340  1.00  0.00     0.206 C  
BRANCH  15  16
HETATM   16  C   UNL     1     -13.041  13.275  71.608  1.00  0.00    -0.453 A  
HETATM   17  C   UNL     1     -13.711  14.066  72.550  1.00  0.00    -0.651 A  
HETATM   18  C   UNL     1     -11.976  13.845  70.892  1.00  0.00    -0.310 A  
HETATM   19  C   UNL     1     -13.329  15.393  72.767  1.00  0.00    -0.617 A  
HETATM   20  C   UNL     1     -12.265  15.943  72.055  1.00  0.00    -0.570 A  
HETATM   21  C   UNL     1     -11.582  15.166  71.122  1.00  0.00    -0.405 A  
ENDBRANCH  15  16
ENDBRANCH  14  15
BRANCH  14  22
HETATM   22  C   UNL     1     -12.617   9.440  71.421  1.00  0.00    -0.348 C  
HETATM   23  O   UNL     1     -13.185   9.525  72.736  1.00  0.00    -0.537 OA 
HETATM   24  H   UNL     1     -13.323   8.658  73.100  1.00  0.00     0.000 HD 
BRANCH  22  25
HETATM   25  C   UNL     1     -11.436   8.448  71.394  1.00  0.00    -0.277 C  
BRANCH  25  26
HETATM   26  N   UNL     1     -11.714   6.949  71.334  1.00  0.00    -0.297 N  
BRANCH  26  27
HETATM   27  C   UNL     1     -11.237   6.355  70.009  1.00  0.00    -0.411 C  
HETATM   28  C   UNL     1     -10.567   7.278  68.968  1.00  0.00    -0.214 C  
HETATM   29  C   UNL     1      -9.265   7.915  69.446  1.00  0.00    -0.145 C  
HETATM   30  C   UNL     1     -10.246   6.460  67.703  1.00  0.00    -0.206 C  
ENDBRANCH  26  27
BRANCH  26  31
HETATM   31  S   UNL     1     -10.957   6.166  72.721  1.00  0.00    -0.262 S  
HETATM   32  O   UNL     1     -10.247   7.160  73.487  1.00  0.00    -0.279 OA 
HETATM   33  O   UNL     1     -11.980   5.330  73.324  1.00  0.00    -0.071 OA 
BRANCH  31  34
HETATM   34  C   UNL     1      -9.729   5.074  72.006  1.00  0.00    -0.164 A  
HETATM   35  C   UNL     1      -7.445   4.630  71.349  1.00  0.00    -0.076 A  
HETATM   36  C   UNL     1      -8.389   5.460  71.974  1.00  0.00    -0.122 A  
HETATM   37  C   UNL     1      -7.830   3.441  70.719  1.00  0.00    -0.050 A  
HETATM   38  N   UNL     1      -6.870   2.574  70.194  1.00  0.00    -0.033 NA 
HETATM   39  C   UNL     1      -9.160   3.030  70.835  1.00  0.00    -0.184 A  
HETATM   40  H1  UNL     1      -7.150   1.708  69.734  1.00  0.00     0.000 HD 
HETATM   41  C   UNL     1     -10.114   3.844  71.461  1.00  0.00    -0.148 A  
HETATM   42  H2  UNL     1      -6.209   2.342  70.935  1.00  0.00     0.000 HD 
ENDBRANCH  31  34
ENDBRANCH  26  31
ENDBRANCH  25  26
ENDBRANCH  22  25
ENDBRANCH  14  22
ENDBRANCH  12  14
ENDBRANCH   9  10
ENDBRANCH   8   9
TORSDOF 11
ENDMDL
MODEL      165
REMARK 921   NORMALIZED FREE ENERGY PREDICTED BY IDOCK:   -5.32 KCAL/MOL
REMARK 922        TOTAL FREE ENERGY PREDICTED BY IDOCK:  -11.36 KCAL/MOL
REMARK 923 INTER-LIGAND FREE ENERGY PREDICTED BY IDOCK:   -9.64 KCAL/MOL
REMARK 924 INTRA-LIGAND FREE ENERGY PREDICTED BY IDOCK:   -1.72 KCAL/MOL
REMARK 927      BINDING AFFINITY PREDICTED BY RF-SCORE:    0.00 PKD
ROOT
HETATM    1  C   UNL     1      -8.919   5.583  71.339  1.00  0.00    -0.150 C  
HETATM    2  C   UNL     1      -7.640   4.766  71.292  1.00  0.00    -0.081 C  
HETATM    3  C   UNL     1      -8.080   3.344  71.586  1.00  0.00    -0.061 C  
HETATM    4  O   UNL     1      -9.503   3.330  71.684  1.00  0.00    -0.126 OA 
HETATM    5  C   UNL     1      -9.998   4.546  71.144  1.00  0.00    -0.187 C  
HETATM    6  O   UNL     1     -10.204   4.450  69.735  1.00  0.00    -0.151 OA 
HETATM    7  C   UNL     1      -9.931   5.738  69.174  1.00  0.00    -0.177 C  
HETATM    8  C   UNL     1      -9.156   6.562  70.203  1.00  0.00    -0.155 C  
ENDROOT
BRANCH   8   9
HETATM    9  O   UNL     1      -7.926   7.005  69.605  1.00  0.00    -0.119 OA 
BRANCH   9  10
HETATM   10  C   UNL     1      -8.030   7.603  68.393  1.00  0.00    -0.123 C  
HETATM   11  O   UNL     1      -7.571   7.163  67.353  1.00  0.00    -0.104 OA 
HETATM   12  N   UNL     1      -8.646   8.809  68.559  1.00  0.00    -0.133 N  
HETATM   13  H   UNL     1      -9.073   9.014  69.462  1.00  0.00     0.000 HD 
BRANCH  12  14
HETATM   14  C   UNL     1      -8.727   9.830  67.502  1.00  0.00    -0.125 C  
BRANCH  14  15
HETATM   15  C   UNL     1      -9.782   9.449  66.413  1.00  0.00    -0.315 C  
BRANCH  15  16
HETATM   16  C   UNL     1      -9.422   9.791  64.976  1.00  0.00    -0.337 A  
HETATM   17  C   UNL     1      -8.399   9.100  64.315  1.00  0.00    -0.178 A  
HETATM   18  C   UNL     1     -10.079  10.827  64.294  1.00  0.00    -0.427 A  
HETATM   19  C   UNL     1      -8.037   9.440  63.009  1.00  0.00    -0.151 A  
HETATM   20  C   UNL     1      -8.702  10.467  62.342  1.00  0.00    -0.262 A  
HETATM   21  C   UNL     1      -9.729  11.156  62.981  1.00  0.00    -0.384 A  
ENDBRANCH  15  16
ENDBRANCH  14  15
BRANCH  14  22
HETATM   22  C   UNL     1      -8.998  11.270  68.036  1.00  0.00    -0.156 C  
HETATM   23  O   UNL     1      -7.778  12.019  68.121  1.00  0.00    -0.117 OA 
HETATM   24  H   UNL     1      -7.943  12.897  68.446  1.00  0.00     0.000 HD 
BRANCH  22  25
HETATM   25  C   UNL     1      -9.827  11.418  69.327  1.00  0.00     0.165 C  
BRANCH  25  26
HETATM   26  N   UNL     1     -11.271  11.901  69.243  1.00  0.00    -0.251 N  
BRANCH  26  27
HETATM   27  C   UNL     1     -12.032  11.585  70.531  1.00  0.00    -0.344 C  
HETATM   28  C   UNL     1     -12.634  10.176  70.722  1.00  0.00    -0.406 C  
HETATM   29  C   UNL     1     -11.599   9.054  70.754  1.00  0.00    -0.313 C  
HETATM   30  C   UNL     1     -13.404  10.134  72.056  1.00  0.00    -0.492 C  
ENDBRANCH  26  27
BRANCH  26  31
HETATM   31  S   UNL     1     -11.284  13.625  68.875  1.00  0.00    -0.282 S  
HETATM   32  O   UNL     1     -12.406  14.236  69.543  1.00  0.00    -0.318 OA 
HETATM   33  O   UNL     1      -9.927  14.096  69.086  1.00  0.00    -0.121 OA 
BRANCH  31  34
HETATM   34  C   UNL     1     -11.608  13.707  67.114  1.00  0.00    -0.361 A  
HETATM   35  C   UNL     1     -11.651  14.957  65.045  1.00  0.00    -0.357 A  
HETATM   36  C   UNL     1     -11.329  14.878  66.409  1.00  0.00    -0.308 A  
HETATM   37  C   UNL     1     -12.288  13.899  64.388  1.00  0.00    -0.361 A  
HETATM   38  N   UNL     1     -12.508  13.948  63.011  1.00  0.00    -1.009 NA 
HETATM   39  C   UNL     1     -12.481  12.705  65.088  1.00  0.00    -0.531 A  
HETATM   40  H1  UNL     1     -12.972  13.177  62.532  1.00  0.00     0.000 HD 
HETATM   41  C   UNL     1     -12.159  12.607  66.449  1.00  0.00    -0.330 A  
HETATM   42  H2  UNL     1     -11.613  14.118  62.551  1.00  0.00     0.000 HD 
ENDBRANCH  31  34
ENDBRANCH  26  31
ENDBRANCH  25  26
ENDBRANCH  22  25
ENDBRANCH  14  22
ENDBRANCH  12  14
ENDBRANCH   9  10
ENDBRANCH   8   9
TORSDOF 11
ENDMDL
MODEL      166
REMARK 921   NORMALIZED FREE ENERGY PREDICTED BY IDOCK:   -5.31 KCAL/MOL
REMARK 922        TOTAL FREE ENERGY PREDICTED BY IDOCK:  -11.35 KCAL/MOL
REMARK 923 INTER-LIGAND FREE ENERGY PREDICTED BY IDOCK:   -9.55 KCAL/MOL
REMARK 924 INTRA-LIGAND FREE ENERGY PREDICTED BY IDOCK:   -1.80 KCAL/MOL
REMARK 927      BINDING AFFINITY PREDICTED BY RF-SCORE:    0.00 PKD
ROOT
HETATM    1  C   UNL     1     -11.501   7.548  70.649  1.00  0.00    -0.291 C  
HETATM    2  C   UNL     1     -12.885   8.142  70.835  1.00  0.00     0.130 C  
HETATM    3  C   UNL     1     -13.620   7.142  71.707  1.00  0.00    -0.263 C  
HETATM    4  O   UNL     1     -12.701   6.117  72.081  1.00  0.00    -0.158 OA 
HETATM    5  C   UNL     1     -11.387   6.573  71.796  1.00  0.00    -0.281 C  
HETATM    6  O   UNL     1     -10.838   7.310  72.888  1.00  0.00    -0.278 OA 
HETATM    7  C   UNL     1      -9.990   8.322  72.338  1.00  0.00    -0.309 C  
HETATM    8  C   UNL     1     -10.318   8.477  70.853  1.00  0.00    -0.199 C  
ENDROOT
BRANCH   8   9
HETATM    9  O   UNL     1     -10.657   9.850  70.597  1.00  0.00    -0.296 OA 
BRANCH   9  10
HETATM   10  C   UNL     1     -10.583  10.256  69.306  1.00  0.00    -0.230 C  
HETATM   11  O   UNL     1     -11.506  10.734  68.669  1.00  0.00    -0.273 OA 
HETATM   12  N   UNL     1      -9.342   9.952  68.828  1.00  0.00    -0.151 N  
HETATM   13  H   UNL     1      -8.629   9.648  69.492  1.00  0.00     0.000 HD 
BRANCH  12  14
HETATM   14  C   UNL     1      -8.976  10.042  67.406  1.00  0.00    -0.131 C  
BRANCH  14  15
HETATM   15  C   UNL     1      -9.679   8.931  66.560  1.00  0.00    -0.322 C  
BRANCH  15  16
HETATM   16  C   UNL     1      -9.670   7.528  67.146  1.00  0.00    -0.228 A  
HETATM   17  C   UNL     1     -10.800   6.707  67.043  1.00  0.00    -0.467 A  
HETATM   18  C   UNL     1      -8.548   7.040  67.834  1.00  0.00    -0.126 A  
HETATM   19  C   UNL     1     -10.809   5.433  67.618  1.00  0.00     0.021 A  
HETATM   20  C   UNL     1      -9.685   4.959  68.292  1.00  0.00    -0.204 A  
HETATM   21  C   UNL     1      -8.551   5.759  68.394  1.00  0.00    -0.112 A  
ENDBRANCH  15  16
ENDBRANCH  14  15
BRANCH  14  22
HETATM   22  C   UNL     1      -9.233  11.444  66.775  1.00  0.00    -0.177 C  
HETATM   23  O   UNL     1      -8.653  11.528  65.466  1.00  0.00    -0.392 OA 
HETATM   24  H   UNL     1      -8.810  12.382  65.082  1.00  0.00     0.000 HD 
BRANCH  22  25
HETATM   25  C   UNL     1      -8.880  12.689  67.615  1.00  0.00    -0.184 C  
BRANCH  25  26
HETATM   26  N   UNL     1      -9.584  14.012  67.330  1.00  0.00    -0.222 N  
BRANCH  26  27
HETATM   27  C   UNL     1     -11.052  13.787  66.970  1.00  0.00    -0.302 C  
HETATM   28  C   UNL     1     -11.603  14.373  65.653  1.00  0.00    -0.347 C  
HETATM   29  C   UNL     1     -10.942  13.812  64.396  1.00  0.00    -0.356 C  
HETATM   30  C   UNL     1     -13.110  14.071  65.557  1.00  0.00    -0.217 C  
ENDBRANCH  26  27
BRANCH  26  31
HETATM   31  S   UNL     1      -9.400  15.076  68.724  1.00  0.00    -0.205 S  
HETATM   32  O   UNL     1     -10.551  14.925  69.579  1.00  0.00    -0.246 OA 
HETATM   33  O   UNL     1      -8.053  14.866  69.221  1.00  0.00    -0.172 OA 
BRANCH  31  34
HETATM   34  C   UNL     1      -9.464  16.731  68.039  1.00  0.00    -0.233 A  
HETATM   35  C   UNL     1      -8.716  18.359  66.416  1.00  0.00    -0.263 A  
HETATM   36  C   UNL     1      -8.715  17.043  66.905  1.00  0.00    -0.251 A  
HETATM   37  C   UNL     1      -9.419  19.376  67.073  1.00  0.00    -0.323 A  
HETATM   38  N   UNL     1      -9.497  20.654  66.520  1.00  0.00    -0.649 NA 
HETATM   39  C   UNL     1     -10.229  19.027  68.156  1.00  0.00    -0.472 A  
HETATM   40  H1  UNL     1     -10.010  21.396  66.999  1.00  0.00     0.000 HD 
HETATM   41  C   UNL     1     -10.245  17.716  68.652  1.00  0.00    -0.377 A  
HETATM   42  H2  UNL     1      -9.867  20.571  65.573  1.00  0.00     0.000 HD 
ENDBRANCH  31  34
ENDBRANCH  26  31
ENDBRANCH  25  26
ENDBRANCH  22  25
ENDBRANCH  14  22
ENDBRANCH  12  14
ENDBRANCH   9  10
ENDBRANCH   8   9
TORSDOF 11
ENDMDL
MODEL      167
REMARK 921   NORMALIZED FREE ENERGY PREDICTED BY IDOCK:   -5.30 KCAL/MOL
REMARK 922        TOTAL FREE ENERGY PREDICTED BY IDOCK:  -11.32 KCAL/MOL
REMARK 923 INTER-LIGAND FREE ENERGY PREDICTED BY IDOCK:   -9.54 KCAL/MOL
REMARK 924 INTRA-LIGAND FREE ENERGY PREDICTED BY IDOCK:   -1.78 KCAL/MOL
REMARK 927      BINDING AFFINITY PREDICTED BY RF-SCORE:    0.00 PKD
ROOT
HETATM    1  C   UNL     1      -8.933   3.301  68.148  1.00  0.00    -0.187 C  
HETATM    2  C   UNL     1      -9.183   3.105  69.632  1.00  0.00    -0.221 C  
HETATM    3  C   UNL     1      -7.891   2.517  70.166  1.00  0.00    -0.042 C  
HETATM    4  O   UNL     1      -6.944   2.480  69.100  1.00  0.00    -0.039 OA 
HETATM    5  C   UNL     1      -7.427   3.303  68.049  1.00  0.00    -0.054 C  
HETATM    6  O   UNL     1      -7.022   4.661  68.216  1.00  0.00    -0.054 OA 
HETATM    7  C   UNL     1      -8.068   5.487  67.693  1.00  0.00    -0.101 C  
HETATM    8  C   UNL     1      -9.331   4.638  67.550  1.00  0.00    -0.144 C  
ENDROOT
BRANCH   8   9
HETATM    9  O   UNL     1     -10.392   5.266  68.288  1.00  0.00    -0.167 OA 
BRANCH   9  10
HETATM   10  C   UNL     1     -10.792   6.484  67.845  1.00  0.00    -0.304 C  
HETATM   11  O   UNL     1     -11.220   6.717  66.727  1.00  0.00    -0.333 OA 
HETATM   12  N   UNL     1     -10.546   7.401  68.825  1.00  0.00    -0.293 N  
HETATM   13  H   UNL     1     -10.282   7.062  69.750  1.00  0.00     0.000 HD 
BRANCH  12  14
HETATM   14  C   UNL     1     -10.643   8.854  68.617  1.00  0.00    -0.147 C  
BRANCH  14  15
HETATM   15  C   UNL     1     -10.781   9.622  69.972  1.00  0.00    -0.298 C  
BRANCH  15  16
HETATM   16  C   UNL     1     -10.425   8.843  71.228  1.00  0.00    -0.357 A  
HETATM   17  C   UNL     1     -11.413   8.153  71.942  1.00  0.00    -0.357 A  
HETATM   18  C   UNL     1      -9.110   8.828  71.721  1.00  0.00    -0.305 A  
HETATM   19  C   UNL     1     -11.096   7.471  73.120  1.00  0.00    -0.378 A  
HETATM   20  C   UNL     1      -9.786   7.460  73.594  1.00  0.00    -0.349 A  
HETATM   21  C   UNL     1      -8.790   8.132  72.890  1.00  0.00    -0.307 A  
ENDBRANCH  15  16
ENDBRANCH  14  15
BRANCH  14  22
HETATM   22  C   UNL     1      -9.473   9.450  67.776  1.00  0.00    -0.132 C  
HETATM   23  O   UNL     1      -8.205   9.055  68.316  1.00  0.00    -0.114 OA 
HETATM   24  H   UNL     1      -7.492   9.418  67.803  1.00  0.00     0.000 HD 
BRANCH  22  25
HETATM   25  C   UNL     1      -9.498  10.963  67.475  1.00  0.00    -0.155 C  
BRANCH  25  26
HETATM   26  N   UNL     1      -9.857  11.445  66.073  1.00  0.00    -0.214 N  
BRANCH  26  27
HETATM   27  C   UNL     1      -9.774  10.302  65.061  1.00  0.00    -0.305 C  
HETATM   28  C   UNL     1      -8.570  10.235  64.098  1.00  0.00    -0.198 C  
HETATM   29  C   UNL     1      -7.223  10.057  64.795  1.00  0.00    -0.136 C  
HETATM   30  C   UNL     1      -8.756   9.042  63.141  1.00  0.00    -0.114 C  
ENDBRANCH  26  27
BRANCH  26  31
HETATM   31  S   UNL     1     -11.458  12.183  66.108  1.00  0.00    -0.346 S  
HETATM   32  O   UNL     1     -12.015  12.148  64.778  1.00  0.00    -0.360 OA 
HETATM   33  O   UNL     1     -12.153  11.593  67.238  1.00  0.00    -0.595 OA 
BRANCH  31  34
HETATM   34  C   UNL     1     -11.152  13.903  66.508  1.00  0.00    -0.308 A  
HETATM   35  C   UNL     1     -10.256  16.067  65.912  1.00  0.00    -0.386 A  
HETATM   36  C   UNL     1     -10.555  14.740  65.566  1.00  0.00    -0.374 A  
HETATM   37  C   UNL     1     -10.504  16.554  67.200  1.00  0.00    -0.300 A  
HETATM   38  N   UNL     1     -10.299  17.901  67.501  1.00  0.00    -0.363 NA 
HETATM   39  C   UNL     1     -11.178  15.727  68.102  1.00  0.00    -0.344 A  
HETATM   40  H1  UNL     1     -10.480  18.256  68.440  1.00  0.00     0.000 HD 
HETATM   41  C   UNL     1     -11.491  14.402  67.770  1.00  0.00    -0.360 A  
HETATM   42  H2  UNL     1     -10.836  18.462  66.840  1.00  0.00     0.000 HD 
ENDBRANCH  31  34
ENDBRANCH  26  31
ENDBRANCH  25  26
ENDBRANCH  22  25
ENDBRANCH  14  22
ENDBRANCH  12  14
ENDBRANCH   9  10
ENDBRANCH   8   9
TORSDOF 11
ENDMDL
MODEL      168
REMARK 921   NORMALIZED FREE ENERGY PREDICTED BY IDOCK:   -5.29 KCAL/MOL
REMARK 922        TOTAL FREE ENERGY PREDICTED BY IDOCK:  -11.31 KCAL/MOL
REMARK 923 INTER-LIGAND FREE ENERGY PREDICTED BY IDOCK:   -9.50 KCAL/MOL
REMARK 924 INTRA-LIGAND FREE ENERGY PREDICTED BY IDOCK:   -1.80 KCAL/MOL
REMARK 927      BINDING AFFINITY PREDICTED BY RF-SCORE:    0.00 PKD
ROOT
HETATM    1  C   UNL     1     -10.649   7.463  70.133  1.00  0.00    -0.240 C  
HETATM    2  C   UNL     1     -12.042   7.443  70.736  1.00  0.00    -0.233 C  
HETATM    3  C   UNL     1     -11.937   6.499  71.918  1.00  0.00    -0.341 C  
HETATM    4  O   UNL     1     -10.574   6.097  72.049  1.00  0.00    -0.206 OA 
HETATM    5  C   UNL     1      -9.777   6.971  71.263  1.00  0.00    -0.171 C  
HETATM    6  O   UNL     1      -9.390   8.132  71.998  1.00  0.00    -0.163 OA 
HETATM    7  C   UNL     1      -9.321   9.221  71.071  1.00  0.00    -0.227 C  
HETATM    8  C   UNL     1     -10.061   8.821  69.795  1.00  0.00    -0.196 C  
ENDROOT
BRANCH   8   9
HETATM    9  O   UNL     1     -11.079   9.799  69.528  1.00  0.00    -0.232 OA 
BRANCH   9  10
HETATM   10  C   UNL     1     -11.036  10.393  68.309  1.00  0.00    -0.281 C  
HETATM   11  O   UNL     1     -11.967  10.978  67.783  1.00  0.00    -0.609 OA 
HETATM   12  N   UNL     1      -9.818  10.140  67.749  1.00  0.00    -0.159 N  
HETATM   13  H   UNL     1      -9.093   9.726  68.335  1.00  0.00     0.000 HD 
BRANCH  12  14
HETATM   14  C   UNL     1      -9.495  10.433  66.344  1.00  0.00    -0.169 C  
BRANCH  14  15
HETATM   15  C   UNL     1      -9.459   9.133  65.477  1.00  0.00    -0.276 C  
BRANCH  15  16
HETATM   16  C   UNL     1      -9.106   7.846  66.206  1.00  0.00    -0.224 A  
HETATM   17  C   UNL     1     -10.108   6.942  66.581  1.00  0.00    -0.211 A  
HETATM   18  C   UNL     1      -7.777   7.553  66.551  1.00  0.00    -0.097 A  
HETATM   19  C   UNL     1      -9.791   5.779  67.288  1.00  0.00    -0.158 A  
HETATM   20  C   UNL     1      -8.466   5.498  67.618  1.00  0.00    -0.102 A  
HETATM   21  C   UNL     1      -7.458   6.381  67.243  1.00  0.00    -0.088 A  
ENDBRANCH  15  16
ENDBRANCH  14  15
BRANCH  14  22
HETATM   22  C   UNL     1     -10.434  11.493  65.689  1.00  0.00    -0.266 C  
HETATM   23  O   UNL     1     -10.917  11.030  64.421  1.00  0.00    -0.293 OA 
HETATM   24  H   UNL     1     -11.489  11.675  64.022  1.00  0.00     0.000 HD 
BRANCH  22  25
HETATM   25  C   UNL     1      -9.925  12.945  65.589  1.00  0.00    -0.235 C  
BRANCH  25  26
HETATM   26  N   UNL     1      -9.814  13.792  66.853  1.00  0.00    -0.257 N  
BRANCH  26  27
HETATM   27  C   UNL     1      -8.548  14.648  66.830  1.00  0.00    -0.162 C  
HETATM   28  C   UNL     1      -7.764  14.869  68.142  1.00  0.00    -0.117 C  
HETATM   29  C   UNL     1      -7.197  13.589  68.752  1.00  0.00    -0.096 C  
HETATM   30  C   UNL     1      -6.581  15.816  67.869  1.00  0.00    -0.165 C  
ENDBRANCH  26  27
BRANCH  26  31
HETATM   31  S   UNL     1     -11.271  14.770  67.024  1.00  0.00    -0.349 S  
HETATM   32  O   UNL     1     -11.026  16.073  66.456  1.00  0.00    -0.226 OA 
HETATM   33  O   UNL     1     -12.373  13.940  66.572  1.00  0.00    -0.445 OA 
BRANCH  31  34
HETATM   34  C   UNL     1     -11.460  14.991  68.792  1.00  0.00    -0.319 A  
HETATM   35  C   UNL     1     -11.105  16.302  70.792  1.00  0.00    -0.217 A  
HETATM   36  C   UNL     1     -11.017  16.166  69.398  1.00  0.00    -0.333 A  
HETATM   37  C   UNL     1     -11.589  15.261  71.592  1.00  0.00    -0.408 A  
HETATM   38  N   UNL     1     -11.769  15.445  72.964  1.00  0.00    -0.431 NA 
HETATM   39  C   UNL     1     -12.105  14.126  70.961  1.00  0.00    -0.411 A  
HETATM   40  H1  UNL     1     -12.122  14.686  73.547  1.00  0.00     0.000 HD 
HETATM   41  C   UNL     1     -12.031  13.978  69.570  1.00  0.00    -0.390 A  
HETATM   42  H2  UNL     1     -12.371  16.258  73.100  1.00  0.00     0.000 HD 
ENDBRANCH  31  34
ENDBRANCH  26  31
ENDBRANCH  25  26
ENDBRANCH  22  25
ENDBRANCH  14  22
ENDBRANCH  12  14
ENDBRANCH   9  10
ENDBRANCH   8   9
TORSDOF 11
ENDMDL
MODEL      169
REMARK 921   NORMALIZED FREE ENERGY PREDICTED BY IDOCK:   -5.27 KCAL/MOL
REMARK 922        TOTAL FREE ENERGY PREDICTED BY IDOCK:  -11.29 KCAL/MOL
REMARK 923 INTER-LIGAND FREE ENERGY PREDICTED BY IDOCK:   -8.81 KCAL/MOL
REMARK 924 INTRA-LIGAND FREE ENERGY PREDICTED BY IDOCK:   -2.47 KCAL/MOL
REMARK 927      BINDING AFFINITY PREDICTED BY RF-SCORE:    0.00 PKD
ROOT
HETATM    1  C   UNL     1      -7.546   5.585  70.613  1.00  0.00    -0.089 C  
HETATM    2  C   UNL     1      -7.603   6.729  71.609  1.00  0.00    -0.088 C  
HETATM    3  C   UNL     1      -7.521   6.062  72.969  1.00  0.00    -0.094 C  
HETATM    4  O   UNL     1      -7.323   4.663  72.767  1.00  0.00    -0.079 OA 
HETATM    5  C   UNL     1      -6.939   4.460  71.415  1.00  0.00    -0.039 C  
HETATM    6  O   UNL     1      -5.526   4.572  71.248  1.00  0.00    -0.010 OA 
HETATM    7  C   UNL     1      -5.292   5.124  69.948  1.00  0.00    -0.004 C  
HETATM    8  C   UNL     1      -6.597   5.738  69.439  1.00  0.00    -0.054 C  
ENDROOT
BRANCH   8   9
HETATM    9  O   UNL     1      -6.358   7.116  69.111  1.00  0.00    -0.033 OA 
BRANCH   9  10
HETATM   10  C   UNL     1      -7.075   7.620  68.077  1.00  0.00    -0.085 C  
HETATM   11  O   UNL     1      -7.040   7.203  66.932  1.00  0.00    -0.077 OA 
HETATM   12  N   UNL     1      -7.758   8.716  68.518  1.00  0.00    -0.098 N  
HETATM   13  H   UNL     1      -7.782   8.899  69.522  1.00  0.00     0.000 HD 
BRANCH  12  14
HETATM   14  C   UNL     1      -8.461   9.648  67.623  1.00  0.00    -0.125 C  
BRANCH  14  15
HETATM   15  C   UNL     1      -9.974   9.282  67.484  1.00  0.00    -0.254 C  
BRANCH  15  16
HETATM   16  C   UNL     1     -10.564   8.421  68.589  1.00  0.00    -0.149 A  
HETATM   17  C   UNL     1     -10.976   8.998  69.797  1.00  0.00    -0.177 A  
HETATM   18  C   UNL     1     -10.676   7.030  68.440  1.00  0.00    -0.224 A  
HETATM   19  C   UNL     1     -11.479   8.203  70.831  1.00  0.00    -0.288 A  
HETATM   20  C   UNL     1     -11.590   6.824  70.666  1.00  0.00    -0.422 A  
HETATM   21  C   UNL     1     -11.195   6.237  69.467  1.00  0.00    -0.500 A  
ENDBRANCH  15  16
ENDBRANCH  14  15
BRANCH  14  22
HETATM   22  C   UNL     1      -8.302  11.147  68.023  1.00  0.00    -0.134 C  
HETATM   23  O   UNL     1      -8.108  11.279  69.438  1.00  0.00    -0.369 OA 
HETATM   24  H   UNL     1      -8.011  12.192  69.681  1.00  0.00     0.000 HD 
BRANCH  22  25
HETATM   25  C   UNL     1      -9.363  12.146  67.517  1.00  0.00    -0.181 C  
BRANCH  25  26
HETATM   26  N   UNL     1      -9.861  13.248  68.445  1.00  0.00    -0.235 N  
BRANCH  26  27
HETATM   27  C   UNL     1      -9.276  14.604  68.051  1.00  0.00    -0.197 C  
HETATM   28  C   UNL     1      -8.452  15.398  69.087  1.00  0.00    -0.241 C  
HETATM   29  C   UNL     1      -7.177  14.692  69.544  1.00  0.00    -0.131 C  
HETATM   30  C   UNL     1      -8.039  16.750  68.474  1.00  0.00    -0.241 C  
ENDBRANCH  26  27
BRANCH  26  31
HETATM   31  S   UNL     1     -11.625  13.261  68.435  1.00  0.00    -0.359 S  
HETATM   32  O   UNL     1     -12.077  14.252  67.491  1.00  0.00    -0.385 OA 
HETATM   33  O   UNL     1     -12.040  11.873  68.335  1.00  0.00    -0.448 OA 
BRANCH  31  34
HETATM   34  C   UNL     1     -12.081  13.838  70.068  1.00  0.00    -0.349 A  
HETATM   35  C   UNL     1     -13.170  13.469  72.195  1.00  0.00    -0.551 A  
HETATM   36  C   UNL     1     -12.755  12.987  70.944  1.00  0.00    -0.299 A  
HETATM   37  C   UNL     1     -12.961  14.803  72.564  1.00  0.00    -0.392 A  
HETATM   38  N   UNL     1     -13.284  15.243  73.848  1.00  0.00    -0.575 NA 
HETATM   39  C   UNL     1     -12.211  15.615  71.710  1.00  0.00    -0.494 A  
HETATM   40  H1  UNL     1     -13.131  16.215  74.117  1.00  0.00     0.000 HD 
HETATM   41  C   UNL     1     -11.783  15.148  70.460  1.00  0.00    -0.344 A  
HETATM   42  H2  UNL     1     -12.802  14.646  74.521  1.00  0.00     0.000 HD 
ENDBRANCH  31  34
ENDBRANCH  26  31
ENDBRANCH  25  26
ENDBRANCH  22  25
ENDBRANCH  14  22
ENDBRANCH  12  14
ENDBRANCH   9  10
ENDBRANCH   8   9
TORSDOF 11
ENDMDL
MODEL      170
REMARK 921   NORMALIZED FREE ENERGY PREDICTED BY IDOCK:   -5.27 KCAL/MOL
REMARK 922        TOTAL FREE ENERGY PREDICTED BY IDOCK:  -11.27 KCAL/MOL
REMARK 923 INTER-LIGAND FREE ENERGY PREDICTED BY IDOCK:   -9.32 KCAL/MOL
REMARK 924 INTRA-LIGAND FREE ENERGY PREDICTED BY IDOCK:   -1.95 KCAL/MOL
REMARK 927      BINDING AFFINITY PREDICTED BY RF-SCORE:    0.00 PKD
ROOT
HETATM    1  C   UNL     1     -10.060   6.600  72.120  1.00  0.00    -0.194 C  
HETATM    2  C   UNL     1     -10.152   5.148  72.551  1.00  0.00    -0.226 C  
HETATM    3  C   UNL     1     -10.455   5.204  74.036  1.00  0.00    -0.281 C  
HETATM    4  O   UNL     1     -10.630   6.571  74.403  1.00  0.00    -0.223 OA 
HETATM    5  C   UNL     1     -10.797   7.332  73.215  1.00  0.00    -0.358 C  
HETATM    6  O   UNL     1     -12.164   7.380  72.809  1.00  0.00    -0.005 OA 
HETATM    7  C   UNL     1     -12.183   7.423  71.379  1.00  0.00    -0.342 C  
HETATM    8  C   UNL     1     -10.809   6.997  70.861  1.00  0.00    -0.241 C  
ENDROOT
BRANCH   8   9
HETATM    9  O   UNL     1     -10.981   5.889  69.962  1.00  0.00    -0.337 OA 
BRANCH   9  10
HETATM   10  C   UNL     1     -10.018   5.725  69.021  1.00  0.00    -0.169 C  
HETATM   11  O   UNL     1      -9.299   4.746  68.918  1.00  0.00    -0.116 OA 
HETATM   12  N   UNL     1      -9.936   6.870  68.284  1.00  0.00    -0.148 N  
HETATM   13  H   UNL     1     -10.663   7.576  68.404  1.00  0.00     0.000 HD 
BRANCH  12  14
HETATM   14  C   UNL     1      -8.855   7.141  67.324  1.00  0.00    -0.120 C  
BRANCH  14  15
HETATM   15  C   UNL     1      -9.260   6.731  65.870  1.00  0.00    -0.001 C  
BRANCH  15  16
HETATM   16  C   UNL     1      -8.633   5.456  65.329  1.00  0.00    -0.151 A  
HETATM   17  C   UNL     1      -7.557   5.517  64.434  1.00  0.00    -0.074 A  
HETATM   18  C   UNL     1      -9.139   4.195  65.682  1.00  0.00    -0.137 A  
HETATM   19  C   UNL     1      -7.006   4.348  63.901  1.00  0.00    -0.045 A  
HETATM   20  C   UNL     1      -7.515   3.103  64.266  1.00  0.00    -0.074 A  
HETATM   21  C   UNL     1      -8.577   3.026  65.163  1.00  0.00    -0.102 A  
ENDBRANCH  15  16
ENDBRANCH  14  15
BRANCH  14  22
HETATM   22  C   UNL     1      -8.345   8.614  67.347  1.00  0.00    -0.116 C  
HETATM   23  O   UNL     1      -7.080   8.704  68.019  1.00  0.00    -0.079 OA 
HETATM   24  H   UNL     1      -6.769   9.602  68.033  1.00  0.00     0.000 HD 
BRANCH  22  25
HETATM   25  C   UNL     1      -9.313   9.706  67.845  1.00  0.00    -0.128 C  
BRANCH  25  26
HETATM   26  N   UNL     1      -9.553  10.945  66.989  1.00  0.00    -0.172 N  
BRANCH  26  27
HETATM   27  C   UNL     1     -10.063  10.562  65.600  1.00  0.00    -0.268 C  
HETATM   28  C   UNL     1      -9.211  10.914  64.361  1.00  0.00    -0.223 C  
HETATM   29  C   UNL     1      -7.846  10.232  64.330  1.00  0.00    -0.117 C  
HETATM   30  C   UNL     1      -9.971  10.489  63.090  1.00  0.00    -0.204 C  
ENDBRANCH  26  27
BRANCH  26  31
HETATM   31  S   UNL     1     -10.669  12.022  67.830  1.00  0.00    -0.219 S  
HETATM   32  O   UNL     1     -11.931  11.345  67.996  1.00  0.00    -0.613 OA 
HETATM   33  O   UNL     1      -9.939  12.557  68.964  1.00  0.00     0.026 OA 
BRANCH  31  34
HETATM   34  C   UNL     1     -10.940  13.373  66.684  1.00  0.00    -0.287 A  
HETATM   35  C   UNL     1     -12.295  14.453  64.998  1.00  0.00    -0.401 A  
HETATM   36  C   UNL     1     -12.120  13.430  65.943  1.00  0.00    -0.486 A  
HETATM   37  C   UNL     1     -11.287  15.392  64.752  1.00  0.00    -0.376 A  
HETATM   38  N   UNL     1     -11.511  16.463  63.887  1.00  0.00    -1.618 NA 
HETATM   39  C   UNL     1     -10.149  15.369  65.562  1.00  0.00    -0.405 A  
HETATM   40  H1  UNL     1     -10.777  17.148  63.708  1.00  0.00     0.000 HD 
HETATM   41  C   UNL     1      -9.962  14.358  66.516  1.00  0.00    -0.291 A  
HETATM   42  H2  UNL     1     -12.342  16.963  64.206  1.00  0.00     0.000 HD 
ENDBRANCH  31  34
ENDBRANCH  26  31
ENDBRANCH  25  26
ENDBRANCH  22  25
ENDBRANCH  14  22
ENDBRANCH  12  14
ENDBRANCH   9  10
ENDBRANCH   8   9
TORSDOF 11
ENDMDL
MODEL      171
REMARK 921   NORMALIZED FREE ENERGY PREDICTED BY IDOCK:   -5.26 KCAL/MOL
REMARK 922        TOTAL FREE ENERGY PREDICTED BY IDOCK:  -11.27 KCAL/MOL
REMARK 923 INTER-LIGAND FREE ENERGY PREDICTED BY IDOCK:   -9.97 KCAL/MOL
REMARK 924 INTRA-LIGAND FREE ENERGY PREDICTED BY IDOCK:   -1.30 KCAL/MOL
REMARK 927      BINDING AFFINITY PREDICTED BY RF-SCORE:    0.00 PKD
ROOT
HETATM    1  C   UNL     1      -9.479  17.133  67.905  1.00  0.00    -0.257 C  
HETATM    2  C   UNL     1      -9.817  17.416  66.453  1.00  0.00    -0.311 C  
HETATM    3  C   UNL     1     -10.313  18.850  66.445  1.00  0.00    -0.443 C  
HETATM    4  O   UNL     1     -10.169  19.378  67.762  1.00  0.00    -0.369 OA 
HETATM    5  C   UNL     1      -9.317  18.511  68.498  1.00  0.00    -0.338 C  
HETATM    6  O   UNL     1      -7.943  18.856  68.327  1.00  0.00    -0.287 OA 
HETATM    7  C   UNL     1      -7.188  17.642  68.380  1.00  0.00    -0.236 C  
HETATM    8  C   UNL     1      -8.145  16.466  68.187  1.00  0.00    -0.165 C  
ENDROOT
BRANCH   8   9
HETATM    9  O   UNL     1      -7.688  15.679  67.075  1.00  0.00    -0.205 OA 
BRANCH   9  10
HETATM   10  C   UNL     1      -7.549  14.348  67.298  1.00  0.00    -0.108 C  
HETATM   11  O   UNL     1      -6.500  13.733  67.228  1.00  0.00    -0.281 OA 
HETATM   12  N   UNL     1      -8.787  13.816  67.517  1.00  0.00    -0.186 N  
HETATM   13  H   UNL     1      -9.571  14.455  67.651  1.00  0.00     0.000 HD 
BRANCH  12  14
HETATM   14  C   UNL     1      -9.049  12.369  67.572  1.00  0.00    -0.185 C  
BRANCH  14  15
HETATM   15  C   UNL     1      -9.016  11.725  66.148  1.00  0.00    -0.145 C  
BRANCH  15  16
HETATM   16  C   UNL     1     -10.246  11.941  65.281  1.00  0.00    -0.309 A  
HETATM   17  C   UNL     1     -10.199  11.686  63.904  1.00  0.00    -0.409 A  
HETATM   18  C   UNL     1     -11.439  12.437  65.829  1.00  0.00    -0.416 A  
HETATM   19  C   UNL     1     -11.315  11.925  63.097  1.00  0.00    -0.232 A  
HETATM   20  C   UNL     1     -12.496  12.410  63.657  1.00  0.00    -0.610 A  
HETATM   21  C   UNL     1     -12.560  12.659  65.025  1.00  0.00    -0.504 A  
ENDBRANCH  15  16
ENDBRANCH  14  15
BRANCH  14  22
HETATM   22  C   UNL     1      -8.103  11.593  68.538  1.00  0.00    -0.145 C  
HETATM   23  O   UNL     1      -7.112  10.861  67.802  1.00  0.00    -0.079 OA 
HETATM   24  H   UNL     1      -6.536  10.389  68.391  1.00  0.00     0.000 HD 
BRANCH  22  25
HETATM   25  C   UNL     1      -8.748  10.708  69.624  1.00  0.00     0.157 C  
BRANCH  25  26
HETATM   26  N   UNL     1      -8.941   9.218  69.364  1.00  0.00    -0.141 N  
BRANCH  26  27
HETATM   27  C   UNL     1      -8.488   8.388  70.565  1.00  0.00    -0.132 C  
HETATM   28  C   UNL     1      -7.453   7.261  70.354  1.00  0.00    -0.083 C  
HETATM   29  C   UNL     1      -6.096   7.747  69.852  1.00  0.00    -0.026 C  
HETATM   30  C   UNL     1      -7.220   6.535  71.693  1.00  0.00    -0.086 C  
ENDBRANCH  26  27
BRANCH  26  31
HETATM   31  S   UNL     1     -10.628   8.916  68.949  1.00  0.00    -0.115 S  
HETATM   32  O   UNL     1     -10.856   9.340  67.590  1.00  0.00    -0.250 OA 
HETATM   33  O   UNL     1     -10.916   7.560  69.380  1.00  0.00    -0.193 OA 
BRANCH  31  34
HETATM   34  C   UNL     1     -11.557  10.022  70.010  1.00  0.00    -0.214 A  
HETATM   35  C   UNL     1     -12.238  12.259  70.625  1.00  0.00    -0.378 A  
HETATM   36  C   UNL     1     -11.566  11.392  69.749  1.00  0.00    -0.407 A  
HETATM   37  C   UNL     1     -12.863  11.779  71.782  1.00  0.00    -0.298 A  
HETATM   38  N   UNL     1     -13.615  12.634  72.588  1.00  0.00    -0.661 NA 
HETATM   39  C   UNL     1     -12.914  10.397  71.981  1.00  0.00    -0.499 A  
HETATM   40  H1  UNL     1     -14.070  12.284  73.432  1.00  0.00     0.000 HD 
HETATM   41  C   UNL     1     -12.254   9.517  71.113  1.00  0.00    -0.421 A  
HETATM   42  H2  UNL     1     -14.323  13.081  72.006  1.00  0.00     0.000 HD 
ENDBRANCH  31  34
ENDBRANCH  26  31
ENDBRANCH  25  26
ENDBRANCH  22  25
ENDBRANCH  14  22
ENDBRANCH  12  14
ENDBRANCH   9  10
ENDBRANCH   8   9
TORSDOF 11
ENDMDL
MODEL      172
REMARK 921   NORMALIZED FREE ENERGY PREDICTED BY IDOCK:   -5.26 KCAL/MOL
REMARK 922        TOTAL FREE ENERGY PREDICTED BY IDOCK:  -11.27 KCAL/MOL
REMARK 923 INTER-LIGAND FREE ENERGY PREDICTED BY IDOCK:  -10.41 KCAL/MOL
REMARK 924 INTRA-LIGAND FREE ENERGY PREDICTED BY IDOCK:   -0.86 KCAL/MOL
REMARK 927      BINDING AFFINITY PREDICTED BY RF-SCORE:    0.00 PKD
ROOT
HETATM    1  C   UNL     1      -7.913   6.622  65.140  1.00  0.00    -0.124 C  
HETATM    2  C   UNL     1      -6.592   6.078  65.654  1.00  0.00    -0.047 C  
HETATM    3  C   UNL     1      -6.350   4.821  64.840  1.00  0.00    -0.035 C  
HETATM    4  O   UNL     1      -7.389   4.714  63.867  1.00  0.00    -0.053 OA 
HETATM    5  C   UNL     1      -8.055   5.966  63.789  1.00  0.00    -0.095 C  
HETATM    6  O   UNL     1      -7.422   6.840  62.856  1.00  0.00    -0.067 OA 
HETATM    7  C   UNL     1      -7.575   8.175  63.349  1.00  0.00    -0.132 C  
HETATM    8  C   UNL     1      -7.973   8.105  64.824  1.00  0.00    -0.147 C  
ENDROOT
BRANCH   8   9
HETATM    9  O   UNL     1      -7.022   8.862  65.592  1.00  0.00    -0.078 OA 
BRANCH   9  10
HETATM   10  C   UNL     1      -7.523   9.885  66.326  1.00  0.00    -0.102 C  
HETATM   11  O   UNL     1      -7.026  10.322  67.350  1.00  0.00    -0.080 OA 
HETATM   12  N   UNL     1      -8.712  10.269  65.777  1.00  0.00    -0.150 N  
HETATM   13  H   UNL     1      -8.966   9.894  64.863  1.00  0.00     0.000 HD 
BRANCH  12  14
HETATM   14  C   UNL     1      -9.646  11.198  66.433  1.00  0.00    -0.200 C  
BRANCH  14  15
HETATM   15  C   UNL     1     -10.764  11.678  65.452  1.00  0.00    -0.341 C  
BRANCH  15  16
HETATM   16  C   UNL     1     -10.821  13.171  65.171  1.00  0.00    -0.321 A  
HETATM   17  C   UNL     1      -9.834  14.028  65.677  1.00  0.00    -0.255 A  
HETATM   18  C   UNL     1     -11.878  13.729  64.435  1.00  0.00    -0.458 A  
HETATM   19  C   UNL     1      -9.906  15.406  65.456  1.00  0.00    -0.359 A  
HETATM   20  C   UNL     1     -10.958  15.944  64.718  1.00  0.00    -0.392 A  
HETATM   21  C   UNL     1     -11.941  15.105  64.200  1.00  0.00    -0.187 A  
ENDBRANCH  15  16
ENDBRANCH  14  15
BRANCH  14  22
HETATM   22  C   UNL     1     -10.280  10.634  67.741  1.00  0.00    -0.180 C  
HETATM   23  O   UNL     1     -11.520   9.968  67.460  1.00  0.00    -0.495 OA 
HETATM   24  H   UNL     1     -11.906   9.625  68.257  1.00  0.00     0.000 HD 
BRANCH  22  25
HETATM   25  C   UNL     1     -10.428  11.590  68.942  1.00  0.00    -0.187 C  
BRANCH  25  26
HETATM   26  N   UNL     1     -11.736  12.348  69.144  1.00  0.00    -0.309 N  
BRANCH  26  27
HETATM   27  C   UNL     1     -12.368  12.002  70.492  1.00  0.00    -0.282 C  
HETATM   28  C   UNL     1     -12.697  10.529  70.814  1.00  0.00    -0.471 C  
HETATM   29  C   UNL     1     -11.475   9.614  70.862  1.00  0.00    -0.427 C  
HETATM   30  C   UNL     1     -13.385  10.454  72.190  1.00  0.00    -0.374 C  
ENDBRANCH  26  27
BRANCH  26  31
HETATM   31  S   UNL     1     -11.434  14.077  68.979  1.00  0.00    -0.317 S  
HETATM   32  O   UNL     1     -10.011  14.296  68.913  1.00  0.00    -0.221 OA 
HETATM   33  O   UNL     1     -12.324  14.547  67.932  1.00  0.00    -0.188 OA 
BRANCH  31  34
HETATM   34  C   UNL     1     -12.007  14.784  70.523  1.00  0.00    -0.312 A  
HETATM   35  C   UNL     1     -11.550  15.607  72.749  1.00  0.00    -0.446 A  
HETATM   36  C   UNL     1     -11.088  15.119  71.517  1.00  0.00    -0.218 A  
HETATM   37  C   UNL     1     -12.919  15.721  73.017  1.00  0.00    -0.525 A  
HETATM   38  N   UNL     1     -13.364  16.304  74.204  1.00  0.00    -0.849 NA 
HETATM   39  C   UNL     1     -13.819  15.461  71.981  1.00  0.00    -0.625 A  
HETATM   40  H1  UNL     1     -14.362  16.387  74.399  1.00  0.00     0.000 HD 
HETATM   41  C   UNL     1     -13.374  14.980  70.742  1.00  0.00    -0.362 A  
HETATM   42  H2  UNL     1     -12.946  17.231  74.281  1.00  0.00     0.000 HD 
ENDBRANCH  31  34
ENDBRANCH  26  31
ENDBRANCH  25  26
ENDBRANCH  22  25
ENDBRANCH  14  22
ENDBRANCH  12  14
ENDBRANCH   9  10
ENDBRANCH   8   9
TORSDOF 11
ENDMDL
MODEL      173
REMARK 921   NORMALIZED FREE ENERGY PREDICTED BY IDOCK:   -5.25 KCAL/MOL
REMARK 922        TOTAL FREE ENERGY PREDICTED BY IDOCK:  -11.24 KCAL/MOL
REMARK 923 INTER-LIGAND FREE ENERGY PREDICTED BY IDOCK:  -10.73 KCAL/MOL
REMARK 924 INTRA-LIGAND FREE ENERGY PREDICTED BY IDOCK:   -0.51 KCAL/MOL
REMARK 927      BINDING AFFINITY PREDICTED BY RF-SCORE:    0.00 PKD
ROOT
HETATM    1  C   UNL     1     -11.249   7.551  72.883  1.00  0.00    -0.396 C  
HETATM    2  C   UNL     1      -9.898   7.631  73.569  1.00  0.00    -0.357 C  
HETATM    3  C   UNL     1      -9.615   6.215  74.033  1.00  0.00    -0.176 C  
HETATM    4  O   UNL     1     -10.664   5.373  73.557  1.00  0.00    -0.246 OA 
HETATM    5  C   UNL     1     -11.385   6.083  72.560  1.00  0.00    -0.300 C  
HETATM    6  O   UNL     1     -10.807   5.907  71.268  1.00  0.00    -0.257 OA 
HETATM    7  C   UNL     1     -11.010   7.122  70.539  1.00  0.00    -0.262 C  
HETATM    8  C   UNL     1     -11.379   8.226  71.531  1.00  0.00    -0.268 C  
ENDROOT
BRANCH   8   9
HETATM    9  O   UNL     1     -10.450   9.312  71.376  1.00  0.00    -0.319 OA 
BRANCH   9  10
HETATM   10  C   UNL     1     -10.397   9.887  70.149  1.00  0.00    -0.282 C  
HETATM   11  O   UNL     1     -11.367  10.207  69.484  1.00  0.00    -0.237 OA 
HETATM   12  N   UNL     1      -9.091   9.955  69.761  1.00  0.00    -0.235 N  
HETATM   13  H   UNL     1      -8.369   9.748  70.452  1.00  0.00     0.000 HD 
BRANCH  12  14
HETATM   14  C   UNL     1      -8.668  10.312  68.398  1.00  0.00    -0.129 C  
BRANCH  14  15
HETATM   15  C   UNL     1      -9.600   9.670  67.319  1.00  0.00    -0.203 C  
BRANCH  15  16
HETATM   16  C   UNL     1      -9.600   8.152  67.245  1.00  0.00    -0.211 A  
HETATM   17  C   UNL     1     -10.786   7.452  66.986  1.00  0.00    -0.389 A  
HETATM   18  C   UNL     1      -8.426   7.417  67.471  1.00  0.00    -0.116 A  
HETATM   19  C   UNL     1     -10.798   6.055  66.959  1.00  0.00    -0.413 A  
HETATM   20  C   UNL     1      -9.622   5.339  67.179  1.00  0.00    -0.149 A  
HETATM   21  C   UNL     1      -8.434   6.020  67.427  1.00  0.00    -0.104 A  
ENDBRANCH  15  16
ENDBRANCH  14  15
BRANCH  14  22
HETATM   22  C   UNL     1      -8.543  11.848  68.158  1.00  0.00    -0.165 C  
HETATM   23  O   UNL     1      -7.671  12.445  69.128  1.00  0.00    -0.329 OA 
HETATM   24  H   UNL     1      -7.595  13.381  68.982  1.00  0.00     0.000 HD 
BRANCH  22  25
HETATM   25  C   UNL     1      -9.843  12.664  68.008  1.00  0.00    -0.218 C  
BRANCH  25  26
HETATM   26  N   UNL     1      -9.829  13.959  67.203  1.00  0.00    -0.236 N  
BRANCH  26  27
HETATM   27  C   UNL     1      -9.813  13.672  65.702  1.00  0.00    -0.175 C  
HETATM   28  C   UNL     1     -10.292  12.295  65.194  1.00  0.00    -0.316 C  
HETATM   29  C   UNL     1     -11.758  11.994  65.496  1.00  0.00    -0.315 C  
HETATM   30  C   UNL     1     -10.112  12.232  63.665  1.00  0.00    -0.369 C  
ENDBRANCH  26  27
BRANCH  26  31
HETATM   31  S   UNL     1     -11.212  14.948  67.673  1.00  0.00    -0.332 S  
HETATM   32  O   UNL     1     -12.287  14.716  66.740  1.00  0.00    -0.245 OA 
HETATM   33  O   UNL     1     -11.388  14.747  69.099  1.00  0.00    -0.253 OA 
BRANCH  31  34
HETATM   34  C   UNL     1     -10.660  16.636  67.436  1.00  0.00    -0.295 A  
HETATM   35  C   UNL     1      -9.896  18.740  68.349  1.00  0.00    -0.429 A  
HETATM   36  C   UNL     1     -10.259  17.397  68.534  1.00  0.00    -0.369 A  
HETATM   37  C   UNL     1      -9.970  19.344  67.088  1.00  0.00    -0.360 A  
HETATM   38  N   UNL     1      -9.507  20.646  66.898  1.00  0.00    -0.651 NA 
HETATM   39  C   UNL     1     -10.292  18.544  65.989  1.00  0.00    -0.423 A  
HETATM   40  H1  UNL     1      -9.562  21.087  65.979  1.00  0.00     0.000 HD 
HETATM   41  C   UNL     1     -10.651  17.199  66.156  1.00  0.00    -0.201 A  
HETATM   42  H2  UNL     1      -8.539  20.692  67.216  1.00  0.00     0.000 HD 
ENDBRANCH  31  34
ENDBRANCH  26  31
ENDBRANCH  25  26
ENDBRANCH  22  25
ENDBRANCH  14  22
ENDBRANCH  12  14
ENDBRANCH   9  10
ENDBRANCH   8   9
TORSDOF 11
ENDMDL
MODEL      174
REMARK 921   NORMALIZED FREE ENERGY PREDICTED BY IDOCK:   -5.25 KCAL/MOL
REMARK 922        TOTAL FREE ENERGY PREDICTED BY IDOCK:  -11.24 KCAL/MOL
REMARK 923 INTER-LIGAND FREE ENERGY PREDICTED BY IDOCK:   -9.19 KCAL/MOL
REMARK 924 INTRA-LIGAND FREE ENERGY PREDICTED BY IDOCK:   -2.05 KCAL/MOL
REMARK 927      BINDING AFFINITY PREDICTED BY RF-SCORE:    0.00 PKD
ROOT
HETATM    1  C   UNL     1     -10.881  13.678  64.674  1.00  0.00    -0.416 C  
HETATM    2  C   UNL     1     -11.072  13.872  66.167  1.00  0.00    -0.299 C  
HETATM    3  C   UNL     1     -12.544  14.197  66.328  1.00  0.00    -0.260 C  
HETATM    4  O   UNL     1     -13.167  14.092  65.049  1.00  0.00    -0.720 OA 
HETATM    5  C   UNL     1     -12.280  13.403  64.179  1.00  0.00    -0.398 C  
HETATM    6  O   UNL     1     -12.457  11.990  64.260  1.00  0.00    -0.361 OA 
HETATM    7  C   UNL     1     -11.177  11.386  64.049  1.00  0.00    -0.269 C  
HETATM    8  C   UNL     1     -10.099  12.455  64.229  1.00  0.00    -0.278 C  
ENDROOT
BRANCH   8   9
HETATM    9  O   UNL     1      -9.174  12.010  65.234  1.00  0.00    -0.026 OA 
BRANCH   9  10
HETATM   10  C   UNL     1      -9.391  10.772  65.744  1.00  0.00    -0.203 C  
HETATM   11  O   UNL     1     -10.338  10.460  66.445  1.00  0.00    -0.236 OA 
HETATM   12  N   UNL     1      -8.330   9.979  65.417  1.00  0.00    -0.144 N  
HETATM   13  H   UNL     1      -7.653  10.332  64.740  1.00  0.00     0.000 HD 
BRANCH  12  14
HETATM   14  C   UNL     1      -8.112   8.640  65.987  1.00  0.00    -0.109 C  
BRANCH  14  15
HETATM   15  C   UNL     1      -6.889   7.925  65.326  1.00  0.00    -0.055 C  
BRANCH  15  16
HETATM   16  C   UNL     1      -7.119   6.500  64.849  1.00  0.00    -0.057 A  
HETATM   17  C   UNL     1      -7.919   6.245  63.728  1.00  0.00    -0.088 A  
HETATM   18  C   UNL     1      -6.568   5.409  65.540  1.00  0.00    -0.041 A  
HETATM   19  C   UNL     1      -8.166   4.934  63.312  1.00  0.00    -0.109 A  
HETATM   20  C   UNL     1      -7.607   3.861  64.004  1.00  0.00    -0.078 A  
HETATM   21  C   UNL     1      -6.801   4.098  65.114  1.00  0.00    -0.053 A  
ENDBRANCH  15  16
ENDBRANCH  14  15
BRANCH  14  22
HETATM   22  C   UNL     1      -7.967   8.633  67.540  1.00  0.00    -0.106 C  
HETATM   23  O   UNL     1      -6.588   8.728  67.923  1.00  0.00    -0.059 OA 
HETATM   24  H   UNL     1      -6.500   8.723  68.869  1.00  0.00     0.000 HD 
BRANCH  22  25
HETATM   25  C   UNL     1      -8.683   7.516  68.326  1.00  0.00    -0.123 C  
BRANCH  25  26
HETATM   26  N   UNL     1     -10.202   7.542  68.456  1.00  0.00    -0.192 N  
BRANCH  26  27
HETATM   27  C   UNL     1     -10.857   6.631  67.418  1.00  0.00    -0.363 C  
HETATM   28  C   UNL     1     -10.030   5.488  66.791  1.00  0.00    -0.210 C  
HETATM   29  C   UNL     1      -9.559   4.437  67.793  1.00  0.00    -0.211 C  
HETATM   30  C   UNL     1     -10.887   4.767  65.733  1.00  0.00    -0.123 C  
ENDBRANCH  26  27
BRANCH  26  31
HETATM   31  S   UNL     1     -10.650   7.097  70.103  1.00  0.00    -0.236 S  
HETATM   32  O   UNL     1     -11.634   6.045  70.049  1.00  0.00    -0.317 OA 
HETATM   33  O   UNL     1      -9.406   6.936  70.833  1.00  0.00    -0.157 OA 
BRANCH  31  34
HETATM   34  C   UNL     1     -11.467   8.552  70.755  1.00  0.00    -0.253 A  
HETATM   35  C   UNL     1     -13.084   9.559  72.244  1.00  0.00    -0.492 A  
HETATM   36  C   UNL     1     -12.398   8.423  71.786  1.00  0.00    -0.375 A  
HETATM   37  C   UNL     1     -12.886  10.813  71.655  1.00  0.00    -0.457 A  
HETATM   38  N   UNL     1     -13.495  11.950  72.186  1.00  0.00    -0.515 NA 
HETATM   39  C   UNL     1     -11.890  10.937  70.683  1.00  0.00    -0.453 A  
HETATM   40  H1  UNL     1     -13.350  12.864  71.756  1.00  0.00     0.000 HD 
HETATM   41  C   UNL     1     -11.190   9.814  70.219  1.00  0.00    -0.347 A  
HETATM   42  H2  UNL     1     -13.241  12.018  73.172  1.00  0.00     0.000 HD 
ENDBRANCH  31  34
ENDBRANCH  26  31
ENDBRANCH  25  26
ENDBRANCH  22  25
ENDBRANCH  14  22
ENDBRANCH  12  14
ENDBRANCH   9  10
ENDBRANCH   8   9
TORSDOF 11
ENDMDL
MODEL      175
REMARK 921   NORMALIZED FREE ENERGY PREDICTED BY IDOCK:   -5.24 KCAL/MOL
REMARK 922        TOTAL FREE ENERGY PREDICTED BY IDOCK:  -11.24 KCAL/MOL
REMARK 923 INTER-LIGAND FREE ENERGY PREDICTED BY IDOCK:   -9.19 KCAL/MOL
REMARK 924 INTRA-LIGAND FREE ENERGY PREDICTED BY IDOCK:   -2.04 KCAL/MOL
REMARK 927      BINDING AFFINITY PREDICTED BY RF-SCORE:    0.00 PKD
ROOT
HETATM    1  C   UNL     1     -11.007   7.587  70.677  1.00  0.00    -0.263 C  
HETATM    2  C   UNL     1     -12.350   8.266  70.880  1.00  0.00    -0.046 C  
HETATM    3  C   UNL     1     -13.117   7.336  71.800  1.00  0.00    -0.317 C  
HETATM    4  O   UNL     1     -12.249   6.269  72.180  1.00  0.00    -0.328 OA 
HETATM    5  C   UNL     1     -10.919   6.640  71.849  1.00  0.00    -0.244 C  
HETATM    6  O   UNL     1     -10.299   7.374  72.904  1.00  0.00    -0.223 OA 
HETATM    7  C   UNL     1      -9.409   8.319  72.302  1.00  0.00    -0.253 C  
HETATM    8  C   UNL     1      -9.767   8.450  70.822  1.00  0.00    -0.176 C  
ENDROOT
BRANCH   8   9
HETATM    9  O   UNL     1     -10.034   9.833  70.534  1.00  0.00    -0.265 OA 
BRANCH   9  10
HETATM   10  C   UNL     1      -9.521  10.314  69.375  1.00  0.00    -0.206 C  
HETATM   11  O   UNL     1     -10.055  10.223  68.282  1.00  0.00    -0.147 OA 
HETATM   12  N   UNL     1      -8.282  10.825  69.630  1.00  0.00    -0.381 N  
HETATM   13  H   UNL     1      -7.995  10.933  70.603  1.00  0.00     0.000 HD 
BRANCH  12  14
HETATM   14  C   UNL     1      -7.339  11.228  68.576  1.00  0.00    -0.106 C  
BRANCH  14  15
HETATM   15  C   UNL     1      -6.866  10.004  67.727  1.00  0.00    -0.076 C  
BRANCH  15  16
HETATM   16  C   UNL     1      -6.611   8.713  68.488  1.00  0.00    -0.059 A  
HETATM   17  C   UNL     1      -5.653   8.665  69.509  1.00  0.00    -0.030 A  
HETATM   18  C   UNL     1      -7.300   7.534  68.162  1.00  0.00    -0.096 A  
HETATM   19  C   UNL     1      -5.387   7.469  70.181  1.00  0.00    -0.023 A  
HETATM   20  C   UNL     1      -6.084   6.308  69.851  1.00  0.00    -0.026 A  
HETATM   21  C   UNL     1      -7.047   6.342  68.846  1.00  0.00    -0.082 A  
ENDBRANCH  15  16
ENDBRANCH  14  15
BRANCH  14  22
HETATM   22  C   UNL     1      -7.879  12.355  67.643  1.00  0.00    -0.163 C  
HETATM   23  O   UNL     1      -6.952  12.627  66.583  1.00  0.00    -0.352 OA 
HETATM   24  H   UNL     1      -7.281  13.313  66.015  1.00  0.00     0.000 HD 
BRANCH  22  25
HETATM   25  C   UNL     1      -8.365  13.664  68.299  1.00  0.00    -0.165 C  
BRANCH  25  26
HETATM   26  N   UNL     1      -9.828  14.076  68.160  1.00  0.00    -0.228 N  
BRANCH  26  27
HETATM   27  C   UNL     1     -10.321  14.782  69.423  1.00  0.00    -0.160 C  
HETATM   28  C   UNL     1     -11.759  14.521  69.918  1.00  0.00    -0.354 C  
HETATM   29  C   UNL     1     -12.029  13.071  70.314  1.00  0.00    -0.360 C  
HETATM   30  C   UNL     1     -12.033  15.397  71.155  1.00  0.00    -0.414 C  
ENDBRANCH  26  27
BRANCH  26  31
HETATM   31  S   UNL     1     -10.011  15.083  66.724  1.00  0.00    -0.255 S  
HETATM   32  O   UNL     1     -10.857  16.205  67.048  1.00  0.00    -0.292 OA 
HETATM   33  O   UNL     1      -8.676  15.269  66.185  1.00  0.00    -0.245 OA 
BRANCH  31  34
HETATM   34  C   UNL     1     -10.916  14.056  65.567  1.00  0.00    -0.309 A  
HETATM   35  C   UNL     1     -11.436  11.877  64.660  1.00  0.00    -0.345 A  
HETATM   36  C   UNL     1     -10.779  12.669  65.614  1.00  0.00    -0.297 A  
HETATM   37  C   UNL     1     -12.191  12.455  63.633  1.00  0.00    -0.557 A  
HETATM   38  N   UNL     1     -12.923  11.656  62.754  1.00  0.00    -0.665 NA 
HETATM   39  C   UNL     1     -12.384  13.839  63.653  1.00  0.00    -0.256 A  
HETATM   40  H1  UNL     1     -13.473  12.078  62.005  1.00  0.00     0.000 HD 
HETATM   41  C   UNL     1     -11.741  14.644  64.603  1.00  0.00    -0.431 A  
HETATM   42  H2  UNL     1     -13.539  11.058  63.304  1.00  0.00     0.000 HD 
ENDBRANCH  31  34
ENDBRANCH  26  31
ENDBRANCH  25  26
ENDBRANCH  22  25
ENDBRANCH  14  22
ENDBRANCH  12  14
ENDBRANCH   9  10
ENDBRANCH   8   9
TORSDOF 11
ENDMDL
MODEL      176
REMARK 921   NORMALIZED FREE ENERGY PREDICTED BY IDOCK:   -5.23 KCAL/MOL
REMARK 922        TOTAL FREE ENERGY PREDICTED BY IDOCK:  -11.22 KCAL/MOL
REMARK 923 INTER-LIGAND FREE ENERGY PREDICTED BY IDOCK:   -9.91 KCAL/MOL
REMARK 924 INTRA-LIGAND FREE ENERGY PREDICTED BY IDOCK:   -1.32 KCAL/MOL
REMARK 927      BINDING AFFINITY PREDICTED BY RF-SCORE:    0.00 PKD
ROOT
HETATM    1  C   UNL     1      -8.543   5.912  66.987  1.00  0.00    -0.110 C  
HETATM    2  C   UNL     1      -7.981   6.117  65.592  1.00  0.00    -0.114 C  
HETATM    3  C   UNL     1      -7.917   4.724  64.994  1.00  0.00    -0.097 C  
HETATM    4  O   UNL     1      -8.496   3.812  65.926  1.00  0.00    -0.108 OA 
HETATM    5  C   UNL     1      -9.213   4.563  66.895  1.00  0.00    -0.133 C  
HETATM    6  O   UNL     1     -10.554   4.815  66.477  1.00  0.00    -0.259 OA 
HETATM    7  C   UNL     1     -10.931   6.094  66.997  1.00  0.00    -0.330 C  
HETATM    8  C   UNL     1      -9.665   6.838  67.422  1.00  0.00    -0.133 C  
ENDROOT
BRANCH   8   9
HETATM    9  O   UNL     1      -9.622   8.100  66.738  1.00  0.00    -0.182 OA 
BRANCH   9  10
HETATM   10  C   UNL     1      -9.831   9.203  67.498  1.00  0.00    -0.177 C  
HETATM   11  O   UNL     1      -9.061  10.143  67.596  1.00  0.00    -0.137 OA 
HETATM   12  N   UNL     1     -10.993   9.033  68.194  1.00  0.00    -0.482 N  
HETATM   13  H   UNL     1     -11.595   8.249  67.944  1.00  0.00     0.000 HD 
BRANCH  12  14
HETATM   14  C   UNL     1     -11.422   9.922  69.284  1.00  0.00     0.007 C  
BRANCH  14  15
HETATM   15  C   UNL     1     -10.292  10.118  70.346  1.00  0.00    -0.178 C  
BRANCH  15  16
HETATM   16  C   UNL     1     -10.161   9.031  71.401  1.00  0.00    -0.399 A  
HETATM   17  C   UNL     1      -8.903   8.515  71.739  1.00  0.00    -0.278 A  
HETATM   18  C   UNL     1     -11.295   8.493  72.030  1.00  0.00    -0.425 A  
HETATM   19  C   UNL     1      -8.783   7.486  72.677  1.00  0.00    -0.165 A  
HETATM   20  C   UNL     1      -9.917   6.967  73.298  1.00  0.00    -0.264 A  
HETATM   21  C   UNL     1     -11.173   7.476  72.981  1.00  0.00    -0.373 A  
ENDBRANCH  15  16
ENDBRANCH  14  15
BRANCH  14  22
HETATM   22  C   UNL     1     -11.952  11.306  68.799  1.00  0.00    -0.282 C  
HETATM   23  O   UNL     1     -11.936  11.383  67.366  1.00  0.00    -0.606 OA 
HETATM   24  H   UNL     1     -12.260  12.226  67.070  1.00  0.00     0.000 HD 
BRANCH  22  25
HETATM   25  C   UNL     1     -11.340  12.575  69.425  1.00  0.00    -0.210 C  
BRANCH  25  26
HETATM   26  N   UNL     1     -12.085  13.902  69.317  1.00  0.00    -0.349 N  
BRANCH  26  27
HETATM   27  C   UNL     1     -12.119  14.623  70.665  1.00  0.00    -0.317 C  
HETATM   28  C   UNL     1     -13.344  14.438  71.586  1.00  0.00    -0.442 C  
HETATM   29  C   UNL     1     -13.558  13.003  72.059  1.00  0.00    -0.530 C  
HETATM   30  C   UNL     1     -13.169  15.317  72.839  1.00  0.00    -0.610 C  
ENDBRANCH  26  27
BRANCH  26  31
HETATM   31  S   UNL     1     -11.336  14.885  68.060  1.00  0.00    -0.334 S  
HETATM   32  O   UNL     1     -11.692  14.343  66.772  1.00  0.00    -0.371 OA 
HETATM   33  O   UNL     1     -11.614  16.267  68.405  1.00  0.00    -0.327 OA 
BRANCH  31  34
HETATM   34  C   UNL     1      -9.576  14.625  68.274  1.00  0.00    -0.208 A  
HETATM   35  C   UNL     1      -7.572  13.352  67.816  1.00  0.00    -0.157 A  
HETATM   36  C   UNL     1      -8.936  13.592  67.589  1.00  0.00    -0.200 A  
HETATM   37  C   UNL     1      -6.850  14.102  68.751  1.00  0.00    -0.101 A  
HETATM   38  N   UNL     1      -5.473  13.924  68.892  1.00  0.00    -0.073 NA 
HETATM   39  C   UNL     1      -7.485  15.186  69.363  1.00  0.00    -0.204 A  
HETATM   40  H1  UNL     1      -4.946  14.471  69.573  1.00  0.00     0.000 HD 
HETATM   41  C   UNL     1      -8.845  15.443  69.142  1.00  0.00    -0.249 A  
HETATM   42  H2  UNL     1      -5.039  14.051  67.977  1.00  0.00     0.000 HD 
ENDBRANCH  31  34
ENDBRANCH  26  31
ENDBRANCH  25  26
ENDBRANCH  22  25
ENDBRANCH  14  22
ENDBRANCH  12  14
ENDBRANCH   9  10
ENDBRANCH   8   9
TORSDOF 11
ENDMDL
MODEL      177
REMARK 921   NORMALIZED FREE ENERGY PREDICTED BY IDOCK:   -5.23 KCAL/MOL
REMARK 922        TOTAL FREE ENERGY PREDICTED BY IDOCK:  -11.22 KCAL/MOL
REMARK 923 INTER-LIGAND FREE ENERGY PREDICTED BY IDOCK:   -8.93 KCAL/MOL
REMARK 924 INTRA-LIGAND FREE ENERGY PREDICTED BY IDOCK:   -2.29 KCAL/MOL
REMARK 927      BINDING AFFINITY PREDICTED BY RF-SCORE:    0.00 PKD
ROOT
HETATM    1  C   UNL     1     -10.738   9.672  70.167  1.00  0.00    -0.321 C  
HETATM    2  C   UNL     1     -11.190   8.402  69.470  1.00  0.00     0.148 C  
HETATM    3  C   UNL     1     -11.249   7.359  70.570  1.00  0.00    -0.274 C  
HETATM    4  O   UNL     1     -10.961   8.003  71.811  1.00  0.00    -0.233 OA 
HETATM    5  C   UNL     1     -11.063   9.406  71.616  1.00  0.00    -0.339 C  
HETATM    6  O   UNL     1     -12.399   9.868  71.813  1.00  0.00    -0.383 OA 
HETATM    7  C   UNL     1     -12.608  10.965  70.918  1.00  0.00    -0.397 C  
HETATM    8  C   UNL     1     -11.508  10.943  69.857  1.00  0.00    -0.323 C  
ENDROOT
BRANCH   8   9
HETATM    9  O   UNL     1     -12.123  10.899  68.559  1.00  0.00    -0.545 OA 
BRANCH   9  10
HETATM   10  C   UNL     1     -11.865  11.946  67.737  1.00  0.00    -0.219 C  
HETATM   11  O   UNL     1     -12.220  12.027  66.573  1.00  0.00    -0.548 OA 
HETATM   12  N   UNL     1     -11.072  12.834  68.404  1.00  0.00    -0.246 N  
HETATM   13  H   UNL     1     -10.932  12.698  69.406  1.00  0.00     0.000 HD 
BRANCH  12  14
HETATM   14  C   UNL     1     -10.409  13.976  67.756  1.00  0.00    -0.236 C  
BRANCH  14  15
HETATM   15  C   UNL     1     -10.149  15.140  68.767  1.00  0.00    -0.226 C  
BRANCH  15  16
HETATM   16  C   UNL     1     -10.180  16.549  68.196  1.00  0.00    -0.271 A  
HETATM   17  C   UNL     1     -10.084  17.661  69.042  1.00  0.00    -0.300 A  
HETATM   18  C   UNL     1     -10.343  16.767  66.819  1.00  0.00    -0.293 A  
HETATM   19  C   UNL     1     -10.155  18.958  68.525  1.00  0.00    -0.460 A  
HETATM   20  C   UNL     1     -10.311  19.159  67.155  1.00  0.00    -0.511 A  
HETATM   21  C   UNL     1     -10.397  18.064  66.300  1.00  0.00    -0.384 A  
ENDBRANCH  15  16
ENDBRANCH  14  15
BRANCH  14  22
HETATM   22  C   UNL     1      -9.091  13.601  67.013  1.00  0.00    -0.248 C  
HETATM   23  O   UNL     1      -9.375  12.897  65.796  1.00  0.00    -0.461 OA 
HETATM   24  H   UNL     1      -8.572  12.669  65.343  1.00  0.00     0.000 HD 
BRANCH  22  25
HETATM   25  C   UNL     1      -7.985  12.888  67.817  1.00  0.00    -0.162 C  
BRANCH  25  26
HETATM   26  N   UNL     1      -7.817  11.377  67.688  1.00  0.00    -0.117 N  
BRANCH  26  27
HETATM   27  C   UNL     1      -7.793  10.951  66.221  1.00  0.00    -0.158 C  
HETATM   28  C   UNL     1      -8.267   9.531  65.842  1.00  0.00    -0.115 C  
HETATM   29  C   UNL     1      -9.734   9.257  66.164  1.00  0.00    -0.349 C  
HETATM   30  C   UNL     1      -8.079   9.325  64.327  1.00  0.00    -0.144 C  
ENDBRANCH  26  27
BRANCH  26  31
HETATM   31  S   UNL     1      -6.358  10.882  68.545  1.00  0.00    -0.050 S  
HETATM   32  O   UNL     1      -5.384  10.432  67.583  1.00  0.00    -0.043 OA 
HETATM   33  O   UNL     1      -6.059  11.946  69.487  1.00  0.00    -0.085 OA 
BRANCH  31  34
HETATM   34  C   UNL     1      -6.859   9.451  69.500  1.00  0.00    -0.049 A  
HETATM   35  C   UNL     1      -7.632   7.163  69.600  1.00  0.00    -0.104 A  
HETATM   36  C   UNL     1      -7.173   8.257  68.851  1.00  0.00    -0.078 A  
HETATM   37  C   UNL     1      -7.824   7.260  70.983  1.00  0.00    -0.097 A  
HETATM   38  N   UNL     1      -8.180   6.137  71.730  1.00  0.00    -0.114 NA 
HETATM   39  C   UNL     1      -7.425   8.434  71.625  1.00  0.00    -0.118 A  
HETATM   40  H1  UNL     1      -8.320   6.207  72.738  1.00  0.00     0.000 HD 
HETATM   41  C   UNL     1      -6.958   9.535  70.893  1.00  0.00    -0.076 A  
HETATM   42  H2  UNL     1      -7.492   5.405  71.554  1.00  0.00     0.000 HD 
ENDBRANCH  31  34
ENDBRANCH  26  31
ENDBRANCH  25  26
ENDBRANCH  22  25
ENDBRANCH  14  22
ENDBRANCH  12  14
ENDBRANCH   9  10
ENDBRANCH   8   9
TORSDOF 11
ENDMDL
MODEL      178
REMARK 921   NORMALIZED FREE ENERGY PREDICTED BY IDOCK:   -5.23 KCAL/MOL
REMARK 922        TOTAL FREE ENERGY PREDICTED BY IDOCK:  -11.21 KCAL/MOL
REMARK 923 INTER-LIGAND FREE ENERGY PREDICTED BY IDOCK:   -9.20 KCAL/MOL
REMARK 924 INTRA-LIGAND FREE ENERGY PREDICTED BY IDOCK:   -2.01 KCAL/MOL
REMARK 927      BINDING AFFINITY PREDICTED BY RF-SCORE:    0.00 PKD
ROOT
HETATM    1  C   UNL     1     -12.112   8.673  71.927  1.00  0.00    -0.422 C  
HETATM    2  C   UNL     1     -12.841   7.470  71.357  1.00  0.00    -0.381 C  
HETATM    3  C   UNL     1     -14.287   7.665  71.769  1.00  0.00    -0.452 C  
HETATM    4  O   UNL     1     -14.398   8.927  72.424  1.00  0.00    -0.513 OA 
HETATM    5  C   UNL     1     -13.220   9.672  72.153  1.00  0.00    -0.444 C  
HETATM    6  O   UNL     1     -13.336  10.416  70.941  1.00  0.00    -0.337 OA 
HETATM    7  C   UNL     1     -12.035  10.471  70.347  1.00  0.00    -0.335 C  
HETATM    8  C   UNL     1     -11.157   9.405  71.001  1.00  0.00    -0.344 C  
ENDROOT
BRANCH   8   9
HETATM    9  O   UNL     1     -10.634   8.546  69.975  1.00  0.00    -0.220 OA 
BRANCH   9  10
HETATM   10  C   UNL     1     -10.352   9.135  68.786  1.00  0.00    -0.214 C  
HETATM   11  O   UNL     1     -10.857   8.833  67.718  1.00  0.00    -0.167 OA 
HETATM   12  N   UNL     1      -9.352  10.042  68.981  1.00  0.00    -0.170 N  
HETATM   13  H   UNL     1      -9.088  10.273  69.939  1.00  0.00     0.000 HD 
BRANCH  12  14
HETATM   14  C   UNL     1      -8.635  10.707  67.881  1.00  0.00    -0.124 C  
BRANCH  14  15
HETATM   15  C   UNL     1      -9.264  12.097  67.541  1.00  0.00    -0.182 C  
BRANCH  15  16
HETATM   16  C   UNL     1     -10.237  12.130  66.373  1.00  0.00    -0.245 A  
HETATM   17  C   UNL     1      -9.937  11.463  65.178  1.00  0.00    -0.310 A  
HETATM   18  C   UNL     1     -11.435  12.858  66.451  1.00  0.00    -0.389 A  
HETATM   19  C   UNL     1     -10.809  11.527  64.088  1.00  0.00    -0.435 A  
HETATM   20  C   UNL     1     -11.999  12.248  64.182  1.00  0.00    -0.518 A  
HETATM   21  C   UNL     1     -12.316  12.907  65.367  1.00  0.00    -0.538 A  
ENDBRANCH  15  16
ENDBRANCH  14  15
BRANCH  14  22
HETATM   22  C   UNL     1      -7.102  10.853  68.125  1.00  0.00    -0.077 C  
HETATM   23  O   UNL     1      -6.493  11.633  67.087  1.00  0.00    -0.108 OA 
HETATM   24  H   UNL     1      -5.559  11.722  67.236  1.00  0.00     0.000 HD 
BRANCH  22  25
HETATM   25  C   UNL     1      -6.289   9.572  68.402  1.00  0.00    -0.052 C  
BRANCH  25  26
HETATM   26  N   UNL     1      -6.909   8.452  69.231  1.00  0.00    -0.046 N  
BRANCH  26  27
HETATM   27  C   UNL     1      -6.574   7.082  68.641  1.00  0.00    -0.054 C  
HETATM   28  C   UNL     1      -7.632   6.351  67.787  1.00  0.00    -0.102 C  
HETATM   29  C   UNL     1      -8.024   7.091  66.511  1.00  0.00    -0.108 C  
HETATM   30  C   UNL     1      -7.082   4.973  67.373  1.00  0.00    -0.066 C  
ENDBRANCH  26  27
BRANCH  26  31
HETATM   31  S   UNL     1      -6.369   8.602  70.903  1.00  0.00    -0.050 S  
HETATM   32  O   UNL     1      -5.157   7.839  71.070  1.00  0.00    -0.026 OA 
HETATM   33  O   UNL     1      -6.425  10.017  71.222  1.00  0.00    -0.319 OA 
BRANCH  31  34
HETATM   34  C   UNL     1      -7.643   7.787  71.863  1.00  0.00    -0.086 A  
HETATM   35  C   UNL     1      -9.305   6.046  72.093  1.00  0.00    -0.155 A  
HETATM   36  C   UNL     1      -8.259   6.638  71.368  1.00  0.00    -0.116 A  
HETATM   37  C   UNL     1      -9.772   6.612  73.285  1.00  0.00    -0.170 A  
HETATM   38  N   UNL     1     -10.739   5.959  74.050  1.00  0.00    -0.379 NA 
HETATM   39  C   UNL     1      -9.087   7.713  73.807  1.00  0.00    -0.332 A  
HETATM   40  H1  UNL     1     -11.079   6.372  74.918  1.00  0.00     0.000 HD 
HETATM   41  C   UNL     1      -8.037   8.312  73.098  1.00  0.00    -0.215 A  
HETATM   42  H2  UNL     1     -10.402   5.018  74.255  1.00  0.00     0.000 HD 
ENDBRANCH  31  34
ENDBRANCH  26  31
ENDBRANCH  25  26
ENDBRANCH  22  25
ENDBRANCH  14  22
ENDBRANCH  12  14
ENDBRANCH   9  10
ENDBRANCH   8   9
TORSDOF 11
ENDMDL
MODEL      179
REMARK 921   NORMALIZED FREE ENERGY PREDICTED BY IDOCK:   -5.22 KCAL/MOL
REMARK 922        TOTAL FREE ENERGY PREDICTED BY IDOCK:  -11.21 KCAL/MOL
REMARK 923 INTER-LIGAND FREE ENERGY PREDICTED BY IDOCK:   -9.15 KCAL/MOL
REMARK 924 INTRA-LIGAND FREE ENERGY PREDICTED BY IDOCK:   -2.06 KCAL/MOL
REMARK 927      BINDING AFFINITY PREDICTED BY RF-SCORE:    0.00 PKD
ROOT
HETATM    1  C   UNL     1      -9.372   5.331  67.372  1.00  0.00    -0.122 C  
HETATM    2  C   UNL     1     -10.492   5.039  66.390  1.00  0.00    -0.349 C  
HETATM    3  C   UNL     1      -9.924   3.986  65.459  1.00  0.00    -0.168 C  
HETATM    4  O   UNL     1      -8.628   3.625  65.932  1.00  0.00    -0.109 OA 
HETATM    5  C   UNL     1      -8.488   4.114  67.259  1.00  0.00    -0.100 C  
HETATM    6  O   UNL     1      -8.978   3.178  68.218  1.00  0.00    -0.109 OA 
HETATM    7  C   UNL     1      -9.524   3.929  69.307  1.00  0.00    -0.186 C  
HETATM    8  C   UNL     1      -9.736   5.371  68.845  1.00  0.00    -0.151 C  
ENDROOT
BRANCH   8   9
HETATM    9  O   UNL     1     -11.114   5.722  69.052  1.00  0.00    -0.285 OA 
BRANCH   9  10
HETATM   10  C   UNL     1     -11.386   6.458  70.158  1.00  0.00    -0.420 C  
HETATM   11  O   UNL     1     -12.423   6.407  70.796  1.00  0.00    -0.100 OA 
HETATM   12  N   UNL     1     -10.348   7.319  70.369  1.00  0.00    -0.205 N  
HETATM   13  H   UNL     1      -9.495   7.190  69.825  1.00  0.00     0.000 HD 
BRANCH  12  14
HETATM   14  C   UNL     1     -10.394   8.421  71.342  1.00  0.00    -0.222 C  
BRANCH  14  15
HETATM   15  C   UNL     1      -9.001   8.658  72.011  1.00  0.00    -0.286 C  
BRANCH  15  16
HETATM   16  C   UNL     1      -7.990   7.530  71.881  1.00  0.00    -0.100 A  
HETATM   17  C   UNL     1      -6.863   7.676  71.062  1.00  0.00    -0.049 A  
HETATM   18  C   UNL     1      -8.180   6.308  72.545  1.00  0.00    -0.106 A  
HETATM   19  C   UNL     1      -5.953   6.627  70.906  1.00  0.00    -0.028 A  
HETATM   20  C   UNL     1      -6.152   5.421  71.577  1.00  0.00    -0.033 A  
HETATM   21  C   UNL     1      -7.261   5.264  72.403  1.00  0.00    -0.092 A  
ENDBRANCH  15  16
ENDBRANCH  14  15
BRANCH  14  22
HETATM   22  C   UNL     1     -10.944   9.757  70.755  1.00  0.00    -0.336 C  
HETATM   23  O   UNL     1     -12.291   9.592  70.289  1.00  0.00    -0.471 OA 
HETATM   24  H   UNL     1     -12.626  10.406  69.932  1.00  0.00     0.000 HD 
BRANCH  22  25
HETATM   25  C   UNL     1     -10.085  10.495  69.709  1.00  0.00    -0.081 C  
BRANCH  25  26
HETATM   26  N   UNL     1     -10.759  11.414  68.695  1.00  0.00    -0.196 N  
BRANCH  26  27
HETATM   27  C   UNL     1     -10.670  12.875  69.135  1.00  0.00    -0.016 C  
HETATM   28  C   UNL     1     -11.957  13.610  69.569  1.00  0.00    -0.397 C  
HETATM   29  C   UNL     1     -12.632  13.012  70.801  1.00  0.00    -0.321 C  
HETATM   30  C   UNL     1     -11.615  15.076  69.894  1.00  0.00    -0.328 C  
ENDBRANCH  26  27
BRANCH  26  31
HETATM   31  S   UNL     1     -10.034  11.156  67.108  1.00  0.00    -0.190 S  
HETATM   32  O   UNL     1      -8.605  11.309  67.220  1.00  0.00    -0.137 OA 
HETATM   33  O   UNL     1     -10.628   9.941  66.583  1.00  0.00    -0.192 OA 
BRANCH  31  34
HETATM   34  C   UNL     1     -10.635  12.518  66.112  1.00  0.00    -0.253 A  
HETATM   35  C   UNL     1     -10.261  14.641  65.017  1.00  0.00    -0.395 A  
HETATM   36  C   UNL     1      -9.766  13.543  65.738  1.00  0.00    -0.156 A  
HETATM   37  C   UNL     1     -11.621  14.749  64.703  1.00  0.00    -0.399 A  
HETATM   38  N   UNL     1     -12.083  15.790  63.898  1.00  0.00    -1.125 NA 
HETATM   39  C   UNL     1     -12.458  13.674  65.012  1.00  0.00    -0.454 A  
HETATM   40  H1  UNL     1     -13.074  15.869  63.669  1.00  0.00     0.000 HD 
HETATM   41  C   UNL     1     -11.979  12.567  65.726  1.00  0.00    -0.482 A  
HETATM   42  H2  UNL     1     -11.554  15.778  63.025  1.00  0.00     0.000 HD 
ENDBRANCH  31  34
ENDBRANCH  26  31
ENDBRANCH  25  26
ENDBRANCH  22  25
ENDBRANCH  14  22
ENDBRANCH  12  14
ENDBRANCH   9  10
ENDBRANCH   8   9
TORSDOF 11
ENDMDL
MODEL      180
REMARK 921   NORMALIZED FREE ENERGY PREDICTED BY IDOCK:   -5.21 KCAL/MOL
REMARK 922        TOTAL FREE ENERGY PREDICTED BY IDOCK:  -11.18 KCAL/MOL
REMARK 923 INTER-LIGAND FREE ENERGY PREDICTED BY IDOCK:   -9.65 KCAL/MOL
REMARK 924 INTRA-LIGAND FREE ENERGY PREDICTED BY IDOCK:   -1.53 KCAL/MOL
REMARK 927      BINDING AFFINITY PREDICTED BY RF-SCORE:    0.00 PKD
ROOT
HETATM    1  C   UNL     1     -12.901  13.744  65.360  1.00  0.00    -0.455 C  
HETATM    2  C   UNL     1     -12.487  12.360  64.895  1.00  0.00    -0.439 C  
HETATM    3  C   UNL     1     -12.181  12.524  63.419  1.00  0.00    -0.517 C  
HETATM    4  O   UNL     1     -12.303  13.907  63.090  1.00  0.00    -0.696 OA 
HETATM    5  C   UNL     1     -12.325  14.651  64.300  1.00  0.00    -0.349 C  
HETATM    6  O   UNL     1     -11.008  14.984  64.736  1.00  0.00    -0.392 OA 
HETATM    7  C   UNL     1     -11.020  14.988  66.168  1.00  0.00    -0.334 C  
HETATM    8  C   UNL     1     -12.276  14.257  66.645  1.00  0.00    -0.381 C  
ENDROOT
BRANCH   8   9
HETATM    9  O   UNL     1     -11.880  13.187  67.519  1.00  0.00    -0.355 OA 
BRANCH   9  10
HETATM   10  C   UNL     1     -10.860  13.455  68.371  1.00  0.00    -0.264 C  
HETATM   11  O   UNL     1     -10.965  14.076  69.415  1.00  0.00    -0.231 OA 
HETATM   12  N   UNL     1      -9.702  12.995  67.816  1.00  0.00    -0.212 N  
HETATM   13  H   UNL     1      -9.765  12.403  66.988  1.00  0.00     0.000 HD 
BRANCH  12  14
HETATM   14  C   UNL     1      -8.367  13.307  68.349  1.00  0.00    -0.131 C  
BRANCH  14  15
HETATM   15  C   UNL     1      -8.371  14.640  69.167  1.00  0.00    -0.055 C  
BRANCH  15  16
HETATM   16  C   UNL     1      -7.642  15.818  68.540  1.00  0.00    -0.138 A  
HETATM   17  C   UNL     1      -7.000  16.767  69.346  1.00  0.00    -0.176 A  
HETATM   18  C   UNL     1      -7.629  16.002  67.149  1.00  0.00    -0.246 A  
HETATM   19  C   UNL     1      -6.366  17.874  68.775  1.00  0.00    -0.217 A  
HETATM   20  C   UNL     1      -6.355  18.040  67.391  1.00  0.00    -0.174 A  
HETATM   21  C   UNL     1      -6.980  17.100  66.577  1.00  0.00    -0.296 A  
ENDBRANCH  15  16
ENDBRANCH  14  15
BRANCH  14  22
HETATM   22  C   UNL     1      -7.741  12.157  69.195  1.00  0.00     0.234 C  
HETATM   23  O   UNL     1      -6.616  12.633  69.947  1.00  0.00    -0.343 OA 
HETATM   24  H   UNL     1      -6.234  11.932  70.463  1.00  0.00     0.000 HD 
BRANCH  22  25
HETATM   25  C   UNL     1      -7.405  10.833  68.478  1.00  0.00    -0.096 C  
BRANCH  25  26
HETATM   26  N   UNL     1      -8.321   9.627  68.658  1.00  0.00    -0.112 N  
BRANCH  26  27
HETATM   27  C   UNL     1      -8.984   9.642  70.035  1.00  0.00    -0.237 C  
HETATM   28  C   UNL     1      -9.632   8.347  70.572  1.00  0.00    -0.188 C  
HETATM   29  C   UNL     1      -8.651   7.195  70.772  1.00  0.00    -0.146 C  
HETATM   30  C   UNL     1     -10.288   8.639  71.935  1.00  0.00    -0.405 C  
ENDBRANCH  26  27
BRANCH  26  31
HETATM   31  S   UNL     1      -9.507   9.603  67.353  1.00  0.00    -0.144 S  
HETATM   32  O   UNL     1     -10.780  10.036  67.873  1.00  0.00    -0.236 OA 
HETATM   33  O   UNL     1      -8.883  10.268  66.224  1.00  0.00    -0.142 OA 
BRANCH  31  34
HETATM   34  C   UNL     1      -9.672   7.870  66.927  1.00  0.00    -0.219 A  
HETATM   35  C   UNL     1     -10.989   5.844  66.858  1.00  0.00    -0.304 A  
HETATM   36  C   UNL     1     -10.888   7.218  67.128  1.00  0.00    -0.378 A  
HETATM   37  C   UNL     1      -9.879   5.106  66.431  1.00  0.00    -0.193 A  
HETATM   38  N   UNL     1     -10.016   3.766  66.066  1.00  0.00    -0.414 NA 
HETATM   39  C   UNL     1      -8.695   5.792  66.155  1.00  0.00    -0.139 A  
HETATM   40  H1  UNL     1      -9.207   3.228  65.756  1.00  0.00     0.000 HD 
HETATM   41  C   UNL     1      -8.579   7.165  66.413  1.00  0.00    -0.137 A  
HETATM   42  H2  UNL     1     -10.736   3.703  65.347  1.00  0.00     0.000 HD 
ENDBRANCH  31  34
ENDBRANCH  26  31
ENDBRANCH  25  26
ENDBRANCH  22  25
ENDBRANCH  14  22
ENDBRANCH  12  14
ENDBRANCH   9  10
ENDBRANCH   8   9
TORSDOF 11
ENDMDL
MODEL      181
REMARK 921   NORMALIZED FREE ENERGY PREDICTED BY IDOCK:   -5.21 KCAL/MOL
REMARK 922        TOTAL FREE ENERGY PREDICTED BY IDOCK:  -11.18 KCAL/MOL
REMARK 923 INTER-LIGAND FREE ENERGY PREDICTED BY IDOCK:   -8.85 KCAL/MOL
REMARK 924 INTRA-LIGAND FREE ENERGY PREDICTED BY IDOCK:   -2.33 KCAL/MOL
REMARK 927      BINDING AFFINITY PREDICTED BY RF-SCORE:    0.00 PKD
ROOT
HETATM    1  C   UNL     1     -11.077  14.121  69.699  1.00  0.00    -0.188 C  
HETATM    2  C   UNL     1     -12.304  13.806  70.535  1.00  0.00    -0.429 C  
HETATM    3  C   UNL     1     -12.682  15.127  71.178  1.00  0.00    -0.385 C  
HETATM    4  O   UNL     1     -11.812  16.136  70.668  1.00  0.00    -0.348 OA 
HETATM    5  C   UNL     1     -11.156  15.618  69.519  1.00  0.00    -0.298 C  
HETATM    6  O   UNL     1     -11.922  15.834  68.335  1.00  0.00    -0.269 OA 
HETATM    7  C   UNL     1     -11.681  14.726  67.462  1.00  0.00    -0.348 C  
HETATM    8  C   UNL     1     -11.056  13.593  68.276  1.00  0.00    -0.256 C  
ENDROOT
BRANCH   8   9
HETATM    9  O   UNL     1     -11.866  12.416  68.124  1.00  0.00    -0.338 OA 
BRANCH   9  10
HETATM   10  C   UNL     1     -11.215  11.280  67.773  1.00  0.00    -0.291 C  
HETATM   11  O   UNL     1     -11.718  10.171  67.723  1.00  0.00    -0.127 OA 
HETATM   12  N   UNL     1      -9.897  11.579  67.582  1.00  0.00    -0.179 N  
HETATM   13  H   UNL     1      -9.624  12.562  67.554  1.00  0.00     0.000 HD 
BRANCH  12  14
HETATM   14  C   UNL     1      -8.850  10.560  67.413  1.00  0.00    -0.132 C  
BRANCH  14  15
HETATM   15  C   UNL     1      -7.857  10.940  66.267  1.00  0.00    -0.158 C  
BRANCH  15  16
HETATM   16  C   UNL     1      -7.724   9.940  65.130  1.00  0.00    -0.131 A  
HETATM   17  C   UNL     1      -7.079  10.298  63.939  1.00  0.00    -0.055 A  
HETATM   18  C   UNL     1      -8.275   8.653  65.231  1.00  0.00    -0.148 A  
HETATM   19  C   UNL     1      -6.993   9.395  62.876  1.00  0.00    -0.096 A  
HETATM   20  C   UNL     1      -7.539   8.118  62.993  1.00  0.00    -0.127 A  
HETATM   21  C   UNL     1      -8.174   7.744  64.175  1.00  0.00    -0.010 A  
ENDBRANCH  15  16
ENDBRANCH  14  15
BRANCH  14  22
HETATM   22  C   UNL     1      -8.067  10.238  68.722  1.00  0.00    -0.120 C  
HETATM   23  O   UNL     1      -6.924  11.094  68.856  1.00  0.00    -0.079 OA 
HETATM   24  H   UNL     1      -6.447  10.898  69.653  1.00  0.00     0.000 HD 
BRANCH  22  25
HETATM   25  C   UNL     1      -7.689   8.767  68.994  1.00  0.00    -0.091 C  
BRANCH  25  26
HETATM   26  N   UNL     1      -8.788   7.713  69.083  1.00  0.00    -0.139 N  
BRANCH  26  27
HETATM   27  C   UNL     1      -8.551   6.588  68.075  1.00  0.00    -0.118 C  
HETATM   28  C   UNL     1      -9.737   5.696  67.650  1.00  0.00    -0.135 C  
HETATM   29  C   UNL     1     -10.858   6.448  66.936  1.00  0.00    -0.428 C  
HETATM   30  C   UNL     1      -9.228   4.603  66.691  1.00  0.00    -0.130 C  
ENDBRANCH  26  27
BRANCH  26  31
HETATM   31  S   UNL     1      -8.880   7.110  70.737  1.00  0.00    -0.149 S  
HETATM   32  O   UNL     1      -8.831   5.669  70.711  1.00  0.00    -0.135 OA 
HETATM   33  O   UNL     1      -7.925   7.888  71.506  1.00  0.00    -0.090 OA 
BRANCH  31  34
HETATM   34  C   UNL     1     -10.518   7.574  71.295  1.00  0.00    -0.207 A  
HETATM   35  C   UNL     1     -12.855   7.041  71.609  1.00  0.00    -0.408 A  
HETATM   36  C   UNL     1     -11.560   6.649  71.236  1.00  0.00    -0.374 A  
HETATM   37  C   UNL     1     -13.130   8.358  71.998  1.00  0.00    -0.352 A  
HETATM   38  N   UNL     1     -14.397   8.709  72.465  1.00  0.00    -0.795 NA 
HETATM   39  C   UNL     1     -12.060   9.245  72.131  1.00  0.00    -0.353 A  
HETATM   40  H1  UNL     1     -14.597   9.669  72.748  1.00  0.00     0.000 HD 
HETATM   41  C   UNL     1     -10.759   8.867  71.769  1.00  0.00    -0.432 A  
HETATM   42  H2  UNL     1     -14.633   8.092  73.242  1.00  0.00     0.000 HD 
ENDBRANCH  31  34
ENDBRANCH  26  31
ENDBRANCH  25  26
ENDBRANCH  22  25
ENDBRANCH  14  22
ENDBRANCH  12  14
ENDBRANCH   9  10
ENDBRANCH   8   9
TORSDOF 11
ENDMDL
MODEL      182
REMARK 921   NORMALIZED FREE ENERGY PREDICTED BY IDOCK:   -5.20 KCAL/MOL
REMARK 922        TOTAL FREE ENERGY PREDICTED BY IDOCK:  -11.17 KCAL/MOL
REMARK 923 INTER-LIGAND FREE ENERGY PREDICTED BY IDOCK:   -8.46 KCAL/MOL
REMARK 924 INTRA-LIGAND FREE ENERGY PREDICTED BY IDOCK:   -2.71 KCAL/MOL
REMARK 927      BINDING AFFINITY PREDICTED BY RF-SCORE:    0.00 PKD
ROOT
HETATM    1  C   UNL     1      -7.611   8.438  62.538  1.00  0.00    -0.114 C  
HETATM    2  C   UNL     1      -8.087   7.043  62.902  1.00  0.00    -0.038 C  
HETATM    3  C   UNL     1      -6.875   6.155  62.690  1.00  0.00    -0.041 C  
HETATM    4  O   UNL     1      -5.770   6.986  62.340  1.00  0.00    -0.035 OA 
HETATM    5  C   UNL     1      -6.110   8.330  62.647  1.00  0.00    -0.086 C  
HETATM    6  O   UNL     1      -5.787   8.659  63.997  1.00  0.00    -0.068 OA 
HETATM    7  C   UNL     1      -6.766   9.597  64.455  1.00  0.00    -0.103 C  
HETATM    8  C   UNL     1      -7.959   9.560  63.499  1.00  0.00    -0.139 C  
ENDROOT
BRANCH   8   9
HETATM    9  O   UNL     1      -9.146   9.275  64.257  1.00  0.00    -0.176 OA 
BRANCH   9  10
HETATM   10  C   UNL     1      -9.745  10.334  64.855  1.00  0.00    -0.320 C  
HETATM   11  O   UNL     1     -10.124  11.340  64.280  1.00  0.00    -0.262 OA 
HETATM   12  N   UNL     1      -9.761  10.117  66.202  1.00  0.00    -0.204 N  
HETATM   13  H   UNL     1      -9.506   9.191  66.546  1.00  0.00     0.000 HD 
BRANCH  12  14
HETATM   14  C   UNL     1     -10.128  11.148  67.185  1.00  0.00    -0.191 C  
BRANCH  14  15
HETATM   15  C   UNL     1     -11.609  10.990  67.660  1.00  0.00    -0.228 C  
BRANCH  15  16
HETATM   16  C   UNL     1     -11.956  11.608  69.005  1.00  0.00    -0.368 A  
HETATM   17  C   UNL     1     -12.320  10.797  70.088  1.00  0.00    -0.401 A  
HETATM   18  C   UNL     1     -11.958  13.000  69.182  1.00  0.00    -0.320 A  
HETATM   19  C   UNL     1     -12.681  11.364  71.313  1.00  0.00    -0.498 A  
HETATM   20  C   UNL     1     -12.671  12.749  71.476  1.00  0.00    -0.330 A  
HETATM   21  C   UNL     1     -12.302  13.567  70.412  1.00  0.00    -0.397 A  
ENDBRANCH  15  16
ENDBRANCH  14  15
BRANCH  14  22
HETATM   22  C   UNL     1      -9.171  11.217  68.414  1.00  0.00    -0.175 C  
HETATM   23  O   UNL     1      -8.699  12.556  68.618  1.00  0.00    -0.349 OA 
HETATM   24  H   UNL     1      -8.117  12.598  69.367  1.00  0.00     0.000 HD 
BRANCH  22  25
HETATM   25  C   UNL     1      -8.008  10.207  68.482  1.00  0.00    -0.104 C  
BRANCH  25  26
HETATM   26  N   UNL     1      -8.311   8.719  68.634  1.00  0.00    -0.127 N  
BRANCH  26  27
HETATM   27  C   UNL     1      -7.378   7.877  67.765  1.00  0.00    -0.096 C  
HETATM   28  C   UNL     1      -7.859   6.500  67.260  1.00  0.00    -0.105 C  
HETATM   29  C   UNL     1      -9.078   6.562  66.342  1.00  0.00    -0.172 C  
HETATM   30  C   UNL     1      -6.720   5.826  66.472  1.00  0.00    -0.057 C  
ENDBRANCH  26  27
BRANCH  26  31
HETATM   31  S   UNL     1      -8.205   8.279  70.338  1.00  0.00    -0.118 S  
HETATM   32  O   UNL     1      -7.479   7.039  70.453  1.00  0.00    -0.082 OA 
HETATM   33  O   UNL     1      -7.780   9.475  71.041  1.00  0.00    -0.319 OA 
BRANCH  31  34
HETATM   34  C   UNL     1      -9.897   7.947  70.824  1.00  0.00    -0.180 A  
HETATM   35  C   UNL     1     -11.653   8.011  72.485  1.00  0.00    -0.464 A  
HETATM   36  C   UNL     1     -10.348   8.336  72.086  1.00  0.00    -0.370 A  
HETATM   37  C   UNL     1     -12.499   7.263  71.658  1.00  0.00    -0.359 A  
HETATM   38  N   UNL     1     -13.827   7.036  72.021  1.00  0.00    -0.556 NA 
HETATM   39  C   UNL     1     -12.061   6.957  70.367  1.00  0.00    -0.250 A  
HETATM   40  H1  UNL     1     -14.444   6.491  71.418  1.00  0.00     0.000 HD 
HETATM   41  C   UNL     1     -10.762   7.280  69.950  1.00  0.00    -0.257 A  
HETATM   42  H2  UNL     1     -14.269   7.939  72.197  1.00  0.00     0.000 HD 
ENDBRANCH  31  34
ENDBRANCH  26  31
ENDBRANCH  25  26
ENDBRANCH  22  25
ENDBRANCH  14  22
ENDBRANCH  12  14
ENDBRANCH   9  10
ENDBRANCH   8   9
TORSDOF 11
ENDMDL
MODEL      183
REMARK 921   NORMALIZED FREE ENERGY PREDICTED BY IDOCK:   -5.20 KCAL/MOL
REMARK 922        TOTAL FREE ENERGY PREDICTED BY IDOCK:  -11.17 KCAL/MOL
REMARK 923 INTER-LIGAND FREE ENERGY PREDICTED BY IDOCK:   -9.77 KCAL/MOL
REMARK 924 INTRA-LIGAND FREE ENERGY PREDICTED BY IDOCK:   -1.40 KCAL/MOL
REMARK 927      BINDING AFFINITY PREDICTED BY RF-SCORE:    0.00 PKD
ROOT
HETATM    1  C   UNL     1     -10.100  13.343  65.723  1.00  0.00    -0.297 C  
HETATM    2  C   UNL     1     -10.630  13.505  67.135  1.00  0.00    -0.264 C  
HETATM    3  C   UNL     1     -11.125  14.938  67.199  1.00  0.00    -0.332 C  
HETATM    4  O   UNL     1     -10.990  15.514  65.900  1.00  0.00    -0.320 OA 
HETATM    5  C   UNL     1     -10.773  14.463  64.969  1.00  0.00    -0.423 C  
HETATM    6  O   UNL     1     -12.004  13.930  64.484  1.00  0.00    -0.397 OA 
HETATM    7  C   UNL     1     -11.800  12.534  64.243  1.00  0.00    -0.395 C  
HETATM    8  C   UNL     1     -10.524  12.098  64.964  1.00  0.00    -0.290 C  
ENDROOT
BRANCH   8   9
HETATM    9  O   UNL     1     -10.843  11.009  65.846  1.00  0.00    -0.215 OA 
BRANCH   9  10
HETATM   10  C   UNL     1     -10.010   9.941  65.807  1.00  0.00    -0.277 C  
HETATM   11  O   UNL     1      -9.241   9.685  64.895  1.00  0.00    -0.229 OA 
HETATM   12  N   UNL     1     -10.248   9.167  66.905  1.00  0.00    -0.258 N  
HETATM   13  H   UNL     1     -10.843   9.545  67.643  1.00  0.00     0.000 HD 
BRANCH  12  14
HETATM   14  C   UNL     1      -9.691   7.817  67.082  1.00  0.00    -0.186 C  
BRANCH  14  15
HETATM   15  C   UNL     1      -8.294   7.857  67.782  1.00  0.00    -0.129 C  
BRANCH  15  16
HETATM   16  C   UNL     1      -7.285   6.812  67.334  1.00  0.00    -0.090 A  
HETATM   17  C   UNL     1      -6.786   6.820  66.025  1.00  0.00    -0.052 A  
HETATM   18  C   UNL     1      -6.860   5.798  68.207  1.00  0.00    -0.063 A  
HETATM   19  C   UNL     1      -5.890   5.835  65.598  1.00  0.00    -0.021 A  
HETATM   20  C   UNL     1      -5.472   4.838  66.478  1.00  0.00    -0.013 A  
HETATM   21  C   UNL     1      -5.951   4.823  67.785  1.00  0.00    -0.023 A  
ENDBRANCH  15  16
ENDBRANCH  14  15
BRANCH  14  22
HETATM   22  C   UNL     1     -10.643   6.836  67.832  1.00  0.00    -0.242 C  
HETATM   23  O   UNL     1     -11.657   6.336  66.950  1.00  0.00    -0.602 OA 
HETATM   24  H   UNL     1     -12.237   5.738  67.407  1.00  0.00     0.000 HD 
BRANCH  22  25
HETATM   25  C   UNL     1     -11.256   7.303  69.168  1.00  0.00     0.106 C  
BRANCH  25  26
HETATM   26  N   UNL     1     -11.178   6.394  70.390  1.00  0.00    -0.343 N  
BRANCH  26  27
HETATM   27  C   UNL     1      -9.727   6.051  70.728  1.00  0.00    -0.175 C  
HETATM   28  C   UNL     1      -9.324   4.570  70.898  1.00  0.00    -0.219 C  
HETATM   29  C   UNL     1      -9.501   3.726  69.638  1.00  0.00    -0.258 C  
HETATM   30  C   UNL     1      -7.839   4.496  71.302  1.00  0.00    -0.085 C  
ENDBRANCH  26  27
BRANCH  26  31
HETATM   31  S   UNL     1     -12.006   7.169  71.741  1.00  0.00    -0.329 S  
HETATM   32  O   UNL     1     -13.385   6.749  71.744  1.00  0.00    -0.296 OA 
HETATM   33  O   UNL     1     -11.153   6.982  72.901  1.00  0.00    -0.282 OA 
BRANCH  31  34
HETATM   34  C   UNL     1     -11.985   8.915  71.340  1.00  0.00    -0.311 A  
HETATM   35  C   UNL     1     -13.029  11.094  71.407  1.00  0.00    -0.506 A  
HETATM   36  C   UNL     1     -13.016   9.742  71.784  1.00  0.00    -0.536 A  
HETATM   37  C   UNL     1     -12.050  11.619  70.555  1.00  0.00    -0.366 A  
HETATM   38  N   UNL     1     -12.014  12.985  70.272  1.00  0.00    -0.490 NA 
HETATM   39  C   UNL     1     -10.982  10.797  70.190  1.00  0.00    -0.230 A  
HETATM   40  H1  UNL     1     -11.301  13.367  69.651  1.00  0.00     0.000 HD 
HETATM   41  C   UNL     1     -10.949   9.446  70.564  1.00  0.00    -0.332 A  
HETATM   42  H2  UNL     1     -11.974  13.493  71.155  1.00  0.00     0.000 HD 
ENDBRANCH  31  34
ENDBRANCH  26  31
ENDBRANCH  25  26
ENDBRANCH  22  25
ENDBRANCH  14  22
ENDBRANCH  12  14
ENDBRANCH   9  10
ENDBRANCH   8   9
TORSDOF 11
ENDMDL
MODEL      184
REMARK 921   NORMALIZED FREE ENERGY PREDICTED BY IDOCK:   -5.19 KCAL/MOL
REMARK 922        TOTAL FREE ENERGY PREDICTED BY IDOCK:  -11.15 KCAL/MOL
REMARK 923 INTER-LIGAND FREE ENERGY PREDICTED BY IDOCK:   -9.05 KCAL/MOL
REMARK 924 INTRA-LIGAND FREE ENERGY PREDICTED BY IDOCK:   -2.10 KCAL/MOL
REMARK 927      BINDING AFFINITY PREDICTED BY RF-SCORE:    0.00 PKD
ROOT
HETATM    1  C   UNL     1     -12.105  13.654  66.425  1.00  0.00    -0.478 C  
HETATM    2  C   UNL     1     -12.319  12.625  65.329  1.00  0.00    -0.528 C  
HETATM    3  C   UNL     1     -11.591  13.190  64.123  1.00  0.00    -0.410 C  
HETATM    4  O   UNL     1     -10.925  14.386  64.524  1.00  0.00    -0.363 OA 
HETATM    5  C   UNL     1     -10.900  14.425  65.944  1.00  0.00    -0.304 C  
HETATM    6  O   UNL     1      -9.760  13.745  66.468  1.00  0.00    -0.277 OA 
HETATM    7  C   UNL     1     -10.149  13.157  67.714  1.00  0.00    -0.226 C  
HETATM    8  C   UNL     1     -11.676  13.135  67.785  1.00  0.00    -0.358 C  
ENDROOT
BRANCH   8   9
HETATM    9  O   UNL     1     -12.106  11.783  68.009  1.00  0.00    -0.572 OA 
BRANCH   9  10
HETATM   10  C   UNL     1     -11.990  11.318  69.278  1.00  0.00    -0.342 C  
HETATM   11  O   UNL     1     -12.266  11.950  70.283  1.00  0.00    -0.309 OA 
HETATM   12  N   UNL     1     -11.430  10.074  69.232  1.00  0.00    -0.445 N  
HETATM   13  H   UNL     1     -11.341   9.617  68.324  1.00  0.00     0.000 HD 
BRANCH  12  14
HETATM   14  C   UNL     1     -10.948   9.358  70.423  1.00  0.00    -0.266 C  
BRANCH  14  15
HETATM   15  C   UNL     1     -11.805   8.083  70.714  1.00  0.00    -0.171 C  
BRANCH  15  16
HETATM   16  C   UNL     1     -11.334   7.200  71.858  1.00  0.00    -0.294 A  
HETATM   17  C   UNL     1     -11.595   5.824  71.849  1.00  0.00    -0.184 A  
HETATM   18  C   UNL     1     -10.664   7.746  72.964  1.00  0.00    -0.446 A  
HETATM   19  C   UNL     1     -11.201   5.016  72.920  1.00  0.00    -0.344 A  
HETATM   20  C   UNL     1     -10.531   5.572  74.008  1.00  0.00    -0.308 A  
HETATM   21  C   UNL     1     -10.255   6.936  74.027  1.00  0.00    -0.384 A  
ENDBRANCH  15  16
ENDBRANCH  14  15
BRANCH  14  22
HETATM   22  C   UNL     1      -9.434   8.989  70.368  1.00  0.00    -0.210 C  
HETATM   23  O   UNL     1      -8.621  10.169  70.430  1.00  0.00    -0.344 OA 
HETATM   24  H   UNL     1      -7.698   9.945  70.397  1.00  0.00     0.000 HD 
BRANCH  22  25
HETATM   25  C   UNL     1      -8.959   8.052  69.240  1.00  0.00    -0.148 C  
BRANCH  25  26
HETATM   26  N   UNL     1      -7.975   6.930  69.558  1.00  0.00    -0.122 N  
BRANCH  26  27
HETATM   27  C   UNL     1      -8.694   5.587  69.677  1.00  0.00    -0.108 C  
HETATM   28  C   UNL     1      -8.021   4.440  70.463  1.00  0.00    -0.059 C  
HETATM   29  C   UNL     1      -7.800   4.745  71.943  1.00  0.00    -0.100 C  
HETATM   30  C   UNL     1      -8.907   3.183  70.376  1.00  0.00    -0.149 C  
ENDBRANCH  26  27
BRANCH  26  31
HETATM   31  S   UNL     1      -6.715   6.899  68.325  1.00  0.00    -0.070 S  
HETATM   32  O   UNL     1      -6.610   8.210  67.734  1.00  0.00    -0.055 OA 
HETATM   33  O   UNL     1      -5.569   6.246  68.931  1.00  0.00    -0.014 OA 
BRANCH  31  34
HETATM   34  C   UNL     1      -7.348   5.799  67.061  1.00  0.00    -0.080 A  
HETATM   35  C   UNL     1      -7.301   3.669  65.919  1.00  0.00    -0.076 A  
HETATM   36  C   UNL     1      -6.850   4.501  66.955  1.00  0.00    -0.052 A  
HETATM   37  C   UNL     1      -8.210   4.132  64.960  1.00  0.00    -0.102 A  
HETATM   38  N   UNL     1      -8.730   3.265  63.998  1.00  0.00    -0.089 NA 
HETATM   39  C   UNL     1      -8.761   5.404  65.132  1.00  0.00    -0.133 A  
HETATM   40  H1  UNL     1      -9.392   3.603  63.300  1.00  0.00     0.000 HD 
HETATM   41  C   UNL     1      -8.326   6.246  66.165  1.00  0.00    -0.130 A  
HETATM   42  H2  UNL     1      -9.151   2.470  64.479  1.00  0.00     0.000 HD 
ENDBRANCH  31  34
ENDBRANCH  26  31
ENDBRANCH  25  26
ENDBRANCH  22  25
ENDBRANCH  14  22
ENDBRANCH  12  14
ENDBRANCH   9  10
ENDBRANCH   8   9
TORSDOF 11
ENDMDL
MODEL      185
REMARK 921   NORMALIZED FREE ENERGY PREDICTED BY IDOCK:   -5.19 KCAL/MOL
REMARK 922        TOTAL FREE ENERGY PREDICTED BY IDOCK:  -11.15 KCAL/MOL
REMARK 923 INTER-LIGAND FREE ENERGY PREDICTED BY IDOCK:   -9.84 KCAL/MOL
REMARK 924 INTRA-LIGAND FREE ENERGY PREDICTED BY IDOCK:   -1.31 KCAL/MOL
REMARK 927      BINDING AFFINITY PREDICTED BY RF-SCORE:    0.00 PKD
ROOT
HETATM    1  C   UNL     1     -10.230   8.055  72.016  1.00  0.00    -0.288 C  
HETATM    2  C   UNL     1      -9.890   6.900  71.092  1.00  0.00    -0.184 C  
HETATM    3  C   UNL     1     -11.025   5.911  71.276  1.00  0.00    -0.259 C  
HETATM    4  O   UNL     1     -11.989   6.497  72.150  1.00  0.00    -0.316 OA 
HETATM    5  C   UNL     1     -11.711   7.886  72.248  1.00  0.00    -0.355 C  
HETATM    6  O   UNL     1     -12.360   8.627  71.215  1.00  0.00    -0.295 OA 
HETATM    7  C   UNL     1     -11.511   9.729  70.882  1.00  0.00    -0.369 C  
HETATM    8  C   UNL     1     -10.116   9.456  71.444  1.00  0.00    -0.193 C  
ENDROOT
BRANCH   8   9
HETATM    9  O   UNL     1      -9.165   9.525  70.368  1.00  0.00    -0.242 OA 
BRANCH   9  10
HETATM   10  C   UNL     1      -9.652   9.900  69.160  1.00  0.00    -0.199 C  
HETATM   11  O   UNL     1     -10.141   9.145  68.337  1.00  0.00    -0.182 OA 
HETATM   12  N   UNL     1      -9.416  11.234  68.994  1.00  0.00    -0.398 N  
HETATM   13  H   UNL     1      -9.093  11.771  69.799  1.00  0.00     0.000 HD 
BRANCH  12  14
HETATM   14  C   UNL     1      -9.604  11.938  67.716  1.00  0.00    -0.190 C  
BRANCH  14  15
HETATM   15  C   UNL     1     -11.115  12.209  67.424  1.00  0.00    -0.330 C  
BRANCH  15  16
HETATM   16  C   UNL     1     -11.477  12.536  65.985  1.00  0.00    -0.423 A  
HETATM   17  C   UNL     1     -12.093  13.752  65.664  1.00  0.00    -0.444 A  
HETATM   18  C   UNL     1     -11.238  11.615  64.952  1.00  0.00    -0.287 A  
HETATM   19  C   UNL     1     -12.465  14.038  64.348  1.00  0.00    -0.326 A  
HETATM   20  C   UNL     1     -12.215  13.116  63.332  1.00  0.00    -0.521 A  
HETATM   21  C   UNL     1     -11.594  11.907  63.633  1.00  0.00    -0.559 A  
ENDBRANCH  15  16
ENDBRANCH  14  15
BRANCH  14  22
HETATM   22  C   UNL     1      -8.786  13.260  67.599  1.00  0.00    -0.195 C  
HETATM   23  O   UNL     1      -7.381  12.984  67.511  1.00  0.00    -0.139 OA 
HETATM   24  H   UNL     1      -6.882  13.789  67.439  1.00  0.00     0.000 HD 
BRANCH  22  25
HETATM   25  C   UNL     1      -9.065  14.376  68.626  1.00  0.00    -0.178 C  
BRANCH  25  26
HETATM   26  N   UNL     1      -9.717  15.676  68.165  1.00  0.00    -0.204 N  
BRANCH  26  27
HETATM   27  C   UNL     1     -11.190  15.724  68.571  1.00  0.00    -0.354 C  
HETATM   28  C   UNL     1     -11.644  14.984  69.847  1.00  0.00    -0.328 C  
HETATM   29  C   UNL     1     -11.007  15.507  71.132  1.00  0.00    -0.275 C  
HETATM   30  C   UNL     1     -13.171  15.125  69.996  1.00  0.00     0.208 C  
ENDBRANCH  26  27
BRANCH  26  31
HETATM   31  S   UNL     1      -8.807  17.041  68.813  1.00  0.00    -0.207 S  
HETATM   32  O   UNL     1      -9.736  18.015  69.331  1.00  0.00    -0.039 OA 
HETATM   33  O   UNL     1      -7.760  16.473  69.644  1.00  0.00    -0.003 OA 
BRANCH  31  34
HETATM   34  C   UNL     1      -8.015  17.773  67.383  1.00  0.00    -0.211 A  
HETATM   35  C   UNL     1      -6.354  17.681  65.628  1.00  0.00    -0.047 A  
HETATM   36  C   UNL     1      -7.018  17.072  66.704  1.00  0.00    -0.284 A  
HETATM   37  C   UNL     1      -6.642  18.997  65.250  1.00  0.00    -0.235 A  
HETATM   38  N   UNL     1      -6.051  19.555  64.115  1.00  0.00    -0.392 NA 
HETATM   39  C   UNL     1      -7.700  19.652  65.886  1.00  0.00    -0.307 A  
HETATM   40  H1  UNL     1      -6.261  20.514  63.840  1.00  0.00     0.000 HD 
HETATM   41  C   UNL     1      -8.378  19.055  66.958  1.00  0.00    -0.291 A  
HETATM   42  H2  UNL     1      -6.246  18.945  63.321  1.00  0.00     0.000 HD 
ENDBRANCH  31  34
ENDBRANCH  26  31
ENDBRANCH  25  26
ENDBRANCH  22  25
ENDBRANCH  14  22
ENDBRANCH  12  14
ENDBRANCH   9  10
ENDBRANCH   8   9
TORSDOF 11
ENDMDL
MODEL      186
REMARK 921   NORMALIZED FREE ENERGY PREDICTED BY IDOCK:   -5.16 KCAL/MOL
REMARK 922        TOTAL FREE ENERGY PREDICTED BY IDOCK:  -11.10 KCAL/MOL
REMARK 923 INTER-LIGAND FREE ENERGY PREDICTED BY IDOCK:   -9.13 KCAL/MOL
REMARK 924 INTRA-LIGAND FREE ENERGY PREDICTED BY IDOCK:   -1.96 KCAL/MOL
REMARK 927      BINDING AFFINITY PREDICTED BY RF-SCORE:    0.00 PKD
ROOT
HETATM    1  C   UNL     1     -13.356  14.408  70.929  1.00  0.00    -0.294 C  
HETATM    2  C   UNL     1     -12.237  15.291  71.449  1.00  0.00    -0.414 C  
HETATM    3  C   UNL     1     -12.744  15.812  72.780  1.00  0.00    -0.454 C  
HETATM    4  O   UNL     1     -14.000  15.193  73.052  1.00  0.00    -0.424 OA 
HETATM    5  C   UNL     1     -14.150  14.088  72.172  1.00  0.00    -0.547 C  
HETATM    6  O   UNL     1     -13.573  12.901  72.715  1.00  0.00    -0.508 OA 
HETATM    7  C   UNL     1     -13.062  12.134  71.620  1.00  0.00    -0.310 C  
HETATM    8  C   UNL     1     -12.967  13.042  70.394  1.00  0.00     0.305 C  
ENDROOT
BRANCH   8   9
HETATM    9  O   UNL     1     -11.615  13.016  69.907  1.00  0.00    -0.263 OA 
BRANCH   9  10
HETATM   10  C   UNL     1     -11.411  12.365  68.736  1.00  0.00    -0.304 C  
HETATM   11  O   UNL     1     -12.262  12.171  67.885  1.00  0.00    -0.438 OA 
HETATM   12  N   UNL     1     -10.131  11.892  68.722  1.00  0.00    -0.369 N  
HETATM   13  H   UNL     1      -9.490  12.211  69.449  1.00  0.00     0.000 HD 
BRANCH  12  14
HETATM   14  C   UNL     1      -9.626  10.947  67.714  1.00  0.00    -0.164 C  
BRANCH  14  15
HETATM   15  C   UNL     1      -8.132  11.233  67.354  1.00  0.00    -0.135 C  
BRANCH  15  16
HETATM   16  C   UNL     1      -7.541  10.409  66.222  1.00  0.00    -0.127 A  
HETATM   17  C   UNL     1      -6.340   9.711  66.401  1.00  0.00    -0.069 A  
HETATM   18  C   UNL     1      -8.162  10.360  64.963  1.00  0.00    -0.152 A  
HETATM   19  C   UNL     1      -5.772   8.987  65.349  1.00  0.00    -0.046 A  
HETATM   20  C   UNL     1      -6.403   8.942  64.107  1.00  0.00    -0.072 A  
HETATM   21  C   UNL     1      -7.603   9.622  63.916  1.00  0.00    -0.127 A  
ENDBRANCH  15  16
ENDBRANCH  14  15
BRANCH  14  22
HETATM   22  C   UNL     1      -9.811   9.449  68.105  1.00  0.00    -0.160 C  
HETATM   23  O   UNL     1     -11.143   9.007  67.811  1.00  0.00    -0.497 OA 
HETATM   24  H   UNL     1     -11.256   8.094  68.049  1.00  0.00     0.000 HD 
BRANCH  22  25
HETATM   25  C   UNL     1      -9.386   9.015  69.522  1.00  0.00    -0.160 C  
BRANCH  25  26
HETATM   26  N   UNL     1      -8.589   7.727  69.707  1.00  0.00    -0.133 N  
BRANCH  26  27
HETATM   27  C   UNL     1      -7.624   7.844  70.886  1.00  0.00    -0.078 C  
HETATM   28  C   UNL     1      -6.195   8.376  70.641  1.00  0.00    -0.036 C  
HETATM   29  C   UNL     1      -6.145   9.812  70.125  1.00  0.00    -0.058 C  
HETATM   30  C   UNL     1      -5.406   8.330  71.963  1.00  0.00    -0.036 C  
ENDBRANCH  26  27
BRANCH  26  31
HETATM   31  S   UNL     1      -9.707   6.377  69.898  1.00  0.00    -0.167 S  
HETATM   32  O   UNL     1     -10.217   6.009  68.601  1.00  0.00    -0.157 OA 
HETATM   33  O   UNL     1      -9.037   5.413  70.751  1.00  0.00    -0.137 OA 
BRANCH  31  34
HETATM   34  C   UNL     1     -11.077   7.055  70.832  1.00  0.00    -0.267 A  
HETATM   35  C   UNL     1     -13.449   7.433  71.101  1.00  0.00    -0.244 A  
HETATM   36  C   UNL     1     -12.386   6.840  70.403  1.00  0.00    -0.069 A  
HETATM   37  C   UNL     1     -13.219   8.275  72.195  1.00  0.00    -0.274 A  
HETATM   38  N   UNL     1     -14.285   8.774  72.944  1.00  0.00    -1.095 NA 
HETATM   39  C   UNL     1     -11.908   8.410  72.661  1.00  0.00    -0.360 A  
HETATM   40  H1  UNL     1     -14.117   9.387  73.741  1.00  0.00     0.000 HD 
HETATM   41  C   UNL     1     -10.835   7.819  71.979  1.00  0.00    -0.295 A  
HETATM   42  H2  UNL     1     -14.849   7.985  73.261  1.00  0.00     0.000 HD 
ENDBRANCH  31  34
ENDBRANCH  26  31
ENDBRANCH  25  26
ENDBRANCH  22  25
ENDBRANCH  14  22
ENDBRANCH  12  14
ENDBRANCH   9  10
ENDBRANCH   8   9
TORSDOF 11
ENDMDL
MODEL      187
REMARK 921   NORMALIZED FREE ENERGY PREDICTED BY IDOCK:   -5.15 KCAL/MOL
REMARK 922        TOTAL FREE ENERGY PREDICTED BY IDOCK:  -11.08 KCAL/MOL
REMARK 923 INTER-LIGAND FREE ENERGY PREDICTED BY IDOCK:   -9.65 KCAL/MOL
REMARK 924 INTRA-LIGAND FREE ENERGY PREDICTED BY IDOCK:   -1.43 KCAL/MOL
REMARK 927      BINDING AFFINITY PREDICTED BY RF-SCORE:    0.00 PKD
ROOT
HETATM    1  C   UNL     1      -8.561   4.809  67.954  1.00  0.00    -0.105 C  
HETATM    2  C   UNL     1      -7.604   5.845  68.515  1.00  0.00    -0.090 C  
HETATM    3  C   UNL     1      -6.441   5.040  69.062  1.00  0.00    -0.036 C  
HETATM    4  O   UNL     1      -6.661   3.667  68.744  1.00  0.00    -0.039 OA 
HETATM    5  C   UNL     1      -7.682   3.598  67.759  1.00  0.00    -0.070 C  
HETATM    6  O   UNL     1      -7.148   3.705  66.440  1.00  0.00    -0.061 OA 
HETATM    7  C   UNL     1      -8.120   4.384  65.639  1.00  0.00    -0.105 C  
HETATM    8  C   UNL     1      -9.124   5.067  66.568  1.00  0.00    -0.125 C  
ENDROOT
BRANCH   8   9
HETATM    9  O   UNL     1      -9.162   6.469  66.252  1.00  0.00    -0.159 OA 
BRANCH   9  10
HETATM   10  C   UNL     1     -10.188   7.177  66.786  1.00  0.00    -0.219 C  
HETATM   11  O   UNL     1     -11.309   6.742  66.986  1.00  0.00    -0.337 OA 
HETATM   12  N   UNL     1      -9.774   8.464  66.968  1.00  0.00    -0.186 N  
HETATM   13  H   UNL     1      -8.782   8.674  66.858  1.00  0.00     0.000 HD 
BRANCH  12  14
HETATM   14  C   UNL     1     -10.684   9.566  67.317  1.00  0.00    -0.199 C  
BRANCH  14  15
HETATM   15  C   UNL     1     -10.255  10.269  68.646  1.00  0.00    -0.196 C  
BRANCH  15  16
HETATM   16  C   UNL     1     -11.124  10.000  69.863  1.00  0.00    -0.336 A  
HETATM   17  C   UNL     1     -12.239  10.804  70.134  1.00  0.00    -0.425 A  
HETATM   18  C   UNL     1     -10.810   8.968  70.762  1.00  0.00    -0.310 A  
HETATM   19  C   UNL     1     -13.015  10.586  71.275  1.00  0.00    -0.532 A  
HETATM   20  C   UNL     1     -12.695   9.553  72.155  1.00  0.00    -0.442 A  
HETATM   21  C   UNL     1     -11.597   8.739  71.894  1.00  0.00    -0.432 A  
ENDBRANCH  15  16
ENDBRANCH  14  15
BRANCH  14  22
HETATM   22  C   UNL     1     -10.862  10.620  66.182  1.00  0.00     0.001 C  
HETATM   23  O   UNL     1     -10.011  10.318  65.068  1.00  0.00    -0.306 OA 
HETATM   24  H   UNL     1     -10.119  10.960  64.376  1.00  0.00     0.000 HD 
BRANCH  22  25
HETATM   25  C   UNL     1     -10.767  12.112  66.560  1.00  0.00    -0.255 C  
BRANCH  25  26
HETATM   26  N   UNL     1     -11.843  13.080  66.079  1.00  0.00    -0.396 N  
BRANCH  26  27
HETATM   27  C   UNL     1     -12.293  14.006  67.210  1.00  0.00    -0.160 C  
HETATM   28  C   UNL     1     -11.716  13.799  68.627  1.00  0.00    -0.391 C  
HETATM   29  C   UNL     1     -10.205  13.998  68.719  1.00  0.00    -0.200 C  
HETATM   30  C   UNL     1     -12.375  14.803  69.591  1.00  0.00    -0.253 C  
ENDBRANCH  26  27
BRANCH  26  31
HETATM   31  S   UNL     1     -11.234  13.981  64.691  1.00  0.00    -0.361 S  
HETATM   32  O   UNL     1     -10.192  13.210  64.058  1.00  0.00    -0.369 OA 
HETATM   33  O   UNL     1     -12.401  14.429  63.953  1.00  0.00    -0.720 OA 
BRANCH  31  34
HETATM   34  C   UNL     1     -10.461  15.433  65.400  1.00  0.00    -0.402 A  
HETATM   35  C   UNL     1     -10.482  17.807  65.861  1.00  0.00    -0.251 A  
HETATM   36  C   UNL     1     -11.123  16.660  65.366  1.00  0.00     0.014 A  
HETATM   37  C   UNL     1      -9.171  17.751  66.347  1.00  0.00    -0.240 A  
HETATM   38  N   UNL     1      -8.583  18.873  66.931  1.00  0.00    -0.282 NA 
HETATM   39  C   UNL     1      -8.557  16.501  66.451  1.00  0.00    -0.347 A  
HETATM   40  H1  UNL     1      -7.627  18.833  67.286  1.00  0.00     0.000 HD 
HETATM   41  C   UNL     1      -9.186  15.345  65.968  1.00  0.00    -0.333 A  
HETATM   42  H2  UNL     1      -9.190  19.196  67.686  1.00  0.00     0.000 HD 
ENDBRANCH  31  34
ENDBRANCH  26  31
ENDBRANCH  25  26
ENDBRANCH  22  25
ENDBRANCH  14  22
ENDBRANCH  12  14
ENDBRANCH   9  10
ENDBRANCH   8   9
TORSDOF 11
ENDMDL
MODEL      188
REMARK 921   NORMALIZED FREE ENERGY PREDICTED BY IDOCK:   -5.14 KCAL/MOL
REMARK 922        TOTAL FREE ENERGY PREDICTED BY IDOCK:  -11.06 KCAL/MOL
REMARK 923 INTER-LIGAND FREE ENERGY PREDICTED BY IDOCK:   -9.77 KCAL/MOL
REMARK 924 INTRA-LIGAND FREE ENERGY PREDICTED BY IDOCK:   -1.29 KCAL/MOL
REMARK 927      BINDING AFFINITY PREDICTED BY RF-SCORE:    0.00 PKD
ROOT
HETATM    1  C   UNL     1      -8.530   9.902  65.978  1.00  0.00    -0.135 C  
HETATM    2  C   UNL     1      -7.243  10.656  65.697  1.00  0.00    -0.084 C  
HETATM    3  C   UNL     1      -6.560   9.860  64.602  1.00  0.00    -0.119 C  
HETATM    4  O   UNL     1      -7.433   8.801  64.211  1.00  0.00    -0.100 OA 
HETATM    5  C   UNL     1      -8.726   9.077  64.730  1.00  0.00    -0.153 C  
HETATM    6  O   UNL     1      -9.488   9.887  63.836  1.00  0.00    -0.273 OA 
HETATM    7  C   UNL     1     -10.331  10.725  64.633  1.00  0.00    -0.324 C  
HETATM    8  C   UNL     1      -9.805  10.720  66.068  1.00  0.00    -0.235 C  
ENDROOT
BRANCH   8   9
HETATM    9  O   UNL     1      -9.551  12.076  66.469  1.00  0.00    -0.212 OA 
BRANCH   9  10
HETATM   10  C   UNL     1      -9.733  12.358  67.783  1.00  0.00    -0.201 C  
HETATM   11  O   UNL     1      -8.989  13.045  68.461  1.00  0.00    -0.152 OA 
HETATM   12  N   UNL     1     -10.826  11.670  68.224  1.00  0.00    -0.207 N  
HETATM   13  H   UNL     1     -11.420  11.212  67.533  1.00  0.00     0.000 HD 
BRANCH  12  14
HETATM   14  C   UNL     1     -11.192  11.554  69.644  1.00  0.00    -0.204 C  
BRANCH  14  15
HETATM   15  C   UNL     1     -12.527  12.305  69.957  1.00  0.00    -0.041 C  
BRANCH  15  16
HETATM   16  C   UNL     1     -12.437  13.460  70.941  1.00  0.00    -0.439 A  
HETATM   17  C   UNL     1     -13.095  13.395  72.177  1.00  0.00    -0.487 A  
HETATM   18  C   UNL     1     -11.729  14.629  70.621  1.00  0.00    -0.339 A  
HETATM   19  C   UNL     1     -13.049  14.472  73.066  1.00  0.00    -0.611 A  
HETATM   20  C   UNL     1     -12.336  15.624  72.737  1.00  0.00    -0.535 A  
HETATM   21  C   UNL     1     -11.669  15.699  71.518  1.00  0.00    -0.504 A  
ENDBRANCH  15  16
ENDBRANCH  14  15
BRANCH  14  22
HETATM   22  C   UNL     1     -11.265  10.084  70.159  1.00  0.00    -0.304 C  
HETATM   23  O   UNL     1     -11.524  10.051  71.569  1.00  0.00    -0.332 OA 
HETATM   24  H   UNL     1     -11.569   9.155  71.883  1.00  0.00     0.000 HD 
BRANCH  22  25
HETATM   25  C   UNL     1     -10.112   9.130  69.787  1.00  0.00    -0.199 C  
BRANCH  25  26
HETATM   26  N   UNL     1      -9.815   7.927  70.677  1.00  0.00    -0.184 N  
BRANCH  26  27
HETATM   27  C   UNL     1      -9.470   8.368  72.099  1.00  0.00    -0.290 C  
HETATM   28  C   UNL     1      -8.246   7.745  72.804  1.00  0.00    -0.170 C  
HETATM   29  C   UNL     1      -6.914   8.035  72.115  1.00  0.00    -0.081 C  
HETATM   30  C   UNL     1      -8.155   8.297  74.239  1.00  0.00    -0.279 C  
ENDBRANCH  26  27
BRANCH  26  31
HETATM   31  S   UNL     1     -11.193   6.827  70.641  1.00  0.00    -0.335 S  
HETATM   32  O   UNL     1     -12.302   7.450  71.319  1.00  0.00    -0.327 OA 
HETATM   33  O   UNL     1     -11.305   6.361  69.271  1.00  0.00    -0.379 OA 
BRANCH  31  34
HETATM   34  C   UNL     1     -10.680   5.431  71.639  1.00  0.00    -0.198 A  
HETATM   35  C   UNL     1     -10.790   4.173  73.701  1.00  0.00    -0.346 A  
HETATM   36  C   UNL     1     -11.247   5.228  72.897  1.00  0.00    -0.375 A  
HETATM   37  C   UNL     1      -9.742   3.345  73.283  1.00  0.00    -0.111 A  
HETATM   38  N   UNL     1      -9.366   2.237  74.044  1.00  0.00    -0.075 NA 
HETATM   39  C   UNL     1      -9.245   3.510  71.988  1.00  0.00    -0.171 A  
HETATM   40  H1  UNL     1      -8.603   1.633  73.739  1.00  0.00     0.000 HD 
HETATM   41  C   UNL     1      -9.695   4.555  71.169  1.00  0.00    -0.256 A  
HETATM   42  H2  UNL     1     -10.192   1.656  74.192  1.00  0.00     0.000 HD 
ENDBRANCH  31  34
ENDBRANCH  26  31
ENDBRANCH  25  26
ENDBRANCH  22  25
ENDBRANCH  14  22
ENDBRANCH  12  14
ENDBRANCH   9  10
ENDBRANCH   8   9
TORSDOF 11
ENDMDL
MODEL      189
REMARK 921   NORMALIZED FREE ENERGY PREDICTED BY IDOCK:   -5.14 KCAL/MOL
REMARK 922        TOTAL FREE ENERGY PREDICTED BY IDOCK:  -11.06 KCAL/MOL
REMARK 923 INTER-LIGAND FREE ENERGY PREDICTED BY IDOCK:  -10.57 KCAL/MOL
REMARK 924 INTRA-LIGAND FREE ENERGY PREDICTED BY IDOCK:   -0.49 KCAL/MOL
REMARK 927      BINDING AFFINITY PREDICTED BY RF-SCORE:    0.00 PKD
ROOT
HETATM    1  C   UNL     1     -10.295  19.056  68.200  1.00  0.00    -0.446 C  
HETATM    2  C   UNL     1     -11.032  18.938  66.879  1.00  0.00    -0.197 C  
HETATM    3  C   UNL     1     -10.247  19.811  65.919  1.00  0.00    -0.459 C  
HETATM    4  O   UNL     1      -9.095  20.301  66.603  1.00  0.00    -0.328 OA 
HETATM    5  C   UNL     1      -8.925  19.537  67.788  1.00  0.00    -0.318 C  
HETATM    6  O   UNL     1      -8.149  18.363  67.550  1.00  0.00    -0.243 OA 
HETATM    7  C   UNL     1      -8.637  17.342  68.426  1.00  0.00    -0.251 C  
HETATM    8  C   UNL     1     -10.009  17.767  68.950  1.00  0.00    -0.332 C  
ENDROOT
BRANCH   8   9
HETATM    9  O   UNL     1     -10.960  16.737  68.636  1.00  0.00    -0.338 OA 
BRANCH   9  10
HETATM   10  C   UNL     1     -10.994  15.674  69.478  1.00  0.00    -0.281 C  
HETATM   11  O   UNL     1     -10.848  15.734  70.687  1.00  0.00    -0.322 OA 
HETATM   12  N   UNL     1     -11.121  14.538  68.733  1.00  0.00    -0.240 N  
HETATM   13  H   UNL     1     -11.336  14.632  67.740  1.00  0.00     0.000 HD 
BRANCH  12  14
HETATM   14  C   UNL     1     -10.967  13.184  69.287  1.00  0.00    -0.078 C  
BRANCH  14  15
HETATM   15  C   UNL     1     -12.340  12.581  69.726  1.00  0.00    -0.085 C  
BRANCH  15  16
HETATM   16  C   UNL     1     -12.284  11.331  70.591  1.00  0.00    -0.489 A  
HETATM   17  C   UNL     1     -11.301  10.357  70.370  1.00  0.00    -0.417 A  
HETATM   18  C   UNL     1     -13.233  11.107  71.600  1.00  0.00    -0.449 A  
HETATM   19  C   UNL     1     -11.273   9.188  71.135  1.00  0.00    -0.395 A  
HETATM   20  C   UNL     1     -12.218   8.982  72.138  1.00  0.00    -0.427 A  
HETATM   21  C   UNL     1     -13.194   9.946  72.376  1.00  0.00    -0.315 A  
ENDBRANCH  15  16
ENDBRANCH  14  15
BRANCH  14  22
HETATM   22  C   UNL     1     -10.222  12.196  68.339  1.00  0.00    -0.210 C  
HETATM   23  O   UNL     1      -9.103  12.838  67.711  1.00  0.00    -0.179 OA 
HETATM   24  H   UNL     1      -8.649  12.236  67.133  1.00  0.00     0.000 HD 
BRANCH  22  25
HETATM   25  C   UNL     1     -11.060  11.415  67.306  1.00  0.00    -0.303 C  
BRANCH  25  26
HETATM   26  N   UNL     1     -10.747  11.559  65.820  1.00  0.00    -0.273 N  
BRANCH  26  27
HETATM   27  C   UNL     1     -10.494  13.021  65.452  1.00  0.00    -0.296 C  
HETATM   28  C   UNL     1     -11.628  13.841  64.800  1.00  0.00    -0.377 C  
HETATM   29  C   UNL     1     -12.862  14.010  65.682  1.00  0.00    -0.442 C  
HETATM   30  C   UNL     1     -11.102  15.249  64.464  1.00  0.00    -0.260 C  
ENDBRANCH  26  27
BRANCH  26  31
HETATM   31  S   UNL     1      -9.376  10.527  65.414  1.00  0.00    -0.230 S  
HETATM   32  O   UNL     1      -9.637   9.883  64.151  1.00  0.00    -0.264 OA 
HETATM   33  O   UNL     1      -8.186  11.331  65.626  1.00  0.00    -0.031 OA 
BRANCH  31  34
HETATM   34  C   UNL     1      -9.387   9.250  66.671  1.00  0.00    -0.170 A  
HETATM   35  C   UNL     1      -8.323   8.125  68.527  1.00  0.00    -0.126 A  
HETATM   36  C   UNL     1      -8.342   9.170  67.591  1.00  0.00    -0.116 A  
HETATM   37  C   UNL     1      -9.310   7.133  68.527  1.00  0.00    -0.136 A  
HETATM   38  N   UNL     1      -9.338   6.159  69.526  1.00  0.00    -0.137 NA 
HETATM   39  C   UNL     1     -10.392   7.276  67.654  1.00  0.00    -0.290 A  
HETATM   40  H1  UNL     1     -10.058   5.436  69.526  1.00  0.00     0.000 HD 
HETATM   41  C   UNL     1     -10.430   8.318  66.718  1.00  0.00    -0.313 A  
HETATM   42  H2  UNL     1      -9.360   6.631  70.431  1.00  0.00     0.000 HD 
ENDBRANCH  31  34
ENDBRANCH  26  31
ENDBRANCH  25  26
ENDBRANCH  22  25
ENDBRANCH  14  22
ENDBRANCH  12  14
ENDBRANCH   9  10
ENDBRANCH   8   9
TORSDOF 11
ENDMDL
MODEL      190
REMARK 921   NORMALIZED FREE ENERGY PREDICTED BY IDOCK:   -5.11 KCAL/MOL
REMARK 922        TOTAL FREE ENERGY PREDICTED BY IDOCK:  -11.03 KCAL/MOL
REMARK 923 INTER-LIGAND FREE ENERGY PREDICTED BY IDOCK:   -9.01 KCAL/MOL
REMARK 924 INTRA-LIGAND FREE ENERGY PREDICTED BY IDOCK:   -2.02 KCAL/MOL
REMARK 927      BINDING AFFINITY PREDICTED BY RF-SCORE:    0.00 PKD
ROOT
HETATM    1  C   UNL     1     -11.295  12.423  64.530  1.00  0.00    -0.381 C  
HETATM    2  C   UNL     1     -10.436  13.668  64.407  1.00  0.00    -0.322 C  
HETATM    3  C   UNL     1     -11.415  14.822  64.498  1.00  0.00    -0.329 C  
HETATM    4  O   UNL     1     -12.711  14.288  64.761  1.00  0.00    -0.646 OA 
HETATM    5  C   UNL     1     -12.558  12.937  65.175  1.00  0.00    -0.471 C  
HETATM    6  O   UNL     1     -12.353  12.839  66.583  1.00  0.00    -0.456 OA 
HETATM    7  C   UNL     1     -11.487  11.722  66.812  1.00  0.00    -0.281 C  
HETATM    8  C   UNL     1     -10.819  11.347  65.489  1.00  0.00    -0.220 C  
ENDROOT
BRANCH   8   9
HETATM    9  O   UNL     1      -9.393  11.376  65.671  1.00  0.00    -0.223 OA 
BRANCH   9  10
HETATM   10  C   UNL     1      -8.852  10.325  66.336  1.00  0.00    -0.145 C  
HETATM   11  O   UNL     1      -8.924   9.161  65.983  1.00  0.00    -0.157 OA 
HETATM   12  N   UNL     1      -8.303  10.786  67.497  1.00  0.00    -0.115 N  
HETATM   13  H   UNL     1      -8.219  11.795  67.625  1.00  0.00     0.000 HD 
BRANCH  12  14
HETATM   14  C   UNL     1      -7.826   9.905  68.574  1.00  0.00    -0.081 C  
BRANCH  14  15
HETATM   15  C   UNL     1      -6.386  10.294  69.042  1.00  0.00    -0.044 C  
BRANCH  15  16
HETATM   16  C   UNL     1      -6.078  11.781  69.112  1.00  0.00    -0.076 A  
HETATM   17  C   UNL     1      -5.630  12.470  67.978  1.00  0.00    -0.082 A  
HETATM   18  C   UNL     1      -6.198  12.488  70.320  1.00  0.00     0.020 A  
HETATM   19  C   UNL     1      -5.306  13.828  68.050  1.00  0.00    -0.109 A  
HETATM   20  C   UNL     1      -5.437  14.517  69.254  1.00  0.00    -0.091 A  
HETATM   21  C   UNL     1      -5.890  13.849  70.388  1.00  0.00    -0.161 A  
ENDBRANCH  15  16
ENDBRANCH  14  15
BRANCH  14  22
HETATM   22  C   UNL     1      -8.789   9.828  69.798  1.00  0.00    -0.224 C  
HETATM   23  O   UNL     1      -8.072   9.471  70.988  1.00  0.00    -0.312 OA 
HETATM   24  H   UNL     1      -8.658   9.425  71.734  1.00  0.00     0.000 HD 
BRANCH  22  25
HETATM   25  C   UNL     1     -10.073   8.987  69.656  1.00  0.00    -0.197 C  
BRANCH  25  26
HETATM   26  N   UNL     1     -10.546   8.131  70.826  1.00  0.00    -0.210 N  
BRANCH  26  27
HETATM   27  C   UNL     1     -12.071   8.022  70.846  1.00  0.00    -0.152 C  
HETATM   28  C   UNL     1     -12.867   8.794  71.920  1.00  0.00    -0.423 C  
HETATM   29  C   UNL     1     -12.720  10.312  71.835  1.00  0.00    -0.478 C  
HETATM   30  C   UNL     1     -14.365   8.465  71.771  1.00  0.00    -0.558 C  
ENDBRANCH  26  27
BRANCH  26  31
HETATM   31  S   UNL     1      -9.771   6.550  70.738  1.00  0.00    -0.179 S  
HETATM   32  O   UNL     1      -8.435   6.657  71.268  1.00  0.00    -0.124 OA 
HETATM   33  O   UNL     1     -10.727   5.598  71.274  1.00  0.00    -0.250 OA 
BRANCH  31  34
HETATM   34  C   UNL     1      -9.618   6.222  68.983  1.00  0.00    -0.127 A  
HETATM   35  C   UNL     1     -10.605   5.543  66.882  1.00  0.00    -0.348 A  
HETATM   36  C   UNL     1     -10.745   5.867  68.241  1.00  0.00    -0.319 A  
HETATM   37  C   UNL     1      -9.348   5.526  66.267  1.00  0.00    -0.156 A  
HETATM   38  N   UNL     1      -9.233   5.305  64.894  1.00  0.00    -0.357 NA 
HETATM   39  C   UNL     1      -8.245   5.965  67.003  1.00  0.00    -0.105 A  
HETATM   40  H1  UNL     1      -8.317   5.292  64.446  1.00  0.00     0.000 HD 
HETATM   41  C   UNL     1      -8.368   6.298  68.359  1.00  0.00    -0.115 A  
HETATM   42  H2  UNL     1      -9.815   5.989  64.411  1.00  0.00     0.000 HD 
ENDBRANCH  31  34
ENDBRANCH  26  31
ENDBRANCH  25  26
ENDBRANCH  22  25
ENDBRANCH  14  22
ENDBRANCH  12  14
ENDBRANCH   9  10
ENDBRANCH   8   9
TORSDOF 11
ENDMDL
MODEL      191
REMARK 921   NORMALIZED FREE ENERGY PREDICTED BY IDOCK:   -5.11 KCAL/MOL
REMARK 922        TOTAL FREE ENERGY PREDICTED BY IDOCK:  -11.01 KCAL/MOL
REMARK 923 INTER-LIGAND FREE ENERGY PREDICTED BY IDOCK:   -8.63 KCAL/MOL
REMARK 924 INTRA-LIGAND FREE ENERGY PREDICTED BY IDOCK:   -2.38 KCAL/MOL
REMARK 927      BINDING AFFINITY PREDICTED BY RF-SCORE:    0.00 PKD
ROOT
HETATM    1  C   UNL     1     -10.783  13.004  65.298  1.00  0.00    -0.317 C  
HETATM    2  C   UNL     1     -12.010  12.985  66.192  1.00  0.00    -0.488 C  
HETATM    3  C   UNL     1     -12.833  14.177  65.741  1.00  0.00    -0.329 C  
HETATM    4  O   UNL     1     -12.187  14.764  64.613  1.00  0.00    -0.442 OA 
HETATM    5  C   UNL     1     -11.225  13.841  64.123  1.00  0.00    -0.219 C  
HETATM    6  O   UNL     1     -11.798  12.933  63.183  1.00  0.00    -0.506 OA 
HETATM    7  C   UNL     1     -11.121  11.681  63.331  1.00  0.00    -0.337 C  
HETATM    8  C   UNL     1     -10.370  11.688  64.663  1.00  0.00    -0.292 C  
ENDROOT
BRANCH   8   9
HETATM    9  O   UNL     1     -10.798  10.556  65.438  1.00  0.00    -0.051 OA 
BRANCH   9  10
HETATM   10  C   UNL     1      -9.887   9.567  65.608  1.00  0.00    -0.272 C  
HETATM   11  O   UNL     1      -9.058   9.228  64.780  1.00  0.00    -0.212 OA 
HETATM   12  N   UNL     1     -10.121   8.966  66.810  1.00  0.00    -0.262 N  
HETATM   13  H   UNL     1     -10.778   9.410  67.452  1.00  0.00     0.000 HD 
BRANCH  12  14
HETATM   14  C   UNL     1      -9.476   7.712  67.230  1.00  0.00    -0.148 C  
BRANCH  14  15
HETATM   15  C   UNL     1      -8.253   7.980  68.167  1.00  0.00    -0.126 C  
BRANCH  15  16
HETATM   16  C   UNL     1      -7.200   6.885  68.230  1.00  0.00    -0.091 A  
HETATM   17  C   UNL     1      -6.334   6.794  69.328  1.00  0.00    -0.038 A  
HETATM   18  C   UNL     1      -7.045   5.969  67.178  1.00  0.00    -0.070 A  
HETATM   19  C   UNL     1      -5.337   5.815  69.369  1.00  0.00    -0.004 A  
HETATM   20  C   UNL     1      -5.200   4.908  68.321  1.00  0.00    -0.010 A  
HETATM   21  C   UNL     1      -6.060   4.979  67.228  1.00  0.00    -0.031 A  
ENDBRANCH  15  16
ENDBRANCH  14  15
BRANCH  14  22
HETATM   22  C   UNL     1     -10.451   6.693  67.894  1.00  0.00    -0.219 C  
HETATM   23  O   UNL     1     -11.554   6.403  67.024  1.00  0.00    -0.696 OA 
HETATM   24  H   UNL     1     -12.148   5.782  67.428  1.00  0.00     0.000 HD 
BRANCH  22  25
HETATM   25  C   UNL     1     -10.941   6.988  69.326  1.00  0.00    -0.178 C  
BRANCH  25  26
HETATM   26  N   UNL     1     -10.980   5.862  70.355  1.00  0.00    -0.314 N  
BRANCH  26  27
HETATM   27  C   UNL     1      -9.603   5.219  70.516  1.00  0.00    -0.176 C  
HETATM   28  C   UNL     1      -9.392   3.763  70.049  1.00  0.00    -0.250 C  
HETATM   29  C   UNL     1      -9.599   3.553  68.550  1.00  0.00    -0.151 C  
HETATM   30  C   UNL     1      -7.953   3.329  70.383  1.00  0.00    -0.052 C  
ENDBRANCH  26  27
BRANCH  26  31
HETATM   31  S   UNL     1     -11.598   6.494  71.880  1.00  0.00    -0.323 S  
HETATM   32  O   UNL     1     -12.515   7.571  71.600  1.00  0.00    -0.316 OA 
HETATM   33  O   UNL     1     -11.999   5.341  72.665  1.00  0.00    -0.170 OA 
BRANCH  31  34
HETATM   34  C   UNL     1     -10.167   7.214  72.683  1.00  0.00    -0.200 A  
HETATM   35  C   UNL     1      -8.271   8.714  72.640  1.00  0.00    -0.037 A  
HETATM   36  C   UNL     1      -9.431   8.206  72.035  1.00  0.00    -0.279 A  
HETATM   37  C   UNL     1      -7.813   8.212  73.863  1.00  0.00    -0.204 A  
HETATM   38  N   UNL     1      -6.720   8.796  74.505  1.00  0.00    -0.303 NA 
HETATM   39  C   UNL     1      -8.608   7.281  74.536  1.00  0.00    -0.230 A  
HETATM   40  H1  UNL     1      -6.385   8.430  75.397  1.00  0.00     0.000 HD 
HETATM   41  C   UNL     1      -9.772   6.768  73.949  1.00  0.00    -0.286 A  
HETATM   42  H2  UNL     1      -6.911   9.791  74.620  1.00  0.00     0.000 HD 
ENDBRANCH  31  34
ENDBRANCH  26  31
ENDBRANCH  25  26
ENDBRANCH  22  25
ENDBRANCH  14  22
ENDBRANCH  12  14
ENDBRANCH   9  10
ENDBRANCH   8   9
TORSDOF 11
ENDMDL
MODEL      192
REMARK 921   NORMALIZED FREE ENERGY PREDICTED BY IDOCK:   -5.08 KCAL/MOL
REMARK 922        TOTAL FREE ENERGY PREDICTED BY IDOCK:  -10.96 KCAL/MOL
REMARK 923 INTER-LIGAND FREE ENERGY PREDICTED BY IDOCK:   -9.88 KCAL/MOL
REMARK 924 INTRA-LIGAND FREE ENERGY PREDICTED BY IDOCK:   -1.09 KCAL/MOL
REMARK 927      BINDING AFFINITY PREDICTED BY RF-SCORE:    0.00 PKD
ROOT
HETATM    1  C   UNL     1      -6.924   5.508  68.432  1.00  0.00    -0.064 C  
HETATM    2  C   UNL     1      -7.201   4.956  67.046  1.00  0.00    -0.077 C  
HETATM    3  C   UNL     1      -6.476   3.624  67.009  1.00  0.00    -0.037 C  
HETATM    4  O   UNL     1      -5.923   3.382  68.302  1.00  0.00    -0.025 OA 
HETATM    5  C   UNL     1      -6.528   4.283  69.219  1.00  0.00    -0.036 C  
HETATM    6  O   UNL     1      -7.737   3.751  69.758  1.00  0.00    -0.051 OA 
HETATM    7  C   UNL     1      -8.624   4.850  69.985  1.00  0.00    -0.090 C  
HETATM    8  C   UNL     1      -8.108   6.060  69.205  1.00  0.00    -0.108 C  
ENDROOT
BRANCH   8   9
HETATM    9  O   UNL     1      -9.153   6.526  68.336  1.00  0.00    -0.125 OA 
BRANCH   9  10
HETATM   10  C   UNL     1     -10.322   6.866  68.931  1.00  0.00    -0.189 C  
HETATM   11  O   UNL     1     -11.387   6.297  68.761  1.00  0.00    -0.356 OA 
HETATM   12  N   UNL     1     -10.118   7.997  69.668  1.00  0.00    -0.194 N  
HETATM   13  H   UNL     1      -9.159   8.315  69.810  1.00  0.00     0.000 HD 
BRANCH  12  14
HETATM   14  C   UNL     1     -11.208   8.781  70.269  1.00  0.00    -0.195 C  
BRANCH  14  15
HETATM   15  C   UNL     1     -11.048   8.896  71.819  1.00  0.00    -0.433 C  
BRANCH  15  16
HETATM   16  C   UNL     1     -10.821   7.595  72.573  1.00  0.00    -0.367 A  
HETATM   17  C   UNL     1     -11.519   6.435  72.215  1.00  0.00    -0.339 A  
HETATM   18  C   UNL     1      -9.940   7.536  73.664  1.00  0.00    -0.347 A  
HETATM   19  C   UNL     1     -11.345   5.248  72.932  1.00  0.00    -0.368 A  
HETATM   20  C   UNL     1     -10.462   5.203  74.009  1.00  0.00    -0.323 A  
HETATM   21  C   UNL     1      -9.753   6.345  74.371  1.00  0.00    -0.310 A  
ENDBRANCH  15  16
ENDBRANCH  14  15
BRANCH  14  22
HETATM   22  C   UNL     1     -11.389  10.196  69.638  1.00  0.00    -0.235 C  
HETATM   23  O   UNL     1     -12.779  10.498  69.456  1.00  0.00    -0.659 OA 
HETATM   24  H   UNL     1     -12.890  11.360  69.072  1.00  0.00     0.000 HD 
BRANCH  22  25
HETATM   25  C   UNL     1     -10.581  10.529  68.368  1.00  0.00    -0.199 C  
BRANCH  25  26
HETATM   26  N   UNL     1      -9.481  11.585  68.431  1.00  0.00    -0.192 N  
BRANCH  26  27
HETATM   27  C   UNL     1      -8.491  11.416  67.279  1.00  0.00    -0.148 C  
HETATM   28  C   UNL     1      -8.662  10.227  66.309  1.00  0.00    -0.157 C  
HETATM   29  C   UNL     1      -9.970  10.246  65.522  1.00  0.00    -0.364 C  
HETATM   30  C   UNL     1      -7.507  10.240  65.289  1.00  0.00    -0.141 C  
ENDBRANCH  26  27
BRANCH  26  31
HETATM   31  S   UNL     1     -10.217  13.187  68.441  1.00  0.00    -0.229 S  
HETATM   32  O   UNL     1     -11.323  13.185  69.367  1.00  0.00    -0.258 OA 
HETATM   33  O   UNL     1      -9.125  14.135  68.565  1.00  0.00    -0.192 OA 
BRANCH  31  34
HETATM   34  C   UNL     1     -10.905  13.377  66.798  1.00  0.00    -0.282 A  
HETATM   35  C   UNL     1     -12.740  13.107  65.248  1.00  0.00    -0.457 A  
HETATM   36  C   UNL     1     -12.230  13.021  66.553  1.00  0.00    -0.316 A  
HETATM   37  C   UNL     1     -11.930  13.502  64.177  1.00  0.00    -0.448 A  
HETATM   38  N   UNL     1     -12.473  13.684  62.905  1.00  0.00    -0.856 NA 
HETATM   39  C   UNL     1     -10.631  13.935  64.456  1.00  0.00    -0.375 A  
HETATM   40  H1  UNL     1     -11.882  13.972  62.125  1.00  0.00     0.000 HD 
HETATM   41  C   UNL     1     -10.109  13.862  65.755  1.00  0.00    -0.336 A  
HETATM   42  H2  UNL     1     -13.247  14.345  62.980  1.00  0.00     0.000 HD 
ENDBRANCH  31  34
ENDBRANCH  26  31
ENDBRANCH  25  26
ENDBRANCH  22  25
ENDBRANCH  14  22
ENDBRANCH  12  14
ENDBRANCH   9  10
ENDBRANCH   8   9
TORSDOF 11
ENDMDL
MODEL      193
REMARK 921   NORMALIZED FREE ENERGY PREDICTED BY IDOCK:   -5.07 KCAL/MOL
REMARK 922        TOTAL FREE ENERGY PREDICTED BY IDOCK:  -10.95 KCAL/MOL
REMARK 923 INTER-LIGAND FREE ENERGY PREDICTED BY IDOCK:   -8.83 KCAL/MOL
REMARK 924 INTRA-LIGAND FREE ENERGY PREDICTED BY IDOCK:   -2.12 KCAL/MOL
REMARK 927      BINDING AFFINITY PREDICTED BY RF-SCORE:    0.00 PKD
ROOT
HETATM    1  C   UNL     1     -10.573  14.327  64.727  1.00  0.00    -0.434 C  
HETATM    2  C   UNL     1     -10.179  15.301  65.821  1.00  0.00    -0.372 C  
HETATM    3  C   UNL     1     -10.763  16.631  65.383  1.00  0.00    -0.215 C  
HETATM    4  O   UNL     1     -11.522  16.414  64.194  1.00  0.00    -0.951 OA 
HETATM    5  C   UNL     1     -11.734  15.017  64.052  1.00  0.00     0.058 C  
HETATM    6  O   UNL     1     -12.905  14.590  64.745  1.00  0.00    -0.603 OA 
HETATM    7  C   UNL     1     -12.660  13.262  65.221  1.00  0.00    -0.470 C  
HETATM    8  C   UNL     1     -11.156  12.995  65.164  1.00  0.00    -0.292 C  
ENDROOT
BRANCH   8   9
HETATM    9  O   UNL     1     -10.707  12.612  66.474  1.00  0.00    -0.246 OA 
BRANCH   9  10
HETATM   10  C   UNL     1      -9.425  12.180  66.567  1.00  0.00    -0.231 C  
HETATM   11  O   UNL     1      -8.843  11.528  65.717  1.00  0.00    -0.163 OA 
HETATM   12  N   UNL     1      -8.944  12.519  67.798  1.00  0.00    -0.175 N  
HETATM   13  H   UNL     1      -9.496  13.153  68.375  1.00  0.00     0.000 HD 
BRANCH  12  14
HETATM   14  C   UNL     1      -7.669  12.019  68.336  1.00  0.00    -0.138 C  
BRANCH  14  15
HETATM   15  C   UNL     1      -6.840  13.161  69.009  1.00  0.00    -0.090 C  
BRANCH  15  16
HETATM   16  C   UNL     1      -7.133  14.576  68.536  1.00  0.00    -0.114 A  
HETATM   17  C   UNL     1      -6.396  15.143  67.488  1.00  0.00    -0.109 A  
HETATM   18  C   UNL     1      -8.117  15.358  69.161  1.00  0.00    -0.233 A  
HETATM   19  C   UNL     1      -6.634  16.458  67.079  1.00  0.00    -0.225 A  
HETATM   20  C   UNL     1      -7.619  17.220  67.704  1.00  0.00    -0.190 A  
HETATM   21  C   UNL     1      -8.366  16.667  68.741  1.00  0.00    -0.252 A  
ENDBRANCH  15  16
ENDBRANCH  14  15
BRANCH  14  22
HETATM   22  C   UNL     1      -7.827  10.817  69.315  1.00  0.00    -0.122 C  
HETATM   23  O   UNL     1      -6.790   9.848  69.104  1.00  0.00    -0.052 OA 
HETATM   24  H   UNL     1      -6.886   9.116  69.701  1.00  0.00     0.000 HD 
BRANCH  22  25
HETATM   25  C   UNL     1      -9.207  10.136  69.408  1.00  0.00    -0.214 C  
BRANCH  25  26
HETATM   26  N   UNL     1      -9.327   8.640  69.136  1.00  0.00    -0.152 N  
BRANCH  26  27
HETATM   27  C   UNL     1     -10.556   8.053  69.831  1.00  0.00    -0.242 C  
HETATM   28  C   UNL     1     -10.359   7.051  70.988  1.00  0.00    -0.216 C  
HETATM   29  C   UNL     1      -9.633   7.631  72.200  1.00  0.00    -0.207 C  
HETATM   30  C   UNL     1     -11.738   6.557  71.468  1.00  0.00    -0.376 C  
ENDBRANCH  26  27
BRANCH  26  31
HETATM   31  S   UNL     1      -9.360   8.369  67.394  1.00  0.00    -0.152 S  
HETATM   32  O   UNL     1     -10.585   8.912  66.862  1.00  0.00    -0.263 OA 
HETATM   33  O   UNL     1      -8.063   8.787  66.893  1.00  0.00    -0.100 OA 
BRANCH  31  34
HETATM   34  C   UNL     1      -9.451   6.588  67.217  1.00  0.00    -0.125 A  
HETATM   35  C   UNL     1      -8.554   4.387  67.663  1.00  0.00    -0.108 A  
HETATM   36  C   UNL     1      -8.519   5.776  67.863  1.00  0.00    -0.103 A  
HETATM   37  C   UNL     1      -9.480   3.804  66.791  1.00  0.00    -0.194 A  
HETATM   38  N   UNL     1      -9.573   2.416  66.680  1.00  0.00    -0.366 NA 
HETATM   39  C   UNL     1     -10.457   4.623  66.220  1.00  0.00    -0.249 A  
HETATM   40  H1  UNL     1     -10.248   1.991  66.045  1.00  0.00     0.000 HD 
HETATM   41  C   UNL     1     -10.441   6.011  66.415  1.00  0.00    -0.141 A  
HETATM   42  H2  UNL     1      -9.727   2.031  67.612  1.00  0.00     0.000 HD 
ENDBRANCH  31  34
ENDBRANCH  26  31
ENDBRANCH  25  26
ENDBRANCH  22  25
ENDBRANCH  14  22
ENDBRANCH  12  14
ENDBRANCH   9  10
ENDBRANCH   8   9
TORSDOF 11
ENDMDL
MODEL      194
REMARK 921   NORMALIZED FREE ENERGY PREDICTED BY IDOCK:   -5.07 KCAL/MOL
REMARK 922        TOTAL FREE ENERGY PREDICTED BY IDOCK:  -10.95 KCAL/MOL
REMARK 923 INTER-LIGAND FREE ENERGY PREDICTED BY IDOCK:   -9.45 KCAL/MOL
REMARK 924 INTRA-LIGAND FREE ENERGY PREDICTED BY IDOCK:   -1.49 KCAL/MOL
REMARK 927      BINDING AFFINITY PREDICTED BY RF-SCORE:    0.00 PKD
ROOT
HETATM    1  C   UNL     1      -8.955  17.458  66.278  1.00  0.00    -0.239 C  
HETATM    2  C   UNL     1      -7.527  17.965  66.204  1.00  0.00    -0.315 C  
HETATM    3  C   UNL     1      -7.657  19.436  65.858  1.00  0.00    -0.269 C  
HETATM    4  O   UNL     1      -9.045  19.769  65.843  1.00  0.00    -0.364 OA 
HETATM    5  C   UNL     1      -9.760  18.719  66.478  1.00  0.00    -0.354 C  
HETATM    6  O   UNL     1      -9.840  18.917  67.889  1.00  0.00    -0.317 OA 
HETATM    7  C   UNL     1      -9.822  17.624  68.504  1.00  0.00    -0.346 C  
HETATM    8  C   UNL     1      -9.324  16.605  67.479  1.00  0.00    -0.219 C  
ENDROOT
BRANCH   8   9
HETATM    9  O   UNL     1      -8.186  15.920  68.027  1.00  0.00    -0.145 OA 
BRANCH   9  10
HETATM   10  C   UNL     1      -8.449  14.809  68.758  1.00  0.00    -0.170 C  
HETATM   11  O   UNL     1      -7.645  14.234  69.471  1.00  0.00    -0.005 OA 
HETATM   12  N   UNL     1      -9.723  14.404  68.484  1.00  0.00    -0.222 N  
HETATM   13  H   UNL     1     -10.325  15.031  67.950  1.00  0.00     0.000 HD 
BRANCH  12  14
HETATM   14  C   UNL     1     -10.275  13.112  68.920  1.00  0.00    -0.005 C  
BRANCH  14  15
HETATM   15  C   UNL     1     -11.838  13.126  68.930  1.00  0.00    -0.361 C  
BRANCH  15  16
HETATM   16  C   UNL     1     -12.500  13.614  70.208  1.00  0.00    -0.335 A  
HETATM   17  C   UNL     1     -12.998  12.700  71.145  1.00  0.00    -0.239 A  
HETATM   18  C   UNL     1     -12.663  14.986  70.460  1.00  0.00    -0.406 A  
HETATM   19  C   UNL     1     -13.645  13.145  72.301  1.00  0.00    -0.677 A  
HETATM   20  C   UNL     1     -13.793  14.510  72.541  1.00  0.00    -0.555 A  
HETATM   21  C   UNL     1     -13.295  15.431  71.624  1.00  0.00    -0.578 A  
ENDBRANCH  15  16
ENDBRANCH  14  15
BRANCH  14  22
HETATM   22  C   UNL     1      -9.751  11.894  68.100  1.00  0.00    -0.194 C  
HETATM   23  O   UNL     1     -10.829  11.238  67.417  1.00  0.00    -0.229 OA 
HETATM   24  H   UNL     1     -10.510  10.496  66.917  1.00  0.00     0.000 HD 
BRANCH  22  25
HETATM   25  C   UNL     1      -8.851  10.870  68.821  1.00  0.00    -0.161 C  
BRANCH  25  26
HETATM   26  N   UNL     1      -9.454   9.562  69.325  1.00  0.00    -0.161 N  
BRANCH  26  27
HETATM   27  C   UNL     1     -10.854   9.787  69.895  1.00  0.00    -0.272 C  
HETATM   28  C   UNL     1     -11.402   8.806  70.954  1.00  0.00    -0.322 C  
HETATM   29  C   UNL     1     -10.599   8.777  72.252  1.00  0.00    -0.319 C  
HETATM   30  C   UNL     1     -12.846   9.206  71.312  1.00  0.00    -0.323 C  
ENDBRANCH  26  27
BRANCH  26  31
HETATM   31  S   UNL     1      -9.455   8.383  68.014  1.00  0.00    -0.145 S  
HETATM   32  O   UNL     1     -10.784   8.304  67.461  1.00  0.00    -0.242 OA 
HETATM   33  O   UNL     1      -8.305   8.696  67.186  1.00  0.00    -0.106 OA 
BRANCH  31  34
HETATM   34  C   UNL     1      -9.123   6.816  68.818  1.00  0.00    -0.132 A  
HETATM   35  C   UNL     1      -7.947   5.524  70.490  1.00  0.00    -0.103 A  
HETATM   36  C   UNL     1      -8.257   6.765  69.910  1.00  0.00    -0.127 A  
HETATM   37  C   UNL     1      -8.457   4.331  69.965  1.00  0.00    -0.065 A  
HETATM   38  N   UNL     1      -8.227   3.116  70.611  1.00  0.00    -0.055 NA 
HETATM   39  C   UNL     1      -9.387   4.410  68.925  1.00  0.00    -0.216 A  
HETATM   40  H1  UNL     1      -8.598   2.247  70.228  1.00  0.00     0.000 HD 
HETATM   41  C   UNL     1      -9.712   5.641  68.339  1.00  0.00    -0.161 A  
HETATM   42  H2  UNL     1      -8.547   3.202  71.576  1.00  0.00     0.000 HD 
ENDBRANCH  31  34
ENDBRANCH  26  31
ENDBRANCH  25  26
ENDBRANCH  22  25
ENDBRANCH  14  22
ENDBRANCH  12  14
ENDBRANCH   9  10
ENDBRANCH   8   9
TORSDOF 11
ENDMDL
MODEL      195
REMARK 921   NORMALIZED FREE ENERGY PREDICTED BY IDOCK:   -5.06 KCAL/MOL
REMARK 922        TOTAL FREE ENERGY PREDICTED BY IDOCK:  -10.94 KCAL/MOL
REMARK 923 INTER-LIGAND FREE ENERGY PREDICTED BY IDOCK:   -9.24 KCAL/MOL
REMARK 924 INTRA-LIGAND FREE ENERGY PREDICTED BY IDOCK:   -1.69 KCAL/MOL
REMARK 927      BINDING AFFINITY PREDICTED BY RF-SCORE:    0.00 PKD
ROOT
HETATM    1  C   UNL     1     -12.107  13.699  66.673  1.00  0.00    -0.459 C  
HETATM    2  C   UNL     1     -12.013  12.742  65.498  1.00  0.00    -0.497 C  
HETATM    3  C   UNL     1     -11.191  13.483  64.461  1.00  0.00    -0.375 C  
HETATM    4  O   UNL     1     -10.758  14.716  65.034  1.00  0.00    -0.377 OA 
HETATM    5  C   UNL     1     -10.956  14.646  66.439  1.00  0.00    -0.325 C  
HETATM    6  O   UNL     1      -9.829  14.071  67.099  1.00  0.00    -0.231 OA 
HETATM    7  C   UNL     1     -10.322  13.343  68.229  1.00  0.00    -0.249 C  
HETATM    8  C   UNL     1     -11.825  13.130  68.052  1.00  0.00    -0.358 C  
ENDROOT
BRANCH   8   9
HETATM    9  O   UNL     1     -12.102  11.722  68.123  1.00  0.00    -0.556 OA 
BRANCH   9  10
HETATM   10  C   UNL     1     -12.019  11.156  69.352  1.00  0.00    -0.349 C  
HETATM   11  O   UNL     1     -12.469  11.638  70.377  1.00  0.00    -0.283 OA 
HETATM   12  N   UNL     1     -11.273  10.017  69.254  1.00  0.00    -0.367 N  
HETATM   13  H   UNL     1     -11.042   9.670  68.323  1.00  0.00     0.000 HD 
BRANCH  12  14
HETATM   14  C   UNL     1     -10.785   9.264  70.419  1.00  0.00    -0.251 C  
BRANCH  14  15
HETATM   15  C   UNL     1     -11.622   7.965  70.657  1.00  0.00    -0.215 C  
BRANCH  15  16
HETATM   16  C   UNL     1     -11.100   7.011  71.720  1.00  0.00    -0.270 A  
HETATM   17  C   UNL     1     -10.919   7.446  73.039  1.00  0.00    -0.422 A  
HETATM   18  C   UNL     1     -10.754   5.689  71.398  1.00  0.00    -0.310 A  
HETATM   19  C   UNL     1     -10.400   6.584  74.009  1.00  0.00    -0.362 A  
HETATM   20  C   UNL     1     -10.067   5.272  73.676  1.00  0.00    -0.213 A  
HETATM   21  C   UNL     1     -10.252   4.822  72.371  1.00  0.00    -0.252 A  
ENDBRANCH  15  16
ENDBRANCH  14  15
BRANCH  14  22
HETATM   22  C   UNL     1      -9.265   8.923  70.359  1.00  0.00    -0.194 C  
HETATM   23  O   UNL     1      -8.482   9.985  70.924  1.00  0.00    -0.286 OA 
HETATM   24  H   UNL     1      -7.556   9.777  70.888  1.00  0.00     0.000 HD 
BRANCH  22  25
HETATM   25  C   UNL     1      -8.680   8.467  69.007  1.00  0.00    -0.134 C  
BRANCH  25  26
HETATM   26  N   UNL     1      -8.122   7.054  68.867  1.00  0.00    -0.119 N  
BRANCH  26  27
HETATM   27  C   UNL     1      -8.966   6.225  67.899  1.00  0.00    -0.113 C  
HETATM   28  C   UNL     1     -10.354   6.748  67.472  1.00  0.00    -0.267 C  
HETATM   29  C   UNL     1     -10.315   8.071  66.709  1.00  0.00    -0.360 C  
HETATM   30  C   UNL     1     -11.026   5.706  66.557  1.00  0.00    -0.140 C  
ENDBRANCH  26  27
BRANCH  26  31
HETATM   31  S   UNL     1      -6.435   7.145  68.363  1.00  0.00    -0.042 S  
HETATM   32  O   UNL     1      -5.683   7.837  69.380  1.00  0.00    -0.026 OA 
HETATM   33  O   UNL     1      -6.069   5.810  67.924  1.00  0.00    -0.020 OA 
BRANCH  31  34
HETATM   34  C   UNL     1      -6.454   8.197  66.913  1.00  0.00    -0.057 A  
HETATM   35  C   UNL     1      -6.588   8.458  64.513  1.00  0.00    -0.066 A  
HETATM   36  C   UNL     1      -6.645   7.637  65.650  1.00  0.00    -0.045 A  
HETATM   37  C   UNL     1      -6.300   9.823  64.618  1.00  0.00    -0.106 A  
HETATM   38  N   UNL     1      -6.350  10.648  63.494  1.00  0.00    -0.365 NA 
HETATM   39  C   UNL     1      -6.196  10.380  65.895  1.00  0.00    -0.118 A  
HETATM   40  H1  UNL     1      -6.139  11.643  63.571  1.00  0.00     0.000 HD 
HETATM   41  C   UNL     1      -6.256   9.576  67.041  1.00  0.00    -0.065 A  
HETATM   42  H2  UNL     1      -7.270  10.549  63.066  1.00  0.00     0.000 HD 
ENDBRANCH  31  34
ENDBRANCH  26  31
ENDBRANCH  25  26
ENDBRANCH  22  25
ENDBRANCH  14  22
ENDBRANCH  12  14
ENDBRANCH   9  10
ENDBRANCH   8   9
TORSDOF 11
ENDMDL
MODEL      196
REMARK 921   NORMALIZED FREE ENERGY PREDICTED BY IDOCK:   -5.06 KCAL/MOL
REMARK 922        TOTAL FREE ENERGY PREDICTED BY IDOCK:  -10.93 KCAL/MOL
REMARK 923 INTER-LIGAND FREE ENERGY PREDICTED BY IDOCK:   -8.81 KCAL/MOL
REMARK 924 INTRA-LIGAND FREE ENERGY PREDICTED BY IDOCK:   -2.12 KCAL/MOL
REMARK 927      BINDING AFFINITY PREDICTED BY RF-SCORE:    0.00 PKD
ROOT
HETATM    1  C   UNL     1      -9.560   3.838  66.317  1.00  0.00    -0.176 C  
HETATM    2  C   UNL     1      -9.316   3.124  67.634  1.00  0.00    -0.247 C  
HETATM    3  C   UNL     1      -8.744   1.775  67.241  1.00  0.00    -0.105 C  
HETATM    4  O   UNL     1      -8.573   1.759  65.825  1.00  0.00    -0.100 OA 
HETATM    5  C   UNL     1      -8.671   3.095  65.351  1.00  0.00    -0.120 C  
HETATM    6  O   UNL     1      -7.408   3.758  65.385  1.00  0.00    -0.070 OA 
HETATM    7  C   UNL     1      -7.658   5.139  65.666  1.00  0.00    -0.086 C  
HETATM    8  C   UNL     1      -9.081   5.274  66.209  1.00  0.00    -0.139 C  
ENDROOT
BRANCH   8   9
HETATM    9  O   UNL     1      -9.024   5.923  67.490  1.00  0.00    -0.111 OA 
BRANCH   9  10
HETATM   10  C   UNL     1      -9.927   6.912  67.702  1.00  0.00    -0.144 C  
HETATM   11  O   UNL     1     -11.124   6.746  67.860  1.00  0.00    -0.238 OA 
HETATM   12  N   UNL     1      -9.281   8.111  67.615  1.00  0.00    -0.137 N  
HETATM   13  H   UNL     1      -8.261   8.110  67.582  1.00  0.00     0.000 HD 
BRANCH  12  14
HETATM   14  C   UNL     1      -9.978   9.406  67.567  1.00  0.00    -0.199 C  
BRANCH  14  15
HETATM   15  C   UNL     1     -10.785   9.577  66.239  1.00  0.00     0.133 C  
BRANCH  15  16
HETATM   16  C   UNL     1     -10.019  10.135  65.051  1.00  0.00    -0.375 A  
HETATM   17  C   UNL     1     -10.506  11.243  64.346  1.00  0.00    -0.407 A  
HETATM   18  C   UNL     1      -8.830   9.532  64.609  1.00  0.00    -0.250 A  
HETATM   19  C   UNL     1      -9.826  11.732  63.227  1.00  0.00    -0.402 A  
HETATM   20  C   UNL     1      -8.644  11.127  62.805  1.00  0.00    -0.164 A  
HETATM   21  C   UNL     1      -8.141  10.031  63.501  1.00  0.00    -0.159 A  
ENDBRANCH  15  16
ENDBRANCH  14  15
BRANCH  14  22
HETATM   22  C   UNL     1     -10.899   9.673  68.797  1.00  0.00    -0.168 C  
HETATM   23  O   UNL     1     -11.911  10.637  68.475  1.00  0.00    -0.743 OA 
HETATM   24  H   UNL     1     -12.473  10.799  69.224  1.00  0.00     0.000 HD 
BRANCH  22  25
HETATM   25  C   UNL     1     -10.227  10.007  70.144  1.00  0.00    -0.242 C  
BRANCH  25  26
HETATM   26  N   UNL     1     -10.502   9.129  71.360  1.00  0.00    -0.323 N  
BRANCH  26  27
HETATM   27  C   UNL     1     -11.756   8.281  71.153  1.00  0.00    -0.280 C  
HETATM   28  C   UNL     1     -13.021   8.594  71.981  1.00  0.00    -0.419 C  
HETATM   29  C   UNL     1     -13.606   9.982  71.727  1.00  0.00    -0.330 C  
HETATM   30  C   UNL     1     -14.114   7.562  71.641  1.00  0.00    -0.562 C  
ENDBRANCH  26  27
BRANCH  26  31
HETATM   31  S   UNL     1      -9.081   8.138  71.691  1.00  0.00    -0.181 S  
HETATM   32  O   UNL     1      -8.354   7.943  70.462  1.00  0.00    -0.120 OA 
HETATM   33  O   UNL     1      -8.448   8.714  72.864  1.00  0.00    -0.403 OA 
BRANCH  31  34
HETATM   34  C   UNL     1      -9.745   6.545  72.172  1.00  0.00    -0.151 A  
HETATM   35  C   UNL     1     -10.768   5.113  73.830  1.00  0.00    -0.342 A  
HETATM   36  C   UNL     1     -10.314   6.381  73.435  1.00  0.00    -0.267 A  
HETATM   37  C   UNL     1     -10.621   3.999  72.997  1.00  0.00    -0.174 A  
HETATM   38  N   UNL     1     -11.169   2.767  73.356  1.00  0.00    -0.188 NA 
HETATM   39  C   UNL     1     -10.127   4.199  71.705  1.00  0.00    -0.212 A  
HETATM   40  H1  UNL     1     -11.062   1.954  72.749  1.00  0.00     0.000 HD 
HETATM   41  C   UNL     1      -9.675   5.460  71.293  1.00  0.00    -0.215 A  
HETATM   42  H2  UNL     1     -12.164   2.901  73.537  1.00  0.00     0.000 HD 
ENDBRANCH  31  34
ENDBRANCH  26  31
ENDBRANCH  25  26
ENDBRANCH  22  25
ENDBRANCH  14  22
ENDBRANCH  12  14
ENDBRANCH   9  10
ENDBRANCH   8   9
TORSDOF 11
ENDMDL
MODEL      197
REMARK 921   NORMALIZED FREE ENERGY PREDICTED BY IDOCK:   -5.06 KCAL/MOL
REMARK 922        TOTAL FREE ENERGY PREDICTED BY IDOCK:  -10.93 KCAL/MOL
REMARK 923 INTER-LIGAND FREE ENERGY PREDICTED BY IDOCK:  -10.26 KCAL/MOL
REMARK 924 INTRA-LIGAND FREE ENERGY PREDICTED BY IDOCK:   -0.67 KCAL/MOL
REMARK 927      BINDING AFFINITY PREDICTED BY RF-SCORE:    0.00 PKD
ROOT
HETATM    1  C   UNL     1     -11.708  12.075  65.371  1.00  0.00    -0.317 C  
HETATM    2  C   UNL     1     -10.820  10.983  64.804  1.00  0.00    -0.234 C  
HETATM    3  C   UNL     1     -10.063  11.650  63.671  1.00  0.00    -0.402 C  
HETATM    4  O   UNL     1     -10.408  13.035  63.660  1.00  0.00    -0.305 OA 
HETATM    5  C   UNL     1     -11.046  13.343  64.892  1.00  0.00    -0.335 C  
HETATM    6  O   UNL     1     -10.099  13.700  65.898  1.00  0.00    -0.298 OA 
HETATM    7  C   UNL     1     -10.617  13.246  67.153  1.00  0.00    -0.258 C  
HETATM    8  C   UNL     1     -11.731  12.234  66.881  1.00  0.00    -0.334 C  
ENDROOT
BRANCH   8   9
HETATM    9  O   UNL     1     -11.412  11.007  67.559  1.00  0.00    -0.468 OA 
BRANCH   9  10
HETATM   10  C   UNL     1     -11.098  11.112  68.873  1.00  0.00    -0.237 C  
HETATM   11  O   UNL     1      -9.966  11.096  69.326  1.00  0.00    -0.139 OA 
HETATM   12  N   UNL     1     -12.257  11.143  69.593  1.00  0.00    -0.314 N  
HETATM   13  H   UNL     1     -13.137  11.253  69.088  1.00  0.00     0.000 HD 
BRANCH  12  14
HETATM   14  C   UNL     1     -12.305  11.027  71.059  1.00  0.00    -0.385 C  
BRANCH  14  15
HETATM   15  C   UNL     1     -13.285  12.070  71.688  1.00  0.00    -0.361 C  
BRANCH  15  16
HETATM   16  C   UNL     1     -12.826  13.519  71.676  1.00  0.00    -0.419 A  
HETATM   17  C   UNL     1     -12.467  14.142  70.474  1.00  0.00    -0.431 A  
HETATM   18  C   UNL     1     -12.714  14.252  72.868  1.00  0.00    -0.401 A  
HETATM   19  C   UNL     1     -12.005  15.461  70.465  1.00  0.00    -0.394 A  
HETATM   20  C   UNL     1     -11.906  16.178  71.656  1.00  0.00    -0.557 A  
HETATM   21  C   UNL     1     -12.268  15.576  72.858  1.00  0.00    -0.547 A  
ENDBRANCH  15  16
ENDBRANCH  14  15
BRANCH  14  22
HETATM   22  C   UNL     1     -12.645   9.592  71.566  1.00  0.00    -0.391 C  
HETATM   23  O   UNL     1     -12.949   9.607  72.968  1.00  0.00    -0.222 OA 
HETATM   24  H   UNL     1     -13.157   8.733  73.277  1.00  0.00     0.000 HD 
BRANCH  22  25
HETATM   25  C   UNL     1     -11.661   8.454  71.228  1.00  0.00    -0.285 C  
BRANCH  25  26
HETATM   26  N   UNL     1     -10.444   8.222  72.117  1.00  0.00    -0.275 N  
BRANCH  26  27
HETATM   27  C   UNL     1     -10.592   6.933  72.925  1.00  0.00    -0.261 C  
HETATM   28  C   UNL     1     -11.486   5.800  72.377  1.00  0.00    -0.343 C  
HETATM   29  C   UNL     1     -11.010   5.216  71.049  1.00  0.00     0.066 C  
HETATM   30  C   UNL     1     -11.525   4.649  73.401  1.00  0.00    -0.335 C  
ENDBRANCH  26  27
BRANCH  26  31
HETATM   31  S   UNL     1      -8.991   8.213  71.118  1.00  0.00    -0.156 S  
HETATM   32  O   UNL     1      -9.361   7.892  69.762  1.00  0.00    -0.153 OA 
HETATM   33  O   UNL     1      -8.269   9.431  71.440  1.00  0.00    -0.302 OA 
BRANCH  31  34
HETATM   34  C   UNL     1      -8.024   6.840  71.741  1.00  0.00    -0.101 A  
HETATM   35  C   UNL     1      -6.847   4.762  71.365  1.00  0.00    -0.039 A  
HETATM   36  C   UNL     1      -7.543   5.871  70.860  1.00  0.00    -0.096 A  
HETATM   37  C   UNL     1      -6.663   4.586  72.741  1.00  0.00    -0.052 A  
HETATM   38  N   UNL     1      -5.881   3.536  73.224  1.00  0.00    -0.003 NA 
HETATM   39  C   UNL     1      -7.077   5.607  73.600  1.00  0.00    -0.086 A  
HETATM   40  H1  UNL     1      -5.747   3.408  74.227  1.00  0.00     0.000 HD 
HETATM   41  C   UNL     1      -7.768   6.725  73.112  1.00  0.00    -0.094 A  
HETATM   42  H2  UNL     1      -4.962   3.595  72.784  1.00  0.00     0.000 HD 
ENDBRANCH  31  34
ENDBRANCH  26  31
ENDBRANCH  25  26
ENDBRANCH  22  25
ENDBRANCH  14  22
ENDBRANCH  12  14
ENDBRANCH   9  10
ENDBRANCH   8   9
TORSDOF 11
ENDMDL
MODEL      198
REMARK 921   NORMALIZED FREE ENERGY PREDICTED BY IDOCK:   -5.05 KCAL/MOL
REMARK 922        TOTAL FREE ENERGY PREDICTED BY IDOCK:  -10.92 KCAL/MOL
REMARK 923 INTER-LIGAND FREE ENERGY PREDICTED BY IDOCK:   -9.94 KCAL/MOL
REMARK 924 INTRA-LIGAND FREE ENERGY PREDICTED BY IDOCK:   -0.98 KCAL/MOL
REMARK 927      BINDING AFFINITY PREDICTED BY RF-SCORE:    0.00 PKD
ROOT
HETATM    1  C   UNL     1      -7.388  18.406  66.046  1.00  0.00    -0.273 C  
HETATM    2  C   UNL     1      -5.995  18.709  65.526  1.00  0.00    -0.268 C  
HETATM    3  C   UNL     1      -6.161  19.963  64.688  1.00  0.00    -0.272 C  
HETATM    4  O   UNL     1      -7.513  20.403  64.806  1.00  0.00    -0.036 OA 
HETATM    5  C   UNL     1      -8.104  19.727  65.907  1.00  0.00    -0.252 C  
HETATM    6  O   UNL     1      -7.885  20.426  67.132  1.00  0.00    -0.318 OA 
HETATM    7  C   UNL     1      -7.769  19.446  68.169  1.00  0.00    -0.307 C  
HETATM    8  C   UNL     1      -7.520  18.083  67.523  1.00  0.00    -0.211 C  
ENDROOT
BRANCH   8   9
HETATM    9  O   UNL     1      -6.309  17.533  68.067  1.00  0.00    -0.155 OA 
BRANCH   9  10
HETATM   10  C   UNL     1      -6.129  16.199  67.901  1.00  0.00    -0.130 C  
HETATM   11  O   UNL     1      -5.138  15.681  67.414  1.00  0.00    -0.309 OA 
HETATM   12  N   UNL     1      -7.272  15.559  68.283  1.00  0.00    -0.112 N  
HETATM   13  H   UNL     1      -7.989  16.098  68.769  1.00  0.00     0.000 HD 
BRANCH  12  14
HETATM   14  C   UNL     1      -7.524  14.131  68.032  1.00  0.00    -0.140 C  
BRANCH  14  15
HETATM   15  C   UNL     1      -7.194  13.259  69.286  1.00  0.00     0.138 C  
BRANCH  15  16
HETATM   16  C   UNL     1      -6.669  11.858  69.015  1.00  0.00    -0.099 A  
HETATM   17  C   UNL     1      -6.619  10.906  70.041  1.00  0.00    -0.151 A  
HETATM   18  C   UNL     1      -6.190  11.499  67.745  1.00  0.00    -0.052 A  
HETATM   19  C   UNL     1      -6.098   9.630  69.805  1.00  0.00    -0.044 A  
HETATM   20  C   UNL     1      -5.632   9.286  68.538  1.00  0.00    -0.041 A  
HETATM   21  C   UNL     1      -5.685  10.218  67.505  1.00  0.00    -0.045 A  
ENDBRANCH  15  16
ENDBRANCH  14  15
BRANCH  14  22
HETATM   22  C   UNL     1      -8.967  13.825  67.526  1.00  0.00    -0.201 C  
HETATM   23  O   UNL     1      -9.099  14.153  66.136  1.00  0.00    -0.491 OA 
HETATM   24  H   UNL     1      -9.978  13.967  65.827  1.00  0.00     0.000 HD 
BRANCH  22  25
HETATM   25  C   UNL     1     -10.151  14.384  68.340  1.00  0.00    -0.244 C  
BRANCH  25  26
HETATM   26  N   UNL     1     -10.897  13.471  69.307  1.00  0.00    -0.130 N  
BRANCH  26  27
HETATM   27  C   UNL     1     -12.234  14.084  69.722  1.00  0.00    -0.341 C  
HETATM   28  C   UNL     1     -12.411  14.597  71.168  1.00  0.00    -0.403 C  
HETATM   29  C   UNL     1     -11.475  15.744  71.542  1.00  0.00    -0.504 C  
HETATM   30  C   UNL     1     -13.856  15.099  71.351  1.00  0.00    -0.587 C  
ENDBRANCH  26  27
BRANCH  26  31
HETATM   31  S   UNL     1     -11.099  11.884  68.566  1.00  0.00    -0.265 S  
HETATM   32  O   UNL     1     -12.278  11.905  67.735  1.00  0.00    -0.508 OA 
HETATM   33  O   UNL     1      -9.800  11.517  68.031  1.00  0.00    -0.176 OA 
BRANCH  31  34
HETATM   34  C   UNL     1     -11.440  10.785  69.939  1.00  0.00    -0.321 A  
HETATM   35  C   UNL     1     -10.816   8.906  71.327  1.00  0.00    -0.360 A  
HETATM   36  C   UNL     1     -10.511   9.808  70.296  1.00  0.00    -0.345 A  
HETATM   37  C   UNL     1     -12.055   8.940  71.976  1.00  0.00    -0.371 A  
HETATM   38  N   UNL     1     -12.307   8.109  73.068  1.00  0.00    -0.628 NA 
HETATM   39  C   UNL     1     -12.938   9.977  71.664  1.00  0.00    -0.554 A  
HETATM   40  H1  UNL     1     -13.210   8.133  73.542  1.00  0.00     0.000 HD 
HETATM   41  C   UNL     1     -12.646  10.890  70.641  1.00  0.00    -0.435 A  
HETATM   42  H2  UNL     1     -11.578   8.266  73.765  1.00  0.00     0.000 HD 
ENDBRANCH  31  34
ENDBRANCH  26  31
ENDBRANCH  25  26
ENDBRANCH  22  25
ENDBRANCH  14  22
ENDBRANCH  12  14
ENDBRANCH   9  10
ENDBRANCH   8   9
TORSDOF 11
ENDMDL
MODEL      199
REMARK 921   NORMALIZED FREE ENERGY PREDICTED BY IDOCK:   -5.03 KCAL/MOL
REMARK 922        TOTAL FREE ENERGY PREDICTED BY IDOCK:  -10.88 KCAL/MOL
REMARK 923 INTER-LIGAND FREE ENERGY PREDICTED BY IDOCK:   -8.46 KCAL/MOL
REMARK 924 INTRA-LIGAND FREE ENERGY PREDICTED BY IDOCK:   -2.43 KCAL/MOL
REMARK 927      BINDING AFFINITY PREDICTED BY RF-SCORE:    0.00 PKD
ROOT
HETATM    1  C   UNL     1      -7.274   6.075  64.498  1.00  0.00    -0.063 C  
HETATM    2  C   UNL     1      -8.608   5.354  64.444  1.00  0.00    -0.060 C  
HETATM    3  C   UNL     1      -8.328   3.981  65.024  1.00  0.00    -0.105 C  
HETATM    4  O   UNL     1      -6.974   3.954  65.473  1.00  0.00    -0.058 OA 
HETATM    5  C   UNL     1      -6.499   5.292  65.529  1.00  0.00    -0.040 C  
HETATM    6  O   UNL     1      -6.789   5.899  66.788  1.00  0.00    -0.056 OA 
HETATM    7  C   UNL     1      -7.024   7.290  66.546  1.00  0.00    -0.073 C  
HETATM    8  C   UNL     1      -7.273   7.489  65.051  1.00  0.00    -0.066 C  
ENDROOT
BRANCH   8   9
HETATM    9  O   UNL     1      -8.544   8.137  64.879  1.00  0.00    -0.124 OA 
BRANCH   9  10
HETATM   10  C   UNL     1      -8.601   9.447  65.224  1.00  0.00    -0.162 C  
HETATM   11  O   UNL     1      -7.790  10.294  64.891  1.00  0.00    -0.146 OA 
HETATM   12  N   UNL     1      -9.655   9.625  66.072  1.00  0.00    -0.221 N  
HETATM   13  H   UNL     1     -10.316   8.857  66.189  1.00  0.00     0.000 HD 
BRANCH  12  14
HETATM   14  C   UNL     1      -9.889  10.867  66.825  1.00  0.00    -0.195 C  
BRANCH  14  15
HETATM   15  C   UNL     1     -11.290  11.481  66.501  1.00  0.00    -0.263 C  
BRANCH  15  16
HETATM   16  C   UNL     1     -11.291  12.858  65.857  1.00  0.00    -0.348 A  
HETATM   17  C   UNL     1     -12.403  13.303  65.130  1.00  0.00    -0.516 A  
HETATM   18  C   UNL     1     -10.169  13.697  65.943  1.00  0.00    -0.318 A  
HETATM   19  C   UNL     1     -12.390  14.551  64.501  1.00  0.00    -0.434 A  
HETATM   20  C   UNL     1     -11.271  15.376  64.601  1.00  0.00    -0.374 A  
HETATM   21  C   UNL     1     -10.163  14.952  65.329  1.00  0.00    -0.404 A  
ENDBRANCH  15  16
ENDBRANCH  14  15
BRANCH  14  22
HETATM   22  C   UNL     1      -9.710  10.713  68.366  1.00  0.00    -0.166 C  
HETATM   23  O   UNL     1      -9.082  11.876  68.924  1.00  0.00    -0.388 OA 
HETATM   24  H   UNL     1      -8.973  11.783  69.863  1.00  0.00     0.000 HD 
BRANCH  22  25
HETATM   25  C   UNL     1      -9.048   9.424  68.891  1.00  0.00    -0.140 C  
BRANCH  25  26
HETATM   26  N   UNL     1      -9.898   8.381  69.611  1.00  0.00    -0.181 N  
BRANCH  26  27
HETATM   27  C   UNL     1      -9.423   6.965  69.285  1.00  0.00    -0.147 C  
HETATM   28  C   UNL     1     -10.394   5.988  68.588  1.00  0.00    -0.264 C  
HETATM   29  C   UNL     1     -10.839   6.435  67.197  1.00  0.00    -0.467 C  
HETATM   30  C   UNL     1      -9.706   4.618  68.435  1.00  0.00    -0.198 C  
ENDBRANCH  26  27
BRANCH  26  31
HETATM   31  S   UNL     1      -9.868   8.706  71.344  1.00  0.00    -0.285 S  
HETATM   32  O   UNL     1      -8.530   9.087  71.722  1.00  0.00    -0.351 OA 
HETATM   33  O   UNL     1     -11.007   9.564  71.616  1.00  0.00    -0.362 OA 
BRANCH  31  34
HETATM   34  C   UNL     1     -10.202   7.119  72.105  1.00  0.00    -0.186 A  
HETATM   35  C   UNL     1      -9.412   5.078  73.133  1.00  0.00    -0.146 A  
HETATM   36  C   UNL     1      -9.149   6.350  72.601  1.00  0.00    -0.135 A  
HETATM   37  C   UNL     1     -10.707   4.546  73.134  1.00  0.00    -0.235 A  
HETATM   38  N   UNL     1     -10.972   3.327  73.759  1.00  0.00    -0.222 NA 
HETATM   39  C   UNL     1     -11.758   5.364  72.712  1.00  0.00    -0.235 A  
HETATM   40  H1  UNL     1     -11.916   2.939  73.760  1.00  0.00     0.000 HD 
HETATM   41  C   UNL     1     -11.514   6.639  72.184  1.00  0.00    -0.323 A  
HETATM   42  H2  UNL     1     -10.650   3.386  74.725  1.00  0.00     0.000 HD 
ENDBRANCH  31  34
ENDBRANCH  26  31
ENDBRANCH  25  26
ENDBRANCH  22  25
ENDBRANCH  14  22
ENDBRANCH  12  14
ENDBRANCH   9  10
ENDBRANCH   8   9
TORSDOF 11
ENDMDL
MODEL      200
REMARK 921   NORMALIZED FREE ENERGY PREDICTED BY IDOCK:   -5.02 KCAL/MOL
REMARK 922        TOTAL FREE ENERGY PREDICTED BY IDOCK:  -10.86 KCAL/MOL
REMARK 923 INTER-LIGAND FREE ENERGY PREDICTED BY IDOCK:   -8.48 KCAL/MOL
REMARK 924 INTRA-LIGAND FREE ENERGY PREDICTED BY IDOCK:   -2.38 KCAL/MOL
REMARK 927      BINDING AFFINITY PREDICTED BY RF-SCORE:    0.00 PKD
ROOT
HETATM    1  C   UNL     1      -7.696   5.891  64.917  1.00  0.00    -0.097 C  
HETATM    2  C   UNL     1      -9.029   5.167  64.991  1.00  0.00    -0.109 C  
HETATM    3  C   UNL     1      -8.679   3.760  65.437  1.00  0.00    -0.117 C  
HETATM    4  O   UNL     1      -7.278   3.712  65.702  1.00  0.00    -0.068 OA 
HETATM    5  C   UNL     1      -6.796   5.045  65.783  1.00  0.00    -0.061 C  
HETATM    6  O   UNL     1      -6.916   5.567  67.106  1.00  0.00    -0.062 OA 
HETATM    7  C   UNL     1      -7.176   6.970  66.990  1.00  0.00    -0.081 C  
HETATM    8  C   UNL     1      -7.619   7.265  65.557  1.00  0.00    -0.097 C  
ENDROOT
BRANCH   8   9
HETATM    9  O   UNL     1      -8.899   7.916  65.597  1.00  0.00    -0.155 OA 
BRANCH   9  10
HETATM   10  C   UNL     1      -8.913   9.183  66.079  1.00  0.00    -0.181 C  
HETATM   11  O   UNL     1      -8.115  10.055  65.780  1.00  0.00    -0.119 OA 
HETATM   12  N   UNL     1      -9.905   9.280  67.011  1.00  0.00    -0.183 N  
HETATM   13  H   UNL     1     -10.568   8.508  67.093  1.00  0.00     0.000 HD 
BRANCH  12  14
HETATM   14  C   UNL     1     -10.070  10.438  67.903  1.00  0.00    -0.171 C  
BRANCH  14  15
HETATM   15  C   UNL     1     -11.575  10.700  68.235  1.00  0.00    -0.245 C  
BRANCH  15  16
HETATM   16  C   UNL     1     -11.863  11.816  69.226  1.00  0.00    -0.389 A  
HETATM   17  C   UNL     1     -12.412  11.527  70.483  1.00  0.00    -0.367 A  
HETATM   18  C   UNL     1     -11.623  13.158  68.893  1.00  0.00    -0.354 A  
HETATM   19  C   UNL     1     -12.717  12.555  71.380  1.00  0.00    -0.345 A  
HETATM   20  C   UNL     1     -12.467  13.882  71.038  1.00  0.00    -0.452 A  
HETATM   21  C   UNL     1     -11.912  14.184  69.797  1.00  0.00    -0.396 A  
ENDBRANCH  15  16
ENDBRANCH  14  15
BRANCH  14  22
HETATM   22  C   UNL     1      -9.235  10.345  69.217  1.00  0.00    -0.184 C  
HETATM   23  O   UNL     1      -8.177  11.315  69.217  1.00  0.00    -0.368 OA 
HETATM   24  H   UNL     1      -7.669  11.259  70.018  1.00  0.00     0.000 HD 
BRANCH  22  25
HETATM   25  C   UNL     1      -8.712   8.959  69.645  1.00  0.00    -0.140 C  
BRANCH  25  26
HETATM   26  N   UNL     1      -9.680   7.942  70.243  1.00  0.00    -0.182 N  
BRANCH  26  27
HETATM   27  C   UNL     1      -9.226   6.513  69.946  1.00  0.00    -0.149 C  
HETATM   28  C   UNL     1     -10.228   5.522  69.315  1.00  0.00    -0.315 C  
HETATM   29  C   UNL     1     -10.719   5.929  67.927  1.00  0.00    -0.336 C  
HETATM   30  C   UNL     1      -9.556   4.142  69.182  1.00  0.00    -0.243 C  
ENDBRANCH  26  27
BRANCH  26  31
HETATM   31  S   UNL     1      -9.835   8.241  71.974  1.00  0.00    -0.286 S  
HETATM   32  O   UNL     1      -8.594   8.785  72.465  1.00  0.00    -0.403 OA 
HETATM   33  O   UNL     1     -11.095   8.939  72.154  1.00  0.00    -0.362 OA 
BRANCH  31  34
HETATM   34  C   UNL     1     -10.021   6.612  72.696  1.00  0.00    -0.171 A  
HETATM   35  C   UNL     1     -11.417   4.734  73.306  1.00  0.00    -0.361 A  
HETATM   36  C   UNL     1     -11.264   5.979  72.676  1.00  0.00    -0.326 A  
HETATM   37  C   UNL     1     -10.356   4.134  73.994  1.00  0.00    -0.200 A  
HETATM   38  N   UNL     1     -10.490   2.851  74.525  1.00  0.00    -0.163 NA 
HETATM   39  C   UNL     1      -9.099   4.741  73.930  1.00  0.00    -0.112 A  
HETATM   40  H1  UNL     1      -9.717   2.414  75.026  1.00  0.00     0.000 HD 
HETATM   41  C   UNL     1      -8.928   5.981  73.300  1.00  0.00    -0.130 A  
HETATM   42  H2  UNL     1     -10.780   2.223  73.775  1.00  0.00     0.000 HD 
ENDBRANCH  31  34
ENDBRANCH  26  31
ENDBRANCH  25  26
ENDBRANCH  22  25
ENDBRANCH  14  22
ENDBRANCH  12  14
ENDBRANCH   9  10
ENDBRANCH   8   9
TORSDOF 11
ENDMDL
MODEL      201
REMARK 921   NORMALIZED FREE ENERGY PREDICTED BY IDOCK:   -5.00 KCAL/MOL
REMARK 922        TOTAL FREE ENERGY PREDICTED BY IDOCK:  -10.84 KCAL/MOL
REMARK 923 INTER-LIGAND FREE ENERGY PREDICTED BY IDOCK:   -8.45 KCAL/MOL
REMARK 924 INTRA-LIGAND FREE ENERGY PREDICTED BY IDOCK:   -2.39 KCAL/MOL
REMARK 927      BINDING AFFINITY PREDICTED BY RF-SCORE:    0.00 PKD
ROOT
HETATM    1  C   UNL     1     -10.704  13.366  67.317  1.00  0.00    -0.265 C  
HETATM    2  C   UNL     1     -11.367  13.240  68.676  1.00  0.00    -0.324 C  
HETATM    3  C   UNL     1     -11.959  14.611  68.945  1.00  0.00    -0.274 C  
HETATM    4  O   UNL     1     -11.747  15.422  67.790  1.00  0.00    -0.297 OA 
HETATM    5  C   UNL     1     -11.380  14.572  66.713  1.00  0.00    -0.352 C  
HETATM    6  O   UNL     1     -12.525  14.078  66.020  1.00  0.00    -0.468 OA 
HETATM    7  C   UNL     1     -12.208  12.762  65.555  1.00  0.00    -0.463 C  
HETATM    8  C   UNL     1     -10.976  12.263  66.310  1.00  0.00    -0.291 C  
ENDROOT
BRANCH   8   9
HETATM    9  O   UNL     1     -11.300  11.017  66.947  1.00  0.00    -0.357 OA 
BRANCH   9  10
HETATM   10  C   UNL     1     -10.429   9.997  66.749  1.00  0.00    -0.198 C  
HETATM   11  O   UNL     1      -9.830   9.780  65.709  1.00  0.00    -0.260 OA 
HETATM   12  N   UNL     1     -10.415   9.217  67.869  1.00  0.00    -0.231 N  
HETATM   13  H   UNL     1     -10.883   9.565  68.706  1.00  0.00     0.000 HD 
BRANCH  12  14
HETATM   14  C   UNL     1      -9.760   7.902  67.932  1.00  0.00    -0.155 C  
BRANCH  14  15
HETATM   15  C   UNL     1      -8.250   8.028  68.315  1.00  0.00    -0.123 C  
BRANCH  15  16
HETATM   16  C   UNL     1      -7.435   6.745  68.284  1.00  0.00    -0.099 A  
HETATM   17  C   UNL     1      -6.588   6.414  69.349  1.00  0.00    -0.044 A  
HETATM   18  C   UNL     1      -7.484   5.884  67.176  1.00  0.00    -0.084 A  
HETATM   19  C   UNL     1      -5.806   5.256  69.305  1.00  0.00    -0.020 A  
HETATM   20  C   UNL     1      -5.870   4.408  68.201  1.00  0.00    -0.026 A  
HETATM   21  C   UNL     1      -6.715   4.718  67.139  1.00  0.00    -0.055 A  
ENDBRANCH  15  16
ENDBRANCH  14  15
BRANCH  14  22
HETATM   22  C   UNL     1     -10.473   6.887  68.878  1.00  0.00    -0.208 C  
HETATM   23  O   UNL     1     -11.157   5.880  68.120  1.00  0.00    -0.251 OA 
HETATM   24  H   UNL     1     -11.592   5.261  68.696  1.00  0.00     0.000 HD 
BRANCH  22  25
HETATM   25  C   UNL     1     -11.380   7.451  69.990  1.00  0.00    -0.127 C  
BRANCH  25  26
HETATM   26  N   UNL     1     -10.752   7.979  71.276  1.00  0.00    -0.226 N  
BRANCH  26  27
HETATM   27  C   UNL     1     -11.277   9.376  71.610  1.00  0.00    -0.361 C  
HETATM   28  C   UNL     1     -12.696   9.776  71.150  1.00  0.00    -0.433 C  
HETATM   29  C   UNL     1     -13.811   8.930  71.761  1.00  0.00    -0.465 C  
HETATM   30  C   UNL     1     -12.958  11.242  71.544  1.00  0.00    -0.520 C  
ENDBRANCH  26  27
BRANCH  26  31
HETATM   31  S   UNL     1     -11.051   6.831  72.581  1.00  0.00    -0.257 S  
HETATM   32  O   UNL     1     -11.007   7.534  73.839  1.00  0.00    -0.159 OA 
HETATM   33  O   UNL     1     -12.215   6.059  72.183  1.00  0.00    -0.288 OA 
BRANCH  31  34
HETATM   34  C   UNL     1      -9.640   5.727  72.542  1.00  0.00    -0.154 A  
HETATM   35  C   UNL     1      -7.380   5.188  73.209  1.00  0.00    -0.091 A  
HETATM   36  C   UNL     1      -8.507   6.020  73.300  1.00  0.00    -0.117 A  
HETATM   37  C   UNL     1      -7.356   4.093  72.338  1.00  0.00    -0.067 A  
HETATM   38  N   UNL     1      -6.272   3.214  72.334  1.00  0.00    -0.013 NA 
HETATM   39  C   UNL     1      -8.528   3.767  71.652  1.00  0.00    -0.097 A  
HETATM   40  H1  UNL     1      -6.254   2.416  71.699  1.00  0.00     0.000 HD 
HETATM   41  C   UNL     1      -9.664   4.584  71.736  1.00  0.00    -0.235 A  
HETATM   42  H2  UNL     1      -6.137   2.869  73.284  1.00  0.00     0.000 HD 
ENDBRANCH  31  34
ENDBRANCH  26  31
ENDBRANCH  25  26
ENDBRANCH  22  25
ENDBRANCH  14  22
ENDBRANCH  12  14
ENDBRANCH   9  10
ENDBRANCH   8   9
TORSDOF 11
ENDMDL
MODEL      202
REMARK 921   NORMALIZED FREE ENERGY PREDICTED BY IDOCK:   -4.99 KCAL/MOL
REMARK 922        TOTAL FREE ENERGY PREDICTED BY IDOCK:  -10.81 KCAL/MOL
REMARK 923 INTER-LIGAND FREE ENERGY PREDICTED BY IDOCK:   -9.55 KCAL/MOL
REMARK 924 INTRA-LIGAND FREE ENERGY PREDICTED BY IDOCK:   -1.27 KCAL/MOL
REMARK 927      BINDING AFFINITY PREDICTED BY RF-SCORE:    0.00 PKD
ROOT
HETATM    1  C   UNL     1      -8.301  17.536  67.508  1.00  0.00    -0.220 C  
HETATM    2  C   UNL     1      -8.286  18.635  68.555  1.00  0.00    -0.369 C  
HETATM    3  C   UNL     1      -7.729  19.848  67.833  1.00  0.00    -0.294 C  
HETATM    4  O   UNL     1      -7.544  19.503  66.461  1.00  0.00    -0.240 OA 
HETATM    5  C   UNL     1      -8.251  18.298  66.207  1.00  0.00    -0.212 C  
HETATM    6  O   UNL     1      -9.608  18.552  65.845  1.00  0.00    -0.494 OA 
HETATM    7  C   UNL     1     -10.395  17.468  66.349  1.00  0.00    -0.334 C  
HETATM    8  C   UNL     1      -9.570  16.712  67.390  1.00  0.00    -0.242 C  
ENDROOT
BRANCH   8   9
HETATM    9  O   UNL     1     -10.308  16.674  68.622  1.00  0.00    -0.266 OA 
BRANCH   9  10
HETATM   10  C   UNL     1     -10.476  15.452  69.185  1.00  0.00    -0.239 C  
HETATM   11  O   UNL     1     -10.540  15.235  70.382  1.00  0.00    -0.276 OA 
HETATM   12  N   UNL     1     -10.465  14.515  68.192  1.00  0.00    -0.235 N  
HETATM   13  H   UNL     1     -10.508  14.836  67.224  1.00  0.00     0.000 HD 
BRANCH  12  14
HETATM   14  C   UNL     1     -10.396  13.068  68.444  1.00  0.00    -0.252 C  
BRANCH  14  15
HETATM   15  C   UNL     1     -11.550  12.301  67.720  1.00  0.00    -0.416 C  
BRANCH  15  16
HETATM   16  C   UNL     1     -11.858  12.733  66.295  1.00  0.00    -0.485 A  
HETATM   17  C   UNL     1     -11.608  11.870  65.221  1.00  0.00    -0.278 A  
HETATM   18  C   UNL     1     -12.360  14.015  66.021  1.00  0.00    -0.504 A  
HETATM   19  C   UNL     1     -11.850  12.279  63.907  1.00  0.00    -0.553 A  
HETATM   20  C   UNL     1     -12.355  13.553  63.650  1.00  0.00    -0.377 A  
HETATM   21  C   UNL     1     -12.618  14.418  64.708  1.00  0.00    -0.282 A  
ENDBRANCH  15  16
ENDBRANCH  14  15
BRANCH  14  22
HETATM   22  C   UNL     1      -9.018  12.430  68.088  1.00  0.00    -0.196 C  
HETATM   23  O   UNL     1      -8.112  13.424  67.588  1.00  0.00    -0.148 OA 
HETATM   24  H   UNL     1      -7.273  13.035  67.371  1.00  0.00     0.000 HD 
BRANCH  22  25
HETATM   25  C   UNL     1      -9.013  11.177  67.190  1.00  0.00    -0.145 C  
BRANCH  25  26
HETATM   26  N   UNL     1      -8.242   9.937  67.633  1.00  0.00    -0.114 N  
BRANCH  26  27
HETATM   27  C   UNL     1      -7.674  10.118  69.041  1.00  0.00    -0.100 C  
HETATM   28  C   UNL     1      -6.145  10.065  69.248  1.00  0.00    -0.040 C  
HETATM   29  C   UNL     1      -5.378  11.166  68.519  1.00  0.00    -0.043 C  
HETATM   30  C   UNL     1      -5.835  10.202  70.751  1.00  0.00    -0.094 C  
ENDBRANCH  26  27
BRANCH  26  31
HETATM   31  S   UNL     1      -9.297   8.529  67.522  1.00  0.00    -0.146 S  
HETATM   32  O   UNL     1     -10.438   8.866  66.707  1.00  0.00    -0.260 OA 
HETATM   33  O   UNL     1      -8.440   7.403  67.199  1.00  0.00    -0.116 OA 
BRANCH  31  34
HETATM   34  C   UNL     1      -9.896   8.282  69.192  1.00  0.00    -0.179 A  
HETATM   35  C   UNL     1     -11.580   8.633  70.891  1.00  0.00    -0.307 A  
HETATM   36  C   UNL     1     -11.149   8.770  69.562  1.00  0.00     0.006 A  
HETATM   37  C   UNL     1     -10.758   8.056  71.864  1.00  0.00    -0.251 A  
HETATM   38  N   UNL     1     -11.236   7.831  73.155  1.00  0.00    -0.528 NA 
HETATM   39  C   UNL     1      -9.543   7.498  71.458  1.00  0.00    -0.171 A  
HETATM   40  H1  UNL     1     -10.637   7.410  73.865  1.00  0.00     0.000 HD 
HETATM   41  C   UNL     1      -9.100   7.619  70.133  1.00  0.00    -0.150 A  
HETATM   42  H2  UNL     1     -12.089   7.275  73.088  1.00  0.00     0.000 HD 
ENDBRANCH  31  34
ENDBRANCH  26  31
ENDBRANCH  25  26
ENDBRANCH  22  25
ENDBRANCH  14  22
ENDBRANCH  12  14
ENDBRANCH   9  10
ENDBRANCH   8   9
TORSDOF 11
ENDMDL
MODEL      203
REMARK 921   NORMALIZED FREE ENERGY PREDICTED BY IDOCK:   -4.98 KCAL/MOL
REMARK 922        TOTAL FREE ENERGY PREDICTED BY IDOCK:  -10.81 KCAL/MOL
REMARK 923 INTER-LIGAND FREE ENERGY PREDICTED BY IDOCK:   -9.50 KCAL/MOL
REMARK 924 INTRA-LIGAND FREE ENERGY PREDICTED BY IDOCK:   -1.31 KCAL/MOL
REMARK 927      BINDING AFFINITY PREDICTED BY RF-SCORE:    0.00 PKD
ROOT
HETATM    1  C   UNL     1     -10.509  13.145  65.478  1.00  0.00    -0.297 C  
HETATM    2  C   UNL     1     -11.251  13.297  66.792  1.00  0.00    -0.331 C  
HETATM    3  C   UNL     1     -12.202  14.457  66.567  1.00  0.00    -0.332 C  
HETATM    4  O   UNL     1     -12.092  14.865  65.204  1.00  0.00    -0.279 OA 
HETATM    5  C   UNL     1     -11.410  13.844  64.489  1.00  0.00    -0.372 C  
HETATM    6  O   UNL     1     -12.311  12.851  64.004  1.00  0.00    -0.495 OA 
HETATM    7  C   UNL     1     -11.619  11.598  64.026  1.00  0.00    -0.280 C  
HETATM    8  C   UNL     1     -10.382  11.742  64.913  1.00  0.00    -0.289 C  
ENDROOT
BRANCH   8   9
HETATM    9  O   UNL     1     -10.435  10.738  65.940  1.00  0.00    -0.252 OA 
BRANCH   9  10
HETATM   10  C   UNL     1      -9.783   9.578  65.680  1.00  0.00    -0.290 C  
HETATM   11  O   UNL     1      -9.294   9.276  64.605  1.00  0.00    -0.153 OA 
HETATM   12  N   UNL     1      -9.853   8.786  66.789  1.00  0.00    -0.223 N  
HETATM   13  H   UNL     1     -10.201   9.197  67.655  1.00  0.00     0.000 HD 
BRANCH  12  14
HETATM   14  C   UNL     1      -9.454   7.370  66.800  1.00  0.00    -0.176 C  
BRANCH  14  15
HETATM   15  C   UNL     1      -8.014   7.182  67.377  1.00  0.00    -0.112 C  
BRANCH  15  16
HETATM   16  C   UNL     1      -7.549   8.223  68.382  1.00  0.00    -0.101 A  
HETATM   17  C   UNL     1      -7.506   7.923  69.750  1.00  0.00    -0.088 A  
HETATM   18  C   UNL     1      -7.189   9.516  67.970  1.00  0.00    -0.081 A  
HETATM   19  C   UNL     1      -7.119   8.891  70.681  1.00  0.00    -0.071 A  
HETATM   20  C   UNL     1      -6.758  10.169  70.255  1.00  0.00    -0.143 A  
HETATM   21  C   UNL     1      -6.786  10.479  68.899  1.00  0.00    -0.060 A  
ENDBRANCH  15  16
ENDBRANCH  14  15
BRANCH  14  22
HETATM   22  C   UNL     1     -10.459   6.437  67.542  1.00  0.00    -0.233 C  
HETATM   23  O   UNL     1     -11.506   6.010  66.658  1.00  0.00    -0.632 OA 
HETATM   24  H   UNL     1     -12.118   5.442  67.110  1.00  0.00     0.000 HD 
BRANCH  22  25
HETATM   25  C   UNL     1     -11.038   6.922  68.887  1.00  0.00    -0.114 C  
BRANCH  25  26
HETATM   26  N   UNL     1     -10.953   6.018  70.112  1.00  0.00    -0.341 N  
BRANCH  26  27
HETATM   27  C   UNL     1      -9.518   5.544  70.346  1.00  0.00    -0.163 C  
HETATM   28  C   UNL     1      -9.185   4.045  70.183  1.00  0.00    -0.212 C  
HETATM   29  C   UNL     1      -9.405   3.507  68.771  1.00  0.00    -0.233 C  
HETATM   30  C   UNL     1      -7.704   3.817  70.540  1.00  0.00    -0.044 C  
ENDBRANCH  26  27
BRANCH  26  31
HETATM   31  S   UNL     1     -11.603   6.875  71.510  1.00  0.00    -0.309 S  
HETATM   32  O   UNL     1     -12.963   6.449  71.725  1.00  0.00    -0.168 OA 
HETATM   33  O   UNL     1     -10.600   6.769  72.554  1.00  0.00    -0.206 OA 
BRANCH  31  34
HETATM   34  C   UNL     1     -11.660   8.591  70.998  1.00  0.00    -0.279 A  
HETATM   35  C   UNL     1     -10.571  10.543  70.077  1.00  0.00    -0.223 A  
HETATM   36  C   UNL     1     -10.541   9.180  70.410  1.00  0.00    -0.275 A  
HETATM   37  C   UNL     1     -11.689  11.335  70.365  1.00  0.00    -0.304 A  
HETATM   38  N   UNL     1     -11.748  12.661  69.935  1.00  0.00    -0.480 NA 
HETATM   39  C   UNL     1     -12.829  10.710  70.876  1.00  0.00    -0.473 A  
HETATM   40  H1  UNL     1     -12.562  13.239  70.145  1.00  0.00     0.000 HD 
HETATM   41  C   UNL     1     -12.818   9.349  71.208  1.00  0.00    -0.383 A  
HETATM   42  H2  UNL     1     -11.597  12.678  68.926  1.00  0.00     0.000 HD 
ENDBRANCH  31  34
ENDBRANCH  26  31
ENDBRANCH  25  26
ENDBRANCH  22  25
ENDBRANCH  14  22
ENDBRANCH  12  14
ENDBRANCH   9  10
ENDBRANCH   8   9
TORSDOF 11
ENDMDL
MODEL      204
REMARK 921   NORMALIZED FREE ENERGY PREDICTED BY IDOCK:   -4.96 KCAL/MOL
REMARK 922        TOTAL FREE ENERGY PREDICTED BY IDOCK:  -10.76 KCAL/MOL
REMARK 923 INTER-LIGAND FREE ENERGY PREDICTED BY IDOCK:   -9.31 KCAL/MOL
REMARK 924 INTRA-LIGAND FREE ENERGY PREDICTED BY IDOCK:   -1.46 KCAL/MOL
REMARK 927      BINDING AFFINITY PREDICTED BY RF-SCORE:    0.00 PKD
ROOT
HETATM    1  C   UNL     1     -11.759  12.812  65.391  1.00  0.00    -0.425 C  
HETATM    2  C   UNL     1     -10.454  12.367  64.756  1.00  0.00    -0.333 C  
HETATM    3  C   UNL     1     -10.871  11.585  63.525  1.00  0.00    -0.398 C  
HETATM    4  O   UNL     1     -12.290  11.668  63.404  1.00  0.00    -0.469 OA 
HETATM    5  C   UNL     1     -12.749  12.708  64.256  1.00  0.00    -0.305 C  
HETATM    6  O   UNL     1     -12.729  13.973  63.596  1.00  0.00    -0.778 OA 
HETATM    7  C   UNL     1     -12.429  14.965  64.584  1.00  0.00    -0.174 C  
HETATM    8  C   UNL     1     -11.860  14.265  65.818  1.00  0.00    -0.374 C  
ENDROOT
BRANCH   8   9
HETATM    9  O   UNL     1     -10.574  14.832  66.116  1.00  0.00    -0.294 OA 
BRANCH   9  10
HETATM   10  C   UNL     1      -9.959  14.372  67.233  1.00  0.00    -0.247 C  
HETATM   11  O   UNL     1     -10.530  14.012  68.249  1.00  0.00    -0.232 OA 
HETATM   12  N   UNL     1      -8.610  14.470  67.055  1.00  0.00    -0.263 N  
HETATM   13  H   UNL     1      -8.260  14.690  66.122  1.00  0.00     0.000 HD 
BRANCH  12  14
HETATM   14  C   UNL     1      -7.632  14.276  68.137  1.00  0.00    -0.134 C  
BRANCH  14  15
HETATM   15  C   UNL     1      -7.916  15.224  69.347  1.00  0.00    -0.223 C  
BRANCH  15  16
HETATM   16  C   UNL     1      -7.863  16.716  69.062  1.00  0.00    -0.215 A  
HETATM   17  C   UNL     1      -9.033  17.426  68.765  1.00  0.00    -0.219 A  
HETATM   18  C   UNL     1      -6.641  17.407  69.052  1.00  0.00    -0.232 A  
HETATM   19  C   UNL     1      -8.982  18.790  68.461  1.00  0.00    -0.375 A  
HETATM   20  C   UNL     1      -7.762  19.463  68.462  1.00  0.00    -0.380 A  
HETATM   21  C   UNL     1      -6.591  18.774  68.765  1.00  0.00    -0.282 A  
ENDBRANCH  15  16
ENDBRANCH  14  15
BRANCH  14  22
HETATM   22  C   UNL     1      -7.517  12.799  68.624  1.00  0.00    -0.092 C  
HETATM   23  O   UNL     1      -6.800  12.726  69.865  1.00  0.00    -0.349 OA 
HETATM   24  H   UNL     1      -6.730  11.827  70.162  1.00  0.00     0.000 HD 
BRANCH  22  25
HETATM   25  C   UNL     1      -6.996  11.747  67.624  1.00  0.00    -0.103 C  
BRANCH  25  26
HETATM   26  N   UNL     1      -7.901  10.592  67.207  1.00  0.00    -0.110 N  
BRANCH  26  27
HETATM   27  C   UNL     1      -7.105   9.503  66.489  1.00  0.00    -0.085 C  
HETATM   28  C   UNL     1      -7.620   8.961  65.138  1.00  0.00    -0.099 C  
HETATM   29  C   UNL     1      -7.679  10.008  64.028  1.00  0.00    -0.143 C  
HETATM   30  C   UNL     1      -6.687   7.831  64.660  1.00  0.00    -0.047 C  
ENDBRANCH  26  27
BRANCH  26  31
HETATM   31  S   UNL     1      -8.739   9.971  68.629  1.00  0.00    -0.133 S  
HETATM   32  O   UNL     1      -7.783   9.803  69.695  1.00  0.00    -0.103 OA 
HETATM   33  O   UNL     1      -9.923  10.795  68.794  1.00  0.00    -0.178 OA 
BRANCH  31  34
HETATM   34  C   UNL     1      -9.289   8.335  68.149  1.00  0.00    -0.133 A  
HETATM   35  C   UNL     1      -8.930   5.947  68.049  1.00  0.00    -0.118 A  
HETATM   36  C   UNL     1      -8.528   7.218  68.489  1.00  0.00    -0.125 A  
HETATM   37  C   UNL     1     -10.057   5.784  67.236  1.00  0.00    -0.176 A  
HETATM   38  N   UNL     1     -10.506   4.508  66.892  1.00  0.00    -0.171 NA 
HETATM   39  C   UNL     1     -10.853   6.903  66.977  1.00  0.00    -0.436 A  
HETATM   40  H1  UNL     1     -11.328   4.390  66.299  1.00  0.00     0.000 HD 
HETATM   41  C   UNL     1     -10.470   8.178  67.415  1.00  0.00    -0.356 A  
HETATM   42  H2  UNL     1     -10.653   3.979  67.751  1.00  0.00     0.000 HD 
ENDBRANCH  31  34
ENDBRANCH  26  31
ENDBRANCH  25  26
ENDBRANCH  22  25
ENDBRANCH  14  22
ENDBRANCH  12  14
ENDBRANCH   9  10
ENDBRANCH   8   9
TORSDOF 11
ENDMDL
MODEL      205
REMARK 921   NORMALIZED FREE ENERGY PREDICTED BY IDOCK:   -4.95 KCAL/MOL
REMARK 922        TOTAL FREE ENERGY PREDICTED BY IDOCK:  -10.76 KCAL/MOL
REMARK 923 INTER-LIGAND FREE ENERGY PREDICTED BY IDOCK:   -9.79 KCAL/MOL
REMARK 924 INTRA-LIGAND FREE ENERGY PREDICTED BY IDOCK:   -0.97 KCAL/MOL
REMARK 927      BINDING AFFINITY PREDICTED BY RF-SCORE:    0.00 PKD
ROOT
HETATM    1  C   UNL     1      -9.068   7.986  73.546  1.00  0.00    -0.327 C  
HETATM    2  C   UNL     1      -7.687   8.165  72.942  1.00  0.00    -0.190 C  
HETATM    3  C   UNL     1      -6.846   7.071  73.571  1.00  0.00    -0.070 C  
HETATM    4  O   UNL     1      -7.698   6.264  74.382  1.00  0.00    -0.099 OA 
HETATM    5  C   UNL     1      -9.045   6.561  74.042  1.00  0.00    -0.159 C  
HETATM    6  O   UNL     1      -9.501   5.756  72.956  1.00  0.00    -0.150 OA 
HETATM    7  C   UNL     1     -10.425   6.545  72.199  1.00  0.00    -0.205 C  
HETATM    8  C   UNL     1     -10.248   8.012  72.592  1.00  0.00    -0.316 C  
ENDROOT
BRANCH   8   9
HETATM    9  O   UNL     1      -9.969   8.775  71.407  1.00  0.00    -0.229 OA 
BRANCH   9  10
HETATM   10  C   UNL     1     -10.589   8.368  70.272  1.00  0.00    -0.227 C  
HETATM   11  O   UNL     1     -11.764   8.057  70.189  1.00  0.00    -0.027 OA 
HETATM   12  N   UNL     1      -9.656   8.282  69.279  1.00  0.00    -0.163 N  
HETATM   13  H   UNL     1      -8.729   8.669  69.452  1.00  0.00     0.000 HD 
BRANCH  12  14
HETATM   14  C   UNL     1      -9.919   7.659  67.972  1.00  0.00    -0.175 C  
BRANCH  14  15
HETATM   15  C   UNL     1     -10.798   6.374  68.113  1.00  0.00    -0.386 C  
BRANCH  15  16
HETATM   16  C   UNL     1     -10.075   5.044  67.979  1.00  0.00    -0.169 A  
HETATM   17  C   UNL     1      -9.819   4.497  66.715  1.00  0.00    -0.242 A  
HETATM   18  C   UNL     1      -9.684   4.317  69.114  1.00  0.00    -0.226 A  
HETATM   19  C   UNL     1      -9.192   3.254  66.590  1.00  0.00    -0.178 A  
HETATM   20  C   UNL     1      -8.803   2.547  67.726  1.00  0.00    -0.161 A  
HETATM   21  C   UNL     1      -9.042   3.082  68.989  1.00  0.00    -0.205 A  
ENDBRANCH  15  16
ENDBRANCH  14  15
BRANCH  14  22
HETATM   22  C   UNL     1     -10.545   8.631  66.926  1.00  0.00    -0.200 C  
HETATM   23  O   UNL     1      -9.774   8.642  65.716  1.00  0.00    -0.451 OA 
HETATM   24  H   UNL     1     -10.156   9.234  65.079  1.00  0.00     0.000 HD 
BRANCH  22  25
HETATM   25  C   UNL     1     -10.879  10.066  67.381  1.00  0.00    -0.249 C  
BRANCH  25  26
HETATM   26  N   UNL     1     -10.231  11.250  66.670  1.00  0.00    -0.221 N  
BRANCH  26  27
HETATM   27  C   UNL     1     -11.267  12.053  65.885  1.00  0.00    -0.337 C  
HETATM   28  C   UNL     1     -10.834  12.785  64.597  1.00  0.00    -0.361 C  
HETATM   29  C   UNL     1     -10.337  11.857  63.490  1.00  0.00    -0.495 C  
HETATM   30  C   UNL     1     -12.034  13.572  64.037  1.00  0.00    -0.501 C  
ENDBRANCH  26  27
BRANCH  26  31
HETATM   31  S   UNL     1      -9.384  12.243  67.856  1.00  0.00    -0.195 S  
HETATM   32  O   UNL     1      -8.796  11.380  68.851  1.00  0.00    -0.116 OA 
HETATM   33  O   UNL     1      -8.580  13.185  67.098  1.00  0.00    -0.197 OA 
BRANCH  31  34
HETATM   34  C   UNL     1     -10.679  13.179  68.667  1.00  0.00    -0.250 A  
HETATM   35  C   UNL     1     -11.762  15.289  69.137  1.00  0.00    -0.355 A  
HETATM   36  C   UNL     1     -10.789  14.551  68.444  1.00  0.00    -0.250 A  
HETATM   37  C   UNL     1     -12.596  14.681  70.082  1.00  0.00    -0.283 A  
HETATM   38  N   UNL     1     -13.626  15.401  70.687  1.00  0.00    -0.826 NA 
HETATM   39  C   UNL     1     -12.528  13.293  70.229  1.00  0.00    -0.255 A  
HETATM   40  H1  UNL     1     -14.234  14.958  71.375  1.00  0.00     0.000 HD 
HETATM   41  C   UNL     1     -11.566  12.541  69.540  1.00  0.00    -0.348 A  
HETATM   42  H2  UNL     1     -14.213  15.798  69.952  1.00  0.00     0.000 HD 
ENDBRANCH  31  34
ENDBRANCH  26  31
ENDBRANCH  25  26
ENDBRANCH  22  25
ENDBRANCH  14  22
ENDBRANCH  12  14
ENDBRANCH   9  10
ENDBRANCH   8   9
TORSDOF 11
ENDMDL
MODEL      206
REMARK 921   NORMALIZED FREE ENERGY PREDICTED BY IDOCK:   -4.94 KCAL/MOL
REMARK 922        TOTAL FREE ENERGY PREDICTED BY IDOCK:  -10.74 KCAL/MOL
REMARK 923 INTER-LIGAND FREE ENERGY PREDICTED BY IDOCK:   -8.87 KCAL/MOL
REMARK 924 INTRA-LIGAND FREE ENERGY PREDICTED BY IDOCK:   -1.88 KCAL/MOL
REMARK 927      BINDING AFFINITY PREDICTED BY RF-SCORE:    0.00 PKD
ROOT
HETATM    1  C   UNL     1      -8.656   6.159  67.998  1.00  0.00    -0.115 C  
HETATM    2  C   UNL     1      -7.215   6.080  68.468  1.00  0.00    -0.084 C  
HETATM    3  C   UNL     1      -6.659   4.837  67.799  1.00  0.00    -0.047 C  
HETATM    4  O   UNL     1      -7.663   4.310  66.933  1.00  0.00    -0.091 OA 
HETATM    5  C   UNL     1      -8.661   5.305  66.754  1.00  0.00    -0.112 C  
HETATM    6  O   UNL     1      -8.344   6.179  65.672  1.00  0.00    -0.134 OA 
HETATM    7  C   UNL     1      -8.851   7.475  66.007  1.00  0.00    -0.150 C  
HETATM    8  C   UNL     1      -9.150   7.507  67.506  1.00  0.00    -0.125 C  
ENDROOT
BRANCH   8   9
HETATM    9  O   UNL     1      -8.424   8.598  68.096  1.00  0.00    -0.128 OA 
BRANCH   9  10
HETATM   10  C   UNL     1      -9.129   9.414  68.918  1.00  0.00    -0.140 C  
HETATM   11  O   UNL     1      -8.718  10.462  69.385  1.00  0.00    -0.164 OA 
HETATM   12  N   UNL     1     -10.324   8.816  69.198  1.00  0.00    -0.215 N  
HETATM   13  H   UNL     1     -10.588   7.989  68.662  1.00  0.00     0.000 HD 
BRANCH  12  14
HETATM   14  C   UNL     1     -11.251   9.302  70.231  1.00  0.00    -0.231 C  
BRANCH  14  15
HETATM   15  C   UNL     1     -10.644   9.157  71.664  1.00  0.00    -0.427 C  
BRANCH  15  16
HETATM   16  C   UNL     1      -9.715   7.975  71.887  1.00  0.00    -0.250 A  
HETATM   17  C   UNL     1     -10.203   6.664  71.823  1.00  0.00    -0.206 A  
HETATM   18  C   UNL     1      -8.360   8.169  72.199  1.00  0.00    -0.209 A  
HETATM   19  C   UNL     1      -9.361   5.576  72.069  1.00  0.00    -0.164 A  
HETATM   20  C   UNL     1      -8.016   5.785  72.370  1.00  0.00    -0.103 A  
HETATM   21  C   UNL     1      -7.513   7.081  72.428  1.00  0.00    -0.085 A  
ENDBRANCH  15  16
ENDBRANCH  14  15
BRANCH  14  22
HETATM   22  C   UNL     1     -11.745  10.763  69.999  1.00  0.00    -0.336 C  
HETATM   23  O   UNL     1     -12.704  11.141  70.996  1.00  0.00    -0.368 OA 
HETATM   24  H   UNL     1     -13.004  12.031  70.855  1.00  0.00     0.000 HD 
BRANCH  22  25
HETATM   25  C   UNL     1     -12.237  11.144  68.588  1.00  0.00     0.058 C  
BRANCH  25  26
HETATM   26  N   UNL     1     -12.011  12.561  68.070  1.00  0.00    -0.309 N  
BRANCH  26  27
HETATM   27  C   UNL     1     -11.123  13.360  69.024  1.00  0.00    -0.249 C  
HETATM   28  C   UNL     1     -11.655  14.682  69.618  1.00  0.00    -0.349 C  
HETATM   29  C   UNL     1     -12.893  14.517  70.497  1.00  0.00    -0.361 C  
HETATM   30  C   UNL     1     -10.555  15.324  70.483  1.00  0.00    -0.190 C  
ENDBRANCH  26  27
BRANCH  26  31
HETATM   31  S   UNL     1     -11.331  12.481  66.444  1.00  0.00    -0.349 S  
HETATM   32  O   UNL     1     -10.351  11.424  66.402  1.00  0.00    -0.226 OA 
HETATM   33  O   UNL     1     -12.459  12.507  65.531  1.00  0.00    -0.646 OA 
BRANCH  31  34
HETATM   34  C   UNL     1     -10.449  14.028  66.248  1.00  0.00    -0.286 A  
HETATM   35  C   UNL     1      -8.467  15.370  66.586  1.00  0.00    -0.296 A  
HETATM   36  C   UNL     1      -9.127  14.135  66.679  1.00  0.00    -0.238 A  
HETATM   37  C   UNL     1      -9.125  16.509  66.109  1.00  0.00    -0.306 A  
HETATM   38  N   UNL     1      -8.429  17.705  65.924  1.00  0.00    -0.537 NA 
HETATM   39  C   UNL     1     -10.419  16.364  65.605  1.00  0.00    -0.364 A  
HETATM   40  H1  UNL     1      -8.908  18.535  65.576  1.00  0.00     0.000 HD 
HETATM   41  C   UNL     1     -11.091  15.136  65.684  1.00  0.00    -0.334 A  
HETATM   42  H2  UNL     1      -7.632  17.519  65.315  1.00  0.00     0.000 HD 
ENDBRANCH  31  34
ENDBRANCH  26  31
ENDBRANCH  25  26
ENDBRANCH  22  25
ENDBRANCH  14  22
ENDBRANCH  12  14
ENDBRANCH   9  10
ENDBRANCH   8   9
TORSDOF 11
ENDMDL
MODEL      207
REMARK 921   NORMALIZED FREE ENERGY PREDICTED BY IDOCK:   -4.93 KCAL/MOL
REMARK 922        TOTAL FREE ENERGY PREDICTED BY IDOCK:  -10.72 KCAL/MOL
REMARK 923 INTER-LIGAND FREE ENERGY PREDICTED BY IDOCK:   -9.08 KCAL/MOL
REMARK 924 INTRA-LIGAND FREE ENERGY PREDICTED BY IDOCK:   -1.65 KCAL/MOL
REMARK 927      BINDING AFFINITY PREDICTED BY RF-SCORE:    0.00 PKD
ROOT
HETATM    1  C   UNL     1      -8.148   4.574  68.751  1.00  0.00    -0.081 C  
HETATM    2  C   UNL     1      -7.109   5.319  69.570  1.00  0.00    -0.060 C  
HETATM    3  C   UNL     1      -5.923   4.377  69.637  1.00  0.00    -0.018 C  
HETATM    4  O   UNL     1      -6.214   3.235  68.832  1.00  0.00    -0.027 OA 
HETATM    5  C   UNL     1      -7.330   3.546  68.010  1.00  0.00    -0.054 C  
HETATM    6  O   UNL     1      -6.927   4.166  66.789  1.00  0.00    -0.057 OA 
HETATM    7  C   UNL     1      -7.953   5.093  66.422  1.00  0.00    -0.104 C  
HETATM    8  C   UNL     1      -8.838   5.348  67.642  1.00  0.00    -0.105 C  
ENDROOT
BRANCH   8   9
HETATM    9  O   UNL     1      -8.865   6.761  67.904  1.00  0.00    -0.120 OA 
BRANCH   9  10
HETATM   10  C   UNL     1      -9.988   7.241  68.491  1.00  0.00    -0.162 C  
HETATM   11  O   UNL     1     -10.989   6.586  68.728  1.00  0.00    -0.282 OA 
HETATM   12  N   UNL     1      -9.836   8.583  68.681  1.00  0.00    -0.165 N  
HETATM   13  H   UNL     1      -8.912   8.990  68.535  1.00  0.00     0.000 HD 
BRANCH  12  14
HETATM   14  C   UNL     1     -10.934   9.475  69.086  1.00  0.00    -0.125 C  
BRANCH  14  15
HETATM   15  C   UNL     1     -10.723  10.026  70.534  1.00  0.00    -0.352 C  
BRANCH  15  16
HETATM   16  C   UNL     1     -10.331   9.009  71.593  1.00  0.00    -0.420 A  
HETATM   17  C   UNL     1     -11.310   8.261  72.259  1.00  0.00    -0.446 A  
HETATM   18  C   UNL     1      -8.987   8.824  71.955  1.00  0.00    -0.227 A  
HETATM   19  C   UNL     1     -10.956   7.355  73.263  1.00  0.00    -0.367 A  
HETATM   20  C   UNL     1      -9.617   7.178  73.607  1.00  0.00    -0.287 A  
HETATM   21  C   UNL     1      -8.631   7.906  72.947  1.00  0.00    -0.236 A  
ENDBRANCH  15  16
ENDBRANCH  14  15
BRANCH  14  22
HETATM   22  C   UNL     1     -11.192  10.649  68.094  1.00  0.00    -0.302 C  
HETATM   23  O   UNL     1     -10.902  10.250  66.747  1.00  0.00    -0.187 OA 
HETATM   24  H   UNL     1     -11.060  10.965  66.142  1.00  0.00     0.000 HD 
BRANCH  22  25
HETATM   25  C   UNL     1     -10.557  12.018  68.412  1.00  0.00    -0.217 C  
BRANCH  25  26
HETATM   26  N   UNL     1     -11.369  13.291  68.202  1.00  0.00    -0.270 N  
BRANCH  26  27
HETATM   27  C   UNL     1     -10.984  14.363  69.222  1.00  0.00    -0.255 C  
HETATM   28  C   UNL     1     -12.052  14.879  70.210  1.00  0.00    -0.379 C  
HETATM   29  C   UNL     1     -12.597  13.811  71.155  1.00  0.00    -0.452 C  
HETATM   30  C   UNL     1     -11.438  15.995  71.078  1.00  0.00    -0.460 C  
ENDBRANCH  26  27
BRANCH  26  31
HETATM   31  S   UNL     1     -11.152  13.849  66.543  1.00  0.00    -0.314 S  
HETATM   32  O   UNL     1     -10.250  12.952  65.865  1.00  0.00    -0.280 OA 
HETATM   33  O   UNL     1     -12.482  14.120  66.028  1.00  0.00    -0.467 OA 
BRANCH  31  34
HETATM   34  C   UNL     1     -10.312  15.423  66.704  1.00  0.00    -0.280 A  
HETATM   35  C   UNL     1      -8.270  16.718  66.727  1.00  0.00    -0.271 A  
HETATM   36  C   UNL     1      -8.930  15.494  66.531  1.00  0.00    -0.348 A  
HETATM   37  C   UNL     1      -8.967  17.860  67.137  1.00  0.00    -0.251 A  
HETATM   38  N   UNL     1      -8.320  19.092  67.228  1.00  0.00    -0.274 NA 
HETATM   39  C   UNL     1     -10.360  17.789  67.223  1.00  0.00    -0.364 A  
HETATM   40  H1  UNL     1      -8.828  19.924  67.527  1.00  0.00     0.000 HD 
HETATM   41  C   UNL     1     -11.035  16.577  67.024  1.00  0.00    -0.012 A  
HETATM   42  H2  UNL     1      -7.884  19.291  66.327  1.00  0.00     0.000 HD 
ENDBRANCH  31  34
ENDBRANCH  26  31
ENDBRANCH  25  26
ENDBRANCH  22  25
ENDBRANCH  14  22
ENDBRANCH  12  14
ENDBRANCH   9  10
ENDBRANCH   8   9
TORSDOF 11
ENDMDL
MODEL      208
REMARK 921   NORMALIZED FREE ENERGY PREDICTED BY IDOCK:   -4.90 KCAL/MOL
REMARK 922        TOTAL FREE ENERGY PREDICTED BY IDOCK:  -10.67 KCAL/MOL
REMARK 923 INTER-LIGAND FREE ENERGY PREDICTED BY IDOCK:   -7.43 KCAL/MOL
REMARK 924 INTRA-LIGAND FREE ENERGY PREDICTED BY IDOCK:   -3.24 KCAL/MOL
REMARK 927      BINDING AFFINITY PREDICTED BY RF-SCORE:    0.00 PKD
ROOT
HETATM    1  C   UNL     1      -8.013   6.339  65.357  1.00  0.00    -0.118 C  
HETATM    2  C   UNL     1      -6.627   5.880  65.771  1.00  0.00    -0.047 C  
HETATM    3  C   UNL     1      -6.274   4.782  64.786  1.00  0.00    -0.033 C  
HETATM    4  O   UNL     1      -7.322   4.694  63.822  1.00  0.00    -0.053 OA 
HETATM    5  C   UNL     1      -8.122   5.863  63.930  1.00  0.00    -0.098 C  
HETATM    6  O   UNL     1      -7.616   6.923  63.119  1.00  0.00    -0.083 OA 
HETATM    7  C   UNL     1      -7.899   8.151  63.797  1.00  0.00    -0.147 C  
HETATM    8  C   UNL     1      -8.243   7.835  65.252  1.00  0.00    -0.140 C  
ENDROOT
BRANCH   8   9
HETATM    9  O   UNL     1      -7.359   8.580  66.106  1.00  0.00    -0.079 OA 
BRANCH   9  10
HETATM   10  C   UNL     1      -7.774   9.820  66.464  1.00  0.00    -0.105 C  
HETATM   11  O   UNL     1      -7.062  10.809  66.517  1.00  0.00    -0.123 OA 
HETATM   12  N   UNL     1      -9.084   9.745  66.839  1.00  0.00    -0.141 N  
HETATM   13  H   UNL     1      -9.592   8.881  66.651  1.00  0.00     0.000 HD 
BRANCH  12  14
HETATM   14  C   UNL     1      -9.803  10.846  67.499  1.00  0.00    -0.168 C  
BRANCH  14  15
HETATM   15  C   UNL     1     -11.230  11.047  66.895  1.00  0.00    -0.210 C  
BRANCH  15  16
HETATM   16  C   UNL     1     -11.451  12.318  66.092  1.00  0.00    -0.429 A  
HETATM   17  C   UNL     1     -11.172  13.571  66.653  1.00  0.00    -0.328 A  
HETATM   18  C   UNL     1     -11.974  12.270  64.790  1.00  0.00    -0.429 A  
HETATM   19  C   UNL     1     -11.414  14.745  65.933  1.00  0.00    -0.319 A  
HETATM   20  C   UNL     1     -11.927  14.680  64.639  1.00  0.00    -0.472 A  
HETATM   21  C   UNL     1     -12.200  13.442  64.064  1.00  0.00    -0.466 A  
ENDBRANCH  15  16
ENDBRANCH  14  15
BRANCH  14  22
HETATM   22  C   UNL     1      -9.887  10.704  69.050  1.00  0.00    -0.205 C  
HETATM   23  O   UNL     1      -8.576  10.617  69.625  1.00  0.00    -0.381 OA 
HETATM   24  H   UNL     1      -8.628  10.530  70.570  1.00  0.00     0.000 HD 
BRANCH  22  25
HETATM   25  C   UNL     1     -10.815   9.615  69.625  1.00  0.00    -0.244 C  
BRANCH  25  26
HETATM   26  N   UNL     1     -10.218   8.303  70.123  1.00  0.00    -0.196 N  
BRANCH  26  27
HETATM   27  C   UNL     1     -10.686   7.991  71.545  1.00  0.00    -0.227 C  
HETATM   28  C   UNL     1      -9.772   7.161  72.473  1.00  0.00    -0.180 C  
HETATM   29  C   UNL     1      -8.432   7.824  72.784  1.00  0.00    -0.196 C  
HETATM   30  C   UNL     1     -10.495   6.927  73.813  1.00  0.00    -0.390 C  
ENDBRANCH  26  27
BRANCH  26  31
HETATM   31  S   UNL     1     -10.630   7.013  68.993  1.00  0.00    -0.208 S  
HETATM   32  O   UNL     1     -11.695   6.223  69.558  1.00  0.00    -0.360 OA 
HETATM   33  O   UNL     1     -10.759   7.641  67.690  1.00  0.00    -0.232 OA 
BRANCH  31  34
HETATM   34  C   UNL     1      -9.170   5.975  68.943  1.00  0.00    -0.124 A  
HETATM   35  C   UNL     1      -8.140   3.823  68.554  1.00  0.00    -0.079 A  
HETATM   36  C   UNL     1      -9.274   4.649  68.524  1.00  0.00    -0.173 A  
HETATM   37  C   UNL     1      -6.914   4.292  69.039  1.00  0.00    -0.050 A  
HETATM   38  N   UNL     1      -5.771   3.496  68.967  1.00  0.00    -0.021 NA 
HETATM   39  C   UNL     1      -6.809   5.645  69.374  1.00  0.00    -0.061 A  
HETATM   40  H1  UNL     1      -4.877   3.838  69.320  1.00  0.00     0.000 HD 
HETATM   41  C   UNL     1      -7.931   6.485  69.343  1.00  0.00    -0.114 A  
HETATM   42  H2  UNL     1      -5.641   3.210  67.996  1.00  0.00     0.000 HD 
ENDBRANCH  31  34
ENDBRANCH  26  31
ENDBRANCH  25  26
ENDBRANCH  22  25
ENDBRANCH  14  22
ENDBRANCH  12  14
ENDBRANCH   9  10
ENDBRANCH   8   9
TORSDOF 11
ENDMDL
MODEL      209
REMARK 921   NORMALIZED FREE ENERGY PREDICTED BY IDOCK:   -4.88 KCAL/MOL
REMARK 922        TOTAL FREE ENERGY PREDICTED BY IDOCK:  -10.64 KCAL/MOL
REMARK 923 INTER-LIGAND FREE ENERGY PREDICTED BY IDOCK:   -8.26 KCAL/MOL
REMARK 924 INTRA-LIGAND FREE ENERGY PREDICTED BY IDOCK:   -2.38 KCAL/MOL
REMARK 927      BINDING AFFINITY PREDICTED BY RF-SCORE:    0.00 PKD
ROOT
HETATM    1  C   UNL     1      -5.986   7.792  65.067  1.00  0.00    -0.038 C  
HETATM    2  C   UNL     1      -5.827   9.140  65.746  1.00  0.00    -0.050 C  
HETATM    3  C   UNL     1      -5.825  10.145  64.610  1.00  0.00    -0.124 C  
HETATM    4  O   UNL     1      -6.071   9.443  63.393  1.00  0.00    -0.088 OA 
HETATM    5  C   UNL     1      -6.560   8.150  63.718  1.00  0.00    -0.071 C  
HETATM    6  O   UNL     1      -7.978   8.148  63.877  1.00  0.00    -0.141 OA 
HETATM    7  C   UNL     1      -8.294   7.179  64.881  1.00  0.00    -0.013 C  
HETATM    8  C   UNL     1      -7.016   6.841  65.650  1.00  0.00    -0.063 C  
ENDROOT
BRANCH   8   9
HETATM    9  O   UNL     1      -7.244   7.082  67.048  1.00  0.00    -0.076 OA 
BRANCH   9  10
HETATM   10  C   UNL     1      -7.828   6.075  67.744  1.00  0.00    -0.105 C  
HETATM   11  O   UNL     1      -7.903   4.917  67.369  1.00  0.00    -0.093 OA 
HETATM   12  N   UNL     1      -8.387   6.598  68.873  1.00  0.00    -0.119 N  
HETATM   13  H   UNL     1      -8.164   7.562  69.121  1.00  0.00     0.000 HD 
BRANCH  12  14
HETATM   14  C   UNL     1      -9.295   5.844  69.752  1.00  0.00    -0.148 C  
BRANCH  14  15
HETATM   15  C   UNL     1      -8.571   5.362  71.051  1.00  0.00    -0.127 C  
BRANCH  15  16
HETATM   16  C   UNL     1      -9.400   4.534  72.019  1.00  0.00    -0.184 A  
HETATM   17  C   UNL     1      -9.979   5.128  73.147  1.00  0.00    -0.183 A  
HETATM   18  C   UNL     1      -9.573   3.155  71.826  1.00  0.00    -0.227 A  
HETATM   19  C   UNL     1     -10.707   4.361  74.062  1.00  0.00    -0.334 A  
HETATM   20  C   UNL     1     -10.876   2.994  73.853  1.00  0.00    -0.293 A  
HETATM   21  C   UNL     1     -10.315   2.391  72.731  1.00  0.00    -0.240 A  
ENDBRANCH  15  16
ENDBRANCH  14  15
BRANCH  14  22
HETATM   22  C   UNL     1     -10.602   6.612  70.116  1.00  0.00    -0.221 C  
HETATM   23  O   UNL     1     -11.570   6.498  69.063  1.00  0.00    -0.619 OA 
HETATM   24  H   UNL     1     -12.366   6.966  69.285  1.00  0.00     0.000 HD 
BRANCH  22  25
HETATM   25  C   UNL     1     -10.473   8.074  70.590  1.00  0.00    -0.210 C  
BRANCH  25  26
HETATM   26  N   UNL     1     -11.077   9.194  69.749  1.00  0.00    -0.179 N  
BRANCH  26  27
HETATM   27  C   UNL     1     -11.447  10.395  70.618  1.00  0.00    -0.349 C  
HETATM   28  C   UNL     1     -12.901  10.543  71.117  1.00  0.00    -0.513 C  
HETATM   29  C   UNL     1     -13.364   9.411  72.032  1.00  0.00    -0.525 C  
HETATM   30  C   UNL     1     -13.031  11.859  71.907  1.00  0.00    -0.434 C  
ENDBRANCH  26  27
BRANCH  26  31
HETATM   31  S   UNL     1      -9.945   9.629  68.468  1.00  0.00    -0.172 S  
HETATM   32  O   UNL     1      -8.609   9.636  69.010  1.00  0.00    -0.122 OA 
HETATM   33  O   UNL     1     -10.294   8.809  67.322  1.00  0.00    -0.248 OA 
BRANCH  31  34
HETATM   34  C   UNL     1     -10.359  11.323  68.058  1.00  0.00    -0.183 A  
HETATM   35  C   UNL     1      -9.864  13.687  68.161  1.00  0.00    -0.236 A  
HETATM   36  C   UNL     1      -9.498  12.357  68.424  1.00  0.00    -0.169 A  
HETATM   37  C   UNL     1     -11.097  13.998  67.577  1.00  0.00    -0.298 A  
HETATM   38  N   UNL     1     -11.404  15.313  67.226  1.00  0.00    -0.310 NA 
HETATM   39  C   UNL     1     -11.907  12.946  67.141  1.00  0.00    -0.424 A  
HETATM   40  H1  UNL     1     -12.303  15.540  66.800  1.00  0.00     0.000 HD 
HETATM   41  C   UNL     1     -11.554  11.613  67.390  1.00  0.00    -0.330 A  
HETATM   42  H2  UNL     1     -10.665  15.661  66.614  1.00  0.00     0.000 HD 
ENDBRANCH  31  34
ENDBRANCH  26  31
ENDBRANCH  25  26
ENDBRANCH  22  25
ENDBRANCH  14  22
ENDBRANCH  12  14
ENDBRANCH   9  10
ENDBRANCH   8   9
TORSDOF 11
ENDMDL
MODEL      210
REMARK 921   NORMALIZED FREE ENERGY PREDICTED BY IDOCK:   -4.87 KCAL/MOL
REMARK 922        TOTAL FREE ENERGY PREDICTED BY IDOCK:  -10.63 KCAL/MOL
REMARK 923 INTER-LIGAND FREE ENERGY PREDICTED BY IDOCK:   -9.55 KCAL/MOL
REMARK 924 INTRA-LIGAND FREE ENERGY PREDICTED BY IDOCK:   -1.07 KCAL/MOL
REMARK 927      BINDING AFFINITY PREDICTED BY RF-SCORE:    0.00 PKD
ROOT
HETATM    1  C   UNL     1      -5.391  13.470  68.980  1.00  0.00    -0.070 C  
HETATM    2  C   UNL     1      -5.897  14.154  70.237  1.00  0.00    -0.147 C  
HETATM    3  C   UNL     1      -5.643  15.631  70.002  1.00  0.00    -0.141 C  
HETATM    4  O   UNL     1      -5.136  15.790  68.678  1.00  0.00    -0.085 OA 
HETATM    5  C   UNL     1      -5.373  14.586  67.964  1.00  0.00    -0.108 C  
HETATM    6  O   UNL     1      -6.662  14.584  67.352  1.00  0.00    -0.258 OA 
HETATM    7  C   UNL     1      -7.136  13.233  67.358  1.00  0.00    -0.099 C  
HETATM    8  C   UNL     1      -6.296  12.428  68.349  1.00  0.00    -0.056 C  
ENDROOT
BRANCH   8   9
HETATM    9  O   UNL     1      -7.175  11.821  69.310  1.00  0.00    -0.084 OA 
BRANCH   9  10
HETATM   10  C   UNL     1      -8.144  11.014  68.812  1.00  0.00    -0.145 C  
HETATM   11  O   UNL     1      -7.947   9.975  68.205  1.00  0.00    -0.095 OA 
HETATM   12  N   UNL     1      -9.353  11.611  69.023  1.00  0.00    -0.408 N  
HETATM   13  H   UNL     1      -9.389  12.428  69.632  1.00  0.00     0.000 HD 
BRANCH  12  14
HETATM   14  C   UNL     1     -10.608  11.137  68.420  1.00  0.00    -0.193 C  
BRANCH  14  15
HETATM   15  C   UNL     1     -10.377  10.568  66.982  1.00  0.00    -0.289 C  
BRANCH  15  16
HETATM   16  C   UNL     1     -10.887  11.418  65.830  1.00  0.00    -0.290 A  
HETATM   17  C   UNL     1     -11.879  12.384  66.043  1.00  0.00    -0.459 A  
HETATM   18  C   UNL     1     -10.406  11.230  64.524  1.00  0.00    -0.381 A  
HETATM   19  C   UNL     1     -12.380  13.138  64.978  1.00  0.00    -0.511 A  
HETATM   20  C   UNL     1     -11.888  12.945  63.688  1.00  0.00    -0.599 A  
HETATM   21  C   UNL     1     -10.895  11.996  63.462  1.00  0.00    -0.509 A  
ENDBRANCH  15  16
ENDBRANCH  14  15
BRANCH  14  22
HETATM   22  C   UNL     1     -11.375  10.098  69.294  1.00  0.00    -0.156 C  
HETATM   23  O   UNL     1     -12.769  10.430  69.373  1.00  0.00    -0.658 OA 
HETATM   24  H   UNL     1     -13.236   9.797  69.905  1.00  0.00     0.000 HD 
BRANCH  22  25
HETATM   25  C   UNL     1     -10.807   9.768  70.689  1.00  0.00    -0.329 C  
BRANCH  25  26
HETATM   26  N   UNL     1     -10.188   8.397  70.943  1.00  0.00    -0.190 N  
BRANCH  26  27
HETATM   27  C   UNL     1      -9.658   8.291  72.373  1.00  0.00    -0.294 C  
HETATM   28  C   UNL     1      -8.225   7.766  72.608  1.00  0.00    -0.171 C  
HETATM   29  C   UNL     1      -7.133   8.638  71.994  1.00  0.00    -0.077 C  
HETATM   30  C   UNL     1      -7.959   7.689  74.123  1.00  0.00    -0.224 C  
ENDBRANCH  26  27
BRANCH  26  31
HETATM   31  S   UNL     1     -11.381   7.148  70.586  1.00  0.00    -0.301 S  
HETATM   32  O   UNL     1     -12.654   7.552  71.129  1.00  0.00    -0.317 OA 
HETATM   33  O   UNL     1     -11.223   6.827  69.179  1.00  0.00    -0.236 OA 
BRANCH  31  34
HETATM   34  C   UNL     1     -10.834   5.722  71.523  1.00  0.00    -0.253 A  
HETATM   35  C   UNL     1      -9.457   3.745  71.722  1.00  0.00    -0.214 A  
HETATM   36  C   UNL     1      -9.830   4.899  71.015  1.00  0.00    -0.266 A  
HETATM   37  C   UNL     1     -10.105   3.380  72.907  1.00  0.00    -0.155 A  
HETATM   38  N   UNL     1      -9.656   2.291  73.655  1.00  0.00    -0.082 NA 
HETATM   39  C   UNL     1     -11.048   4.261  73.444  1.00  0.00    -0.371 A  
HETATM   40  H1  UNL     1     -10.129   2.025  74.519  1.00  0.00     0.000 HD 
HETATM   41  C   UNL     1     -11.427   5.420  72.754  1.00  0.00    -0.333 A  
HETATM   42  H2  UNL     1      -8.667   2.431  73.862  1.00  0.00     0.000 HD 
ENDBRANCH  31  34
ENDBRANCH  26  31
ENDBRANCH  25  26
ENDBRANCH  22  25
ENDBRANCH  14  22
ENDBRANCH  12  14
ENDBRANCH   9  10
ENDBRANCH   8   9
TORSDOF 11
ENDMDL
MODEL      211
REMARK 921   NORMALIZED FREE ENERGY PREDICTED BY IDOCK:   -4.87 KCAL/MOL
REMARK 922        TOTAL FREE ENERGY PREDICTED BY IDOCK:  -10.63 KCAL/MOL
REMARK 923 INTER-LIGAND FREE ENERGY PREDICTED BY IDOCK:   -9.20 KCAL/MOL
REMARK 924 INTRA-LIGAND FREE ENERGY PREDICTED BY IDOCK:   -1.43 KCAL/MOL
REMARK 927      BINDING AFFINITY PREDICTED BY RF-SCORE:    0.00 PKD
ROOT
HETATM    1  C   UNL     1     -10.230  12.823  65.245  1.00  0.00    -0.296 C  
HETATM    2  C   UNL     1     -11.293  12.803  66.328  1.00  0.00    -0.365 C  
HETATM    3  C   UNL     1     -12.524  13.396  65.670  1.00  0.00    -0.464 C  
HETATM    4  O   UNL     1     -12.225  13.633  64.295  1.00  0.00    -0.485 OA 
HETATM    5  C   UNL     1     -11.034  12.928  63.973  1.00  0.00    -0.411 C  
HETATM    6  O   UNL     1     -11.311  11.588  63.567  1.00  0.00    -0.408 OA 
HETATM    7  C   UNL     1     -10.216  10.776  64.003  1.00  0.00    -0.322 C  
HETATM    8  C   UNL     1      -9.419  11.554  65.049  1.00  0.00    -0.152 C  
ENDROOT
BRANCH   8   9
HETATM    9  O   UNL     1      -9.346  10.768  66.250  1.00  0.00    -0.171 OA 
BRANCH   9  10
HETATM   10  C   UNL     1      -9.741   9.475  66.146  1.00  0.00    -0.258 C  
HETATM   11  O   UNL     1     -10.866   9.066  66.374  1.00  0.00     0.088 OA 
HETATM   12  N   UNL     1      -8.651   8.715  65.837  1.00  0.00    -0.148 N  
HETATM   13  H   UNL     1      -7.789   9.191  65.571  1.00  0.00     0.000 HD 
BRANCH  12  14
HETATM   14  C   UNL     1      -8.654   7.244  65.865  1.00  0.00    -0.149 C  
BRANCH  14  15
HETATM   15  C   UNL     1      -7.580   6.647  64.899  1.00  0.00    -0.101 C  
BRANCH  15  16
HETATM   16  C   UNL     1      -7.786   5.203  64.470  1.00  0.00    -0.096 A  
HETATM   17  C   UNL     1      -8.878   4.849  63.667  1.00  0.00    -0.070 A  
HETATM   18  C   UNL     1      -6.913   4.190  64.897  1.00  0.00    -0.054 A  
HETATM   19  C   UNL     1      -9.094   3.516  63.306  1.00  0.00    -0.096 A  
HETATM   20  C   UNL     1      -8.215   2.522  63.732  1.00  0.00    -0.082 A  
HETATM   21  C   UNL     1      -7.120   2.860  64.522  1.00  0.00    -0.050 A  
ENDBRANCH  15  16
ENDBRANCH  14  15
BRANCH  14  22
HETATM   22  C   UNL     1      -8.490   6.641  67.294  1.00  0.00    -0.120 C  
HETATM   23  O   UNL     1      -9.673   5.929  67.685  1.00  0.00    -0.110 OA 
HETATM   24  H   UNL     1      -9.573   5.561  68.555  1.00  0.00     0.000 HD 
BRANCH  22  25
HETATM   25  C   UNL     1      -8.011   7.576  68.422  1.00  0.00    -0.123 C  
BRANCH  25  26
HETATM   26  N   UNL     1      -8.607   7.436  69.820  1.00  0.00    -0.139 N  
BRANCH  26  27
HETATM   27  C   UNL     1      -7.726   6.556  70.706  1.00  0.00    -0.101 C  
HETATM   28  C   UNL     1      -8.394   5.557  71.675  1.00  0.00    -0.123 C  
HETATM   29  C   UNL     1      -9.223   4.476  70.984  1.00  0.00    -0.200 C  
HETATM   30  C   UNL     1      -7.303   4.847  72.499  1.00  0.00    -0.088 C  
ENDBRANCH  26  27
BRANCH  26  31
HETATM   31  S   UNL     1      -8.846   9.041  70.510  1.00  0.00    -0.227 S  
HETATM   32  O   UNL     1      -7.919   9.221  71.600  1.00  0.00    -0.321 OA 
HETATM   33  O   UNL     1      -8.890   9.963  69.390  1.00  0.00    -0.160 OA 
BRANCH  31  34
HETATM   34  C   UNL     1     -10.491   8.985  71.219  1.00  0.00    -0.311 A  
HETATM   35  C   UNL     1     -12.618  10.043  71.670  1.00  0.00    -0.524 A  
HETATM   36  C   UNL     1     -11.357  10.065  71.052  1.00  0.00    -0.434 A  
HETATM   37  C   UNL     1     -13.005   8.976  72.488  1.00  0.00    -0.361 A  
HETATM   38  N   UNL     1     -14.298   8.916  73.011  1.00  0.00    -1.154 NA 
HETATM   39  C   UNL     1     -12.160   7.867  72.574  1.00  0.00    -0.298 A  
HETATM   40  H1  UNL     1     -14.580   8.138  73.607  1.00  0.00     0.000 HD 
HETATM   41  C   UNL     1     -10.901   7.870  71.958  1.00  0.00    -0.312 A  
HETATM   42  H2  UNL     1     -14.959   8.981  72.236  1.00  0.00     0.000 HD 
ENDBRANCH  31  34
ENDBRANCH  26  31
ENDBRANCH  25  26
ENDBRANCH  22  25
ENDBRANCH  14  22
ENDBRANCH  12  14
ENDBRANCH   9  10
ENDBRANCH   8   9
TORSDOF 11
ENDMDL
MODEL      212
REMARK 921   NORMALIZED FREE ENERGY PREDICTED BY IDOCK:   -4.86 KCAL/MOL
REMARK 922        TOTAL FREE ENERGY PREDICTED BY IDOCK:  -10.61 KCAL/MOL
REMARK 923 INTER-LIGAND FREE ENERGY PREDICTED BY IDOCK:  -10.12 KCAL/MOL
REMARK 924 INTRA-LIGAND FREE ENERGY PREDICTED BY IDOCK:   -0.48 KCAL/MOL
REMARK 927      BINDING AFFINITY PREDICTED BY RF-SCORE:    0.00 PKD
ROOT
HETATM    1  C   UNL     1      -7.639  18.212  66.456  1.00  0.00    -0.273 C  
HETATM    2  C   UNL     1      -6.311  18.473  65.768  1.00  0.00    -0.291 C  
HETATM    3  C   UNL     1      -6.535  19.740  64.965  1.00  0.00    -0.276 C  
HETATM    4  O   UNL     1      -7.845  20.226  65.256  1.00  0.00    -0.101 OA 
HETATM    5  C   UNL     1      -8.318  19.559  66.417  1.00  0.00    -0.347 C  
HETATM    6  O   UNL     1      -7.922  20.236  67.609  1.00  0.00    -0.301 OA 
HETATM    7  C   UNL     1      -7.714  19.241  68.617  1.00  0.00    -0.359 C  
HETATM    8  C   UNL     1      -7.596  17.877  67.936  1.00  0.00    -0.221 C  
ENDROOT
BRANCH   8   9
HETATM    9  O   UNL     1      -6.347  17.279  68.319  1.00  0.00    -0.155 OA 
BRANCH   9  10
HETATM   10  C   UNL     1      -6.156  15.992  67.937  1.00  0.00    -0.133 C  
HETATM   11  O   UNL     1      -5.234  15.598  67.243  1.00  0.00    -0.334 OA 
HETATM   12  N   UNL     1      -7.211  15.249  68.381  1.00  0.00    -0.110 N  
HETATM   13  H   UNL     1      -7.863  15.678  69.037  1.00  0.00     0.000 HD 
BRANCH  12  14
HETATM   14  C   UNL     1      -7.457  13.860  67.962  1.00  0.00    -0.135 C  
BRANCH  14  15
HETATM   15  C   UNL     1      -7.151  12.849  69.115  1.00  0.00     0.033 C  
BRANCH  15  16
HETATM   16  C   UNL     1      -6.861  11.417  68.697  1.00  0.00    -0.078 A  
HETATM   17  C   UNL     1      -7.040  10.361  69.600  1.00  0.00    -0.135 A  
HETATM   18  C   UNL     1      -6.371  11.123  67.414  1.00  0.00    -0.067 A  
HETATM   19  C   UNL     1      -6.733   9.048  69.232  1.00  0.00    -0.049 A  
HETATM   20  C   UNL     1      -6.255   8.771  67.953  1.00  0.00    -0.052 A  
HETATM   21  C   UNL     1      -6.080   9.808  67.041  1.00  0.00    -0.063 A  
ENDBRANCH  15  16
ENDBRANCH  14  15
BRANCH  14  22
HETATM   22  C   UNL     1      -8.888  13.616  67.395  1.00  0.00    -0.221 C  
HETATM   23  O   UNL     1      -8.946  13.944  66.000  1.00  0.00    -0.457 OA 
HETATM   24  H   UNL     1      -9.818  13.795  65.654  1.00  0.00     0.000 HD 
BRANCH  22  25
HETATM   25  C   UNL     1     -10.081  14.231  68.155  1.00  0.00    -0.232 C  
BRANCH  25  26
HETATM   26  N   UNL     1     -10.950  13.341  69.038  1.00  0.00    -0.235 N  
BRANCH  26  27
HETATM   27  C   UNL     1     -12.222  14.071  69.470  1.00  0.00    -0.308 C  
HETATM   28  C   UNL     1     -12.420  14.420  70.961  1.00  0.00    -0.425 C  
HETATM   29  C   UNL     1     -11.372  15.378  71.522  1.00  0.00    -0.461 C  
HETATM   30  C   UNL     1     -13.799  15.082  71.144  1.00  0.00    -0.468 C  
ENDBRANCH  26  27
BRANCH  26  31
HETATM   31  S   UNL     1     -11.306  11.844  68.178  1.00  0.00    -0.315 S  
HETATM   32  O   UNL     1     -10.104  11.050  68.109  1.00  0.00    -0.170 OA 
HETATM   33  O   UNL     1     -12.528  11.321  68.761  1.00  0.00    -0.444 OA 
BRANCH  31  34
HETATM   34  C   UNL     1     -11.692  12.365  66.508  1.00  0.00    -0.379 A  
HETATM   35  C   UNL     1     -11.416  12.122  64.118  1.00  0.00    -0.460 A  
HETATM   36  C   UNL     1     -11.166  11.666  65.422  1.00  0.00    -0.262 A  
HETATM   37  C   UNL     1     -12.148  13.292  63.888  1.00  0.00    -0.468 A  
HETATM   38  N   UNL     1     -12.479  13.678  62.589  1.00  0.00    -0.616 NA 
HETATM   39  C   UNL     1     -12.738  13.930  64.982  1.00  0.00    -0.372 A  
HETATM   40  H1  UNL     1     -13.013  14.531  62.421  1.00  0.00     0.000 HD 
HETATM   41  C   UNL     1     -12.503  13.484  66.290  1.00  0.00    -0.384 A  
HETATM   42  H2  UNL     1     -12.968  12.903  62.140  1.00  0.00     0.000 HD 
ENDBRANCH  31  34
ENDBRANCH  26  31
ENDBRANCH  25  26
ENDBRANCH  22  25
ENDBRANCH  14  22
ENDBRANCH  12  14
ENDBRANCH   9  10
ENDBRANCH   8   9
TORSDOF 11
ENDMDL
MODEL      213
REMARK 921   NORMALIZED FREE ENERGY PREDICTED BY IDOCK:   -4.85 KCAL/MOL
REMARK 922        TOTAL FREE ENERGY PREDICTED BY IDOCK:  -10.59 KCAL/MOL
REMARK 923 INTER-LIGAND FREE ENERGY PREDICTED BY IDOCK:   -8.59 KCAL/MOL
REMARK 924 INTRA-LIGAND FREE ENERGY PREDICTED BY IDOCK:   -2.00 KCAL/MOL
REMARK 927      BINDING AFFINITY PREDICTED BY RF-SCORE:    0.00 PKD
ROOT
HETATM    1  C   UNL     1      -6.754   8.962  64.940  1.00  0.00    -0.069 C  
HETATM    2  C   UNL     1      -7.905   8.826  63.961  1.00  0.00    -0.140 C  
HETATM    3  C   UNL     1      -7.819   7.397  63.459  1.00  0.00    -0.111 C  
HETATM    4  O   UNL     1      -6.774   6.738  64.172  1.00  0.00    -0.043 OA 
HETATM    5  C   UNL     1      -6.436   7.531  65.301  1.00  0.00    -0.041 C  
HETATM    6  O   UNL     1      -7.254   7.217  66.427  1.00  0.00    -0.075 OA 
HETATM    7  C   UNL     1      -7.441   8.426  67.170  1.00  0.00    -0.089 C  
HETATM    8  C   UNL     1      -7.058   9.608  66.280  1.00  0.00    -0.093 C  
ENDROOT
BRANCH   8   9
HETATM    9  O   UNL     1      -8.175  10.508  66.205  1.00  0.00    -0.135 OA 
BRANCH   9  10
HETATM   10  C   UNL     1      -8.482  11.179  67.343  1.00  0.00    -0.134 C  
HETATM   11  O   UNL     1      -7.694  11.832  68.005  1.00  0.00    -0.108 OA 
HETATM   12  N   UNL     1      -9.784  10.919  67.659  1.00  0.00    -0.169 N  
HETATM   13  H   UNL     1     -10.363  10.441  66.968  1.00  0.00     0.000 HD 
BRANCH  12  14
HETATM   14  C   UNL     1     -10.397  11.292  68.943  1.00  0.00    -0.195 C  
BRANCH  14  15
HETATM   15  C   UNL     1     -11.179  12.642  68.837  1.00  0.00    -0.329 C  
BRANCH  15  16
HETATM   16  C   UNL     1     -11.365  13.206  67.437  1.00  0.00    -0.344 A  
HETATM   17  C   UNL     1     -10.681  14.362  67.039  1.00  0.00    -0.285 A  
HETATM   18  C   UNL     1     -12.252  12.607  66.528  1.00  0.00    -0.130 A  
HETATM   19  C   UNL     1     -10.882  14.907  65.768  1.00  0.00    -0.343 A  
HETATM   20  C   UNL     1     -11.760  14.297  64.874  1.00  0.00    -0.399 A  
HETATM   21  C   UNL     1     -12.440  13.142  65.251  1.00  0.00    -0.550 A  
ENDBRANCH  15  16
ENDBRANCH  14  15
BRANCH  14  22
HETATM   22  C   UNL     1     -11.311  10.185  69.551  1.00  0.00    -0.206 C  
HETATM   23  O   UNL     1     -12.696  10.489  69.329  1.00  0.00    -0.703 OA 
HETATM   24  H   UNL     1     -13.252   9.815  69.700  1.00  0.00     0.000 HD 
BRANCH  22  25
HETATM   25  C   UNL     1     -11.066   9.770  71.015  1.00  0.00    -0.361 C  
BRANCH  25  26
HETATM   26  N   UNL     1     -10.336   8.464  71.315  1.00  0.00    -0.204 N  
BRANCH  26  27
HETATM   27  C   UNL     1      -9.665   8.512  72.687  1.00  0.00    -0.215 C  
HETATM   28  C   UNL     1      -8.255   7.905  72.857  1.00  0.00    -0.195 C  
HETATM   29  C   UNL     1      -7.177   8.588  72.020  1.00  0.00    -0.108 C  
HETATM   30  C   UNL     1      -7.834   8.016  74.335  1.00  0.00    -0.287 C  
ENDBRANCH  26  27
BRANCH  26  31
HETATM   31  S   UNL     1     -11.473   7.122  71.182  1.00  0.00    -0.305 S  
HETATM   32  O   UNL     1     -11.350   6.291  72.353  1.00  0.00    -0.267 OA 
HETATM   33  O   UNL     1     -12.745   7.705  70.794  1.00  0.00    -0.088 OA 
BRANCH  31  34
HETATM   34  C   UNL     1     -10.879   6.165  69.789  1.00  0.00    -0.353 A  
HETATM   35  C   UNL     1      -9.539   4.356  68.906  1.00  0.00    -0.233 A  
HETATM   36  C   UNL     1     -10.058   5.058  70.005  1.00  0.00    -0.342 A  
HETATM   37  C   UNL     1      -9.795   4.771  67.595  1.00  0.00    -0.152 A  
HETATM   38  N   UNL     1      -9.362   4.006  66.511  1.00  0.00    -0.168 NA 
HETATM   39  C   UNL     1     -10.686   5.829  67.397  1.00  0.00    -0.332 A  
HETATM   40  H1  UNL     1      -9.548   4.309  65.555  1.00  0.00     0.000 HD 
HETATM   41  C   UNL     1     -11.218   6.537  68.484  1.00  0.00    -0.287 A  
HETATM   42  H2  UNL     1      -9.726   3.060  66.622  1.00  0.00     0.000 HD 
ENDBRANCH  31  34
ENDBRANCH  26  31
ENDBRANCH  25  26
ENDBRANCH  22  25
ENDBRANCH  14  22
ENDBRANCH  12  14
ENDBRANCH   9  10
ENDBRANCH   8   9
TORSDOF 11
ENDMDL
MODEL      214
REMARK 921   NORMALIZED FREE ENERGY PREDICTED BY IDOCK:   -4.85 KCAL/MOL
REMARK 922        TOTAL FREE ENERGY PREDICTED BY IDOCK:  -10.59 KCAL/MOL
REMARK 923 INTER-LIGAND FREE ENERGY PREDICTED BY IDOCK:   -8.57 KCAL/MOL
REMARK 924 INTRA-LIGAND FREE ENERGY PREDICTED BY IDOCK:   -2.02 KCAL/MOL
REMARK 927      BINDING AFFINITY PREDICTED BY RF-SCORE:    0.00 PKD
ROOT
HETATM    1  C   UNL     1      -8.926   3.965  64.635  1.00  0.00    -0.131 C  
HETATM    2  C   UNL     1     -10.242   4.046  63.884  1.00  0.00    -0.155 C  
HETATM    3  C   UNL     1     -10.568   2.611  63.520  1.00  0.00    -0.199 C  
HETATM    4  O   UNL     1      -9.579   1.766  64.107  1.00  0.00    -0.132 OA 
HETATM    5  C   UNL     1      -8.869   2.523  65.078  1.00  0.00    -0.121 C  
HETATM    6  O   UNL     1      -9.509   2.475  66.352  1.00  0.00    -0.011 OA 
HETATM    7  C   UNL     1      -9.282   3.735  66.992  1.00  0.00    -0.181 C  
HETATM    8  C   UNL     1      -8.823   4.740  65.936  1.00  0.00    -0.127 C  
ENDROOT
BRANCH   8   9
HETATM    9  O   UNL     1      -9.708   5.872  65.963  1.00  0.00    -0.100 OA 
BRANCH   9  10
HETATM   10  C   UNL     1      -9.127   7.085  66.134  1.00  0.00    -0.115 C  
HETATM   11  O   UNL     1      -7.935   7.312  66.019  1.00  0.00    -0.104 OA 
HETATM   12  N   UNL     1     -10.084   7.968  66.541  1.00  0.00    -0.441 N  
HETATM   13  H   UNL     1     -11.060   7.677  66.499  1.00  0.00     0.000 HD 
BRANCH  12  14
HETATM   14  C   UNL     1      -9.781   9.320  67.038  1.00  0.00    -0.185 C  
BRANCH  14  15
HETATM   15  C   UNL     1     -11.033  10.253  66.969  1.00  0.00    -0.189 C  
BRANCH  15  16
HETATM   16  C   UNL     1     -10.855  11.568  66.228  1.00  0.00    -0.333 A  
HETATM   17  C   UNL     1     -10.919  11.611  64.830  1.00  0.00    -0.351 A  
HETATM   18  C   UNL     1     -10.585  12.758  66.923  1.00  0.00    -0.257 A  
HETATM   19  C   UNL     1     -10.714  12.811  64.143  1.00  0.00    -0.441 A  
HETATM   20  C   UNL     1     -10.453  13.986  64.847  1.00  0.00    -0.453 A  
HETATM   21  C   UNL     1     -10.396  13.961  66.237  1.00  0.00    -0.293 A  
ENDBRANCH  15  16
ENDBRANCH  14  15
BRANCH  14  22
HETATM   22  C   UNL     1      -9.169   9.342  68.472  1.00  0.00    -0.135 C  
HETATM   23  O   UNL     1      -7.742   9.204  68.419  1.00  0.00    -0.092 OA 
HETATM   24  H   UNL     1      -7.370   9.217  69.293  1.00  0.00     0.000 HD 
BRANCH  22  25
HETATM   25  C   UNL     1      -9.775   8.399  69.531  1.00  0.00    -0.177 C  
BRANCH  25  26
HETATM   26  N   UNL     1      -9.903   8.872  70.975  1.00  0.00    -0.228 N  
BRANCH  26  27
HETATM   27  C   UNL     1     -11.328   8.677  71.493  1.00  0.00    -0.289 C  
HETATM   28  C   UNL     1     -12.267   9.899  71.588  1.00  0.00    -0.482 C  
HETATM   29  C   UNL     1     -12.571  10.559  70.245  1.00  0.00    -0.306 C  
HETATM   30  C   UNL     1     -13.610   9.455  72.200  1.00  0.00    -0.528 C  
ENDBRANCH  26  27
BRANCH  26  31
HETATM   31  S   UNL     1      -8.717   8.025  71.968  1.00  0.00    -0.164 S  
HETATM   32  O   UNL     1      -7.516   7.830  71.194  1.00  0.00    -0.074 OA 
HETATM   33  O   UNL     1      -8.692   8.713  73.247  1.00  0.00    -0.352 OA 
BRANCH  31  34
HETATM   34  C   UNL     1      -9.435   6.408  72.247  1.00  0.00    -0.148 A  
HETATM   35  C   UNL     1     -10.694   4.883  73.638  1.00  0.00    -0.352 A  
HETATM   36  C   UNL     1     -10.194   6.171  73.393  1.00  0.00    -0.228 A  
HETATM   37  C   UNL     1     -10.408   3.818  72.776  1.00  0.00    -0.162 A  
HETATM   38  N   UNL     1     -10.996   2.568  72.973  1.00  0.00    -0.113 NA 
HETATM   39  C   UNL     1      -9.720   4.093  71.591  1.00  0.00    -0.246 A  
HETATM   40  H1  UNL     1     -10.788   1.792  72.344  1.00  0.00     0.000 HD 
HETATM   41  C   UNL     1      -9.219   5.375  71.328  1.00  0.00    -0.173 A  
HETATM   42  H2  UNL     1     -12.008   2.692  73.002  1.00  0.00     0.000 HD 
ENDBRANCH  31  34
ENDBRANCH  26  31
ENDBRANCH  25  26
ENDBRANCH  22  25
ENDBRANCH  14  22
ENDBRANCH  12  14
ENDBRANCH   9  10
ENDBRANCH   8   9
TORSDOF 11
ENDMDL
MODEL      215
REMARK 921   NORMALIZED FREE ENERGY PREDICTED BY IDOCK:   -4.84 KCAL/MOL
REMARK 922        TOTAL FREE ENERGY PREDICTED BY IDOCK:  -10.58 KCAL/MOL
REMARK 923 INTER-LIGAND FREE ENERGY PREDICTED BY IDOCK:   -9.54 KCAL/MOL
REMARK 924 INTRA-LIGAND FREE ENERGY PREDICTED BY IDOCK:   -1.04 KCAL/MOL
REMARK 927      BINDING AFFINITY PREDICTED BY RF-SCORE:    0.00 PKD
ROOT
HETATM    1  C   UNL     1      -8.116  17.921  67.091  1.00  0.00    -0.225 C  
HETATM    2  C   UNL     1      -7.374  18.615  68.218  1.00  0.00    -0.294 C  
HETATM    3  C   UNL     1      -6.824  19.883  67.594  1.00  0.00    -0.243 C  
HETATM    4  O   UNL     1      -7.301  19.963  66.252  1.00  0.00    -0.259 OA 
HETATM    5  C   UNL     1      -8.366  19.035  66.104  1.00  0.00    -0.217 C  
HETATM    6  O   UNL     1      -9.620  19.611  66.468  1.00  0.00    -0.339 OA 
HETATM    7  C   UNL     1     -10.420  18.570  67.037  1.00  0.00    -0.402 C  
HETATM    8  C   UNL     1      -9.507  17.398  67.398  1.00  0.00    -0.246 C  
ENDROOT
BRANCH   8   9
HETATM    9  O   UNL     1      -9.676  17.096  68.793  1.00  0.00    -0.264 OA 
BRANCH   9  10
HETATM   10  C   UNL     1      -9.623  15.785  69.134  1.00  0.00    -0.255 C  
HETATM   11  O   UNL     1      -8.848  15.303  69.943  1.00  0.00    -0.124 OA 
HETATM   12  N   UNL     1     -10.511  15.101  68.357  1.00  0.00    -0.229 N  
HETATM   13  H   UNL     1     -11.172  15.635  67.792  1.00  0.00     0.000 HD 
BRANCH  12  14
HETATM   14  C   UNL     1     -10.567  13.632  68.290  1.00  0.00    -0.253 C  
BRANCH  14  15
HETATM   15  C   UNL     1     -11.904  13.134  67.652  1.00  0.00    -0.405 C  
BRANCH  15  16
HETATM   16  C   UNL     1     -12.048  13.328  66.151  1.00  0.00    -0.477 A  
HETATM   17  C   UNL     1     -12.167  14.614  65.607  1.00  0.00    -0.185 A  
HETATM   18  C   UNL     1     -12.104  12.227  65.282  1.00  0.00    -0.361 A  
HETATM   19  C   UNL     1     -12.343  14.793  64.232  1.00  0.00    -0.345 A  
HETATM   20  C   UNL     1     -12.389  13.690  63.381  1.00  0.00    -0.167 A  
HETATM   21  C   UNL     1     -12.262  12.406  63.905  1.00  0.00    -0.603 A  
ENDBRANCH  15  16
ENDBRANCH  14  15
BRANCH  14  22
HETATM   22  C   UNL     1      -9.348  12.987  67.562  1.00  0.00    -0.200 C  
HETATM   23  O   UNL     1      -8.863  13.847  66.522  1.00  0.00    -0.437 OA 
HETATM   24  H   UNL     1      -8.120  13.455  66.078  1.00  0.00     0.000 HD 
BRANCH  22  25
HETATM   25  C   UNL     1      -9.492  11.538  67.057  1.00  0.00    -0.183 C  
BRANCH  25  26
HETATM   26  N   UNL     1      -8.986  10.386  67.919  1.00  0.00    -0.128 N  
BRANCH  26  27
HETATM   27  C   UNL     1      -7.981  10.880  68.960  1.00  0.00    -0.131 C  
HETATM   28  C   UNL     1      -6.735  10.023  69.268  1.00  0.00    -0.057 C  
HETATM   29  C   UNL     1      -5.798   9.832  68.077  1.00  0.00    -0.040 C  
HETATM   30  C   UNL     1      -5.925  10.697  70.391  1.00  0.00    -0.119 C  
ENDBRANCH  26  27
BRANCH  26  31
HETATM   31  S   UNL     1     -10.362   9.572  68.663  1.00  0.00    -0.211 S  
HETATM   32  O   UNL     1     -10.166   9.538  70.091  1.00  0.00    -0.212 OA 
HETATM   33  O   UNL     1     -11.551  10.162  68.074  1.00  0.00    -0.253 OA 
BRANCH  31  34
HETATM   34  C   UNL     1     -10.258   7.883  68.075  1.00  0.00    -0.208 A  
HETATM   35  C   UNL     1     -10.430   5.506  68.482  1.00  0.00    -0.234 A  
HETATM   36  C   UNL     1     -10.581   6.828  68.929  1.00  0.00    -0.257 A  
HETATM   37  C   UNL     1      -9.918   5.224  67.210  1.00  0.00    -0.177 A  
HETATM   38  N   UNL     1      -9.871   3.912  66.740  1.00  0.00    -0.353 NA 
HETATM   39  C   UNL     1      -9.682   6.292  66.341  1.00  0.00    -0.146 A  
HETATM   40  H1  UNL     1      -9.498   3.706  65.813  1.00  0.00     0.000 HD 
HETATM   41  C   UNL     1      -9.834   7.618  66.769  1.00  0.00    -0.307 A  
HETATM   42  H2  UNL     1     -10.809   3.516  66.801  1.00  0.00     0.000 HD 
ENDBRANCH  31  34
ENDBRANCH  26  31
ENDBRANCH  25  26
ENDBRANCH  22  25
ENDBRANCH  14  22
ENDBRANCH  12  14
ENDBRANCH   9  10
ENDBRANCH   8   9
TORSDOF 11
ENDMDL
MODEL      216
REMARK 921   NORMALIZED FREE ENERGY PREDICTED BY IDOCK:   -4.83 KCAL/MOL
REMARK 922        TOTAL FREE ENERGY PREDICTED BY IDOCK:  -10.55 KCAL/MOL
REMARK 923 INTER-LIGAND FREE ENERGY PREDICTED BY IDOCK:   -8.89 KCAL/MOL
REMARK 924 INTRA-LIGAND FREE ENERGY PREDICTED BY IDOCK:   -1.66 KCAL/MOL
REMARK 927      BINDING AFFINITY PREDICTED BY RF-SCORE:    0.00 PKD
ROOT
HETATM    1  C   UNL     1     -12.022  14.349  71.733  1.00  0.00    -0.209 C  
HETATM    2  C   UNL     1     -13.119  14.443  70.688  1.00  0.00    -0.279 C  
HETATM    3  C   UNL     1     -14.411  14.314  71.472  1.00  0.00    -0.286 C  
HETATM    4  O   UNL     1     -14.086  14.261  72.860  1.00  0.00    -0.525 OA 
HETATM    5  C   UNL     1     -12.739  14.685  73.017  1.00  0.00    -0.424 C  
HETATM    6  O   UNL     1     -12.648  16.102  73.163  1.00  0.00    -0.459 OA 
HETATM    7  C   UNL     1     -11.419  16.515  72.557  1.00  0.00     0.165 C  
HETATM    8  C   UNL     1     -10.912  15.382  71.664  1.00  0.00    -0.051 C  
ENDROOT
BRANCH   8   9
HETATM    9  O   UNL     1     -10.729  15.892  70.333  1.00  0.00    -0.310 OA 
BRANCH   9  10
HETATM   10  C   UNL     1      -9.735  15.326  69.605  1.00  0.00    -0.200 C  
HETATM   11  O   UNL     1      -8.635  15.818  69.420  1.00  0.00    -0.251 OA 
HETATM   12  N   UNL     1     -10.210  14.174  69.049  1.00  0.00    -0.390 N  
HETATM   13  H   UNL     1     -11.113  13.821  69.365  1.00  0.00     0.000 HD 
BRANCH  12  14
HETATM   14  C   UNL     1      -9.486  13.413  68.018  1.00  0.00    -0.218 C  
BRANCH  14  15
HETATM   15  C   UNL     1      -9.130  14.308  66.786  1.00  0.00    -0.269 C  
BRANCH  15  16
HETATM   16  C   UNL     1     -10.236  14.521  65.765  1.00  0.00    -0.354 A  
HETATM   17  C   UNL     1     -10.465  15.790  65.218  1.00  0.00    -0.427 A  
HETATM   18  C   UNL     1     -11.075  13.465  65.376  1.00  0.00    -0.301 A  
HETATM   19  C   UNL     1     -11.507  15.999  64.311  1.00  0.00    -0.162 A  
HETATM   20  C   UNL     1     -12.328  14.938  63.929  1.00  0.00     0.074 A  
HETATM   21  C   UNL     1     -12.107  13.669  64.456  1.00  0.00    -0.459 A  
ENDBRANCH  15  16
ENDBRANCH  14  15
BRANCH  14  22
HETATM   22  C   UNL     1      -8.210  12.690  68.546  1.00  0.00    -0.074 C  
HETATM   23  O   UNL     1      -7.108  13.603  68.636  1.00  0.00    -0.095 OA 
HETATM   24  H   UNL     1      -6.330  13.162  68.958  1.00  0.00     0.000 HD 
BRANCH  22  25
HETATM   25  C   UNL     1      -7.785  11.378  67.856  1.00  0.00    -0.114 C  
BRANCH  25  26
HETATM   26  N   UNL     1      -8.590  10.105  68.099  1.00  0.00    -0.117 N  
BRANCH  26  27
HETATM   27  C   UNL     1      -9.321  10.166  69.440  1.00  0.00    -0.219 C  
HETATM   28  C   UNL     1      -9.149   9.006  70.444  1.00  0.00    -0.242 C  
HETATM   29  C   UNL     1      -7.717   8.818  70.941  1.00  0.00    -0.121 C  
HETATM   30  C   UNL     1     -10.036   9.269  71.675  1.00  0.00    -0.198 C  
ENDBRANCH  26  27
BRANCH  26  31
HETATM   31  S   UNL     1      -9.699   9.856  66.751  1.00  0.00    -0.202 S  
HETATM   32  O   UNL     1     -11.007  10.329  67.132  1.00  0.00    -0.251 OA 
HETATM   33  O   UNL     1      -9.023  10.362  65.570  1.00  0.00    -0.160 OA 
BRANCH  31  34
HETATM   34  C   UNL     1      -9.809   8.076  66.582  1.00  0.00    -0.252 A  
HETATM   35  C   UNL     1      -8.965   5.999  65.676  1.00  0.00    -0.077 A  
HETATM   36  C   UNL     1      -8.834   7.384  65.864  1.00  0.00    -0.149 A  
HETATM   37  C   UNL     1     -10.080   5.305  66.159  1.00  0.00    -0.172 A  
HETATM   38  N   UNL     1     -10.149   3.915  66.058  1.00  0.00    -0.424 NA 
HETATM   39  C   UNL     1     -11.002   5.999  66.946  1.00  0.00    -0.350 A  
HETATM   40  H1  UNL     1     -10.962   3.409  66.409  1.00  0.00     0.000 HD 
HETATM   41  C   UNL     1     -10.882   7.381  67.149  1.00  0.00    -0.340 A  
HETATM   42  H2  UNL     1      -9.315   3.521  66.494  1.00  0.00     0.000 HD 
ENDBRANCH  31  34
ENDBRANCH  26  31
ENDBRANCH  25  26
ENDBRANCH  22  25
ENDBRANCH  14  22
ENDBRANCH  12  14
ENDBRANCH   9  10
ENDBRANCH   8   9
TORSDOF 11
ENDMDL
MODEL      217
REMARK 921   NORMALIZED FREE ENERGY PREDICTED BY IDOCK:   -4.80 KCAL/MOL
REMARK 922        TOTAL FREE ENERGY PREDICTED BY IDOCK:  -10.51 KCAL/MOL
REMARK 923 INTER-LIGAND FREE ENERGY PREDICTED BY IDOCK:   -8.79 KCAL/MOL
REMARK 924 INTRA-LIGAND FREE ENERGY PREDICTED BY IDOCK:   -1.73 KCAL/MOL
REMARK 927      BINDING AFFINITY PREDICTED BY RF-SCORE:    0.00 PKD
ROOT
HETATM    1  C   UNL     1     -12.470  10.808  69.921  1.00  0.00    -0.277 C  
HETATM    2  C   UNL     1     -12.887  11.832  70.961  1.00  0.00    -0.309 C  
HETATM    3  C   UNL     1     -13.399  11.010  72.128  1.00  0.00    -0.180 C  
HETATM    4  O   UNL     1     -13.191   9.631  71.827  1.00  0.00    -0.374 OA 
HETATM    5  C   UNL     1     -12.293   9.546  70.730  1.00  0.00    -0.162 C  
HETATM    6  O   UNL     1     -10.933   9.543  71.164  1.00  0.00    -0.317 OA 
HETATM    7  C   UNL     1     -10.163  10.214  70.161  1.00  0.00    -0.179 C  
HETATM    8  C   UNL     1     -11.116  11.002  69.263  1.00  0.00    -0.254 C  
ENDROOT
BRANCH   8   9
HETATM    9  O   UNL     1     -10.709  12.380  69.259  1.00  0.00    -0.103 OA 
BRANCH   9  10
HETATM   10  C   UNL     1     -10.049  12.807  68.154  1.00  0.00    -0.239 C  
HETATM   11  O   UNL     1     -10.526  12.875  67.035  1.00  0.00    -0.237 OA 
HETATM   12  N   UNL     1      -8.751  13.054  68.496  1.00  0.00    -0.345 N  
HETATM   13  H   UNL     1      -8.504  13.057  69.486  1.00  0.00     0.000 HD 
BRANCH  12  14
HETATM   14  C   UNL     1      -7.689  13.316  67.513  1.00  0.00    -0.171 C  
BRANCH  14  15
HETATM   15  C   UNL     1      -7.221  14.807  67.553  1.00  0.00    -0.222 C  
BRANCH  15  16
HETATM   16  C   UNL     1      -8.311  15.859  67.430  1.00  0.00    -0.192 A  
HETATM   17  C   UNL     1      -8.600  16.713  68.503  1.00  0.00    -0.234 A  
HETATM   18  C   UNL     1      -9.076  15.975  66.258  1.00  0.00    -0.379 A  
HETATM   19  C   UNL     1      -9.630  17.653  68.408  1.00  0.00    -0.310 A  
HETATM   20  C   UNL     1     -10.376  17.761  67.236  1.00  0.00    -0.364 A  
HETATM   21  C   UNL     1     -10.094  16.927  66.157  1.00  0.00    -0.347 A  
ENDBRANCH  15  16
ENDBRANCH  14  15
BRANCH  14  22
HETATM   22  C   UNL     1      -6.462  12.362  67.640  1.00  0.00    -0.130 C  
HETATM   23  O   UNL     1      -5.665  12.395  66.447  1.00  0.00    -0.374 OA 
HETATM   24  H   UNL     1      -4.918  11.814  66.525  1.00  0.00     0.000 HD 
BRANCH  22  25
HETATM   25  C   UNL     1      -6.720  10.910  68.091  1.00  0.00    -0.063 C  
BRANCH  25  26
HETATM   26  N   UNL     1      -7.450   9.950  67.157  1.00  0.00    -0.091 N  
BRANCH  26  27
HETATM   27  C   UNL     1      -7.191  10.305  65.693  1.00  0.00    -0.148 C  
HETATM   28  C   UNL     1      -8.108   9.713  64.601  1.00  0.00    -0.141 C  
HETATM   29  C   UNL     1      -9.569  10.141  64.714  1.00  0.00    -0.378 C  
HETATM   30  C   UNL     1      -7.599  10.161  63.218  1.00  0.00    -0.143 C  
ENDBRANCH  26  27
BRANCH  26  31
HETATM   31  S   UNL     1      -6.966   8.297  67.532  1.00  0.00    -0.076 S  
HETATM   32  O   UNL     1      -5.773   7.981  66.787  1.00  0.00    -0.035 OA 
HETATM   33  O   UNL     1      -7.012   8.178  68.978  1.00  0.00    -0.058 OA 
BRANCH  31  34
HETATM   34  C   UNL     1      -8.286   7.280  66.871  1.00  0.00    -0.118 A  
HETATM   35  C   UNL     1     -10.611   6.617  66.847  1.00  0.00    -0.376 A  
HETATM   36  C   UNL     1      -9.595   7.463  67.317  1.00  0.00    -0.191 A  
HETATM   37  C   UNL     1     -10.328   5.562  65.972  1.00  0.00    -0.006 A  
HETATM   38  N   UNL     1     -11.359   4.794  65.431  1.00  0.00    -1.000 NA 
HETATM   39  C   UNL     1      -9.029   5.448  65.472  1.00  0.00    -0.149 A  
HETATM   40  H1  UNL     1     -11.153   4.025  64.793  1.00  0.00     0.000 HD 
HETATM   41  C   UNL     1      -8.004   6.289  65.926  1.00  0.00    -0.116 A  
HETATM   42  H2  UNL     1     -12.018   5.422  64.970  1.00  0.00     0.000 HD 
ENDBRANCH  31  34
ENDBRANCH  26  31
ENDBRANCH  25  26
ENDBRANCH  22  25
ENDBRANCH  14  22
ENDBRANCH  12  14
ENDBRANCH   9  10
ENDBRANCH   8   9
TORSDOF 11
ENDMDL
MODEL      218
REMARK 921   NORMALIZED FREE ENERGY PREDICTED BY IDOCK:   -4.79 KCAL/MOL
REMARK 922        TOTAL FREE ENERGY PREDICTED BY IDOCK:  -10.49 KCAL/MOL
REMARK 923 INTER-LIGAND FREE ENERGY PREDICTED BY IDOCK:   -9.44 KCAL/MOL
REMARK 924 INTRA-LIGAND FREE ENERGY PREDICTED BY IDOCK:   -1.04 KCAL/MOL
REMARK 927      BINDING AFFINITY PREDICTED BY RF-SCORE:    0.00 PKD
ROOT
HETATM    1  C   UNL     1     -13.293  15.462  71.259  1.00  0.00    -0.598 C  
HETATM    2  C   UNL     1     -12.540  15.817  72.528  1.00  0.00    -0.541 C  
HETATM    3  C   UNL     1     -12.901  14.719  73.510  1.00  0.00    -0.404 C  
HETATM    4  O   UNL     1     -13.705  13.757  72.828  1.00  0.00    -0.699 OA 
HETATM    5  C   UNL     1     -13.589  13.992  71.432  1.00  0.00    -0.255 C  
HETATM    6  O   UNL     1     -12.476  13.296  70.873  1.00  0.00    -0.362 OA 
HETATM    7  C   UNL     1     -11.959  14.101  69.808  1.00  0.00    -0.339 C  
HETATM    8  C   UNL     1     -12.516  15.517  69.956  1.00  0.00    -0.261 C  
ENDROOT
BRANCH   8   9
HETATM    9  O   UNL     1     -11.416  16.439  70.020  1.00  0.00    -0.264 OA 
BRANCH   9  10
HETATM   10  C   UNL     1     -10.691  16.589  68.885  1.00  0.00    -0.337 C  
HETATM   11  O   UNL     1     -11.156  16.652  67.760  1.00  0.00    -0.279 OA 
HETATM   12  N   UNL     1      -9.366  16.560  69.212  1.00  0.00    -0.193 N  
HETATM   13  H   UNL     1      -9.111  16.606  70.198  1.00  0.00     0.000 HD 
BRANCH  12  14
HETATM   14  C   UNL     1      -8.287  16.469  68.216  1.00  0.00    -0.190 C  
BRANCH  14  15
HETATM   15  C   UNL     1      -6.986  17.183  68.709  1.00  0.00    -0.217 C  
BRANCH  15  16
HETATM   16  C   UNL     1      -6.693  18.545  68.102  1.00  0.00    -0.231 A  
HETATM   17  C   UNL     1      -7.144  18.862  66.814  1.00  0.00    -0.222 A  
HETATM   18  C   UNL     1      -5.932  19.498  68.798  1.00  0.00    -0.263 A  
HETATM   19  C   UNL     1      -6.840  20.098  66.236  1.00  0.00    -0.267 A  
HETATM   20  C   UNL     1      -6.090  21.037  66.942  1.00  0.00    -0.349 A  
HETATM   21  C   UNL     1      -5.642  20.740  68.227  1.00  0.00    -0.348 A  
ENDBRANCH  15  16
ENDBRANCH  14  15
BRANCH  14  22
HETATM   22  C   UNL     1      -7.965  15.011  67.767  1.00  0.00    -0.143 C  
HETATM   23  O   UNL     1      -7.814  14.938  66.343  1.00  0.00    -0.140 OA 
HETATM   24  H   UNL     1      -7.618  14.050  66.069  1.00  0.00     0.000 HD 
BRANCH  22  25
HETATM   25  C   UNL     1      -8.876  13.878  68.283  1.00  0.00    -0.185 C  
BRANCH  25  26
HETATM   26  N   UNL     1      -8.802  12.499  67.636  1.00  0.00    -0.169 N  
BRANCH  26  27
HETATM   27  C   UNL     1      -9.239  12.556  66.172  1.00  0.00    -0.073 C  
HETATM   28  C   UNL     1     -10.608  11.966  65.771  1.00  0.00    -0.309 C  
HETATM   29  C   UNL     1     -11.801  12.660  66.422  1.00  0.00    -0.466 C  
HETATM   30  C   UNL     1     -10.780  12.082  64.245  1.00  0.00    -0.382 C  
ENDBRANCH  26  27
BRANCH  26  31
HETATM   31  S   UNL     1      -7.167  11.863  67.814  1.00  0.00    -0.115 S  
HETATM   32  O   UNL     1      -6.372  12.305  66.695  1.00  0.00    -0.089 OA 
HETATM   33  O   UNL     1      -6.771  12.138  69.183  1.00  0.00    -0.099 OA 
BRANCH  31  34
HETATM   34  C   UNL     1      -7.355  10.088  67.659  1.00  0.00    -0.089 A  
HETATM   35  C   UNL     1      -8.068   7.967  68.575  1.00  0.00    -0.123 A  
HETATM   36  C   UNL     1      -7.987   9.365  68.671  1.00  0.00    -0.092 A  
HETATM   37  C   UNL     1      -7.487   7.279  67.503  1.00  0.00    -0.101 A  
HETATM   38  N   UNL     1      -7.664   5.902  67.365  1.00  0.00    -0.096 NA 
HETATM   39  C   UNL     1      -6.934   8.025  66.460  1.00  0.00    -0.071 A  
HETATM   40  H1  UNL     1      -7.240   5.400  66.584  1.00  0.00     0.000 HD 
HETATM   41  C   UNL     1      -6.851   9.422  66.537  1.00  0.00    -0.083 A  
HETATM   42  H2  UNL     1      -8.665   5.707  67.364  1.00  0.00     0.000 HD 
ENDBRANCH  31  34
ENDBRANCH  26  31
ENDBRANCH  25  26
ENDBRANCH  22  25
ENDBRANCH  14  22
ENDBRANCH  12  14
ENDBRANCH   9  10
ENDBRANCH   8   9
TORSDOF 11
ENDMDL
MODEL      219
REMARK 921   NORMALIZED FREE ENERGY PREDICTED BY IDOCK:   -4.79 KCAL/MOL
REMARK 922        TOTAL FREE ENERGY PREDICTED BY IDOCK:  -10.49 KCAL/MOL
REMARK 923 INTER-LIGAND FREE ENERGY PREDICTED BY IDOCK:   -8.40 KCAL/MOL
REMARK 924 INTRA-LIGAND FREE ENERGY PREDICTED BY IDOCK:   -2.08 KCAL/MOL
REMARK 927      BINDING AFFINITY PREDICTED BY RF-SCORE:    0.00 PKD
ROOT
HETATM    1  C   UNL     1     -10.390  12.768  65.541  1.00  0.00    -0.301 C  
HETATM    2  C   UNL     1     -11.662  12.673  66.364  1.00  0.00    -0.466 C  
HETATM    3  C   UNL     1     -12.531  13.810  65.864  1.00  0.00    -0.468 C  
HETATM    4  O   UNL     1     -11.861  14.436  64.771  1.00  0.00    -0.389 OA 
HETATM    5  C   UNL     1     -10.816  13.575  64.340  1.00  0.00    -0.389 C  
HETATM    6  O   UNL     1     -11.278  12.632  63.373  1.00  0.00    -0.467 OA 
HETATM    7  C   UNL     1     -10.533  11.425  63.563  1.00  0.00    -0.417 C  
HETATM    8  C   UNL     1      -9.861  11.481  64.936  1.00  0.00    -0.252 C  
ENDROOT
BRANCH   8   9
HETATM    9  O   UNL     1     -10.260  10.324  65.689  1.00  0.00    -0.273 OA 
BRANCH   9  10
HETATM   10  C   UNL     1      -9.298   9.397  65.920  1.00  0.00    -0.230 C  
HETATM   11  O   UNL     1      -8.349   9.175  65.187  1.00  0.00    -0.136 OA 
HETATM   12  N   UNL     1      -9.627   8.705  67.049  1.00  0.00    -0.168 N  
HETATM   13  H   UNL     1     -10.392   9.056  67.626  1.00  0.00     0.000 HD 
BRANCH  12  14
HETATM   14  C   UNL     1      -8.937   7.479  67.479  1.00  0.00    -0.126 C  
BRANCH  14  15
HETATM   15  C   UNL     1      -7.920   7.764  68.631  1.00  0.00    -0.122 C  
BRANCH  15  16
HETATM   16  C   UNL     1      -7.189   9.095  68.571  1.00  0.00    -0.073 A  
HETATM   17  C   UNL     1      -7.678  10.208  69.267  1.00  0.00    -0.126 A  
HETATM   18  C   UNL     1      -6.033   9.250  67.790  1.00  0.00    -0.053 A  
HETATM   19  C   UNL     1      -7.032  11.444  69.181  1.00  0.00    -0.118 A  
HETATM   20  C   UNL     1      -5.881  11.581  68.407  1.00  0.00    -0.045 A  
HETATM   21  C   UNL     1      -5.376  10.482  67.717  1.00  0.00    -0.040 A  
ENDBRANCH  15  16
ENDBRANCH  14  15
BRANCH  14  22
HETATM   22  C   UNL     1      -9.901   6.321  67.883  1.00  0.00    -0.124 C  
HETATM   23  O   UNL     1     -10.494   5.723  66.722  1.00  0.00    -0.234 OA 
HETATM   24  H   UNL     1     -11.081   5.018  66.969  1.00  0.00     0.000 HD 
BRANCH  22  25
HETATM   25  C   UNL     1     -10.967   6.612  68.959  1.00  0.00    -0.279 C  
BRANCH  25  26
HETATM   26  N   UNL     1     -10.952   5.823  70.265  1.00  0.00    -0.304 N  
BRANCH  26  27
HETATM   27  C   UNL     1      -9.539   5.347  70.603  1.00  0.00    -0.172 C  
HETATM   28  C   UNL     1      -9.261   3.832  70.708  1.00  0.00    -0.202 C  
HETATM   29  C   UNL     1      -9.485   3.065  69.408  1.00  0.00    -0.176 C  
HETATM   30  C   UNL     1      -7.793   3.618  71.125  1.00  0.00    -0.059 C  
ENDBRANCH  26  27
BRANCH  26  31
HETATM   31  S   UNL     1     -11.640   6.817  71.549  1.00  0.00    -0.319 S  
HETATM   32  O   UNL     1     -12.273   7.969  70.956  1.00  0.00    -0.280 OA 
HETATM   33  O   UNL     1     -12.371   5.911  72.416  1.00  0.00    -0.198 OA 
BRANCH  31  34
HETATM   34  C   UNL     1     -10.221   7.408  72.470  1.00  0.00    -0.216 A  
HETATM   35  C   UNL     1      -8.277   8.835  72.640  1.00  0.00     0.111 A  
HETATM   36  C   UNL     1      -9.426   8.426  71.945  1.00  0.00    -0.323 A  
HETATM   37  C   UNL     1      -7.888   8.209  73.829  1.00  0.00    -0.191 A  
HETATM   38  N   UNL     1      -6.805   8.692  74.564  1.00  0.00    -0.271 NA 
HETATM   39  C   UNL     1      -8.742   7.251  74.382  1.00  0.00    -0.242 A  
HETATM   40  H1  UNL     1      -6.522   8.236  75.431  1.00  0.00     0.000 HD 
HETATM   41  C   UNL     1      -9.897   6.836  73.705  1.00  0.00    -0.270 A  
HETATM   42  H2  UNL     1      -6.968   9.680  74.762  1.00  0.00     0.000 HD 
ENDBRANCH  31  34
ENDBRANCH  26  31
ENDBRANCH  25  26
ENDBRANCH  22  25
ENDBRANCH  14  22
ENDBRANCH  12  14
ENDBRANCH   9  10
ENDBRANCH   8   9
TORSDOF 11
ENDMDL
MODEL      220
REMARK 921   NORMALIZED FREE ENERGY PREDICTED BY IDOCK:   -4.78 KCAL/MOL
REMARK 922        TOTAL FREE ENERGY PREDICTED BY IDOCK:  -10.47 KCAL/MOL
REMARK 923 INTER-LIGAND FREE ENERGY PREDICTED BY IDOCK:   -8.05 KCAL/MOL
REMARK 924 INTRA-LIGAND FREE ENERGY PREDICTED BY IDOCK:   -2.42 KCAL/MOL
REMARK 927      BINDING AFFINITY PREDICTED BY RF-SCORE:    0.00 PKD
ROOT
HETATM    1  C   UNL     1      -9.779   4.507  72.065  1.00  0.00    -0.229 C  
HETATM    2  C   UNL     1     -10.074   5.754  72.878  1.00  0.00    -0.205 C  
HETATM    3  C   UNL     1     -10.424   5.239  74.261  1.00  0.00    -0.267 C  
HETATM    4  O   UNL     1     -10.238   3.825  74.270  1.00  0.00    -0.150 OA 
HETATM    5  C   UNL     1      -9.484   3.469  73.120  1.00  0.00    -0.106 C  
HETATM    6  O   UNL     1      -8.080   3.545  73.368  1.00  0.00    -0.073 OA 
HETATM    7  C   UNL     1      -7.452   3.948  72.147  1.00  0.00    -0.065 C  
HETATM    8  C   UNL     1      -8.521   4.519  71.215  1.00  0.00    -0.107 C  
ENDROOT
BRANCH   8   9
HETATM    9  O   UNL     1      -8.136   5.850  70.835  1.00  0.00    -0.115 OA 
BRANCH   9  10
HETATM   10  C   UNL     1      -8.690   6.332  69.695  1.00  0.00    -0.136 C  
HETATM   11  O   UNL     1      -8.893   5.681  68.685  1.00  0.00    -0.109 OA 
HETATM   12  N   UNL     1      -8.888   7.674  69.846  1.00  0.00    -0.143 N  
HETATM   13  H   UNL     1      -8.771   8.079  70.775  1.00  0.00     0.000 HD 
BRANCH  12  14
HETATM   14  C   UNL     1      -9.261   8.568  68.739  1.00  0.00    -0.142 C  
BRANCH  14  15
HETATM   15  C   UNL     1     -10.812   8.706  68.607  1.00  0.00    -0.003 C  
BRANCH  15  16
HETATM   16  C   UNL     1     -11.601   8.729  69.907  1.00  0.00     0.238 A  
HETATM   17  C   UNL     1     -11.803   9.933  70.595  1.00  0.00    -0.386 A  
HETATM   18  C   UNL     1     -12.108   7.546  70.466  1.00  0.00    -0.030 A  
HETATM   19  C   UNL     1     -12.491   9.951  71.811  1.00  0.00    -0.487 A  
HETATM   20  C   UNL     1     -12.995   8.769  72.350  1.00  0.00    -0.442 A  
HETATM   21  C   UNL     1     -12.811   7.567  71.674  1.00  0.00    -0.392 A  
ENDBRANCH  15  16
ENDBRANCH  14  15
BRANCH  14  22
HETATM   22  C   UNL     1      -8.599   9.978  68.815  1.00  0.00    -0.131 C  
HETATM   23  O   UNL     1      -8.539  10.439  70.172  1.00  0.00    -0.323 OA 
HETATM   24  H   UNL     1      -8.135  11.297  70.219  1.00  0.00     0.000 HD 
BRANCH  22  25
HETATM   25  C   UNL     1      -9.137  11.081  67.882  1.00  0.00    -0.147 C  
BRANCH  25  26
HETATM   26  N   UNL     1      -9.262  12.510  68.400  1.00  0.00    -0.177 N  
BRANCH  26  27
HETATM   27  C   UNL     1      -8.159  13.400  67.827  1.00  0.00    -0.173 C  
HETATM   28  C   UNL     1      -7.166  14.082  68.792  1.00  0.00    -0.113 C  
HETATM   29  C   UNL     1      -6.313  13.107  69.601  1.00  0.00    -0.086 C  
HETATM   30  C   UNL     1      -6.206  14.973  67.980  1.00  0.00    -0.161 C  
ENDBRANCH  26  27
BRANCH  26  31
HETATM   31  S   UNL     1     -10.871  13.123  68.021  1.00  0.00    -0.251 S  
HETATM   32  O   UNL     1     -10.755  14.133  66.999  1.00  0.00    -0.281 OA 
HETATM   33  O   UNL     1     -11.719  11.958  67.844  1.00  0.00    -0.404 OA 
BRANCH  31  34
HETATM   34  C   UNL     1     -11.404  13.947  69.520  1.00  0.00    -0.237 A  
HETATM   35  C   UNL     1     -12.901  14.097  71.412  1.00  0.00    -0.428 A  
HETATM   36  C   UNL     1     -12.444  13.409  70.278  1.00  0.00    -0.285 A  
HETATM   37  C   UNL     1     -12.363  15.338  71.773  1.00  0.00    -0.358 A  
HETATM   38  N   UNL     1     -12.753  15.962  72.959  1.00  0.00    -0.461 NA 
HETATM   39  C   UNL     1     -11.268  15.819  71.053  1.00  0.00    -0.396 A  
HETATM   40  H1  UNL     1     -12.361  16.866  73.222  1.00  0.00     0.000 HD 
HETATM   41  C   UNL     1     -10.794  15.141  69.921  1.00  0.00    -0.287 A  
HETATM   42  H2  UNL     1     -12.597  15.311  73.729  1.00  0.00     0.000 HD 
ENDBRANCH  31  34
ENDBRANCH  26  31
ENDBRANCH  25  26
ENDBRANCH  22  25
ENDBRANCH  14  22
ENDBRANCH  12  14
ENDBRANCH   9  10
ENDBRANCH   8   9
TORSDOF 11
ENDMDL
MODEL      221
REMARK 921   NORMALIZED FREE ENERGY PREDICTED BY IDOCK:   -4.77 KCAL/MOL
REMARK 922        TOTAL FREE ENERGY PREDICTED BY IDOCK:  -10.46 KCAL/MOL
REMARK 923 INTER-LIGAND FREE ENERGY PREDICTED BY IDOCK:   -8.80 KCAL/MOL
REMARK 924 INTRA-LIGAND FREE ENERGY PREDICTED BY IDOCK:   -1.66 KCAL/MOL
REMARK 927      BINDING AFFINITY PREDICTED BY RF-SCORE:    0.00 PKD
ROOT
HETATM    1  C   UNL     1     -12.065  13.183  65.651  1.00  0.00    -0.501 C  
HETATM    2  C   UNL     1     -11.289  12.318  64.675  1.00  0.00    -0.375 C  
HETATM    3  C   UNL     1     -11.810  12.717  63.308  1.00  0.00    -0.419 C  
HETATM    4  O   UNL     1     -12.728  13.797  63.478  1.00  0.00    -0.774 OA 
HETATM    5  C   UNL     1     -12.561  14.318  64.789  1.00  0.00    -0.291 C  
HETATM    6  O   UNL     1     -11.545  15.320  64.830  1.00  0.00    -0.352 OA 
HETATM    7  C   UNL     1     -10.908  15.229  66.108  1.00  0.00    -0.320 C  
HETATM    8  C   UNL     1     -11.269  13.883  66.737  1.00  0.00    -0.318 C  
ENDROOT
BRANCH   8   9
HETATM    9  O   UNL     1     -10.054  13.184  67.055  1.00  0.00    -0.235 OA 
BRANCH   9  10
HETATM   10  C   UNL     1     -10.192  12.024  67.742  1.00  0.00    -0.202 C  
HETATM   11  O   UNL     1     -11.020  11.820  68.613  1.00  0.00    -0.199 OA 
HETATM   12  N   UNL     1      -9.195  11.174  67.358  1.00  0.00    -0.152 N  
HETATM   13  H   UNL     1      -8.630  11.427  66.547  1.00  0.00     0.000 HD 
BRANCH  12  14
HETATM   14  C   UNL     1      -8.894   9.912  68.052  1.00  0.00    -0.125 C  
BRANCH  14  15
HETATM   15  C   UNL     1      -7.567   9.270  67.529  1.00  0.00    -0.088 C  
BRANCH  15  16
HETATM   16  C   UNL     1      -7.652   8.531  66.204  1.00  0.00    -0.089 A  
HETATM   17  C   UNL     1      -7.783   9.237  65.002  1.00  0.00    -0.109 A  
HETATM   18  C   UNL     1      -7.639   7.128  66.157  1.00  0.00    -0.092 A  
HETATM   19  C   UNL     1      -7.903   8.559  63.786  1.00  0.00    -0.150 A  
HETATM   20  C   UNL     1      -7.882   7.166  63.754  1.00  0.00    -0.110 A  
HETATM   21  C   UNL     1      -7.742   6.450  64.939  1.00  0.00    -0.104 A  
ENDBRANCH  15  16
ENDBRANCH  14  15
BRANCH  14  22
HETATM   22  C   UNL     1      -8.857  10.039  69.605  1.00  0.00    -0.199 C  
HETATM   23  O   UNL     1      -7.672  10.727  70.032  1.00  0.00    -0.367 OA 
HETATM   24  H   UNL     1      -7.650  10.804  70.978  1.00  0.00     0.000 HD 
BRANCH  22  25
HETATM   25  C   UNL     1      -9.085   8.763  70.440  1.00  0.00    -0.176 C  
BRANCH  25  26
HETATM   26  N   UNL     1     -10.288   7.874  70.143  1.00  0.00    -0.211 N  
BRANCH  26  27
HETATM   27  C   UNL     1      -9.862   6.603  69.409  1.00  0.00    -0.151 C  
HETATM   28  C   UNL     1     -10.827   5.966  68.386  1.00  0.00    -0.322 C  
HETATM   29  C   UNL     1     -11.146   6.858  67.188  1.00  0.00    -0.362 C  
HETATM   30  C   UNL     1     -10.201   4.668  67.842  1.00  0.00    -0.019 C  
ENDBRANCH  26  27
BRANCH  26  31
HETATM   31  S   UNL     1     -11.130   7.517  71.650  1.00  0.00    -0.244 S  
HETATM   32  O   UNL     1     -11.040   8.666  72.517  1.00  0.00    -0.325 OA 
HETATM   33  O   UNL     1     -12.412   6.948  71.274  1.00  0.00    -0.367 OA 
BRANCH  31  34
HETATM   34  C   UNL     1     -10.167   6.208  72.405  1.00  0.00    -0.188 A  
HETATM   35  C   UNL     1      -8.163   5.462  73.533  1.00  0.00    -0.113 A  
HETATM   36  C   UNL     1      -8.943   6.503  73.006  1.00  0.00    -0.136 A  
HETATM   37  C   UNL     1      -8.569   4.127  73.427  1.00  0.00    -0.092 A  
HETATM   38  N   UNL     1      -7.837   3.112  74.045  1.00  0.00    -0.064 NA 
HETATM   39  C   UNL     1      -9.834   3.860  72.899  1.00  0.00    -0.191 A  
HETATM   40  H1  UNL     1      -8.133   2.139  73.968  1.00  0.00     0.000 HD 
HETATM   41  C   UNL     1     -10.629   4.888  72.374  1.00  0.00    -0.263 A  
HETATM   42  H2  UNL     1      -7.747   3.341  75.036  1.00  0.00     0.000 HD 
ENDBRANCH  31  34
ENDBRANCH  26  31
ENDBRANCH  25  26
ENDBRANCH  22  25
ENDBRANCH  14  22
ENDBRANCH  12  14
ENDBRANCH   9  10
ENDBRANCH   8   9
TORSDOF 11
ENDMDL
MODEL      222
REMARK 921   NORMALIZED FREE ENERGY PREDICTED BY IDOCK:   -4.75 KCAL/MOL
REMARK 922        TOTAL FREE ENERGY PREDICTED BY IDOCK:  -10.42 KCAL/MOL
REMARK 923 INTER-LIGAND FREE ENERGY PREDICTED BY IDOCK:  -10.57 KCAL/MOL
REMARK 924 INTRA-LIGAND FREE ENERGY PREDICTED BY IDOCK:    0.15 KCAL/MOL
REMARK 927      BINDING AFFINITY PREDICTED BY RF-SCORE:    0.00 PKD
ROOT
HETATM    1  C   UNL     1     -11.140   6.169  73.338  1.00  0.00    -0.091 C  
HETATM    2  C   UNL     1     -10.016   6.931  74.017  1.00  0.00    -0.371 C  
HETATM    3  C   UNL     1      -8.822   5.998  73.951  1.00  0.00    -0.126 C  
HETATM    4  O   UNL     1      -9.200   4.844  73.202  1.00  0.00    -0.119 OA 
HETATM    5  C   UNL     1     -10.409   5.135  72.516  1.00  0.00    -0.204 C  
HETATM    6  O   UNL     1     -10.161   5.742  71.249  1.00  0.00    -0.200 OA 
HETATM    7  C   UNL     1     -11.232   6.657  70.996  1.00  0.00    -0.300 C  
HETATM    8  C   UNL     1     -11.965   6.922  72.311  1.00  0.00    -0.206 C  
ENDROOT
BRANCH   8   9
HETATM    9  O   UNL     1     -11.972   8.338  72.556  1.00  0.00    -0.387 OA 
BRANCH   9  10
HETATM   10  C   UNL     1     -11.461   9.120  71.573  1.00  0.00    -0.367 C  
HETATM   11  O   UNL     1     -10.285   9.420  71.458  1.00  0.00    -0.308 OA 
HETATM   12  N   UNL     1     -12.492   9.578  70.806  1.00  0.00    -0.482 N  
HETATM   13  H   UNL     1     -13.417   9.171  70.946  1.00  0.00     0.000 HD 
BRANCH  12  14
HETATM   14  C   UNL     1     -12.340  10.629  69.788  1.00  0.00    -0.194 C  
BRANCH  14  15
HETATM   15  C   UNL     1     -11.570  11.868  70.350  1.00  0.00    -0.060 C  
BRANCH  15  16
HETATM   16  C   UNL     1     -12.422  12.990  70.922  1.00  0.00    -0.396 A  
HETATM   17  C   UNL     1     -13.388  12.721  71.901  1.00  0.00    -0.510 A  
HETATM   18  C   UNL     1     -12.289  14.308  70.458  1.00  0.00    -0.430 A  
HETATM   19  C   UNL     1     -14.202  13.743  72.398  1.00  0.00    -0.501 A  
HETATM   20  C   UNL     1     -14.053  15.048  71.933  1.00  0.00    -0.627 A  
HETATM   21  C   UNL     1     -13.091  15.333  70.968  1.00  0.00    -0.544 A  
ENDBRANCH  15  16
ENDBRANCH  14  15
BRANCH  14  22
HETATM   22  C   UNL     1     -11.677  10.135  68.466  1.00  0.00     0.245 C  
HETATM   23  O   UNL     1     -10.996   8.890  68.672  1.00  0.00    -0.438 OA 
HETATM   24  H   UNL     1     -10.592   8.589  67.867  1.00  0.00     0.000 HD 
BRANCH  22  25
HETATM   25  C   UNL     1     -10.789  11.127  67.689  1.00  0.00    -0.247 C  
BRANCH  25  26
HETATM   26  N   UNL     1      -9.421  11.508  68.246  1.00  0.00    -0.184 N  
BRANCH  26  27
HETATM   27  C   UNL     1      -8.363  10.476  67.857  1.00  0.00    -0.115 C  
HETATM   28  C   UNL     1      -6.990  10.502  68.564  1.00  0.00    -0.066 C  
HETATM   29  C   UNL     1      -7.058  10.246  70.067  1.00  0.00    -0.161 C  
HETATM   30  C   UNL     1      -6.086   9.416  67.949  1.00  0.00    -0.053 C  
ENDBRANCH  26  27
BRANCH  26  31
HETATM   31  S   UNL     1      -9.000  13.128  67.690  1.00  0.00    -0.205 S  
HETATM   32  O   UNL     1      -9.389  14.082  68.699  1.00  0.00    -0.196 OA 
HETATM   33  O   UNL     1      -7.634  13.049  67.206  1.00  0.00    -0.152 OA 
BRANCH  31  34
HETATM   34  C   UNL     1     -10.055  13.404  66.268  1.00  0.00    -0.299 A  
HETATM   35  C   UNL     1     -12.109  14.247  65.312  1.00  0.00    -0.400 A  
HETATM   36  C   UNL     1     -11.256  14.097  66.416  1.00  0.00    -0.328 A  
HETATM   37  C   UNL     1     -11.798  13.677  64.073  1.00  0.00    -0.400 A  
HETATM   38  N   UNL     1     -12.600  13.921  62.957  1.00  0.00    -0.908 NA 
HETATM   39  C   UNL     1     -10.553  13.061  63.922  1.00  0.00    -0.292 A  
HETATM   40  H1  UNL     1     -12.373  13.505  62.054  1.00  0.00     0.000 HD 
HETATM   41  C   UNL     1      -9.686  12.907  65.013  1.00  0.00     0.049 A  
HETATM   42  H2  UNL     1     -12.676  14.931  62.834  1.00  0.00     0.000 HD 
ENDBRANCH  31  34
ENDBRANCH  26  31
ENDBRANCH  25  26
ENDBRANCH  22  25
ENDBRANCH  14  22
ENDBRANCH  12  14
ENDBRANCH   9  10
ENDBRANCH   8   9
TORSDOF 11
ENDMDL
MODEL      223
REMARK 921   NORMALIZED FREE ENERGY PREDICTED BY IDOCK:   -4.73 KCAL/MOL
REMARK 922        TOTAL FREE ENERGY PREDICTED BY IDOCK:  -10.39 KCAL/MOL
REMARK 923 INTER-LIGAND FREE ENERGY PREDICTED BY IDOCK:   -9.33 KCAL/MOL
REMARK 924 INTRA-LIGAND FREE ENERGY PREDICTED BY IDOCK:   -1.07 KCAL/MOL
REMARK 927      BINDING AFFINITY PREDICTED BY RF-SCORE:    0.00 PKD
ROOT
HETATM    1  C   UNL     1      -8.058   6.843  67.242  1.00  0.00    -0.118 C  
HETATM    2  C   UNL     1      -6.645   6.482  67.661  1.00  0.00    -0.061 C  
HETATM    3  C   UNL     1      -6.053   5.778  66.455  1.00  0.00    -0.026 C  
HETATM    4  O   UNL     1      -7.008   5.829  65.396  1.00  0.00    -0.060 OA 
HETATM    5  C   UNL     1      -7.995   6.793  65.735  1.00  0.00    -0.112 C  
HETATM    6  O   UNL     1      -7.618   8.102  65.311  1.00  0.00    -0.085 OA 
HETATM    7  C   UNL     1      -8.143   9.029  66.267  1.00  0.00    -0.110 C  
HETATM    8  C   UNL     1      -8.524   8.258  67.531  1.00  0.00    -0.130 C  
ENDROOT
BRANCH   8   9
HETATM    9  O   UNL     1      -7.832   8.839  68.649  1.00  0.00    -0.099 OA 
BRANCH   9  10
HETATM   10  C   UNL     1      -8.595   9.180  69.716  1.00  0.00    -0.142 C  
HETATM   11  O   UNL     1      -8.169   9.631  70.766  1.00  0.00    -0.273 OA 
HETATM   12  N   UNL     1      -9.890   8.845  69.446  1.00  0.00    -0.179 N  
HETATM   13  H   UNL     1     -10.129   8.570  68.493  1.00  0.00     0.000 HD 
BRANCH  12  14
HETATM   14  C   UNL     1     -10.960   8.861  70.455  1.00  0.00    -0.241 C  
BRANCH  14  15
HETATM   15  C   UNL     1     -10.436   8.404  71.856  1.00  0.00    -0.366 C  
BRANCH  15  16
HETATM   16  C   UNL     1     -10.429   6.907  72.119  1.00  0.00    -0.230 A  
HETATM   17  C   UNL     1      -9.994   6.013  71.131  1.00  0.00    -0.227 A  
HETATM   18  C   UNL     1     -10.893   6.385  73.336  1.00  0.00    -0.243 A  
HETATM   19  C   UNL     1     -10.027   4.634  71.354  1.00  0.00    -0.267 A  
HETATM   20  C   UNL     1     -10.483   4.130  72.571  1.00  0.00    -0.205 A  
HETATM   21  C   UNL     1     -10.909   5.006  73.566  1.00  0.00    -0.369 A  
ENDBRANCH  15  16
ENDBRANCH  14  15
BRANCH  14  22
HETATM   22  C   UNL     1     -11.694  10.231  70.574  1.00  0.00    -0.331 C  
HETATM   23  O   UNL     1     -13.090  10.087  70.277  1.00  0.00    -0.591 OA 
HETATM   24  H   UNL     1     -13.538  10.922  70.350  1.00  0.00     0.000 HD 
BRANCH  22  25
HETATM   25  C   UNL     1     -11.094  11.440  69.829  1.00  0.00    -0.126 C  
BRANCH  25  26
HETATM   26  N   UNL     1     -12.017  12.533  69.302  1.00  0.00    -0.281 N  
BRANCH  26  27
HETATM   27  C   UNL     1     -11.914  13.798  70.154  1.00  0.00    -0.334 C  
HETATM   28  C   UNL     1     -13.138  14.252  70.978  1.00  0.00    -0.394 C  
HETATM   29  C   UNL     1     -13.574  13.255  72.050  1.00  0.00    -0.573 C  
HETATM   30  C   UNL     1     -12.805  15.578  71.688  1.00  0.00    -0.518 C  
ENDBRANCH  26  27
BRANCH  26  31
HETATM   31  S   UNL     1     -11.637  12.845  67.608  1.00  0.00    -0.369 S  
HETATM   32  O   UNL     1     -11.716  11.604  66.878  1.00  0.00    -0.552 OA 
HETATM   33  O   UNL     1     -12.421  14.004  67.222  1.00  0.00    -0.260 OA 
BRANCH  31  34
HETATM   34  C   UNL     1      -9.916  13.344  67.618  1.00  0.00    -0.229 A  
HETATM   35  C   UNL     1      -8.215  15.014  67.216  1.00  0.00    -0.236 A  
HETATM   36  C   UNL     1      -9.569  14.651  67.274  1.00  0.00    -0.221 A  
HETATM   37  C   UNL     1      -7.202  14.078  67.453  1.00  0.00    -0.095 A  
HETATM   38  N   UNL     1      -5.865  14.474  67.496  1.00  0.00    -0.349 NA 
HETATM   39  C   UNL     1      -7.570  12.799  67.878  1.00  0.00    -0.138 A  
HETATM   40  H1  UNL     1      -5.127  13.792  67.669  1.00  0.00     0.000 HD 
HETATM   41  C   UNL     1      -8.918  12.422  67.948  1.00  0.00    -0.184 A  
HETATM   42  H2  UNL     1      -5.775  15.223  68.183  1.00  0.00     0.000 HD 
ENDBRANCH  31  34
ENDBRANCH  26  31
ENDBRANCH  25  26
ENDBRANCH  22  25
ENDBRANCH  14  22
ENDBRANCH  12  14
ENDBRANCH   9  10
ENDBRANCH   8   9
TORSDOF 11
ENDMDL
MODEL      224
REMARK 921   NORMALIZED FREE ENERGY PREDICTED BY IDOCK:   -4.73 KCAL/MOL
REMARK 922        TOTAL FREE ENERGY PREDICTED BY IDOCK:  -10.39 KCAL/MOL
REMARK 923 INTER-LIGAND FREE ENERGY PREDICTED BY IDOCK:   -8.90 KCAL/MOL
REMARK 924 INTRA-LIGAND FREE ENERGY PREDICTED BY IDOCK:   -1.49 KCAL/MOL
REMARK 927      BINDING AFFINITY PREDICTED BY RF-SCORE:    0.00 PKD
ROOT
HETATM    1  C   UNL     1      -5.757   9.488  67.602  1.00  0.00    -0.040 C  
HETATM    2  C   UNL     1      -6.525  10.302  66.577  1.00  0.00    -0.080 C  
HETATM    3  C   UNL     1      -6.450   9.486  65.302  1.00  0.00    -0.078 C  
HETATM    4  O   UNL     1      -5.790   8.256  65.597  1.00  0.00    -0.043 OA 
HETATM    5  C   UNL     1      -5.754   8.100  67.009  1.00  0.00    -0.038 C  
HETATM    6  O   UNL     1      -6.931   7.458  67.497  1.00  0.00    -0.074 OA 
HETATM    7  C   UNL     1      -7.207   7.999  68.793  1.00  0.00    -0.083 C  
HETATM    8  C   UNL     1      -6.409   9.293  68.959  1.00  0.00    -0.043 C  
ENDROOT
BRANCH   8   9
HETATM    9  O   UNL     1      -7.320  10.357  69.280  1.00  0.00    -0.082 OA 
BRANCH   9  10
HETATM   10  C   UNL     1      -8.498   9.989  69.842  1.00  0.00    -0.150 C  
HETATM   11  O   UNL     1      -8.626   9.531  70.964  1.00  0.00    -0.273 OA 
HETATM   12  N   UNL     1      -9.484  10.133  68.909  1.00  0.00    -0.172 N  
HETATM   13  H   UNL     1      -9.262  10.622  68.042  1.00  0.00     0.000 HD 
BRANCH  12  14
HETATM   14  C   UNL     1     -10.851   9.619  69.089  1.00  0.00    -0.190 C  
BRANCH  14  15
HETATM   15  C   UNL     1     -10.853   8.214  69.775  1.00  0.00    -0.190 C  
BRANCH  15  16
HETATM   16  C   UNL     1     -10.650   7.017  68.861  1.00  0.00    -0.233 A  
HETATM   17  C   UNL     1     -10.137   5.815  69.366  1.00  0.00    -0.277 A  
HETATM   18  C   UNL     1     -10.934   7.099  67.488  1.00  0.00    -0.261 A  
HETATM   19  C   UNL     1      -9.909   4.726  68.520  1.00  0.00    -0.198 A  
HETATM   20  C   UNL     1     -10.203   4.820  67.160  1.00  0.00    -0.181 A  
HETATM   21  C   UNL     1     -10.722   6.004  66.645  1.00  0.00    -0.315 A  
ENDBRANCH  15  16
ENDBRANCH  14  15
BRANCH  14  22
HETATM   22  C   UNL     1     -11.796  10.595  69.855  1.00  0.00    -0.315 C  
HETATM   23  O   UNL     1     -13.081  10.662  69.221  1.00  0.00    -0.425 OA 
HETATM   24  H   UNL     1     -13.656  11.256  69.688  1.00  0.00     0.000 HD 
BRANCH  22  25
HETATM   25  C   UNL     1     -11.267  12.007  70.180  1.00  0.00     0.325 C  
BRANCH  25  26
HETATM   26  N   UNL     1     -11.748  13.198  69.357  1.00  0.00    -0.312 N  
BRANCH  26  27
HETATM   27  C   UNL     1     -12.237  14.329  70.262  1.00  0.00    -0.342 C  
HETATM   28  C   UNL     1     -13.566  14.158  71.028  1.00  0.00    -0.171 C  
HETATM   29  C   UNL     1     -13.564  13.008  72.033  1.00  0.00    -0.530 C  
HETATM   30  C   UNL     1     -13.869  15.453  71.805  1.00  0.00    -0.620 C  
ENDBRANCH  26  27
BRANCH  26  31
HETATM   31  S   UNL     1     -10.449  13.722  68.285  1.00  0.00    -0.252 S  
HETATM   32  O   UNL     1     -10.506  15.157  68.154  1.00  0.00    -0.239 OA 
HETATM   33  O   UNL     1      -9.247  13.049  68.744  1.00  0.00    -0.018 OA 
BRANCH  31  34
HETATM   34  C   UNL     1     -10.874  13.028  66.689  1.00  0.00    -0.275 A  
HETATM   35  C   UNL     1     -10.223  11.900  64.653  1.00  0.00    -0.316 A  
HETATM   36  C   UNL     1      -9.899  12.379  65.932  1.00  0.00    -0.265 A  
HETATM   37  C   UNL     1     -11.494  12.100  64.104  1.00  0.00    -0.387 A  
HETATM   38  N   UNL     1     -11.836  11.529  62.877  1.00  0.00    -0.743 NA 
HETATM   39  C   UNL     1     -12.479  12.676  64.909  1.00  0.00    -0.564 A  
HETATM   40  H1  UNL     1     -12.763  11.676  62.477  1.00  0.00     0.000 HD 
HETATM   41  C   UNL     1     -12.175  13.154  66.191  1.00  0.00    -0.451 A  
HETATM   42  H2  UNL     1     -11.668  10.525  62.934  1.00  0.00     0.000 HD 
ENDBRANCH  31  34
ENDBRANCH  26  31
ENDBRANCH  25  26
ENDBRANCH  22  25
ENDBRANCH  14  22
ENDBRANCH  12  14
ENDBRANCH   9  10
ENDBRANCH   8   9
TORSDOF 11
ENDMDL
MODEL      225
REMARK 921   NORMALIZED FREE ENERGY PREDICTED BY IDOCK:   -4.73 KCAL/MOL
REMARK 922        TOTAL FREE ENERGY PREDICTED BY IDOCK:  -10.39 KCAL/MOL
REMARK 923 INTER-LIGAND FREE ENERGY PREDICTED BY IDOCK:   -8.76 KCAL/MOL
REMARK 924 INTRA-LIGAND FREE ENERGY PREDICTED BY IDOCK:   -1.62 KCAL/MOL
REMARK 927      BINDING AFFINITY PREDICTED BY RF-SCORE:    0.00 PKD
ROOT
HETATM    1  C   UNL     1      -6.933  19.200  68.026  1.00  0.00    -0.260 C  
HETATM    2  C   UNL     1      -8.081  20.140  67.709  1.00  0.00    -0.297 C  
HETATM    3  C   UNL     1      -7.421  21.367  67.109  1.00  0.00     0.287 C  
HETATM    4  O   UNL     1      -6.023  21.108  66.990  1.00  0.00    -0.244 OA 
HETATM    5  C   UNL     1      -5.816  19.711  67.149  1.00  0.00    -0.174 C  
HETATM    6  O   UNL     1      -5.938  19.018  65.908  1.00  0.00    -0.161 OA 
HETATM    7  C   UNL     1      -6.485  17.726  66.192  1.00  0.00    -0.260 C  
HETATM    8  C   UNL     1      -7.087  17.752  67.598  1.00  0.00    -0.186 C  
ENDROOT
BRANCH   8   9
HETATM    9  O   UNL     1      -8.466  17.356  67.514  1.00  0.00    -0.210 OA 
BRANCH   9  10
HETATM   10  C   UNL     1      -8.984  16.751  68.612  1.00  0.00    -0.251 C  
HETATM   11  O   UNL     1      -9.120  17.277  69.703  1.00  0.00     0.382 OA 
HETATM   12  N   UNL     1      -9.233  15.444  68.306  1.00  0.00    -0.185 N  
HETATM   13  H   UNL     1      -9.171  15.156  67.330  1.00  0.00     0.000 HD 
BRANCH  12  14
HETATM   14  C   UNL     1      -9.586  14.430  69.312  1.00  0.00     0.121 C  
BRANCH  14  15
HETATM   15  C   UNL     1     -11.116  14.112  69.296  1.00  0.00    -0.286 C  
BRANCH  15  16
HETATM   16  C   UNL     1     -11.864  14.329  70.602  1.00  0.00    -0.349 A  
HETATM   17  C   UNL     1     -11.625  15.471  71.378  1.00  0.00    -0.481 A  
HETATM   18  C   UNL     1     -12.780  13.378  71.077  1.00  0.00    -0.387 A  
HETATM   19  C   UNL     1     -12.279  15.653  72.599  1.00  0.00    -0.541 A  
HETATM   20  C   UNL     1     -13.191  14.702  73.055  1.00  0.00    -0.587 A  
HETATM   21  C   UNL     1     -13.448  13.568  72.290  1.00  0.00    -0.669 A  
ENDBRANCH  15  16
ENDBRANCH  14  15
BRANCH  14  22
HETATM   22  C   UNL     1      -8.759  13.113  69.196  1.00  0.00     0.668 C  
HETATM   23  O   UNL     1      -7.375  13.354  69.484  1.00  0.00    -0.312 OA 
HETATM   24  H   UNL     1      -6.871  12.551  69.414  1.00  0.00     0.000 HD 
BRANCH  22  25
HETATM   25  C   UNL     1      -8.918  12.271  67.914  1.00  0.00    -0.186 C  
BRANCH  25  26
HETATM   26  N   UNL     1      -9.297  10.798  68.024  1.00  0.00    -0.147 N  
BRANCH  26  27
HETATM   27  C   UNL     1      -9.452  10.378  69.486  1.00  0.00    -0.139 C  
HETATM   28  C   UNL     1      -9.124   8.925  69.890  1.00  0.00    -0.166 C  
HETATM   29  C   UNL     1      -7.668   8.527  69.663  1.00  0.00    -0.093 C  
HETATM   30  C   UNL     1      -9.426   8.739  71.390  1.00  0.00    -0.330 C  
ENDBRANCH  26  27
BRANCH  26  31
HETATM   31  S   UNL     1     -10.767  10.508  67.094  1.00  0.00    -0.245 S  
HETATM   32  O   UNL     1     -10.537   9.406  66.192  1.00  0.00    -0.065 OA 
HETATM   33  O   UNL     1     -11.858  10.490  68.052  1.00  0.00    -0.425 OA 
BRANCH  31  34
HETATM   34  C   UNL     1     -10.963  11.980  66.091  1.00  0.00    -0.302 A  
HETATM   35  C   UNL     1     -10.162  13.453  64.349  1.00  0.00    -0.262 A  
HETATM   36  C   UNL     1     -10.041  12.263  65.083  1.00  0.00    -0.284 A  
HETATM   37  C   UNL     1     -11.165  14.385  64.639  1.00  0.00    -0.360 A  
HETATM   38  N   UNL     1     -11.339  15.513  63.837  1.00  0.00    -0.484 NA 
HETATM   39  C   UNL     1     -12.127  14.045  65.593  1.00  0.00    -0.432 A  
HETATM   40  H1  UNL     1     -12.070  16.192  64.048  1.00  0.00     0.000 HD 
HETATM   41  C   UNL     1     -12.026  12.858  66.331  1.00  0.00    -0.462 A  
HETATM   42  H2  UNL     1     -11.460  15.203  62.872  1.00  0.00     0.000 HD 
ENDBRANCH  31  34
ENDBRANCH  26  31
ENDBRANCH  25  26
ENDBRANCH  22  25
ENDBRANCH  14  22
ENDBRANCH  12  14
ENDBRANCH   9  10
ENDBRANCH   8   9
TORSDOF 11
ENDMDL
MODEL      226
REMARK 921   NORMALIZED FREE ENERGY PREDICTED BY IDOCK:   -4.72 KCAL/MOL
REMARK 922        TOTAL FREE ENERGY PREDICTED BY IDOCK:  -10.38 KCAL/MOL
REMARK 923 INTER-LIGAND FREE ENERGY PREDICTED BY IDOCK:   -9.55 KCAL/MOL
REMARK 924 INTRA-LIGAND FREE ENERGY PREDICTED BY IDOCK:   -0.83 KCAL/MOL
REMARK 927      BINDING AFFINITY PREDICTED BY RF-SCORE:    0.00 PKD
ROOT
HETATM    1  C   UNL     1     -12.977  15.534  71.130  1.00  0.00    -0.560 C  
HETATM    2  C   UNL     1     -12.085  15.978  72.275  1.00  0.00    -0.617 C  
HETATM    3  C   UNL     1     -12.697  15.343  73.509  1.00  0.00    -0.559 C  
HETATM    4  O   UNL     1     -13.783  14.517  73.094  1.00  0.00    -0.536 OA 
HETATM    5  C   UNL     1     -13.681  14.322  71.690  1.00  0.00    -0.386 C  
HETATM    6  O   UNL     1     -12.853  13.204  71.375  1.00  0.00    -0.365 OA 
HETATM    7  C   UNL     1     -12.182  13.501  70.146  1.00  0.00    -0.330 C  
HETATM    8  C   UNL     1     -12.291  15.004  69.885  1.00  0.00    -0.275 C  
ENDROOT
BRANCH   8   9
HETATM    9  O   UNL     1     -10.967  15.540  69.726  1.00  0.00    -0.247 OA 
BRANCH   9  10
HETATM   10  C   UNL     1     -10.389  15.361  68.513  1.00  0.00    -0.226 C  
HETATM   11  O   UNL     1     -10.901  15.647  67.444  1.00  0.00    -0.312 OA 
HETATM   12  N   UNL     1      -9.193  14.730  68.694  1.00  0.00    -0.191 N  
HETATM   13  H   UNL     1      -8.833  14.639  69.644  1.00  0.00     0.000 HD 
BRANCH  12  14
HETATM   14  C   UNL     1      -8.394  14.174  67.590  1.00  0.00    -0.182 C  
BRANCH  14  15
HETATM   15  C   UNL     1      -7.043  14.939  67.415  1.00  0.00    -0.194 C  
BRANCH  15  16
HETATM   16  C   UNL     1      -7.129  16.456  67.356  1.00  0.00    -0.190 A  
HETATM   17  C   UNL     1      -6.768  17.233  68.465  1.00  0.00    -0.185 A  
HETATM   18  C   UNL     1      -7.605  17.109  66.208  1.00  0.00    -0.352 A  
HETATM   19  C   UNL     1      -6.886  18.625  68.428  1.00  0.00    -0.265 A  
HETATM   20  C   UNL     1      -7.354  19.260  67.279  1.00  0.00    -0.244 A  
HETATM   21  C   UNL     1      -7.707  18.502  66.165  1.00  0.00    -0.253 A  
ENDBRANCH  15  16
ENDBRANCH  14  15
BRANCH  14  22
HETATM   22  C   UNL     1      -8.135  12.641  67.709  1.00  0.00    -0.166 C  
HETATM   23  O   UNL     1      -8.922  12.072  68.765  1.00  0.00    -0.369 OA 
HETATM   24  H   UNL     1      -8.765  11.138  68.838  1.00  0.00     0.000 HD 
BRANCH  22  25
HETATM   25  C   UNL     1      -6.673  12.160  67.791  1.00  0.00    -0.103 C  
BRANCH  25  26
HETATM   26  N   UNL     1      -6.379  10.685  68.051  1.00  0.00    -0.058 N  
BRANCH  26  27
HETATM   27  C   UNL     1      -7.224  10.154  69.209  1.00  0.00    -0.085 C  
HETATM   28  C   UNL     1      -6.546   9.309  70.309  1.00  0.00    -0.062 C  
HETATM   29  C   UNL     1      -5.473  10.056  71.097  1.00  0.00    -0.079 C  
HETATM   30  C   UNL     1      -7.615   8.838  71.314  1.00  0.00    -0.134 C  
ENDBRANCH  26  27
BRANCH  26  31
HETATM   31  S   UNL     1      -6.643   9.772  66.566  1.00  0.00    -0.073 S  
HETATM   32  O   UNL     1      -6.958  10.694  65.503  1.00  0.00    -0.128 OA 
HETATM   33  O   UNL     1      -5.535   8.841  66.459  1.00  0.00    -0.034 OA 
BRANCH  31  34
HETATM   34  C   UNL     1      -8.120   8.809  66.886  1.00  0.00    -0.101 A  
HETATM   35  C   UNL     1      -9.168   6.762  67.630  1.00  0.00    -0.118 A  
HETATM   36  C   UNL     1      -8.013   7.537  67.448  1.00  0.00    -0.116 A  
HETATM   37  C   UNL     1     -10.423   7.223  67.217  1.00  0.00    -0.310 A  
HETATM   38  N   UNL     1     -11.576   6.489  67.498  1.00  0.00    -0.610 NA 
HETATM   39  C   UNL     1     -10.522   8.530  66.735  1.00  0.00    -0.308 A  
HETATM   40  H1  UNL     1     -12.491   6.825  67.197  1.00  0.00     0.000 HD 
HETATM   41  C   UNL     1      -9.379   9.321  66.553  1.00  0.00    -0.231 A  
HETATM   42  H2  UNL     1     -11.613   6.324  68.504  1.00  0.00     0.000 HD 
ENDBRANCH  31  34
ENDBRANCH  26  31
ENDBRANCH  25  26
ENDBRANCH  22  25
ENDBRANCH  14  22
ENDBRANCH  12  14
ENDBRANCH   9  10
ENDBRANCH   8   9
TORSDOF 11
ENDMDL
MODEL      227
REMARK 921   NORMALIZED FREE ENERGY PREDICTED BY IDOCK:   -4.70 KCAL/MOL
REMARK 922        TOTAL FREE ENERGY PREDICTED BY IDOCK:  -10.34 KCAL/MOL
REMARK 923 INTER-LIGAND FREE ENERGY PREDICTED BY IDOCK:   -8.89 KCAL/MOL
REMARK 924 INTRA-LIGAND FREE ENERGY PREDICTED BY IDOCK:   -1.45 KCAL/MOL
REMARK 927      BINDING AFFINITY PREDICTED BY RF-SCORE:    0.00 PKD
ROOT
HETATM    1  C   UNL     1      -8.345  17.279  67.857  1.00  0.00    -0.220 C  
HETATM    2  C   UNL     1      -9.559  17.126  66.958  1.00  0.00    -0.262 C  
HETATM    3  C   UNL     1      -9.813  18.519  66.414  1.00  0.00    -0.361 C  
HETATM    4  O   UNL     1      -8.769  19.375  66.875  1.00  0.00    -0.281 OA 
HETATM    5  C   UNL     1      -7.716  18.562  67.372  1.00  0.00    -0.227 C  
HETATM    6  O   UNL     1      -6.806  18.191  66.338  1.00  0.00    -0.194 OA 
HETATM    7  C   UNL     1      -6.315  16.883  66.650  1.00  0.00    -0.179 C  
HETATM    8  C   UNL     1      -7.235  16.256  67.699  1.00  0.00    -0.140 C  
ENDROOT
BRANCH   8   9
HETATM    9  O   UNL     1      -7.722  15.003  67.192  1.00  0.00    -0.202 OA 
BRANCH   9  10
HETATM   10  C   UNL     1      -8.356  14.201  68.083  1.00  0.00    -0.161 C  
HETATM   11  O   UNL     1      -7.993  14.003  69.229  1.00  0.00     0.063 OA 
HETATM   12  N   UNL     1      -9.401  13.594  67.449  1.00  0.00    -0.218 N  
HETATM   13  H   UNL     1      -9.659  13.924  66.519  1.00  0.00     0.000 HD 
BRANCH  12  14
HETATM   14  C   UNL     1     -10.175  12.489  68.036  1.00  0.00    -0.225 C  
BRANCH  14  15
HETATM   15  C   UNL     1     -11.634  12.448  67.478  1.00  0.00    -0.431 C  
BRANCH  15  16
HETATM   16  C   UNL     1     -11.802  12.771  66.003  1.00  0.00    -0.495 A  
HETATM   17  C   UNL     1     -12.671  13.790  65.592  1.00  0.00    -0.523 A  
HETATM   18  C   UNL     1     -11.123  12.034  65.019  1.00  0.00    -0.368 A  
HETATM   19  C   UNL     1     -12.860  14.062  64.234  1.00  0.00     0.231 A  
HETATM   20  C   UNL     1     -12.173  13.326  63.269  1.00  0.00    -0.387 A  
HETATM   21  C   UNL     1     -11.299  12.317  63.662  1.00  0.00    -0.547 A  
ENDBRANCH  15  16
ENDBRANCH  14  15
BRANCH  14  22
HETATM   22  C   UNL     1      -9.498  11.093  67.882  1.00  0.00    -0.175 C  
HETATM   23  O   UNL     1      -8.658  11.060  66.719  1.00  0.00    -0.142 OA 
HETATM   24  H   UNL     1      -8.246  10.210  66.625  1.00  0.00     0.000 HD 
BRANCH  22  25
HETATM   25  C   UNL     1     -10.397   9.843  67.948  1.00  0.00    -0.212 C  
BRANCH  25  26
HETATM   26  N   UNL     1     -10.076   8.737  68.948  1.00  0.00    -0.193 N  
BRANCH  26  27
HETATM   27  C   UNL     1      -8.721   8.097  68.642  1.00  0.00    -0.134 C  
HETATM   28  C   UNL     1      -8.520   6.592  68.920  1.00  0.00    -0.122 C  
HETATM   29  C   UNL     1      -9.426   5.679  68.098  1.00  0.00    -0.125 C  
HETATM   30  C   UNL     1      -7.063   6.210  68.598  1.00  0.00    -0.082 C  
ENDBRANCH  26  27
BRANCH  26  31
HETATM   31  S   UNL     1     -10.141   9.397  70.582  1.00  0.00    -0.296 S  
HETATM   32  O   UNL     1      -8.838   9.905  70.931  1.00  0.00    -0.005 OA 
HETATM   33  O   UNL     1     -11.323  10.238  70.633  1.00  0.00    -0.313 OA 
BRANCH  31  34
HETATM   34  C   UNL     1     -10.452   7.976  71.629  1.00  0.00    -0.219 A  
HETATM   35  C   UNL     1     -11.530   5.846  72.008  1.00  0.00    -0.311 A  
HETATM   36  C   UNL     1     -11.233   6.922  71.157  1.00  0.00    -0.314 A  
HETATM   37  C   UNL     1     -11.094   5.831  73.338  1.00  0.00    -0.151 A  
HETATM   38  N   UNL     1     -11.306   4.711  74.142  1.00  0.00    -0.212 NA 
HETATM   39  C   UNL     1     -10.244   6.854  73.766  1.00  0.00    -0.396 A  
HETATM   40  H1  UNL     1     -10.988   4.700  75.111  1.00  0.00     0.000 HD 
HETATM   41  C   UNL     1      -9.932   7.932  72.927  1.00  0.00    -0.360 A  
HETATM   42  H2  UNL     1     -10.911   3.898  73.668  1.00  0.00     0.000 HD 
ENDBRANCH  31  34
ENDBRANCH  26  31
ENDBRANCH  25  26
ENDBRANCH  22  25
ENDBRANCH  14  22
ENDBRANCH  12  14
ENDBRANCH   9  10
ENDBRANCH   8   9
TORSDOF 11
ENDMDL
MODEL      228
REMARK 921   NORMALIZED FREE ENERGY PREDICTED BY IDOCK:   -4.70 KCAL/MOL
REMARK 922        TOTAL FREE ENERGY PREDICTED BY IDOCK:  -10.34 KCAL/MOL
REMARK 923 INTER-LIGAND FREE ENERGY PREDICTED BY IDOCK:   -9.47 KCAL/MOL
REMARK 924 INTRA-LIGAND FREE ENERGY PREDICTED BY IDOCK:   -0.87 KCAL/MOL
REMARK 927      BINDING AFFINITY PREDICTED BY RF-SCORE:    0.00 PKD
ROOT
HETATM    1  C   UNL     1      -7.801  17.013  68.683  1.00  0.00    -0.257 C  
HETATM    2  C   UNL     1      -8.966  17.916  69.045  1.00  0.00    -0.013 C  
HETATM    3  C   UNL     1      -8.916  19.038  68.025  1.00  0.00    -0.308 C  
HETATM    4  O   UNL     1      -7.877  18.745  67.092  1.00  0.00    -0.233 OA 
HETATM    5  C   UNL     1      -7.510  17.382  67.249  1.00  0.00    -0.188 C  
HETATM    6  O   UNL     1      -8.321  16.524  66.448  1.00  0.00    -0.267 OA 
HETATM    7  C   UNL     1      -8.474  15.292  67.160  1.00  0.00    -0.209 C  
HETATM    8  C   UNL     1      -8.076  15.522  68.619  1.00  0.00    -0.159 C  
ENDROOT
BRANCH   8   9
HETATM    9  O   UNL     1      -9.175  15.137  69.461  1.00  0.00    -0.212 OA 
BRANCH   9  10
HETATM   10  C   UNL     1     -10.202  14.497  68.851  1.00  0.00    -0.229 C  
HETATM   11  O   UNL     1     -11.299  14.982  68.633  1.00  0.00    -0.267 OA 
HETATM   12  N   UNL     1      -9.828  13.206  68.615  1.00  0.00    -0.400 N  
HETATM   13  H   UNL     1      -8.848  12.954  68.752  1.00  0.00     0.000 HD 
BRANCH  12  14
HETATM   14  C   UNL     1     -10.761  12.158  68.174  1.00  0.00    -0.211 C  
BRANCH  14  15
HETATM   15  C   UNL     1     -10.340  11.556  66.794  1.00  0.00    -0.262 C  
BRANCH  15  16
HETATM   16  C   UNL     1     -10.999  12.160  65.564  1.00  0.00    -0.343 A  
HETATM   17  C   UNL     1     -11.573  13.437  65.620  1.00  0.00    -0.350 A  
HETATM   18  C   UNL     1     -11.080  11.442  64.361  1.00  0.00    -0.329 A  
HETATM   19  C   UNL     1     -12.217  13.978  64.503  1.00  0.00    -0.463 A  
HETATM   20  C   UNL     1     -12.284  13.256  63.313  1.00  0.00    -0.387 A  
HETATM   21  C   UNL     1     -11.709  11.990  63.240  1.00  0.00    -0.425 A  
ENDBRANCH  15  16
ENDBRANCH  14  15
BRANCH  14  22
HETATM   22  C   UNL     1     -10.971  11.020  69.218  1.00  0.00    -0.252 C  
HETATM   23  O   UNL     1     -11.417  11.555  70.472  1.00  0.00    -0.473 OA 
HETATM   24  H   UNL     1     -11.545  10.861  71.109  1.00  0.00     0.000 HD 
BRANCH  22  25
HETATM   25  C   UNL     1      -9.825  10.009  69.426  1.00  0.00    -0.224 C  
BRANCH  25  26
HETATM   26  N   UNL     1     -10.123   8.655  70.061  1.00  0.00    -0.185 N  
BRANCH  26  27
HETATM   27  C   UNL     1     -11.613   8.506  70.365  1.00  0.00    -0.069 C  
HETATM   28  C   UNL     1     -12.068   7.466  71.411  1.00  0.00    -0.357 C  
HETATM   29  C   UNL     1     -11.545   7.729  72.821  1.00  0.00    -0.368 C  
HETATM   30  C   UNL     1     -13.607   7.462  71.482  1.00  0.00    -0.454 C  
ENDBRANCH  26  27
BRANCH  26  31
HETATM   31  S   UNL     1      -9.534   7.376  68.999  1.00  0.00    -0.148 S  
HETATM   32  O   UNL     1      -8.479   6.661  69.673  1.00  0.00    -0.129 OA 
HETATM   33  O   UNL     1     -10.711   6.694  68.493  1.00  0.00    -0.216 OA 
BRANCH  31  34
HETATM   34  C   UNL     1      -8.787   8.244  67.621  1.00  0.00    -0.136 A  
HETATM   35  C   UNL     1      -8.702   8.748  65.258  1.00  0.00    -0.216 A  
HETATM   36  C   UNL     1      -9.333   8.122  66.344  1.00  0.00    -0.269 A  
HETATM   37  C   UNL     1      -7.507   9.458  65.425  1.00  0.00    -0.099 A  
HETATM   38  N   UNL     1      -6.945  10.162  64.360  1.00  0.00    -0.188 NA 
HETATM   39  C   UNL     1      -7.022   9.639  66.723  1.00  0.00    -0.085 A  
HETATM   40  H1  UNL     1      -6.074  10.679  64.482  1.00  0.00     0.000 HD 
HETATM   41  C   UNL     1      -7.644   9.026  67.819  1.00  0.00    -0.093 A  
HETATM   42  H2  UNL     1      -7.649  10.804  63.995  1.00  0.00     0.000 HD 
ENDBRANCH  31  34
ENDBRANCH  26  31
ENDBRANCH  25  26
ENDBRANCH  22  25
ENDBRANCH  14  22
ENDBRANCH  12  14
ENDBRANCH   9  10
ENDBRANCH   8   9
TORSDOF 11
ENDMDL
MODEL      229
REMARK 921   NORMALIZED FREE ENERGY PREDICTED BY IDOCK:   -4.68 KCAL/MOL
REMARK 922        TOTAL FREE ENERGY PREDICTED BY IDOCK:  -10.32 KCAL/MOL
REMARK 923 INTER-LIGAND FREE ENERGY PREDICTED BY IDOCK:   -8.31 KCAL/MOL
REMARK 924 INTRA-LIGAND FREE ENERGY PREDICTED BY IDOCK:   -2.00 KCAL/MOL
REMARK 927      BINDING AFFINITY PREDICTED BY RF-SCORE:    0.00 PKD
ROOT
HETATM    1  C   UNL     1      -8.346   5.457  66.161  1.00  0.00    -0.117 C  
HETATM    2  C   UNL     1      -7.064   5.172  66.920  1.00  0.00    -0.073 C  
HETATM    3  C   UNL     1      -6.980   3.658  66.982  1.00  0.00    -0.055 C  
HETATM    4  O   UNL     1      -8.066   3.122  66.227  1.00  0.00    -0.087 OA 
HETATM    5  C   UNL     1      -8.610   4.164  65.430  1.00  0.00    -0.118 C  
HETATM    6  O   UNL     1      -7.936   4.273  64.176  1.00  0.00    -0.086 OA 
HETATM    7  C   UNL     1      -7.938   5.656  63.809  1.00  0.00    -0.120 C  
HETATM    8  C   UNL     1      -8.276   6.487  65.048  1.00  0.00    -0.115 C  
ENDROOT
BRANCH   8   9
HETATM    9  O   UNL     1      -7.224   7.443  65.261  1.00  0.00    -0.065 OA 
BRANCH   9  10
HETATM   10  C   UNL     1      -7.614   8.715  65.525  1.00  0.00    -0.087 C  
HETATM   11  O   UNL     1      -6.860   9.642  65.766  1.00  0.00    -0.087 OA 
HETATM   12  N   UNL     1      -8.977   8.749  65.564  1.00  0.00    -0.267 N  
HETATM   13  H   UNL     1      -9.491   7.928  65.243  1.00  0.00     0.000 HD 
BRANCH  12  14
HETATM   14  C   UNL     1      -9.745   9.908  66.044  1.00  0.00    -0.247 C  
BRANCH  14  15
HETATM   15  C   UNL     1     -10.405  10.691  64.863  1.00  0.00    -0.347 C  
BRANCH  15  16
HETATM   16  C   UNL     1     -10.781  12.138  65.138  1.00  0.00    -0.333 A  
HETATM   17  C   UNL     1     -12.050  12.622  64.795  1.00  0.00    -0.495 A  
HETATM   18  C   UNL     1      -9.856  13.030  65.705  1.00  0.00    -0.217 A  
HETATM   19  C   UNL     1     -12.384  13.962  65.008  1.00  0.00    -0.452 A  
HETATM   20  C   UNL     1     -11.458  14.834  65.579  1.00  0.00    -0.329 A  
HETATM   21  C   UNL     1     -10.196  14.366  65.935  1.00  0.00    -0.341 A  
ENDBRANCH  15  16
ENDBRANCH  14  15
BRANCH  14  22
HETATM   22  C   UNL     1     -10.816   9.553  67.120  1.00  0.00    -0.086 C  
HETATM   23  O   UNL     1     -11.342  10.742  67.727  1.00  0.00    -0.358 OA 
HETATM   24  H   UNL     1     -11.995  10.526  68.382  1.00  0.00     0.000 HD 
BRANCH  22  25
HETATM   25  C   UNL     1     -10.445   8.506  68.190  1.00  0.00    -0.182 C  
BRANCH  25  26
HETATM   26  N   UNL     1     -10.245   8.947  69.637  1.00  0.00    -0.200 N  
BRANCH  26  27
HETATM   27  C   UNL     1     -11.416   8.504  70.513  1.00  0.00    -0.182 C  
HETATM   28  C   UNL     1     -11.931   9.452  71.617  1.00  0.00    -0.465 C  
HETATM   29  C   UNL     1     -12.489  10.774  71.094  1.00  0.00    -0.519 C  
HETATM   30  C   UNL     1     -13.059   8.751  72.398  1.00  0.00    -0.444 C  
ENDBRANCH  26  27
BRANCH  26  31
HETATM   31  S   UNL     1      -8.705   8.321  70.224  1.00  0.00    -0.142 S  
HETATM   32  O   UNL     1      -7.819   8.137  69.102  1.00  0.00    -0.103 OA 
HETATM   33  O   UNL     1      -8.334   9.152  71.356  1.00  0.00    -0.321 OA 
BRANCH  31  34
HETATM   34  C   UNL     1      -9.095   6.693  70.863  1.00  0.00    -0.154 A  
HETATM   35  C   UNL     1      -9.695   4.381  70.487  1.00  0.00    -0.287 A  
HETATM   36  C   UNL     1      -9.321   5.636  69.981  1.00  0.00    -0.183 A  
HETATM   37  C   UNL     1      -9.888   4.181  71.859  1.00  0.00    -0.181 A  
HETATM   38  N   UNL     1     -10.157   2.906  72.359  1.00  0.00    -0.164 NA 
HETATM   39  C   UNL     1      -9.575   5.227  72.731  1.00  0.00    -0.167 A  
HETATM   40  H1  UNL     1     -10.298   2.760  73.358  1.00  0.00     0.000 HD 
HETATM   41  C   UNL     1      -9.194   6.484  72.242  1.00  0.00    -0.138 A  
HETATM   42  H2  UNL     1      -9.416   2.278  72.046  1.00  0.00     0.000 HD 
ENDBRANCH  31  34
ENDBRANCH  26  31
ENDBRANCH  25  26
ENDBRANCH  22  25
ENDBRANCH  14  22
ENDBRANCH  12  14
ENDBRANCH   9  10
ENDBRANCH   8   9
TORSDOF 11
ENDMDL
MODEL      230
REMARK 921   NORMALIZED FREE ENERGY PREDICTED BY IDOCK:   -4.68 KCAL/MOL
REMARK 922        TOTAL FREE ENERGY PREDICTED BY IDOCK:  -10.31 KCAL/MOL
REMARK 923 INTER-LIGAND FREE ENERGY PREDICTED BY IDOCK:   -9.36 KCAL/MOL
REMARK 924 INTRA-LIGAND FREE ENERGY PREDICTED BY IDOCK:   -0.95 KCAL/MOL
REMARK 927      BINDING AFFINITY PREDICTED BY RF-SCORE:    0.00 PKD
ROOT
HETATM    1  C   UNL     1      -5.775   7.990  67.329  1.00  0.00    -0.038 C  
HETATM    2  C   UNL     1      -6.627   7.580  66.142  1.00  0.00    -0.046 C  
HETATM    3  C   UNL     1      -6.114   6.207  65.753  1.00  0.00    -0.033 C  
HETATM    4  O   UNL     1      -5.125   5.816  66.705  1.00  0.00    -0.005 OA 
HETATM    5  C   UNL     1      -5.227   6.676  67.830  1.00  0.00    -0.008 C  
HETATM    6  O   UNL     1      -6.175   6.189  68.779  1.00  0.00    -0.032 OA 
HETATM    7  C   UNL     1      -6.787   7.327  69.395  1.00  0.00    -0.050 C  
HETATM    8  C   UNL     1      -6.498   8.558  68.536  1.00  0.00    -0.055 C  
ENDROOT
BRANCH   8   9
HETATM    9  O   UNL     1      -7.748   9.172  68.179  1.00  0.00    -0.091 OA 
BRANCH   9  10
HETATM   10  C   UNL     1      -8.494   9.655  69.203  1.00  0.00    -0.143 C  
HETATM   11  O   UNL     1      -8.049  10.216  70.189  1.00  0.00    -0.146 OA 
HETATM   12  N   UNL     1      -9.798   9.322  68.980  1.00  0.00    -0.162 N  
HETATM   13  H   UNL     1     -10.052   8.943  68.068  1.00  0.00     0.000 HD 
BRANCH  12  14
HETATM   14  C   UNL     1     -10.859   9.483  69.987  1.00  0.00    -0.252 C  
BRANCH  14  15
HETATM   15  C   UNL     1     -10.303   9.326  71.440  1.00  0.00    -0.392 C  
BRANCH  15  16
HETATM   16  C   UNL     1     -10.549   7.986  72.115  1.00  0.00    -0.335 A  
HETATM   17  C   UNL     1      -9.992   7.710  73.371  1.00  0.00    -0.373 A  
HETATM   18  C   UNL     1     -11.304   6.986  71.484  1.00  0.00    -0.290 A  
HETATM   19  C   UNL     1     -10.181   6.464  73.975  1.00  0.00    -0.349 A  
HETATM   20  C   UNL     1     -10.939   5.483  73.339  1.00  0.00    -0.324 A  
HETATM   21  C   UNL     1     -11.508   5.746  72.096  1.00  0.00    -0.295 A  
ENDBRANCH  15  16
ENDBRANCH  14  15
BRANCH  14  22
HETATM   22  C   UNL     1     -11.657  10.816  69.856  1.00  0.00    -0.331 C  
HETATM   23  O   UNL     1     -12.897  10.602  69.168  1.00  0.00    -0.607 OA 
HETATM   24  H   UNL     1     -13.383  11.414  69.088  1.00  0.00     0.000 HD 
BRANCH  22  25
HETATM   25  C   UNL     1     -10.919  12.047  69.290  1.00  0.00    -0.131 C  
BRANCH  25  26
HETATM   26  N   UNL     1     -11.628  12.956  68.292  1.00  0.00    -0.313 N  
BRANCH  26  27
HETATM   27  C   UNL     1     -12.484  13.998  69.012  1.00  0.00     0.100 C  
HETATM   28  C   UNL     1     -12.096  14.435  70.441  1.00  0.00    -0.399 C  
HETATM   29  C   UNL     1     -10.732  15.114  70.537  1.00  0.00    -0.184 C  
HETATM   30  C   UNL     1     -13.147  15.431  70.967  1.00  0.00    -0.565 C  
ENDBRANCH  26  27
BRANCH  26  31
HETATM   31  S   UNL     1     -10.429  13.701  67.235  1.00  0.00    -0.260 S  
HETATM   32  O   UNL     1     -10.942  14.965  66.769  1.00  0.00    -0.314 OA 
HETATM   33  O   UNL     1      -9.159  13.607  67.931  1.00  0.00    -0.181 OA 
BRANCH  31  34
HETATM   34  C   UNL     1     -10.341  12.611  65.816  1.00  0.00    -0.279 A  
HETATM   35  C   UNL     1      -9.711  10.494  64.833  1.00  0.00    -0.360 A  
HETATM   36  C   UNL     1      -9.841  11.317  65.963  1.00  0.00    -0.267 A  
HETATM   37  C   UNL     1     -10.031  10.962  63.554  1.00  0.00    -0.363 A  
HETATM   38  N   UNL     1      -9.997  10.102  62.455  1.00  0.00    -0.654 NA 
HETATM   39  C   UNL     1     -10.609  12.228  63.438  1.00  0.00    -0.427 A  
HETATM   40  H1  UNL     1     -10.230  10.444  61.522  1.00  0.00     0.000 HD 
HETATM   41  C   UNL     1     -10.753  13.061  64.557  1.00  0.00    -0.404 A  
HETATM   42  H2  UNL     1     -10.591   9.299  62.659  1.00  0.00     0.000 HD 
ENDBRANCH  31  34
ENDBRANCH  26  31
ENDBRANCH  25  26
ENDBRANCH  22  25
ENDBRANCH  14  22
ENDBRANCH  12  14
ENDBRANCH   9  10
ENDBRANCH   8   9
TORSDOF 11
ENDMDL
MODEL      231
REMARK 921   NORMALIZED FREE ENERGY PREDICTED BY IDOCK:   -4.67 KCAL/MOL
REMARK 922        TOTAL FREE ENERGY PREDICTED BY IDOCK:  -10.29 KCAL/MOL
REMARK 923 INTER-LIGAND FREE ENERGY PREDICTED BY IDOCK:   -8.89 KCAL/MOL
REMARK 924 INTRA-LIGAND FREE ENERGY PREDICTED BY IDOCK:   -1.40 KCAL/MOL
REMARK 927      BINDING AFFINITY PREDICTED BY RF-SCORE:    0.00 PKD
ROOT
HETATM    1  C   UNL     1      -9.414  16.877  66.957  1.00  0.00    -0.251 C  
HETATM    2  C   UNL     1     -10.138  16.057  65.905  1.00  0.00    -0.378 C  
HETATM    3  C   UNL     1     -10.952  17.068  65.121  1.00  0.00    -0.010 C  
HETATM    4  O   UNL     1     -10.636  18.370  65.610  1.00  0.00    -0.622 OA 
HETATM    5  C   UNL     1      -9.454  18.275  66.392  1.00  0.00    -0.286 C  
HETATM    6  O   UNL     1      -8.281  18.412  65.590  1.00  0.00    -0.435 OA 
HETATM    7  C   UNL     1      -7.266  17.590  66.174  1.00  0.00    -0.308 C  
HETATM    8  C   UNL     1      -7.931  16.609  67.141  1.00  0.00    -0.182 C  
ENDROOT
BRANCH   8   9
HETATM    9  O   UNL     1      -7.570  15.272  66.758  1.00  0.00    -0.112 OA 
BRANCH   9  10
HETATM   10  C   UNL     1      -7.892  14.289  67.635  1.00  0.00    -0.179 C  
HETATM   11  O   UNL     1      -7.667  14.319  68.833  1.00  0.00    -0.136 OA 
HETATM   12  N   UNL     1      -8.417  13.242  66.936  1.00  0.00    -0.405 N  
HETATM   13  H   UNL     1      -8.647  13.384  65.952  1.00  0.00     0.000 HD 
BRANCH  12  14
HETATM   14  C   UNL     1      -8.670  11.918  67.527  1.00  0.00    -0.163 C  
BRANCH  14  15
HETATM   15  C   UNL     1     -10.136  11.441  67.263  1.00  0.00    -0.218 C  
BRANCH  15  16
HETATM   16  C   UNL     1     -10.849  12.073  66.079  1.00  0.00    -0.329 A  
HETATM   17  C   UNL     1     -11.923  12.951  66.281  1.00  0.00    -0.472 A  
HETATM   18  C   UNL     1     -10.476  11.765  64.762  1.00  0.00    -0.341 A  
HETATM   19  C   UNL     1     -12.608  13.500  65.194  1.00  0.00    -0.485 A  
HETATM   20  C   UNL     1     -12.221  13.190  63.891  1.00  0.00    -0.503 A  
HETATM   21  C   UNL     1     -11.150  12.328  63.675  1.00  0.00    -0.537 A  
ENDBRANCH  15  16
ENDBRANCH  14  15
BRANCH  14  22
HETATM   22  C   UNL     1      -7.657  10.823  67.077  1.00  0.00    -0.114 C  
HETATM   23  O   UNL     1      -6.653  11.380  66.216  1.00  0.00    -0.326 OA 
HETATM   24  H   UNL     1      -6.035  10.712  65.942  1.00  0.00     0.000 HD 
BRANCH  22  25
HETATM   25  C   UNL     1      -8.221   9.513  66.490  1.00  0.00    -0.119 C  
BRANCH  25  26
HETATM   26  N   UNL     1      -8.536   8.346  67.420  1.00  0.00    -0.124 N  
BRANCH  26  27
HETATM   27  C   UNL     1      -8.667   7.040  66.637  1.00  0.00    -0.128 C  
HETATM   28  C   UNL     1      -9.693   5.984  67.101  1.00  0.00    -0.148 C  
HETATM   29  C   UNL     1     -11.143   6.459  67.052  1.00  0.00    -0.405 C  
HETATM   30  C   UNL     1      -9.582   4.741  66.197  1.00  0.00    -0.185 C  
ENDBRANCH  26  27
BRANCH  26  31
HETATM   31  S   UNL     1      -7.292   8.248  68.666  1.00  0.00    -0.090 S  
HETATM   32  O   UNL     1      -6.042   7.881  68.048  1.00  0.00    -0.043 OA 
HETATM   33  O   UNL     1      -7.420   9.454  69.463  1.00  0.00    -0.073 OA 
BRANCH  31  34
HETATM   34  C   UNL     1      -7.796   6.871  69.697  1.00  0.00    -0.119 A  
HETATM   35  C   UNL     1      -7.476   4.603  70.470  1.00  0.00    -0.053 A  
HETATM   36  C   UNL     1      -7.037   5.701  69.714  1.00  0.00    -0.064 A  
HETATM   37  C   UNL     1      -8.686   4.644  71.173  1.00  0.00    -0.116 A  
HETATM   38  N   UNL     1      -9.060   3.587  72.003  1.00  0.00    -0.104 NA 
HETATM   39  C   UNL     1      -9.388   5.851  71.212  1.00  0.00    -0.172 A  
HETATM   40  H1  UNL     1      -9.942   3.616  72.515  1.00  0.00     0.000 HD 
HETATM   41  C   UNL     1      -8.960   6.959  70.468  1.00  0.00    -0.155 A  
HETATM   42  H2  UNL     1      -8.308   3.425  72.673  1.00  0.00     0.000 HD 
ENDBRANCH  31  34
ENDBRANCH  26  31
ENDBRANCH  25  26
ENDBRANCH  22  25
ENDBRANCH  14  22
ENDBRANCH  12  14
ENDBRANCH   9  10
ENDBRANCH   8   9
TORSDOF 11
ENDMDL
MODEL      232
REMARK 921   NORMALIZED FREE ENERGY PREDICTED BY IDOCK:   -4.65 KCAL/MOL
REMARK 922        TOTAL FREE ENERGY PREDICTED BY IDOCK:  -10.26 KCAL/MOL
REMARK 923 INTER-LIGAND FREE ENERGY PREDICTED BY IDOCK:  -10.20 KCAL/MOL
REMARK 924 INTRA-LIGAND FREE ENERGY PREDICTED BY IDOCK:   -0.06 KCAL/MOL
REMARK 927      BINDING AFFINITY PREDICTED BY RF-SCORE:    0.00 PKD
ROOT
HETATM    1  C   UNL     1      -7.482   6.567  66.644  1.00  0.00    -0.079 C  
HETATM    2  C   UNL     1      -6.658   7.741  67.139  1.00  0.00    -0.063 C  
HETATM    3  C   UNL     1      -5.219   7.270  67.043  1.00  0.00    -0.022 C  
HETATM    4  O   UNL     1      -5.213   5.977  66.441  1.00  0.00    -0.008 OA 
HETATM    5  C   UNL     1      -6.486   5.756  65.852  1.00  0.00    -0.040 C  
HETATM    6  O   UNL     1      -6.541   6.256  64.517  1.00  0.00    -0.033 OA 
HETATM    7  C   UNL     1      -7.877   6.715  64.287  1.00  0.00    -0.115 C  
HETATM    8  C   UNL     1      -8.578   6.867  65.637  1.00  0.00    -0.110 C  
ENDROOT
BRANCH   8   9
HETATM    9  O   UNL     1      -9.065   8.214  65.753  1.00  0.00    -0.162 OA 
BRANCH   9  10
HETATM   10  C   UNL     1      -9.941   8.451  66.760  1.00  0.00    -0.284 C  
HETATM   11  O   UNL     1     -10.831   7.694  67.106  1.00  0.00    -0.317 OA 
HETATM   12  N   UNL     1      -9.712   9.706  67.244  1.00  0.00    -0.160 N  
HETATM   13  H   UNL     1      -8.871  10.197  66.938  1.00  0.00     0.000 HD 
BRANCH  12  14
HETATM   14  C   UNL     1     -10.612  10.388  68.187  1.00  0.00    -0.211 C  
BRANCH  14  15
HETATM   15  C   UNL     1     -10.189  10.140  69.671  1.00  0.00    -0.272 C  
BRANCH  15  16
HETATM   16  C   UNL     1     -11.289   9.698  70.622  1.00  0.00    -0.379 A  
HETATM   17  C   UNL     1     -12.293  10.593  71.013  1.00  0.00    -0.507 A  
HETATM   18  C   UNL     1     -11.302   8.401  71.159  1.00  0.00    -0.310 A  
HETATM   19  C   UNL     1     -13.282  10.202  71.920  1.00  0.00    -0.557 A  
HETATM   20  C   UNL     1     -13.286   8.909  72.439  1.00  0.00    -0.488 A  
HETATM   21  C   UNL     1     -12.301   8.005  72.053  1.00  0.00    -0.366 A  
ENDBRANCH  15  16
ENDBRANCH  14  15
BRANCH  14  22
HETATM   22  C   UNL     1     -10.767  11.916  67.917  1.00  0.00    -0.204 C  
HETATM   23  O   UNL     1     -12.007  12.194  67.253  1.00  0.00    -0.573 OA 
HETATM   24  H   UNL     1     -12.101  13.125  67.089  1.00  0.00     0.000 HD 
BRANCH  22  25
HETATM   25  C   UNL     1      -9.597  12.651  67.231  1.00  0.00    -0.203 C  
BRANCH  25  26
HETATM   26  N   UNL     1      -9.829  13.350  65.895  1.00  0.00    -0.270 N  
BRANCH  26  27
HETATM   27  C   UNL     1     -11.140  12.893  65.256  1.00  0.00    -0.284 C  
HETATM   28  C   UNL     1     -11.137  12.428  63.784  1.00  0.00    -0.506 C  
HETATM   29  C   UNL     1     -10.280  11.193  63.521  1.00  0.00    -0.446 C  
HETATM   30  C   UNL     1     -12.579  12.090  63.360  1.00  0.00    -0.592 C  
ENDBRANCH  26  27
BRANCH  26  31
HETATM   31  S   UNL     1      -9.786  15.096  66.142  1.00  0.00    -0.322 S  
HETATM   32  O   UNL     1      -8.418  15.543  66.063  1.00  0.00    -0.106 OA 
HETATM   33  O   UNL     1     -10.817  15.653  65.284  1.00  0.00    -0.372 OA 
BRANCH  31  34
HETATM   34  C   UNL     1     -10.321  15.325  67.836  1.00  0.00    -0.246 A  
HETATM   35  C   UNL     1      -9.800  15.604  70.180  1.00  0.00     0.039 A  
HETATM   36  C   UNL     1      -9.375  15.496  68.847  1.00  0.00    -0.222 A  
HETATM   37  C   UNL     1     -11.153  15.499  70.521  1.00  0.00    -0.345 A  
HETATM   38  N   UNL     1     -11.572  15.712  71.835  1.00  0.00    -0.437 NA 
HETATM   39  C   UNL     1     -12.090  15.412  69.489  1.00  0.00    -0.332 A  
HETATM   40  H1  UNL     1     -12.559  15.635  72.083  1.00  0.00     0.000 HD 
HETATM   41  C   UNL     1     -11.684  15.310  68.152  1.00  0.00    -0.297 A  
HETATM   42  H2  UNL     1     -11.239  16.630  72.132  1.00  0.00     0.000 HD 
ENDBRANCH  31  34
ENDBRANCH  26  31
ENDBRANCH  25  26
ENDBRANCH  22  25
ENDBRANCH  14  22
ENDBRANCH  12  14
ENDBRANCH   9  10
ENDBRANCH   8   9
TORSDOF 11
ENDMDL
MODEL      233
REMARK 921   NORMALIZED FREE ENERGY PREDICTED BY IDOCK:   -4.64 KCAL/MOL
REMARK 922        TOTAL FREE ENERGY PREDICTED BY IDOCK:  -10.24 KCAL/MOL
REMARK 923 INTER-LIGAND FREE ENERGY PREDICTED BY IDOCK:   -8.56 KCAL/MOL
REMARK 924 INTRA-LIGAND FREE ENERGY PREDICTED BY IDOCK:   -1.69 KCAL/MOL
REMARK 927      BINDING AFFINITY PREDICTED BY RF-SCORE:    0.00 PKD
ROOT
HETATM    1  C   UNL     1     -10.035  14.052  66.130  1.00  0.00    -0.325 C  
HETATM    2  C   UNL     1      -9.867  14.178  67.633  1.00  0.00    -0.229 C  
HETATM    3  C   UNL     1     -10.434  15.543  67.972  1.00  0.00    -0.259 C  
HETATM    4  O   UNL     1     -10.980  16.107  66.780  1.00  0.00    -0.229 OA 
HETATM    5  C   UNL     1     -11.102  15.072  65.816  1.00  0.00    -0.346 C  
HETATM    6  O   UNL     1     -12.349  14.388  65.933  1.00  0.00    -0.395 OA 
HETATM    7  C   UNL     1     -12.123  13.021  65.573  1.00  0.00    -0.452 C  
HETATM    8  C   UNL     1     -10.619  12.752  65.607  1.00  0.00    -0.275 C  
ENDROOT
BRANCH   8   9
HETATM    9  O   UNL     1     -10.369  11.650  66.494  1.00  0.00    -0.213 OA 
BRANCH   9  10
HETATM   10  C   UNL     1     -10.146  10.447  65.910  1.00  0.00    -0.261 C  
HETATM   11  O   UNL     1     -10.197  10.231  64.711  1.00  0.00    -0.329 OA 
HETATM   12  N   UNL     1      -9.952   9.520  66.892  1.00  0.00    -0.201 N  
HETATM   13  H   UNL     1      -9.832   9.848  67.850  1.00  0.00     0.000 HD 
BRANCH  12  14
HETATM   14  C   UNL     1      -9.907   8.071  66.641  1.00  0.00    -0.252 C  
BRANCH  14  15
HETATM   15  C   UNL     1      -8.454   7.586  66.329  1.00  0.00    -0.141 C  
BRANCH  15  16
HETATM   16  C   UNL     1      -8.266   6.802  65.040  1.00  0.00    -0.096 A  
HETATM   17  C   UNL     1      -8.431   5.411  65.024  1.00  0.00    -0.150 A  
HETATM   18  C   UNL     1      -7.888   7.444  63.851  1.00  0.00    -0.117 A  
HETATM   19  C   UNL     1      -8.218   4.681  63.851  1.00  0.00    -0.111 A  
HETATM   20  C   UNL     1      -7.850   5.334  62.676  1.00  0.00    -0.078 A  
HETATM   21  C   UNL     1      -7.692   6.717  62.674  1.00  0.00    -0.105 A  
ENDBRANCH  15  16
ENDBRANCH  14  15
BRANCH  14  22
HETATM   22  C   UNL     1     -10.528   7.213  67.785  1.00  0.00    -0.223 C  
HETATM   23  O   UNL     1     -11.320   6.145  67.248  1.00  0.00    -0.532 OA 
HETATM   24  H   UNL     1     -11.698   5.622  67.945  1.00  0.00     0.000 HD 
BRANCH  22  25
HETATM   25  C   UNL     1     -11.284   7.948  68.910  1.00  0.00     0.430 C  
BRANCH  25  26
HETATM   26  N   UNL     1     -10.526   8.405  70.153  1.00  0.00    -0.222 N  
BRANCH  26  27
HETATM   27  C   UNL     1     -10.641   9.918  70.340  1.00  0.00    -0.302 C  
HETATM   28  C   UNL     1     -11.975  10.619  70.007  1.00  0.00    -0.408 C  
HETATM   29  C   UNL     1     -13.151  10.165  70.869  1.00  0.00    -0.412 C  
HETATM   30  C   UNL     1     -11.812  12.137  70.209  1.00  0.00    -0.339 C  
ENDBRANCH  26  27
BRANCH  26  31
HETATM   31  S   UNL     1     -11.125   7.518  71.554  1.00  0.00    -0.239 S  
HETATM   32  O   UNL     1     -10.958   8.338  72.729  1.00  0.00    -0.354 OA 
HETATM   33  O   UNL     1     -12.422   6.989  71.176  1.00  0.00    -0.368 OA 
BRANCH  31  34
HETATM   34  C   UNL     1     -10.008   6.127  71.717  1.00  0.00    -0.172 A  
HETATM   35  C   UNL     1      -8.037   5.123  72.693  1.00  0.00    -0.109 A  
HETATM   36  C   UNL     1      -8.948   6.188  72.622  1.00  0.00    -0.130 A  
HETATM   37  C   UNL     1      -8.145   4.018  71.841  1.00  0.00    -0.084 A  
HETATM   38  N   UNL     1      -7.298   2.920  71.992  1.00  0.00    -0.042 NA 
HETATM   39  C   UNL     1      -9.260   3.936  71.003  1.00  0.00    -0.200 A  
HETATM   40  H1  UNL     1      -7.377   2.114  71.371  1.00  0.00     0.000 HD 
HETATM   41  C   UNL     1     -10.183   4.988  70.924  1.00  0.00    -0.287 A  
HETATM   42  H2  UNL     1      -7.371   2.589  72.955  1.00  0.00     0.000 HD 
ENDBRANCH  31  34
ENDBRANCH  26  31
ENDBRANCH  25  26
ENDBRANCH  22  25
ENDBRANCH  14  22
ENDBRANCH  12  14
ENDBRANCH   9  10
ENDBRANCH   8   9
TORSDOF 11
ENDMDL
MODEL      234
REMARK 921   NORMALIZED FREE ENERGY PREDICTED BY IDOCK:   -4.64 KCAL/MOL
REMARK 922        TOTAL FREE ENERGY PREDICTED BY IDOCK:  -10.24 KCAL/MOL
REMARK 923 INTER-LIGAND FREE ENERGY PREDICTED BY IDOCK:   -9.86 KCAL/MOL
REMARK 924 INTRA-LIGAND FREE ENERGY PREDICTED BY IDOCK:   -0.38 KCAL/MOL
REMARK 927      BINDING AFFINITY PREDICTED BY RF-SCORE:    0.00 PKD
ROOT
HETATM    1  C   UNL     1      -8.360  18.853  67.705  1.00  0.00    -0.296 C  
HETATM    2  C   UNL     1      -9.817  19.198  67.458  1.00  0.00    -0.406 C  
HETATM    3  C   UNL     1      -9.812  19.996  66.168  1.00  0.00    -0.443 C  
HETATM    4  O   UNL     1      -8.478  20.013  65.661  1.00  0.00    -0.257 OA 
HETATM    5  C   UNL     1      -7.731  19.016  66.343  1.00  0.00    -0.274 C  
HETATM    6  O   UNL     1      -7.841  17.746  65.701  1.00  0.00    -0.538 OA 
HETATM    7  C   UNL     1      -7.788  16.745  66.723  1.00  0.00    -0.246 C  
HETATM    8  C   UNL     1      -8.043  17.415  68.073  1.00  0.00    -0.227 C  
ENDROOT
BRANCH   8   9
HETATM    9  O   UNL     1      -9.154  16.761  68.708  1.00  0.00    -0.251 OA 
BRANCH   9  10
HETATM   10  C   UNL     1      -9.079  15.411  68.807  1.00  0.00    -0.207 C  
HETATM   11  O   UNL     1      -8.044  14.768  68.846  1.00  0.00    -0.151 OA 
HETATM   12  N   UNL     1     -10.345  14.904  68.762  1.00  0.00    -0.237 N  
HETATM   13  H   UNL     1     -11.129  15.553  68.832  1.00  0.00     0.000 HD 
BRANCH  12  14
HETATM   14  C   UNL     1     -10.640  13.470  68.617  1.00  0.00    -0.244 C  
BRANCH  14  15
HETATM   15  C   UNL     1     -12.136  13.153  68.942  1.00  0.00    -0.232 C  
BRANCH  15  16
HETATM   16  C   UNL     1     -12.387  12.063  69.971  1.00  0.00    -0.179 A  
HETATM   17  C   UNL     1     -12.911  12.381  71.231  1.00  0.00    -0.297 A  
HETATM   18  C   UNL     1     -12.066  10.724  69.699  1.00  0.00    -0.361 A  
HETATM   19  C   UNL     1     -13.104  11.387  72.194  1.00  0.00    -0.276 A  
HETATM   20  C   UNL     1     -12.787  10.060  71.906  1.00  0.00    -0.524 A  
HETATM   21  C   UNL     1     -12.275   9.727  70.655  1.00  0.00    -0.283 A  
ENDBRANCH  15  16
ENDBRANCH  14  15
BRANCH  14  22
HETATM   22  C   UNL     1     -10.254  12.884  67.225  1.00  0.00    -0.234 C  
HETATM   23  O   UNL     1     -10.574  13.809  66.177  1.00  0.00    -0.284 OA 
HETATM   24  H   UNL     1     -10.338  13.453  65.328  1.00  0.00     0.000 HD 
BRANCH  22  25
HETATM   25  C   UNL     1     -10.746  11.465  66.876  1.00  0.00    -0.265 C  
BRANCH  25  26
HETATM   26  N   UNL     1      -9.752  10.428  66.363  1.00  0.00    -0.192 N  
BRANCH  26  27
HETATM   27  C   UNL     1      -9.082  10.902  65.073  1.00  0.00    -0.190 C  
HETATM   28  C   UNL     1      -9.797  10.671  63.725  1.00  0.00    -0.394 C  
HETATM   29  C   UNL     1     -11.137  11.392  63.597  1.00  0.00    -0.411 C  
HETATM   30  C   UNL     1      -8.892  11.170  62.582  1.00  0.00    -0.315 C  
ENDBRANCH  26  27
BRANCH  26  31
HETATM   31  S   UNL     1      -8.576  10.078  67.629  1.00  0.00    -0.117 S  
HETATM   32  O   UNL     1      -7.290   9.846  67.019  1.00  0.00    -0.090 OA 
HETATM   33  O   UNL     1      -8.760  11.096  68.647  1.00  0.00    -0.155 OA 
BRANCH  31  34
HETATM   34  C   UNL     1      -9.118   8.520  68.329  1.00  0.00    -0.138 A  
HETATM   35  C   UNL     1      -8.763   6.659  69.831  1.00  0.00    -0.141 A  
HETATM   36  C   UNL     1      -8.370   7.913  69.338  1.00  0.00    -0.132 A  
HETATM   37  C   UNL     1      -9.868   5.985  69.299  1.00  0.00    -0.152 A  
HETATM   38  N   UNL     1     -10.311   4.789  69.867  1.00  0.00    -0.172 NA 
HETATM   39  C   UNL     1     -10.652   6.645  68.350  1.00  0.00    -0.289 A  
HETATM   40  H1  UNL     1     -11.116   4.298  69.478  1.00  0.00     0.000 HD 
HETATM   41  C   UNL     1     -10.277   7.900  67.851  1.00  0.00    -0.263 A  
HETATM   42  H2  UNL     1     -10.484   4.952  70.859  1.00  0.00     0.000 HD 
ENDBRANCH  31  34
ENDBRANCH  26  31
ENDBRANCH  25  26
ENDBRANCH  22  25
ENDBRANCH  14  22
ENDBRANCH  12  14
ENDBRANCH   9  10
ENDBRANCH   8   9
TORSDOF 11
ENDMDL
MODEL      235
REMARK 921   NORMALIZED FREE ENERGY PREDICTED BY IDOCK:   -4.63 KCAL/MOL
REMARK 922        TOTAL FREE ENERGY PREDICTED BY IDOCK:  -10.23 KCAL/MOL
REMARK 923 INTER-LIGAND FREE ENERGY PREDICTED BY IDOCK:   -7.43 KCAL/MOL
REMARK 924 INTRA-LIGAND FREE ENERGY PREDICTED BY IDOCK:   -2.81 KCAL/MOL
REMARK 927      BINDING AFFINITY PREDICTED BY RF-SCORE:    0.00 PKD
ROOT
HETATM    1  C   UNL     1     -10.266  11.199  68.845  1.00  0.00    -0.209 C  
HETATM    2  C   UNL     1     -11.496  11.183  69.735  1.00  0.00    -0.388 C  
HETATM    3  C   UNL     1     -11.943  12.631  69.800  1.00  0.00    -0.295 C  
HETATM    4  O   UNL     1     -11.106  13.396  68.933  1.00  0.00    -0.253 OA 
HETATM    5  C   UNL     1     -10.405  12.496  68.087  1.00  0.00    -0.232 C  
HETATM    6  O   UNL     1     -11.154  12.189  66.912  1.00  0.00    -0.265 OA 
HETATM    7  C   UNL     1     -10.849  10.838  66.551  1.00  0.00    -0.130 C  
HETATM    8  C   UNL     1     -10.193  10.151  67.749  1.00  0.00    -0.191 C  
ENDROOT
BRANCH   8   9
HETATM    9  O   UNL     1     -10.949   8.974  68.074  1.00  0.00    -0.101 OA 
BRANCH   9  10
HETATM   10  C   UNL     1     -10.361   7.785  67.791  1.00  0.00    -0.221 C  
HETATM   11  O   UNL     1     -10.956   6.751  67.541  1.00  0.00    -0.294 OA 
HETATM   12  N   UNL     1      -9.011   7.929  67.926  1.00  0.00    -0.130 N  
HETATM   13  H   UNL     1      -8.634   8.870  68.039  1.00  0.00     0.000 HD 
BRANCH  12  14
HETATM   14  C   UNL     1      -8.070   6.798  67.917  1.00  0.00    -0.114 C  
BRANCH  14  15
HETATM   15  C   UNL     1      -7.589   6.461  66.469  1.00  0.00    -0.094 C  
BRANCH  15  16
HETATM   16  C   UNL     1      -8.307   5.319  65.767  1.00  0.00    -0.123 A  
HETATM   17  C   UNL     1      -8.773   4.217  66.496  1.00  0.00    -0.113 A  
HETATM   18  C   UNL     1      -8.484   5.324  64.375  1.00  0.00    -0.126 A  
HETATM   19  C   UNL     1      -9.396   3.147  65.849  1.00  0.00    -0.104 A  
HETATM   20  C   UNL     1      -9.572   3.169  64.466  1.00  0.00    -0.151 A  
HETATM   21  C   UNL     1      -9.123   4.261  63.730  1.00  0.00    -0.142 A  
ENDBRANCH  15  16
ENDBRANCH  14  15
BRANCH  14  22
HETATM   22  C   UNL     1      -6.845   6.989  68.863  1.00  0.00    -0.072 C  
HETATM   23  O   UNL     1      -5.615   6.847  68.138  1.00  0.00    -0.018 OA 
HETATM   24  H   UNL     1      -4.869   6.964  68.714  1.00  0.00     0.000 HD 
BRANCH  22  25
HETATM   25  C   UNL     1      -6.809   6.177  70.173  1.00  0.00    -0.057 C  
BRANCH  25  26
HETATM   26  N   UNL     1      -8.118   5.801  70.861  1.00  0.00    -0.117 N  
BRANCH  26  27
HETATM   27  C   UNL     1      -8.024   4.416  71.501  1.00  0.00    -0.083 C  
HETATM   28  C   UNL     1      -9.162   3.399  71.266  1.00  0.00    -0.190 C  
HETATM   29  C   UNL     1      -9.345   2.995  69.805  1.00  0.00    -0.215 C  
HETATM   30  C   UNL     1      -8.866   2.118  72.067  1.00  0.00    -0.104 C  
ENDBRANCH  26  27
BRANCH  26  31
HETATM   31  S   UNL     1      -8.531   7.047  72.038  1.00  0.00    -0.112 S  
HETATM   32  O   UNL     1      -8.345   6.513  73.365  1.00  0.00    -0.119 OA 
HETATM   33  O   UNL     1      -7.854   8.256  71.605  1.00  0.00    -0.095 OA 
BRANCH  31  34
HETATM   34  C   UNL     1     -10.289   7.312  71.816  1.00  0.00    -0.196 A  
HETATM   35  C   UNL     1     -12.403   6.652  70.847  1.00  0.00    -0.260 A  
HETATM   36  C   UNL     1     -11.041   6.401  71.075  1.00  0.00    -0.349 A  
HETATM   37  C   UNL     1     -13.012   7.823  71.312  1.00  0.00    -0.221 A  
HETATM   38  N   UNL     1     -14.387   8.012  71.170  1.00  0.00    -0.673 NA 
HETATM   39  C   UNL     1     -12.264   8.680  72.124  1.00  0.00    -0.453 A  
HETATM   40  H1  UNL     1     -14.831   8.866  71.510  1.00  0.00     0.000 HD 
HETATM   41  C   UNL     1     -10.905   8.441  72.367  1.00  0.00    -0.416 A  
HETATM   42  H2  UNL     1     -14.864   7.215  71.592  1.00  0.00     0.000 HD 
ENDBRANCH  31  34
ENDBRANCH  26  31
ENDBRANCH  25  26
ENDBRANCH  22  25
ENDBRANCH  14  22
ENDBRANCH  12  14
ENDBRANCH   9  10
ENDBRANCH   8   9
TORSDOF 11
ENDMDL
MODEL      236
REMARK 921   NORMALIZED FREE ENERGY PREDICTED BY IDOCK:   -4.61 KCAL/MOL
REMARK 922        TOTAL FREE ENERGY PREDICTED BY IDOCK:  -10.20 KCAL/MOL
REMARK 923 INTER-LIGAND FREE ENERGY PREDICTED BY IDOCK:  -10.00 KCAL/MOL
REMARK 924 INTRA-LIGAND FREE ENERGY PREDICTED BY IDOCK:   -0.20 KCAL/MOL
REMARK 927      BINDING AFFINITY PREDICTED BY RF-SCORE:    0.00 PKD
ROOT
HETATM    1  C   UNL     1      -6.949   7.725  71.811  1.00  0.00    -0.064 C  
HETATM    2  C   UNL     1      -6.400   7.469  70.419  1.00  0.00    -0.038 C  
HETATM    3  C   UNL     1      -6.154   5.973  70.370  1.00  0.00    -0.030 C  
HETATM    4  O   UNL     1      -6.624   5.404  71.591  1.00  0.00    -0.041 OA 
HETATM    5  C   UNL     1      -7.442   6.365  72.243  1.00  0.00    -0.093 C  
HETATM    6  O   UNL     1      -8.799   6.281  71.809  1.00  0.00    -0.137 OA 
HETATM    7  C   UNL     1      -9.340   7.606  71.839  1.00  0.00    -0.145 C  
HETATM    8  C   UNL     1      -8.183   8.602  71.918  1.00  0.00    -0.103 C  
ENDROOT
BRANCH   8   9
HETATM    9  O   UNL     1      -8.291   9.520  70.818  1.00  0.00    -0.243 OA 
BRANCH   9  10
HETATM   10  C   UNL     1      -9.355   9.348  69.995  1.00  0.00    -0.226 C  
HETATM   11  O   UNL     1      -9.469   8.453  69.176  1.00  0.00    -0.154 OA 
HETATM   12  N   UNL     1     -10.215  10.392  70.178  1.00  0.00    -0.433 N  
HETATM   13  H   UNL     1     -10.052  11.019  70.966  1.00  0.00     0.000 HD 
BRANCH  12  14
HETATM   14  C   UNL     1     -11.364  10.659  69.299  1.00  0.00    -0.282 C  
BRANCH  14  15
HETATM   15  C   UNL     1     -12.636  11.050  70.119  1.00  0.00    -0.281 C  
BRANCH  15  16
HETATM   16  C   UNL     1     -12.592  12.389  70.837  1.00  0.00    -0.337 A  
HETATM   17  C   UNL     1     -13.307  12.584  72.025  1.00  0.00    -0.528 A  
HETATM   18  C   UNL     1     -11.867  13.469  70.309  1.00  0.00    -0.327 A  
HETATM   19  C   UNL     1     -13.302  13.826  72.665  1.00  0.00    -0.618 A  
HETATM   20  C   UNL     1     -12.572  14.887  72.132  1.00  0.00    -0.403 A  
HETATM   21  C   UNL     1     -11.847  14.707  70.958  1.00  0.00    -0.379 A  
ENDBRANCH  15  16
ENDBRANCH  14  15
BRANCH  14  22
HETATM   22  C   UNL     1     -11.081  11.726  68.199  1.00  0.00    -0.243 C  
HETATM   23  O   UNL     1     -11.977  11.564  67.090  1.00  0.00    -0.581 OA 
HETATM   24  H   UNL     1     -11.805  12.214  66.419  1.00  0.00     0.000 HD 
BRANCH  22  25
HETATM   25  C   UNL     1      -9.628  11.896  67.713  1.00  0.00    -0.190 C  
BRANCH  25  26
HETATM   26  N   UNL     1      -9.243  13.134  66.909  1.00  0.00    -0.232 N  
BRANCH  26  27
HETATM   27  C   UNL     1     -10.483  13.845  66.368  1.00  0.00    -0.284 C  
HETATM   28  C   UNL     1     -10.609  14.090  64.849  1.00  0.00    -0.442 C  
HETATM   29  C   UNL     1     -10.662  12.812  64.014  1.00  0.00    -0.457 C  
HETATM   30  C   UNL     1     -11.902  14.879  64.571  1.00  0.00    -0.404 C  
ENDBRANCH  26  27
BRANCH  26  31
HETATM   31  S   UNL     1      -8.259  14.195  67.916  1.00  0.00    -0.171 S  
HETATM   32  O   UNL     1      -8.490  13.868  69.301  1.00  0.00     0.231 OA 
HETATM   33  O   UNL     1      -6.924  14.175  67.344  1.00  0.00    -0.182 OA 
BRANCH  31  34
HETATM   34  C   UNL     1      -8.933  15.832  67.639  1.00  0.00    -0.187 A  
HETATM   35  C   UNL     1     -10.526  17.565  68.190  1.00  0.00    -0.386 A  
HETATM   36  C   UNL     1      -9.956  16.310  68.457  1.00  0.00    -0.234 A  
HETATM   37  C   UNL     1     -10.117  18.327  67.089  1.00  0.00    -0.356 A  
HETATM   38  N   UNL     1     -10.616  19.615  66.894  1.00  0.00    -0.474 NA 
HETATM   39  C   UNL     1      -9.035  17.870  66.333  1.00  0.00    -0.247 A  
HETATM   40  H1  UNL     1     -10.319  20.171  66.092  1.00  0.00     0.000 HD 
HETATM   41  C   UNL     1      -8.450  16.623  66.591  1.00  0.00    -0.294 A  
HETATM   42  H2  UNL     1     -10.441  20.157  67.741  1.00  0.00     0.000 HD 
ENDBRANCH  31  34
ENDBRANCH  26  31
ENDBRANCH  25  26
ENDBRANCH  22  25
ENDBRANCH  14  22
ENDBRANCH  12  14
ENDBRANCH   9  10
ENDBRANCH   8   9
TORSDOF 11
ENDMDL
MODEL      237
REMARK 921   NORMALIZED FREE ENERGY PREDICTED BY IDOCK:   -4.61 KCAL/MOL
REMARK 922        TOTAL FREE ENERGY PREDICTED BY IDOCK:  -10.20 KCAL/MOL
REMARK 923 INTER-LIGAND FREE ENERGY PREDICTED BY IDOCK:  -10.38 KCAL/MOL
REMARK 924 INTRA-LIGAND FREE ENERGY PREDICTED BY IDOCK:    0.18 KCAL/MOL
REMARK 927      BINDING AFFINITY PREDICTED BY RF-SCORE:    0.00 PKD
ROOT
HETATM    1  C   UNL     1      -7.233   9.028  65.533  1.00  0.00    -0.085 C  
HETATM    2  C   UNL     1      -7.106  10.344  66.278  1.00  0.00    -0.123 C  
HETATM    3  C   UNL     1      -5.824  10.962  65.752  1.00  0.00    -0.110 C  
HETATM    4  O   UNL     1      -5.318  10.124  64.715  1.00  0.00    -0.075 OA 
HETATM    5  C   UNL     1      -6.349   9.227  64.327  1.00  0.00    -0.085 C  
HETATM    6  O   UNL     1      -7.182   9.791  63.314  1.00  0.00    -0.112 OA 
HETATM    7  C   UNL     1      -8.506   9.288  63.521  1.00  0.00    -0.197 C  
HETATM    8  C   UNL     1      -8.588   8.703  64.932  1.00  0.00    -0.135 C  
ENDROOT
BRANCH   8   9
HETATM    9  O   UNL     1      -9.662   9.350  65.635  1.00  0.00    -0.278 OA 
BRANCH   9  10
HETATM   10  C   UNL     1      -9.897   8.919  66.899  1.00  0.00    -0.223 C  
HETATM   11  O   UNL     1     -10.000   7.752  67.233  1.00  0.00    -0.171 OA 
HETATM   12  N   UNL     1     -10.087  10.009  67.698  1.00  0.00    -0.179 N  
HETATM   13  H   UNL     1      -9.872  10.931  67.317  1.00  0.00     0.000 HD 
BRANCH  12  14
HETATM   14  C   UNL     1     -10.585   9.925  69.079  1.00  0.00    -0.220 C  
BRANCH  14  15
HETATM   15  C   UNL     1      -9.413   9.815  70.108  1.00  0.00    -0.277 C  
BRANCH  15  16
HETATM   16  C   UNL     1      -9.657   8.925  71.316  1.00  0.00    -0.348 A  
HETATM   17  C   UNL     1     -10.962   8.599  71.708  1.00  0.00    -0.396 A  
HETATM   18  C   UNL     1      -8.588   8.443  72.087  1.00  0.00    -0.257 A  
HETATM   19  C   UNL     1     -11.191   7.817  72.843  1.00  0.00    -0.434 A  
HETATM   20  C   UNL     1     -10.119   7.340  73.595  1.00  0.00    -0.387 A  
HETATM   21  C   UNL     1      -8.816   7.647  73.213  1.00  0.00    -0.251 A  
ENDBRANCH  15  16
ENDBRANCH  14  15
BRANCH  14  22
HETATM   22  C   UNL     1     -11.544  11.088  69.476  1.00  0.00    -0.313 C  
HETATM   23  O   UNL     1     -12.775  11.006  68.744  1.00  0.00    -0.482 OA 
HETATM   24  H   UNL     1     -13.360  11.714  68.986  1.00  0.00     0.000 HD 
BRANCH  22  25
HETATM   25  C   UNL     1     -10.985  12.525  69.454  1.00  0.00     0.007 C  
BRANCH  25  26
HETATM   26  N   UNL     1     -10.726  13.211  68.116  1.00  0.00    -0.235 N  
BRANCH  26  27
HETATM   27  C   UNL     1     -11.763  12.792  67.074  1.00  0.00    -0.374 C  
HETATM   28  C   UNL     1     -11.576  13.232  65.606  1.00  0.00    -0.363 C  
HETATM   29  C   UNL     1     -10.314  12.683  64.946  1.00  0.00    -0.330 C  
HETATM   30  C   UNL     1     -12.781  12.748  64.778  1.00  0.00    -0.469 C  
ENDBRANCH  26  27
BRANCH  26  31
HETATM   31  S   UNL     1     -10.698  14.957  68.357  1.00  0.00    -0.253 S  
HETATM   32  O   UNL     1      -9.338  15.373  68.592  1.00  0.00    -0.186 OA 
HETATM   33  O   UNL     1     -11.491  15.528  67.283  1.00  0.00    -0.246 OA 
BRANCH  31  34
HETATM   34  C   UNL     1     -11.601  15.216  69.882  1.00  0.00    -0.300 A  
HETATM   35  C   UNL     1     -13.693  15.307  71.092  1.00  0.00    -0.519 A  
HETATM   36  C   UNL     1     -12.984  15.034  69.911  1.00  0.00     0.072 A  
HETATM   37  C   UNL     1     -13.044  15.801  72.229  1.00  0.00    -0.447 A  
HETATM   38  N   UNL     1     -13.741  15.968  73.427  1.00  0.00    -0.807 NA 
HETATM   39  C   UNL     1     -11.651  15.896  72.207  1.00  0.00    -0.501 A  
HETATM   40  H1  UNL     1     -13.268  16.328  74.256  1.00  0.00     0.000 HD 
HETATM   41  C   UNL     1     -10.927  15.621  71.039  1.00  0.00    -0.285 A  
HETATM   42  H2  UNL     1     -14.177  15.079  73.669  1.00  0.00     0.000 HD 
ENDBRANCH  31  34
ENDBRANCH  26  31
ENDBRANCH  25  26
ENDBRANCH  22  25
ENDBRANCH  14  22
ENDBRANCH  12  14
ENDBRANCH   9  10
ENDBRANCH   8   9
TORSDOF 11
ENDMDL
MODEL      238
REMARK 921   NORMALIZED FREE ENERGY PREDICTED BY IDOCK:   -4.61 KCAL/MOL
REMARK 922        TOTAL FREE ENERGY PREDICTED BY IDOCK:  -10.19 KCAL/MOL
REMARK 923 INTER-LIGAND FREE ENERGY PREDICTED BY IDOCK:   -9.32 KCAL/MOL
REMARK 924 INTRA-LIGAND FREE ENERGY PREDICTED BY IDOCK:   -0.87 KCAL/MOL
REMARK 927      BINDING AFFINITY PREDICTED BY RF-SCORE:    0.00 PKD
ROOT
HETATM    1  C   UNL     1     -10.149   6.535  71.793  1.00  0.00    -0.202 C  
HETATM    2  C   UNL     1     -10.610   5.090  71.848  1.00  0.00    -0.224 C  
HETATM    3  C   UNL     1     -10.961   4.854  73.305  1.00  0.00    -0.320 C  
HETATM    4  O   UNL     1     -10.818   6.089  74.004  1.00  0.00    -0.147 OA 
HETATM    5  C   UNL     1     -10.738   7.134  73.046  1.00  0.00    -0.321 C  
HETATM    6  O   UNL     1     -12.032   7.615  72.684  1.00  0.00    -0.264 OA 
HETATM    7  C   UNL     1     -11.972   8.011  71.310  1.00  0.00    -0.296 C  
HETATM    8  C   UNL     1     -10.719   7.400  70.683  1.00  0.00    -0.229 C  
ENDROOT
BRANCH   8   9
HETATM    9  O   UNL     1     -11.109   6.624  69.538  1.00  0.00    -0.286 OA 
BRANCH   9  10
HETATM   10  C   UNL     1     -10.658   7.059  68.336  1.00  0.00    -0.202 C  
HETATM   11  O   UNL     1     -11.261   6.953  67.282  1.00  0.00    -0.317 OA 
HETATM   12  N   UNL     1      -9.392   7.541  68.499  1.00  0.00    -0.143 N  
HETATM   13  H   UNL     1      -9.042   7.667  69.449  1.00  0.00     0.000 HD 
BRANCH  12  14
HETATM   14  C   UNL     1      -8.506   7.889  67.377  1.00  0.00    -0.122 C  
BRANCH  14  15
HETATM   15  C   UNL     1      -7.847   6.618  66.749  1.00  0.00    -0.107 C  
BRANCH  15  16
HETATM   16  C   UNL     1      -8.218   5.284  67.377  1.00  0.00    -0.103 A  
HETATM   17  C   UNL     1      -7.676   4.904  68.611  1.00  0.00    -0.077 A  
HETATM   18  C   UNL     1      -9.078   4.390  66.720  1.00  0.00    -0.133 A  
HETATM   19  C   UNL     1      -7.983   3.660  69.171  1.00  0.00    -0.059 A  
HETATM   20  C   UNL     1      -8.844   2.786  68.510  1.00  0.00    -0.161 A  
HETATM   21  C   UNL     1      -9.398   3.154  67.288  1.00  0.00    -0.217 A  
ENDBRANCH  15  16
ENDBRANCH  14  15
BRANCH  14  22
HETATM   22  C   UNL     1      -9.196   8.743  66.270  1.00  0.00    -0.207 C  
HETATM   23  O   UNL     1      -9.158   8.065  65.006  1.00  0.00    -0.370 OA 
HETATM   24  H   UNL     1      -9.578   8.585  64.332  1.00  0.00     0.000 HD 
BRANCH  22  25
HETATM   25  C   UNL     1      -8.763  10.215  66.119  1.00  0.00    -0.142 C  
BRANCH  25  26
HETATM   26  N   UNL     1      -8.871  11.157  67.314  1.00  0.00    -0.143 N  
BRANCH  26  27
HETATM   27  C   UNL     1      -8.128  12.466  67.050  1.00  0.00    -0.124 C  
HETATM   28  C   UNL     1      -7.590  13.281  68.245  1.00  0.00    -0.139 C  
HETATM   29  C   UNL     1      -6.536  12.552  69.074  1.00  0.00    -0.097 C  
HETATM   30  C   UNL     1      -6.950  14.581  67.722  1.00  0.00    -0.194 C  
ENDBRANCH  26  27
BRANCH  26  31
HETATM   31  S   UNL     1     -10.573  11.426  67.687  1.00  0.00    -0.214 S  
HETATM   32  O   UNL     1     -11.322  10.251  67.318  1.00  0.00    -0.280 OA 
HETATM   33  O   UNL     1     -10.614  11.959  69.037  1.00  0.00    -0.196 OA 
BRANCH  31  34
HETATM   34  C   UNL     1     -11.074  12.742  66.580  1.00  0.00    -0.286 A  
HETATM   35  C   UNL     1     -11.772  13.487  64.388  1.00  0.00    -0.443 A  
HETATM   36  C   UNL     1     -11.448  12.444  65.269  1.00  0.00    -0.389 A  
HETATM   37  C   UNL     1     -11.684  14.826  64.786  1.00  0.00    -0.422 A  
HETATM   38  N   UNL     1     -12.108  15.848  63.935  1.00  0.00    -1.210 NA 
HETATM   39  C   UNL     1     -11.390  15.101  66.124  1.00  0.00    -0.220 A  
HETATM   40  H1  UNL     1     -12.044  16.824  64.225  1.00  0.00     0.000 HD 
HETATM   41  C   UNL     1     -11.071  14.070  67.019  1.00  0.00    -0.312 A  
HETATM   42  H2  UNL     1     -13.073  15.659  63.664  1.00  0.00     0.000 HD 
ENDBRANCH  31  34
ENDBRANCH  26  31
ENDBRANCH  25  26
ENDBRANCH  22  25
ENDBRANCH  14  22
ENDBRANCH  12  14
ENDBRANCH   9  10
ENDBRANCH   8   9
TORSDOF 11
ENDMDL
MODEL      239
REMARK 921   NORMALIZED FREE ENERGY PREDICTED BY IDOCK:   -4.57 KCAL/MOL
REMARK 922        TOTAL FREE ENERGY PREDICTED BY IDOCK:  -10.14 KCAL/MOL
REMARK 923 INTER-LIGAND FREE ENERGY PREDICTED BY IDOCK:   -8.37 KCAL/MOL
REMARK 924 INTRA-LIGAND FREE ENERGY PREDICTED BY IDOCK:   -1.77 KCAL/MOL
REMARK 927      BINDING AFFINITY PREDICTED BY RF-SCORE:    0.00 PKD
ROOT
HETATM    1  C   UNL     1     -10.260  15.916  67.349  1.00  0.00    -0.270 C  
HETATM    2  C   UNL     1      -9.946  16.617  66.040  1.00  0.00    -0.346 C  
HETATM    3  C   UNL     1     -10.501  18.018  66.209  1.00  0.00    -0.335 C  
HETATM    4  O   UNL     1     -10.993  18.144  67.542  1.00  0.00    -0.324 OA 
HETATM    5  C   UNL     1     -10.486  17.060  68.307  1.00  0.00    -0.363 C  
HETATM    6  O   UNL     1      -9.209  17.365  68.867  1.00  0.00    -0.252 OA 
HETATM    7  C   UNL     1      -8.460  16.146  68.912  1.00  0.00    -0.241 C  
HETATM    8  C   UNL     1      -9.138  15.126  67.997  1.00  0.00    -0.180 C  
ENDROOT
BRANCH   8   9
HETATM    9  O   UNL     1      -8.177  14.662  67.034  1.00  0.00    -0.206 OA 
BRANCH   9  10
HETATM   10  C   UNL     1      -7.535  13.507  67.337  1.00  0.00    -0.122 C  
HETATM   11  O   UNL     1      -6.387  13.429  67.741  1.00  0.00    -0.136 OA 
HETATM   12  N   UNL     1      -8.354  12.462  67.023  1.00  0.00    -0.250 N  
HETATM   13  H   UNL     1      -9.326  12.664  66.789  1.00  0.00     0.000 HD 
BRANCH  12  14
HETATM   14  C   UNL     1      -7.910  11.060  67.005  1.00  0.00    -0.137 C  
BRANCH  14  15
HETATM   15  C   UNL     1      -6.850  10.806  65.884  1.00  0.00    -0.084 C  
BRANCH  15  16
HETATM   16  C   UNL     1      -7.329  10.035  64.664  1.00  0.00    -0.143 A  
HETATM   17  C   UNL     1      -8.566  10.329  64.077  1.00  0.00    -0.194 A  
HETATM   18  C   UNL     1      -6.563   8.990  64.124  1.00  0.00    -0.083 A  
HETATM   19  C   UNL     1      -9.028   9.594  62.982  1.00  0.00    -0.257 A  
HETATM   20  C   UNL     1      -8.254   8.563  62.452  1.00  0.00    -0.184 A  
HETATM   21  C   UNL     1      -7.017   8.266  63.018  1.00  0.00    -0.090 A  
ENDBRANCH  15  16
ENDBRANCH  14  15
BRANCH  14  22
HETATM   22  C   UNL     1      -7.376  10.550  68.378  1.00  0.00    -0.086 C  
HETATM   23  O   UNL     1      -6.656   9.319  68.219  1.00  0.00    -0.058 OA 
HETATM   24  H   UNL     1      -6.330   9.009  69.056  1.00  0.00     0.000 HD 
BRANCH  22  25
HETATM   25  C   UNL     1      -8.372  10.458  69.551  1.00  0.00    -0.113 C  
BRANCH  25  26
HETATM   26  N   UNL     1      -8.955   9.103  69.939  1.00  0.00    -0.160 N  
BRANCH  26  27
HETATM   27  C   UNL     1      -8.934   8.910  71.456  1.00  0.00    -0.205 C  
HETATM   28  C   UNL     1      -8.449   7.565  72.037  1.00  0.00    -0.123 C  
HETATM   29  C   UNL     1      -6.993   7.236  71.717  1.00  0.00    -0.059 C  
HETATM   30  C   UNL     1      -8.591   7.598  73.571  1.00  0.00    -0.254 C  
ENDBRANCH  26  27
BRANCH  26  31
HETATM   31  S   UNL     1     -10.583   8.962  69.277  1.00  0.00    -0.170 S  
HETATM   32  O   UNL     1     -10.490   8.789  67.848  1.00  0.00    -0.229 OA 
HETATM   33  O   UNL     1     -11.281   8.004  70.114  1.00  0.00    -0.238 OA 
BRANCH  31  34
HETATM   34  C   UNL     1     -11.327  10.566  69.567  1.00  0.00    -0.278 A  
HETATM   35  C   UNL     1     -11.820  12.814  68.828  1.00  0.00    -0.346 A  
HETATM   36  C   UNL     1     -11.297  11.538  68.568  1.00  0.00    -0.337 A  
HETATM   37  C   UNL     1     -12.332  13.145  70.088  1.00  0.00    -0.213 A  
HETATM   38  N   UNL     1     -12.943  14.381  70.303  1.00  0.00    -0.484 NA 
HETATM   39  C   UNL     1     -12.431  12.135  71.048  1.00  0.00    -0.369 A  
HETATM   40  H1  UNL     1     -13.316  14.622  71.222  1.00  0.00     0.000 HD 
HETATM   41  C   UNL     1     -11.919  10.853  70.802  1.00  0.00    -0.449 A  
HETATM   42  H2  UNL     1     -13.690  14.492  69.617  1.00  0.00     0.000 HD 
ENDBRANCH  31  34
ENDBRANCH  26  31
ENDBRANCH  25  26
ENDBRANCH  22  25
ENDBRANCH  14  22
ENDBRANCH  12  14
ENDBRANCH   9  10
ENDBRANCH   8   9
TORSDOF 11
ENDMDL
MODEL      240
REMARK 921   NORMALIZED FREE ENERGY PREDICTED BY IDOCK:   -4.56 KCAL/MOL
REMARK 922        TOTAL FREE ENERGY PREDICTED BY IDOCK:  -10.11 KCAL/MOL
REMARK 923 INTER-LIGAND FREE ENERGY PREDICTED BY IDOCK:   -8.50 KCAL/MOL
REMARK 924 INTRA-LIGAND FREE ENERGY PREDICTED BY IDOCK:   -1.61 KCAL/MOL
REMARK 927      BINDING AFFINITY PREDICTED BY RF-SCORE:    0.00 PKD
ROOT
HETATM    1  C   UNL     1      -6.775   8.661  65.113  1.00  0.00    -0.064 C  
HETATM    2  C   UNL     1      -6.981   9.287  63.746  1.00  0.00    -0.091 C  
HETATM    3  C   UNL     1      -6.681   8.172  62.762  1.00  0.00    -0.086 C  
HETATM    4  O   UNL     1      -6.431   6.979  63.504  1.00  0.00    -0.043 OA 
HETATM    5  C   UNL     1      -6.881   7.182  64.835  1.00  0.00    -0.047 C  
HETATM    6  O   UNL     1      -8.262   6.850  64.979  1.00  0.00    -0.134 OA 
HETATM    7  C   UNL     1      -8.813   7.733  65.961  1.00  0.00    -0.157 C  
HETATM    8  C   UNL     1      -7.852   8.906  66.155  1.00  0.00    -0.102 C  
ENDROOT
BRANCH   8   9
HETATM    9  O   UNL     1      -8.566  10.130  65.918  1.00  0.00    -0.138 OA 
BRANCH   9  10
HETATM   10  C   UNL     1      -8.833  10.890  67.008  1.00  0.00    -0.140 C  
HETATM   11  O   UNL     1      -7.993  11.357  67.759  1.00  0.00    -0.111 OA 
HETATM   12  N   UNL     1     -10.186  10.958  67.166  1.00  0.00    -0.201 N  
HETATM   13  H   UNL     1     -10.779  10.611  66.412  1.00  0.00     0.000 HD 
BRANCH  12  14
HETATM   14  C   UNL     1     -10.836  11.508  68.366  1.00  0.00    -0.211 C  
BRANCH  14  15
HETATM   15  C   UNL     1     -11.947  12.543  67.996  1.00  0.00    -0.281 C  
BRANCH  15  16
HETATM   16  C   UNL     1     -11.640  13.479  66.838  1.00  0.00    -0.398 A  
HETATM   17  C   UNL     1     -10.587  14.399  66.927  1.00  0.00    -0.278 A  
HETATM   18  C   UNL     1     -12.423  13.471  65.674  1.00  0.00    -0.528 A  
HETATM   19  C   UNL     1     -10.328  15.290  65.882  1.00  0.00    -0.346 A  
HETATM   20  C   UNL     1     -11.110  15.264  64.729  1.00  0.00    -0.407 A  
HETATM   21  C   UNL     1     -12.154  14.349  64.621  1.00  0.00    -0.485 A  
ENDBRANCH  15  16
ENDBRANCH  14  15
BRANCH  14  22
HETATM   22  C   UNL     1     -11.409  10.422  69.327  1.00  0.00    -0.235 C  
HETATM   23  O   UNL     1     -12.814  10.619  69.539  1.00  0.00    -0.608 OA 
HETATM   24  H   UNL     1     -13.162   9.957  70.124  1.00  0.00     0.000 HD 
BRANCH  22  25
HETATM   25  C   UNL     1     -10.678  10.181  70.663  1.00  0.00    -0.173 C  
BRANCH  25  26
HETATM   26  N   UNL     1     -10.774   8.816  71.338  1.00  0.00    -0.260 N  
BRANCH  26  27
HETATM   27  C   UNL     1     -12.069   8.103  70.951  1.00  0.00    -0.148 C  
HETATM   28  C   UNL     1     -13.180   7.933  72.009  1.00  0.00    -0.254 C  
HETATM   29  C   UNL     1     -13.758   9.249  72.524  1.00  0.00    -0.475 C  
HETATM   30  C   UNL     1     -14.341   7.126  71.395  1.00  0.00    -0.417 C  
ENDBRANCH  26  27
BRANCH  26  31
HETATM   31  S   UNL     1      -9.347   7.866  70.928  1.00  0.00    -0.153 S  
HETATM   32  O   UNL     1      -9.387   7.549  69.522  1.00  0.00    -0.153 OA 
HETATM   33  O   UNL     1      -8.215   8.557  71.519  1.00  0.00    -0.130 OA 
BRANCH  31  34
HETATM   34  C   UNL     1      -9.558   6.328  71.823  1.00  0.00    -0.153 A  
HETATM   35  C   UNL     1      -9.649   3.912  71.848  1.00  0.00    -0.217 A  
HETATM   36  C   UNL     1      -9.413   5.111  71.157  1.00  0.00    -0.205 A  
HETATM   37  C   UNL     1     -10.070   3.916  73.183  1.00  0.00    -0.145 A  
HETATM   38  N   UNL     1     -10.200   2.719  73.889  1.00  0.00    -0.114 NA 
HETATM   39  C   UNL     1     -10.127   5.139  73.855  1.00  0.00    -0.228 A  
HETATM   40  H1  UNL     1     -10.508   2.722  74.862  1.00  0.00     0.000 HD 
HETATM   41  C   UNL     1      -9.889   6.345  73.182  1.00  0.00    -0.178 A  
HETATM   42  H2  UNL     1      -9.312   2.219  73.836  1.00  0.00     0.000 HD 
ENDBRANCH  31  34
ENDBRANCH  26  31
ENDBRANCH  25  26
ENDBRANCH  22  25
ENDBRANCH  14  22
ENDBRANCH  12  14
ENDBRANCH   9  10
ENDBRANCH   8   9
TORSDOF 11
ENDMDL
MODEL      241
REMARK 921   NORMALIZED FREE ENERGY PREDICTED BY IDOCK:   -4.53 KCAL/MOL
REMARK 922        TOTAL FREE ENERGY PREDICTED BY IDOCK:  -10.07 KCAL/MOL
REMARK 923 INTER-LIGAND FREE ENERGY PREDICTED BY IDOCK:   -9.14 KCAL/MOL
REMARK 924 INTRA-LIGAND FREE ENERGY PREDICTED BY IDOCK:   -0.92 KCAL/MOL
REMARK 927      BINDING AFFINITY PREDICTED BY RF-SCORE:    0.00 PKD
ROOT
HETATM    1  C   UNL     1      -5.567  13.994  68.628  1.00  0.00    -0.087 C  
HETATM    2  C   UNL     1      -6.040  14.602  69.936  1.00  0.00    -0.141 C  
HETATM    3  C   UNL     1      -5.865  16.097  69.752  1.00  0.00    -0.174 C  
HETATM    4  O   UNL     1      -5.432  16.334  68.413  1.00  0.00    -0.099 OA 
HETATM    5  C   UNL     1      -5.650  15.149  67.660  1.00  0.00    -0.013 C  
HETATM    6  O   UNL     1      -6.966  15.110  67.111  1.00  0.00    -0.229 OA 
HETATM    7  C   UNL     1      -7.378  13.740  67.082  1.00  0.00     0.167 C  
HETATM    8  C   UNL     1      -6.453  12.936  67.997  1.00  0.00    -0.108 C  
ENDROOT
BRANCH   8   9
HETATM    9  O   UNL     1      -7.255  12.250  68.972  1.00  0.00    -0.097 OA 
BRANCH   9  10
HETATM   10  C   UNL     1      -8.232  11.444  68.487  1.00  0.00    -0.153 C  
HETATM   11  O   UNL     1      -8.049  10.477  67.768  1.00  0.00    -0.106 OA 
HETATM   12  N   UNL     1      -9.440  11.956  68.863  1.00  0.00    -0.410 N  
HETATM   13  H   UNL     1      -9.453  12.711  69.549  1.00  0.00     0.000 HD 
BRANCH  12  14
HETATM   14  C   UNL     1     -10.725  11.476  68.331  1.00  0.00    -0.208 C  
BRANCH  14  15
HETATM   15  C   UNL     1     -10.550  10.780  66.943  1.00  0.00    -0.312 C  
BRANCH  15  16
HETATM   16  C   UNL     1     -11.028  11.563  65.730  1.00  0.00    -0.305 A  
HETATM   17  C   UNL     1     -10.462  11.337  64.469  1.00  0.00    -0.396 A  
HETATM   18  C   UNL     1     -12.016  12.553  65.852  1.00  0.00    -0.472 A  
HETATM   19  C   UNL     1     -10.870  12.084  63.360  1.00  0.00    -0.471 A  
HETATM   20  C   UNL     1     -11.857  13.059  63.496  1.00  0.00    -0.582 A  
HETATM   21  C   UNL     1     -12.436  13.288  64.741  1.00  0.00    -0.439 A  
ENDBRANCH  15  16
ENDBRANCH  14  15
BRANCH  14  22
HETATM   22  C   UNL     1     -11.503  10.543  69.309  1.00  0.00    -0.256 C  
HETATM   23  O   UNL     1     -12.157  11.308  70.331  1.00  0.00    -0.332 OA 
HETATM   24  H   UNL     1     -12.631  10.740  70.926  1.00  0.00     0.000 HD 
BRANCH  22  25
HETATM   25  C   UNL     1     -10.748   9.343  69.916  1.00  0.00    -0.234 C  
BRANCH  25  26
HETATM   26  N   UNL     1     -11.476   8.016  70.108  1.00  0.00    -0.089 N  
BRANCH  26  27
HETATM   27  C   UNL     1     -10.610   6.844  69.648  1.00  0.00    -0.231 C  
HETATM   28  C   UNL     1     -10.893   6.191  68.278  1.00  0.00    -0.387 C  
HETATM   29  C   UNL     1     -10.705   7.130  67.089  1.00  0.00    -0.422 C  
HETATM   30  C   UNL     1      -9.939   4.998  68.081  1.00  0.00    -0.190 C  
ENDBRANCH  26  27
BRANCH  26  31
HETATM   31  S   UNL     1     -11.958   7.860  71.797  1.00  0.00    -0.314 S  
HETATM   32  O   UNL     1     -12.305   9.165  72.304  1.00  0.00    -0.359 OA 
HETATM   33  O   UNL     1     -12.892   6.751  71.853  1.00  0.00    -0.338 OA 
BRANCH  31  34
HETATM   34  C   UNL     1     -10.466   7.344  72.645  1.00  0.00    -0.255 A  
HETATM   35  C   UNL     1      -8.347   7.881  73.677  1.00  0.00    -0.282 A  
HETATM   36  C   UNL     1      -9.545   8.298  73.076  1.00  0.00    -0.295 A  
HETATM   37  C   UNL     1      -8.037   6.523  73.811  1.00  0.00    -0.103 A  
HETATM   38  N   UNL     1      -6.894   6.121  74.502  1.00  0.00    -0.086 NA 
HETATM   39  C   UNL     1      -9.007   5.585  73.451  1.00  0.00    -0.129 A  
HETATM   40  H1  UNL     1      -6.668   5.131  74.600  1.00  0.00     0.000 HD 
HETATM   41  C   UNL     1     -10.212   5.984  72.856  1.00  0.00    -0.207 A  
HETATM   42  H2  UNL     1      -6.921   6.536  75.434  1.00  0.00     0.000 HD 
ENDBRANCH  31  34
ENDBRANCH  26  31
ENDBRANCH  25  26
ENDBRANCH  22  25
ENDBRANCH  14  22
ENDBRANCH  12  14
ENDBRANCH   9  10
ENDBRANCH   8   9
TORSDOF 11
ENDMDL
MODEL      242
REMARK 921   NORMALIZED FREE ENERGY PREDICTED BY IDOCK:   -4.52 KCAL/MOL
REMARK 922        TOTAL FREE ENERGY PREDICTED BY IDOCK:  -10.05 KCAL/MOL
REMARK 923 INTER-LIGAND FREE ENERGY PREDICTED BY IDOCK:  -10.52 KCAL/MOL
REMARK 924 INTRA-LIGAND FREE ENERGY PREDICTED BY IDOCK:    0.47 KCAL/MOL
REMARK 927      BINDING AFFINITY PREDICTED BY RF-SCORE:    0.00 PKD
ROOT
HETATM    1  C   UNL     1      -8.416   5.599  67.870  1.00  0.00    -0.102 C  
HETATM    2  C   UNL     1      -9.514   4.942  68.686  1.00  0.00    -0.198 C  
HETATM    3  C   UNL     1      -8.783   4.186  69.779  1.00  0.00    -0.074 C  
HETATM    4  O   UNL     1      -7.390   4.474  69.665  1.00  0.00    -0.050 OA 
HETATM    5  C   UNL     1      -7.239   5.601  68.815  1.00  0.00    -0.081 C  
HETATM    6  O   UNL     1      -7.320   6.825  69.544  1.00  0.00    -0.086 OA 
HETATM    7  C   UNL     1      -7.924   7.797  68.685  1.00  0.00    -0.122 C  
HETATM    8  C   UNL     1      -8.596   7.065  67.522  1.00  0.00    -0.121 C  
ENDROOT
BRANCH   8   9
HETATM    9  O   UNL     1      -9.982   7.445  67.480  1.00  0.00    -0.150 OA 
BRANCH   9  10
HETATM   10  C   UNL     1     -10.256   8.656  66.935  1.00  0.00    -0.296 C  
HETATM   11  O   UNL     1      -9.842   9.048  65.857  1.00  0.00    -0.276 OA 
HETATM   12  N   UNL     1     -10.986   9.378  67.833  1.00  0.00    -0.502 N  
HETATM   13  H   UNL     1     -11.353   8.898  68.655  1.00  0.00     0.000 HD 
BRANCH  12  14
HETATM   14  C   UNL     1     -11.271  10.813  67.679  1.00  0.00    -0.299 C  
BRANCH  14  15
HETATM   15  C   UNL     1     -11.823  11.436  69.002  1.00  0.00    -0.415 C  
BRANCH  15  16
HETATM   16  C   UNL     1     -11.925  10.502  70.197  1.00  0.00    -0.398 A  
HETATM   17  C   UNL     1     -13.168  10.225  70.781  1.00  0.00    -0.283 A  
HETATM   18  C   UNL     1     -10.776   9.928  70.765  1.00  0.00    -0.350 A  
HETATM   19  C   UNL     1     -13.259   9.401  71.905  1.00  0.00    -0.507 A  
HETATM   20  C   UNL     1     -12.111   8.832  72.454  1.00  0.00    -0.379 A  
HETATM   21  C   UNL     1     -10.870   9.089  71.879  1.00  0.00    -0.413 A  
ENDBRANCH  15  16
ENDBRANCH  14  15
BRANCH  14  22
HETATM   22  C   UNL     1     -10.061  11.644  67.155  1.00  0.00    -0.204 C  
HETATM   23  O   UNL     1      -8.855  11.275  67.839  1.00  0.00    -0.134 OA 
HETATM   24  H   UNL     1      -8.117  11.782  67.520  1.00  0.00     0.000 HD 
BRANCH  22  25
HETATM   25  C   UNL     1     -10.211  13.178  67.090  1.00  0.00    -0.244 C  
BRANCH  25  26
HETATM   26  N   UNL     1      -9.752  13.927  65.843  1.00  0.00    -0.256 N  
BRANCH  26  27
HETATM   27  C   UNL     1     -10.332  13.294  64.578  1.00  0.00    -0.374 C  
HETATM   28  C   UNL     1     -11.647  12.491  64.674  1.00  0.00    -0.396 C  
HETATM   29  C   UNL     1     -12.851  13.315  65.124  1.00  0.00    -0.376 C  
HETATM   30  C   UNL     1     -11.980  11.902  63.290  1.00  0.00    -0.441 C  
ENDBRANCH  26  27
BRANCH  26  31
HETATM   31  S   UNL     1     -10.192  15.627  65.995  1.00  0.00    -0.361 S  
HETATM   32  O   UNL     1      -9.017  16.433  65.777  1.00  0.00    -0.455 OA 
HETATM   33  O   UNL     1     -11.394  15.808  65.201  1.00  0.00    -0.259 OA 
BRANCH  31  34
HETATM   34  C   UNL     1     -10.655  15.821  67.715  1.00  0.00    -0.292 A  
HETATM   35  C   UNL     1     -10.181  16.657  69.933  1.00  0.00     0.077 A  
HETATM   36  C   UNL     1      -9.849  16.569  68.572  1.00  0.00    -0.243 A  
HETATM   37  C   UNL     1     -11.284  15.972  70.456  1.00  0.00    -0.378 A  
HETATM   38  N   UNL     1     -11.664  16.151  71.786  1.00  0.00    -0.510 NA 
HETATM   39  C   UNL     1     -12.126  15.298  69.568  1.00  0.00    -0.320 A  
HETATM   40  H1  UNL     1     -12.468  15.651  72.167  1.00  0.00     0.000 HD 
HETATM   41  C   UNL     1     -11.812  15.206  68.205  1.00  0.00    -0.252 A  
HETATM   42  H2  UNL     1     -11.804  17.148  71.947  1.00  0.00     0.000 HD 
ENDBRANCH  31  34
ENDBRANCH  26  31
ENDBRANCH  25  26
ENDBRANCH  22  25
ENDBRANCH  14  22
ENDBRANCH  12  14
ENDBRANCH   9  10
ENDBRANCH   8   9
TORSDOF 11
ENDMDL
MODEL      243
REMARK 921   NORMALIZED FREE ENERGY PREDICTED BY IDOCK:   -4.50 KCAL/MOL
REMARK 922        TOTAL FREE ENERGY PREDICTED BY IDOCK:  -10.02 KCAL/MOL
REMARK 923 INTER-LIGAND FREE ENERGY PREDICTED BY IDOCK:   -8.97 KCAL/MOL
REMARK 924 INTRA-LIGAND FREE ENERGY PREDICTED BY IDOCK:   -1.05 KCAL/MOL
REMARK 927      BINDING AFFINITY PREDICTED BY RF-SCORE:    0.00 PKD
ROOT
HETATM    1  C   UNL     1     -11.396  13.073  65.440  1.00  0.00    -0.327 C  
HETATM    2  C   UNL     1     -10.664  12.243  64.402  1.00  0.00    -0.369 C  
HETATM    3  C   UNL     1     -11.610  12.184  63.218  1.00  0.00    -0.332 C  
HETATM    4  O   UNL     1     -12.741  13.003  63.510  1.00  0.00    -0.708 OA 
HETATM    5  C   UNL     1     -12.418  13.825  64.623  1.00  0.00    -0.315 C  
HETATM    6  O   UNL     1     -11.785  15.037  64.215  1.00  0.00    -0.335 OA 
HETATM    7  C   UNL     1     -10.850  15.396  65.237  1.00  0.00    -0.409 C  
HETATM    8  C   UNL     1     -10.608  14.175  66.125  1.00  0.00    -0.293 C  
ENDROOT
BRANCH   8   9
HETATM    9  O   UNL     1      -9.198  13.897  66.149  1.00  0.00    -0.157 OA 
BRANCH   9  10
HETATM   10  C   UNL     1      -8.707  13.386  67.305  1.00  0.00    -0.218 C  
HETATM   11  O   UNL     1      -9.359  13.188  68.316  1.00  0.00    -0.212 OA 
HETATM   12  N   UNL     1      -7.359  13.225  67.167  1.00  0.00    -0.364 N  
HETATM   13  H   UNL     1      -6.952  13.331  66.238  1.00  0.00     0.000 HD 
BRANCH  12  14
HETATM   14  C   UNL     1      -6.461  12.906  68.288  1.00  0.00    -0.086 C  
BRANCH  14  15
HETATM   15  C   UNL     1      -5.986  14.197  69.031  1.00  0.00    -0.091 C  
BRANCH  15  16
HETATM   16  C   UNL     1      -6.627  15.503  68.590  1.00  0.00    -0.103 A  
HETATM   17  C   UNL     1      -7.695  16.051  69.312  1.00  0.00    -0.223 A  
HETATM   18  C   UNL     1      -6.191  16.169  67.434  1.00  0.00    -0.200 A  
HETATM   19  C   UNL     1      -8.314  17.230  68.886  1.00  0.00    -0.174 A  
HETATM   20  C   UNL     1      -7.865  17.883  67.740  1.00  0.00    -0.221 A  
HETATM   21  C   UNL     1      -6.798  17.356  67.017  1.00  0.00    -0.216 A  
ENDBRANCH  15  16
ENDBRANCH  14  15
BRANCH  14  22
HETATM   22  C   UNL     1      -7.061  11.888  69.306  1.00  0.00    -0.004 C  
HETATM   23  O   UNL     1      -6.494  12.078  70.610  1.00  0.00    -0.499 OA 
HETATM   24  H   UNL     1      -6.859  11.457  71.230  1.00  0.00     0.000 HD 
BRANCH  22  25
HETATM   25  C   UNL     1      -7.063  10.395  68.918  1.00  0.00    -0.074 C  
BRANCH  25  26
HETATM   26  N   UNL     1      -8.374   9.615  68.940  1.00  0.00    -0.112 N  
BRANCH  26  27
HETATM   27  C   UNL     1      -8.327   8.437  67.967  1.00  0.00    -0.128 C  
HETATM   28  C   UNL     1      -9.544   8.165  67.056  1.00  0.00    -0.253 C  
HETATM   29  C   UNL     1      -9.856   9.294  66.077  1.00  0.00    -0.363 C  
HETATM   30  C   UNL     1      -9.279   6.893  66.228  1.00  0.00    -0.157 C  
ENDBRANCH  26  27
BRANCH  26  31
HETATM   31  S   UNL     1      -8.710   9.095  70.591  1.00  0.00    -0.236 S  
HETATM   32  O   UNL     1      -7.523   9.284  71.389  1.00  0.00    -0.316 OA 
HETATM   33  O   UNL     1      -9.975   9.703  70.959  1.00  0.00    -0.247 OA 
BRANCH  31  34
HETATM   34  C   UNL     1      -8.984   7.329  70.461  1.00  0.00    -0.154 A  
HETATM   35  C   UNL     1      -8.121   5.072  70.395  1.00  0.00    -0.085 A  
HETATM   36  C   UNL     1      -7.908   6.448  70.568  1.00  0.00    -0.107 A  
HETATM   37  C   UNL     1      -9.387   4.569  70.072  1.00  0.00    -0.153 A  
HETATM   38  N   UNL     1      -9.608   3.193  70.006  1.00  0.00    -0.140 NA 
HETATM   39  C   UNL     1     -10.466   5.457  70.053  1.00  0.00    -0.373 A  
HETATM   40  H1  UNL     1     -10.530   2.827  69.770  1.00  0.00     0.000 HD 
HETATM   41  C   UNL     1     -10.272   6.833  70.230  1.00  0.00    -0.216 A  
HETATM   42  H2  UNL     1      -9.317   2.780  70.892  1.00  0.00     0.000 HD 
ENDBRANCH  31  34
ENDBRANCH  26  31
ENDBRANCH  25  26
ENDBRANCH  22  25
ENDBRANCH  14  22
ENDBRANCH  12  14
ENDBRANCH   9  10
ENDBRANCH   8   9
TORSDOF 11
ENDMDL
MODEL      244
REMARK 921   NORMALIZED FREE ENERGY PREDICTED BY IDOCK:   -4.48 KCAL/MOL
REMARK 922        TOTAL FREE ENERGY PREDICTED BY IDOCK:   -9.99 KCAL/MOL
REMARK 923 INTER-LIGAND FREE ENERGY PREDICTED BY IDOCK:   -6.81 KCAL/MOL
REMARK 924 INTRA-LIGAND FREE ENERGY PREDICTED BY IDOCK:   -3.18 KCAL/MOL
REMARK 927      BINDING AFFINITY PREDICTED BY RF-SCORE:    0.00 PKD
ROOT
HETATM    1  C   UNL     1     -10.101  10.755  67.673  1.00  0.00    -0.205 C  
HETATM    2  C   UNL     1     -11.545  11.123  67.961  1.00  0.00    -0.337 C  
HETATM    3  C   UNL     1     -11.706  12.523  67.400  1.00  0.00    -0.366 C  
HETATM    4  O   UNL     1     -10.490  12.884  66.748  1.00  0.00    -0.251 OA 
HETATM    5  C   UNL     1      -9.717  11.706  66.565  1.00  0.00    -0.206 C  
HETATM    6  O   UNL     1     -10.047  11.046  65.344  1.00  0.00    -0.243 OA 
HETATM    7  C   UNL     1      -9.893   9.640  65.564  1.00  0.00    -0.281 C  
HETATM    8  C   UNL     1      -9.843   9.386  67.071  1.00  0.00    -0.201 C  
ENDROOT
BRANCH   8   9
HETATM    9  O   UNL     1     -10.872   8.443  67.412  1.00  0.00    -0.213 OA 
BRANCH   9  10
HETATM   10  C   UNL     1     -10.521   7.133  67.378  1.00  0.00    -0.284 C  
HETATM   11  O   UNL     1     -11.083   6.274  66.721  1.00  0.00    -0.343 OA 
HETATM   12  N   UNL     1      -9.505   6.936  68.268  1.00  0.00    -0.127 N  
HETATM   13  H   UNL     1      -9.057   7.755  68.679  1.00  0.00     0.000 HD 
BRANCH  12  14
HETATM   14  C   UNL     1      -9.022   5.604  68.665  1.00  0.00    -0.111 C  
BRANCH  14  15
HETATM   15  C   UNL     1      -7.523   5.395  68.272  1.00  0.00    -0.073 C  
BRANCH  15  16
HETATM   16  C   UNL     1      -7.221   5.307  66.785  1.00  0.00    -0.078 A  
HETATM   17  C   UNL     1      -8.039   4.550  65.936  1.00  0.00    -0.102 A  
HETATM   18  C   UNL     1      -6.100   5.949  66.236  1.00  0.00    -0.029 A  
HETATM   19  C   UNL     1      -7.739   4.433  64.576  1.00  0.00    -0.081 A  
HETATM   20  C   UNL     1      -6.626   5.081  64.044  1.00  0.00    -0.041 A  
HETATM   21  C   UNL     1      -5.810   5.846  64.872  1.00  0.00    -0.025 A  
ENDBRANCH  15  16
ENDBRANCH  14  15
BRANCH  14  22
HETATM   22  C   UNL     1      -9.235   5.280  70.175  1.00  0.00    -0.139 C  
HETATM   23  O   UNL     1     -10.505   4.648  70.386  1.00  0.00    -0.136 OA 
HETATM   24  H   UNL     1     -10.634   4.450  71.306  1.00  0.00     0.000 HD 
BRANCH  22  25
HETATM   25  C   UNL     1      -9.006   6.413  71.196  1.00  0.00    -0.146 C  
BRANCH  25  26
HETATM   26  N   UNL     1      -8.853   7.849  70.705  1.00  0.00    -0.137 N  
BRANCH  26  27
HETATM   27  C   UNL     1      -9.856   8.774  71.394  1.00  0.00    -0.283 C  
HETATM   28  C   UNL     1     -11.287   8.890  70.826  1.00  0.00    -0.325 C  
HETATM   29  C   UNL     1     -12.079   7.585  70.858  1.00  0.00    -0.254 C  
HETATM   30  C   UNL     1     -12.073   9.929  71.648  1.00  0.00    -0.457 C  
ENDBRANCH  26  27
BRANCH  26  31
HETATM   31  S   UNL     1      -7.188   8.373  70.958  1.00  0.00    -0.071 S  
HETATM   32  O   UNL     1      -7.135   9.201  72.137  1.00  0.00    -0.324 OA 
HETATM   33  O   UNL     1      -6.365   7.185  70.827  1.00  0.00    -0.038 OA 
BRANCH  31  34
HETATM   34  C   UNL     1      -6.830   9.427  69.554  1.00  0.00    -0.049 A  
HETATM   35  C   UNL     1      -6.081   9.697  67.271  1.00  0.00    -0.056 A  
HETATM   36  C   UNL     1      -6.427   8.862  68.344  1.00  0.00    -0.055 A  
HETATM   37  C   UNL     1      -6.090  11.090  67.405  1.00  0.00    -0.057 A  
HETATM   38  N   UNL     1      -5.846  11.911  66.303  1.00  0.00    -0.483 NA 
HETATM   39  C   UNL     1      -6.577  11.637  68.595  1.00  0.00    -0.066 A  
HETATM   40  H1  UNL     1      -5.852  12.926  66.401  1.00  0.00     0.000 HD 
HETATM   41  C   UNL     1      -6.933  10.817  69.674  1.00  0.00    -0.134 A  
HETATM   42  H2  UNL     1      -6.502  11.657  65.565  1.00  0.00     0.000 HD 
ENDBRANCH  31  34
ENDBRANCH  26  31
ENDBRANCH  25  26
ENDBRANCH  22  25
ENDBRANCH  14  22
ENDBRANCH  12  14
ENDBRANCH   9  10
ENDBRANCH   8   9
TORSDOF 11
ENDMDL
MODEL      245
REMARK 921   NORMALIZED FREE ENERGY PREDICTED BY IDOCK:   -4.46 KCAL/MOL
REMARK 922        TOTAL FREE ENERGY PREDICTED BY IDOCK:   -9.95 KCAL/MOL
REMARK 923 INTER-LIGAND FREE ENERGY PREDICTED BY IDOCK:   -9.65 KCAL/MOL
REMARK 924 INTRA-LIGAND FREE ENERGY PREDICTED BY IDOCK:   -0.30 KCAL/MOL
REMARK 927      BINDING AFFINITY PREDICTED BY RF-SCORE:    0.00 PKD
ROOT
HETATM    1  C   UNL     1     -10.467   6.743  73.267  1.00  0.00    -0.321 C  
HETATM    2  C   UNL     1      -9.171   7.375  73.740  1.00  0.00    -0.305 C  
HETATM    3  C   UNL     1      -8.151   6.254  73.683  1.00  0.00    -0.109 C  
HETATM    4  O   UNL     1      -8.784   5.105  73.122  1.00  0.00    -0.116 OA 
HETATM    5  C   UNL     1     -10.001   5.519  72.518  1.00  0.00    -0.169 C  
HETATM    6  O   UNL     1      -9.803   5.933  71.167  1.00  0.00    -0.174 OA 
HETATM    7  C   UNL     1     -10.739   6.983  70.900  1.00  0.00    -0.235 C  
HETATM    8  C   UNL     1     -11.273   7.508  72.233  1.00  0.00    -0.283 C  
ENDROOT
BRANCH   8   9
HETATM    9  O   UNL     1     -11.032   8.923  72.298  1.00  0.00    -0.337 OA 
BRANCH   9  10
HETATM   10  C   UNL     1     -10.833   9.553  71.115  1.00  0.00    -0.355 C  
HETATM   11  O   UNL     1      -9.752   9.693  70.569  1.00  0.00    -0.259 OA 
HETATM   12  N   UNL     1     -12.023  10.076  70.698  1.00  0.00    -0.300 N  
HETATM   13  H   UNL     1     -12.871   9.800  71.193  1.00  0.00     0.000 HD 
BRANCH  12  14
HETATM   14  C   UNL     1     -12.147  11.014  69.572  1.00  0.00    -0.329 C  
BRANCH  14  15
HETATM   15  C   UNL     1     -11.430  12.371  69.872  1.00  0.00    -0.172 C  
BRANCH  15  16
HETATM   16  C   UNL     1     -12.203  13.371  70.717  1.00  0.00    -0.409 A  
HETATM   17  C   UNL     1     -13.195  12.935  71.606  1.00  0.00    -0.416 A  
HETATM   18  C   UNL     1     -11.970  14.750  70.599  1.00  0.00    -0.371 A  
HETATM   19  C   UNL     1     -13.936  13.854  72.352  1.00  0.00    -0.633 A  
HETATM   20  C   UNL     1     -13.689  15.220  72.230  1.00  0.00    -0.614 A  
HETATM   21  C   UNL     1     -12.700  15.668  71.358  1.00  0.00    -0.535 A  
ENDBRANCH  15  16
ENDBRANCH  14  15
BRANCH  14  22
HETATM   22  C   UNL     1     -11.656  10.434  68.210  1.00  0.00    -0.021 C  
HETATM   23  O   UNL     1     -11.235   9.071  68.360  1.00  0.00    -0.450 OA 
HETATM   24  H   UNL     1     -10.936   8.718  67.530  1.00  0.00     0.000 HD 
BRANCH  22  25
HETATM   25  C   UNL     1     -10.619  11.248  67.410  1.00  0.00    -0.224 C  
BRANCH  25  26
HETATM   26  N   UNL     1      -9.845  10.576  66.280  1.00  0.00    -0.208 N  
BRANCH  26  27
HETATM   27  C   UNL     1     -10.504  10.845  64.928  1.00  0.00    -0.282 C  
HETATM   28  C   UNL     1     -11.468  12.043  64.785  1.00  0.00    -0.357 C  
HETATM   29  C   UNL     1     -10.814  13.402  65.027  1.00  0.00    -0.337 C  
HETATM   30  C   UNL     1     -12.048  12.056  63.358  1.00  0.00    -0.597 C  
ENDBRANCH  26  27
BRANCH  26  31
HETATM   31  S   UNL     1      -8.170  11.124  66.321  1.00  0.00    -0.120 S  
HETATM   32  O   UNL     1      -7.424  10.412  65.313  1.00  0.00    -0.144 OA 
HETATM   33  O   UNL     1      -8.217  12.574  66.348  1.00  0.00     0.118 OA 
BRANCH  31  34
HETATM   34  C   UNL     1      -7.557  10.580  67.914  1.00  0.00    -0.092 A  
HETATM   35  C   UNL     1      -6.672  11.090  70.106  1.00  0.00    -0.031 A  
HETATM   36  C   UNL     1      -7.217  11.521  68.886  1.00  0.00    -0.117 A  
HETATM   37  C   UNL     1      -6.420   9.735  70.349  1.00  0.00    -0.101 A  
HETATM   38  N   UNL     1      -5.977   9.309  71.601  1.00  0.00    -0.111 NA 
HETATM   39  C   UNL     1      -6.845   8.803  69.399  1.00  0.00    -0.049 A  
HETATM   40  H1  UNL     1      -5.794   8.321  71.778  1.00  0.00     0.000 HD 
HETATM   41  C   UNL     1      -7.397   9.216  68.178  1.00  0.00    -0.079 A  
HETATM   42  H2  UNL     1      -6.637   9.642  72.304  1.00  0.00     0.000 HD 
ENDBRANCH  31  34
ENDBRANCH  26  31
ENDBRANCH  25  26
ENDBRANCH  22  25
ENDBRANCH  14  22
ENDBRANCH  12  14
ENDBRANCH   9  10
ENDBRANCH   8   9
TORSDOF 11
ENDMDL
MODEL      246
REMARK 921   NORMALIZED FREE ENERGY PREDICTED BY IDOCK:   -4.44 KCAL/MOL
REMARK 922        TOTAL FREE ENERGY PREDICTED BY IDOCK:   -9.91 KCAL/MOL
REMARK 923 INTER-LIGAND FREE ENERGY PREDICTED BY IDOCK:   -9.33 KCAL/MOL
REMARK 924 INTRA-LIGAND FREE ENERGY PREDICTED BY IDOCK:   -0.59 KCAL/MOL
REMARK 927      BINDING AFFINITY PREDICTED BY RF-SCORE:    0.00 PKD
ROOT
HETATM    1  C   UNL     1      -8.823   7.435  73.179  1.00  0.00    -0.192 C  
HETATM    2  C   UNL     1      -8.449   6.044  72.700  1.00  0.00    -0.118 C  
HETATM    3  C   UNL     1      -9.229   5.104  73.600  1.00  0.00    -0.129 C  
HETATM    4  O   UNL     1     -10.063   5.891  74.450  1.00  0.00    -0.238 OA 
HETATM    5  C   UNL     1     -10.116   7.209  73.923  1.00  0.00    -0.317 C  
HETATM    6  O   UNL     1     -11.157   7.347  72.957  1.00  0.00    -0.342 OA 
HETATM    7  C   UNL     1     -10.710   8.290  71.977  1.00  0.00    -0.297 C  
HETATM    8  C   UNL     1      -9.196   8.454  72.117  1.00  0.00    -0.243 C  
ENDROOT
BRANCH   8   9
HETATM    9  O   UNL     1      -8.584   8.164  70.850  1.00  0.00    -0.125 OA 
BRANCH   9  10
HETATM   10  C   UNL     1      -8.393   9.219  70.020  1.00  0.00    -0.168 C  
HETATM   11  O   UNL     1      -7.702  10.192  70.271  1.00  0.00    -0.184 OA 
HETATM   12  N   UNL     1      -9.173   9.045  68.914  1.00  0.00    -0.139 N  
HETATM   13  H   UNL     1      -9.626   8.141  68.779  1.00  0.00     0.000 HD 
BRANCH  12  14
HETATM   14  C   UNL     1      -9.396  10.093  67.906  1.00  0.00    -0.141 C  
BRANCH  14  15
HETATM   15  C   UNL     1      -9.344   9.516  66.454  1.00  0.00    -0.231 C  
BRANCH  15  16
HETATM   16  C   UNL     1      -9.326   8.001  66.330  1.00  0.00    -0.259 A  
HETATM   17  C   UNL     1     -10.426   7.240  66.745  1.00  0.00    -0.311 A  
HETATM   18  C   UNL     1      -8.197   7.330  65.835  1.00  0.00    -0.132 A  
HETATM   19  C   UNL     1     -10.396   5.845  66.672  1.00  0.00    -0.283 A  
HETATM   20  C   UNL     1      -9.271   5.192  66.172  1.00  0.00    -0.153 A  
HETATM   21  C   UNL     1      -8.173   5.935  65.746  1.00  0.00    -0.130 A  
ENDBRANCH  15  16
ENDBRANCH  14  15
BRANCH  14  22
HETATM   22  C   UNL     1     -10.712  10.903  68.118  1.00  0.00    -0.214 C  
HETATM   23  O   UNL     1     -11.845  10.169  67.632  1.00  0.00    -0.365 OA 
HETATM   24  H   UNL     1     -12.647  10.662  67.762  1.00  0.00     0.000 HD 
BRANCH  22  25
HETATM   25  C   UNL     1     -10.749  12.364  67.626  1.00  0.00    -0.221 C  
BRANCH  25  26
HETATM   26  N   UNL     1      -9.722  12.839  66.603  1.00  0.00    -0.246 N  
BRANCH  26  27
HETATM   27  C   UNL     1     -10.222  12.609  65.177  1.00  0.00    -0.280 C  
HETATM   28  C   UNL     1     -11.697  12.213  64.951  1.00  0.00    -0.373 C  
HETATM   29  C   UNL     1     -12.703  13.267  65.407  1.00  0.00    -0.460 C  
HETATM   30  C   UNL     1     -11.929  11.972  63.447  1.00  0.00    -0.571 C  
ENDBRANCH  26  27
BRANCH  26  31
HETATM   31  S   UNL     1      -9.346  14.535  66.906  1.00  0.00    -0.255 S  
HETATM   32  O   UNL     1      -7.969  14.638  67.323  1.00  0.00    -0.189 OA 
HETATM   33  O   UNL     1      -9.850  15.274  65.763  1.00  0.00    -0.319 OA 
BRANCH  31  34
HETATM   34  C   UNL     1     -10.359  14.976  68.316  1.00  0.00    -0.236 A  
HETATM   35  C   UNL     1     -12.510  15.566  69.251  1.00  0.00     0.026 A  
HETATM   36  C   UNL     1     -11.734  15.152  68.157  1.00  0.00    -0.323 A  
HETATM   37  C   UNL     1     -11.923  15.849  70.490  1.00  0.00    -0.333 A  
HETATM   38  N   UNL     1     -12.716  16.158  71.596  1.00  0.00    -0.491 NA 
HETATM   39  C   UNL     1     -10.561  15.585  70.653  1.00  0.00    -0.170 A  
HETATM   40  H1  UNL     1     -12.289  16.364  72.499  1.00  0.00     0.000 HD 
HETATM   41  C   UNL     1      -9.773  15.165  69.572  1.00  0.00    -0.172 A  
HETATM   42  H2  UNL     1     -13.390  15.403  71.726  1.00  0.00     0.000 HD 
ENDBRANCH  31  34
ENDBRANCH  26  31
ENDBRANCH  25  26
ENDBRANCH  22  25
ENDBRANCH  14  22
ENDBRANCH  12  14
ENDBRANCH   9  10
ENDBRANCH   8   9
TORSDOF 11
ENDMDL
MODEL      247
REMARK 921   NORMALIZED FREE ENERGY PREDICTED BY IDOCK:   -4.43 KCAL/MOL
REMARK 922        TOTAL FREE ENERGY PREDICTED BY IDOCK:   -9.90 KCAL/MOL
REMARK 923 INTER-LIGAND FREE ENERGY PREDICTED BY IDOCK:   -8.75 KCAL/MOL
REMARK 924 INTRA-LIGAND FREE ENERGY PREDICTED BY IDOCK:   -1.15 KCAL/MOL
REMARK 927      BINDING AFFINITY PREDICTED BY RF-SCORE:    0.00 PKD
ROOT
HETATM    1  C   UNL     1     -12.229  10.134  70.088  1.00  0.00    -0.188 C  
HETATM    2  C   UNL     1     -12.323  11.600  70.469  1.00  0.00    -0.410 C  
HETATM    3  C   UNL     1     -13.025  11.604  71.814  1.00  0.00    -0.377 C  
HETATM    4  O   UNL     1     -13.219  10.250  72.220  1.00  0.00    -0.409 OA 
HETATM    5  C   UNL     1     -12.400   9.422  71.407  1.00  0.00    -0.357 C  
HETATM    6  O   UNL     1     -11.089   9.282  71.954  1.00  0.00    -0.367 OA 
HETATM    7  C   UNL     1     -10.178   9.165  70.856  1.00  0.00    -0.282 C  
HETATM    8  C   UNL     1     -10.887   9.635  69.585  1.00  0.00    -0.244 C  
ENDROOT
BRANCH   8   9
HETATM    9  O   UNL     1     -10.109  10.685  68.987  1.00  0.00    -0.196 OA 
BRANCH   9  10
HETATM   10  C   UNL     1      -9.447  10.366  67.847  1.00  0.00    -0.138 C  
HETATM   11  O   UNL     1      -8.239  10.431  67.698  1.00  0.00    -0.110 OA 
HETATM   12  N   UNL     1     -10.365  10.056  66.887  1.00  0.00    -0.235 N  
HETATM   13  H   UNL     1     -11.339   9.940  67.169  1.00  0.00     0.000 HD 
BRANCH  12  14
HETATM   14  C   UNL     1     -10.026   9.881  65.466  1.00  0.00    -0.292 C  
BRANCH  14  15
HETATM   15  C   UNL     1     -10.416  11.136  64.621  1.00  0.00    -0.400 C  
BRANCH  15  16
HETATM   16  C   UNL     1     -10.934  12.337  65.396  1.00  0.00    -0.341 A  
HETATM   17  C   UNL     1     -10.050  13.159  66.109  1.00  0.00    -0.291 A  
HETATM   18  C   UNL     1     -12.306  12.628  65.447  1.00  0.00    -0.499 A  
HETATM   19  C   UNL     1     -10.528  14.239  66.857  1.00  0.00    -0.272 A  
HETATM   20  C   UNL     1     -11.892  14.519  66.892  1.00  0.00    -0.399 A  
HETATM   21  C   UNL     1     -12.782  13.718  66.181  1.00  0.00    -0.335 A  
ENDBRANCH  15  16
ENDBRANCH  14  15
BRANCH  14  22
HETATM   22  C   UNL     1      -8.533   9.505  65.217  1.00  0.00    -0.148 C  
HETATM   23  O   UNL     1      -7.821  10.606  64.634  1.00  0.00    -0.331 OA 
HETATM   24  H   UNL     1      -6.912  10.377  64.483  1.00  0.00     0.000 HD 
BRANCH  22  25
HETATM   25  C   UNL     1      -8.234   8.194  64.461  1.00  0.00    -0.115 C  
BRANCH  25  26
HETATM   26  N   UNL     1      -7.716   6.984  65.231  1.00  0.00    -0.106 N  
BRANCH  26  27
HETATM   27  C   UNL     1      -8.810   6.387  66.117  1.00  0.00    -0.150 C  
HETATM   28  C   UNL     1      -8.451   5.921  67.544  1.00  0.00    -0.103 C  
HETATM   29  C   UNL     1      -7.962   7.039  68.461  1.00  0.00    -0.123 C  
HETATM   30  C   UNL     1      -9.699   5.298  68.199  1.00  0.00    -0.184 C  
ENDBRANCH  26  27
BRANCH  26  31
HETATM   31  S   UNL     1      -7.072   5.804  64.089  1.00  0.00    -0.055 S  
HETATM   32  O   UNL     1      -6.853   6.456  62.822  1.00  0.00    -0.037 OA 
HETATM   33  O   UNL     1      -6.001   5.111  64.782  1.00  0.00    -0.020 OA 
BRANCH  31  34
HETATM   34  C   UNL     1      -8.405   4.629  63.856  1.00  0.00    -0.121 A  
HETATM   35  C   UNL     1      -9.518   2.572  64.468  1.00  0.00    -0.132 A  
HETATM   36  C   UNL     1      -8.514   3.525  64.701  1.00  0.00    -0.096 A  
HETATM   37  C   UNL     1     -10.386   2.687  63.376  1.00  0.00    -0.183 A  
HETATM   38  N   UNL     1     -11.445   1.792  63.215  1.00  0.00    -0.520 NA 
HETATM   39  C   UNL     1     -10.316   3.841  62.593  1.00  0.00    -0.192 A  
HETATM   40  H1  UNL     1     -12.078   1.875  62.419  1.00  0.00     0.000 HD 
HETATM   41  C   UNL     1      -9.323   4.805  62.816  1.00  0.00     0.008 A  
HETATM   42  H2  UNL     1     -12.003   1.801  64.068  1.00  0.00     0.000 HD 
ENDBRANCH  31  34
ENDBRANCH  26  31
ENDBRANCH  25  26
ENDBRANCH  22  25
ENDBRANCH  14  22
ENDBRANCH  12  14
ENDBRANCH   9  10
ENDBRANCH   8   9
TORSDOF 11
ENDMDL
MODEL      248
REMARK 921   NORMALIZED FREE ENERGY PREDICTED BY IDOCK:   -4.42 KCAL/MOL
REMARK 922        TOTAL FREE ENERGY PREDICTED BY IDOCK:   -9.89 KCAL/MOL
REMARK 923 INTER-LIGAND FREE ENERGY PREDICTED BY IDOCK:   -9.28 KCAL/MOL
REMARK 924 INTRA-LIGAND FREE ENERGY PREDICTED BY IDOCK:   -0.61 KCAL/MOL
REMARK 927      BINDING AFFINITY PREDICTED BY RF-SCORE:    0.00 PKD
ROOT
HETATM    1  C   UNL     1      -7.607   6.809  66.624  1.00  0.00    -0.086 C  
HETATM    2  C   UNL     1      -6.958   7.769  67.604  1.00  0.00    -0.081 C  
HETATM    3  C   UNL     1      -5.564   7.214  67.822  1.00  0.00    -0.024 C  
HETATM    4  O   UNL     1      -5.390   6.093  66.956  1.00  0.00    -0.005 OA 
HETATM    5  C   UNL     1      -6.427   6.117  65.986  1.00  0.00    -0.046 C  
HETATM    6  O   UNL     1      -6.069   6.908  64.853  1.00  0.00    -0.035 OA 
HETATM    7  C   UNL     1      -7.267   7.517  64.361  1.00  0.00    -0.081 C  
HETATM    8  C   UNL     1      -8.342   7.419  65.444  1.00  0.00    -0.117 C  
ENDROOT
BRANCH   8   9
HETATM    9  O   UNL     1      -8.826   8.741  65.732  1.00  0.00    -0.172 OA 
BRANCH   9  10
HETATM   10  C   UNL     1      -9.819   8.830  66.651  1.00  0.00    -0.265 C  
HETATM   11  O   UNL     1     -10.743   8.043  66.761  1.00  0.00    -0.289 OA 
HETATM   12  N   UNL     1      -9.654   9.988  67.354  1.00  0.00    -0.152 N  
HETATM   13  H   UNL     1      -8.784  10.507  67.233  1.00  0.00     0.000 HD 
BRANCH  12  14
HETATM   14  C   UNL     1     -10.665  10.527  68.276  1.00  0.00    -0.229 C  
BRANCH  14  15
HETATM   15  C   UNL     1     -10.310  10.214  69.766  1.00  0.00    -0.297 C  
BRANCH  15  16
HETATM   16  C   UNL     1     -11.110   9.107  70.433  1.00  0.00    -0.293 A  
HETATM   17  C   UNL     1     -10.670   7.778  70.376  1.00  0.00    -0.238 A  
HETATM   18  C   UNL     1     -12.323   9.382  71.084  1.00  0.00    -0.386 A  
HETATM   19  C   UNL     1     -11.425   6.752  70.951  1.00  0.00    -0.384 A  
HETATM   20  C   UNL     1     -12.624   7.042  71.600  1.00  0.00    -0.419 A  
HETATM   21  C   UNL     1     -13.070   8.358  71.673  1.00  0.00    -0.355 A  
ENDBRANCH  15  16
ENDBRANCH  14  15
BRANCH  14  22
HETATM   22  C   UNL     1     -10.936  12.052  68.095  1.00  0.00    -0.230 C  
HETATM   23  O   UNL     1     -12.260  12.278  67.593  1.00  0.00    -0.442 OA 
HETATM   24  H   UNL     1     -12.425  13.207  67.482  1.00  0.00     0.000 HD 
BRANCH  22  25
HETATM   25  C   UNL     1      -9.900  12.881  67.309  1.00  0.00    -0.218 C  
BRANCH  25  26
HETATM   26  N   UNL     1     -10.284  13.485  65.962  1.00  0.00    -0.299 N  
BRANCH  26  27
HETATM   27  C   UNL     1     -11.394  12.673  65.294  1.00  0.00    -0.315 C  
HETATM   28  C   UNL     1     -11.339  12.436  63.769  1.00  0.00    -0.536 C  
HETATM   29  C   UNL     1     -10.122  11.638  63.306  1.00  0.00    -0.454 C  
HETATM   30  C   UNL     1     -12.596  11.659  63.334  1.00  0.00    -0.305 C  
ENDBRANCH  26  27
BRANCH  26  31
HETATM   31  S   UNL     1     -10.746  15.171  66.195  1.00  0.00    -0.333 S  
HETATM   32  O   UNL     1     -10.808  15.817  64.907  1.00  0.00    -0.436 OA 
HETATM   33  O   UNL     1     -11.886  15.159  67.094  1.00  0.00    -0.233 OA 
BRANCH  31  34
HETATM   34  C   UNL     1      -9.371  15.896  67.085  1.00  0.00    -0.212 A  
HETATM   35  C   UNL     1      -6.990  16.160  67.413  1.00  0.00    -0.215 A  
HETATM   36  C   UNL     1      -8.063  15.646  66.669  1.00  0.00    -0.239 A  
HETATM   37  C   UNL     1      -7.206  16.883  68.592  1.00  0.00    -0.215 A  
HETATM   38  N   UNL     1      -6.138  17.477  69.265  1.00  0.00    -0.220 NA 
HETATM   39  C   UNL     1      -8.521  17.194  68.946  1.00  0.00    -0.187 A  
HETATM   40  H1  UNL     1      -6.295  18.003  70.125  1.00  0.00     0.000 HD 
HETATM   41  C   UNL     1      -9.604  16.694  68.210  1.00  0.00    -0.233 A  
HETATM   42  H2  UNL     1      -5.641  18.079  68.609  1.00  0.00     0.000 HD 
ENDBRANCH  31  34
ENDBRANCH  26  31
ENDBRANCH  25  26
ENDBRANCH  22  25
ENDBRANCH  14  22
ENDBRANCH  12  14
ENDBRANCH   9  10
ENDBRANCH   8   9
TORSDOF 11
ENDMDL
MODEL      249
REMARK 921   NORMALIZED FREE ENERGY PREDICTED BY IDOCK:   -4.40 KCAL/MOL
REMARK 922        TOTAL FREE ENERGY PREDICTED BY IDOCK:   -9.84 KCAL/MOL
REMARK 923 INTER-LIGAND FREE ENERGY PREDICTED BY IDOCK:   -8.57 KCAL/MOL
REMARK 924 INTRA-LIGAND FREE ENERGY PREDICTED BY IDOCK:   -1.27 KCAL/MOL
REMARK 927      BINDING AFFINITY PREDICTED BY RF-SCORE:    0.00 PKD
ROOT
HETATM    1  C   UNL     1      -9.794   6.618  72.054  1.00  0.00    -0.166 C  
HETATM    2  C   UNL     1      -9.200   5.456  71.280  1.00  0.00    -0.173 C  
HETATM    3  C   UNL     1      -9.607   4.222  72.063  1.00  0.00    -0.150 C  
HETATM    4  O   UNL     1     -10.454   4.634  73.134  1.00  0.00    -0.167 OA 
HETATM    5  C   UNL     1     -10.877   5.966  72.879  1.00  0.00    -0.258 C  
HETATM    6  O   UNL     1     -12.058   5.998  72.078  1.00  0.00    -0.280 OA 
HETATM    7  C   UNL     1     -11.984   7.166  71.255  1.00  0.00    -0.337 C  
HETATM    8  C   UNL     1     -10.540   7.671  71.256  1.00  0.00    -0.219 C  
ENDROOT
BRANCH   8   9
HETATM    9  O   UNL     1     -10.079   7.748  69.897  1.00  0.00    -0.196 OA 
BRANCH   9  10
HETATM   10  C   UNL     1      -9.444   8.892  69.542  1.00  0.00    -0.159 C  
HETATM   11  O   UNL     1      -9.239   9.838  70.284  1.00  0.00    -0.246 OA 
HETATM   12  N   UNL     1      -9.165   8.834  68.208  1.00  0.00    -0.140 N  
HETATM   13  H   UNL     1      -9.296   7.945  67.725  1.00  0.00     0.000 HD 
BRANCH  12  14
HETATM   14  C   UNL     1      -8.683   9.986  67.430  1.00  0.00    -0.125 C  
BRANCH  14  15
HETATM   15  C   UNL     1      -7.173  10.279  67.709  1.00  0.00    -0.086 C  
BRANCH  15  16
HETATM   16  C   UNL     1      -6.846  11.651  68.276  1.00  0.00    -0.067 A  
HETATM   17  C   UNL     1      -6.868  12.785  67.454  1.00  0.00    -0.137 A  
HETATM   18  C   UNL     1      -6.478  11.808  69.622  1.00  0.00    -0.113 A  
HETATM   19  C   UNL     1      -6.526  14.041  67.962  1.00  0.00    -0.152 A  
HETATM   20  C   UNL     1      -6.169  14.182  69.302  1.00  0.00    -0.103 A  
HETATM   21  C   UNL     1      -6.153  13.067  70.134  1.00  0.00    -0.097 A  
ENDBRANCH  15  16
ENDBRANCH  14  15
BRANCH  14  22
HETATM   22  C   UNL     1      -8.934   9.860  65.896  1.00  0.00    -0.152 C  
HETATM   23  O   UNL     1      -8.050  10.720  65.163  1.00  0.00    -0.312 OA 
HETATM   24  H   UNL     1      -8.203  10.643  64.229  1.00  0.00     0.000 HD 
BRANCH  22  25
HETATM   25  C   UNL     1     -10.383   9.997  65.387  1.00  0.00    -0.041 C  
BRANCH  25  26
HETATM   26  N   UNL     1     -11.147  11.295  65.630  1.00  0.00    -0.140 N  
BRANCH  26  27
HETATM   27  C   UNL     1     -10.502  12.109  66.751  1.00  0.00    -0.218 C  
HETATM   28  C   UNL     1     -11.358  12.527  67.966  1.00  0.00    -0.339 C  
HETATM   29  C   UNL     1     -11.899  11.355  68.781  1.00  0.00    -0.388 C  
HETATM   30  C   UNL     1     -10.503  13.392  68.912  1.00  0.00    -0.135 C  
ENDBRANCH  26  27
BRANCH  26  31
HETATM   31  S   UNL     1     -11.239  12.203  64.121  1.00  0.00    -0.403 S  
HETATM   32  O   UNL     1     -10.128  11.825  63.283  1.00  0.00    -0.411 OA 
HETATM   33  O   UNL     1     -12.611  12.087  63.661  1.00  0.00    -0.568 OA 
BRANCH  31  34
HETATM   34  C   UNL     1     -10.980  13.908  64.606  1.00  0.00    -0.398 A  
HETATM   35  C   UNL     1      -9.663  15.591  65.737  1.00  0.00    -0.383 A  
HETATM   36  C   UNL     1      -9.825  14.267  65.300  1.00  0.00    -0.204 A  
HETATM   37  C   UNL     1     -10.661  16.550  65.528  1.00  0.00    -0.295 A  
HETATM   38  N   UNL     1     -10.445  17.885  65.873  1.00  0.00    -0.537 NA 
HETATM   39  C   UNL     1     -11.771  16.193  64.758  1.00  0.00     0.076 A  
HETATM   40  H1  UNL     1     -11.172  18.584  65.721  1.00  0.00     0.000 HD 
HETATM   41  C   UNL     1     -11.945  14.877  64.308  1.00  0.00    -0.355 A  
HETATM   42  H2  UNL     1      -9.595  18.202  65.407  1.00  0.00     0.000 HD 
ENDBRANCH  31  34
ENDBRANCH  26  31
ENDBRANCH  25  26
ENDBRANCH  22  25
ENDBRANCH  14  22
ENDBRANCH  12  14
ENDBRANCH   9  10
ENDBRANCH   8   9
TORSDOF 11
ENDMDL
MODEL      250
REMARK 921   NORMALIZED FREE ENERGY PREDICTED BY IDOCK:   -4.39 KCAL/MOL
REMARK 922        TOTAL FREE ENERGY PREDICTED BY IDOCK:   -9.84 KCAL/MOL
REMARK 923 INTER-LIGAND FREE ENERGY PREDICTED BY IDOCK:   -8.82 KCAL/MOL
REMARK 924 INTRA-LIGAND FREE ENERGY PREDICTED BY IDOCK:   -1.01 KCAL/MOL
REMARK 927      BINDING AFFINITY PREDICTED BY RF-SCORE:    0.00 PKD
ROOT
HETATM    1  C   UNL     1      -5.456   8.112  68.241  1.00  0.00    -0.033 C  
HETATM    2  C   UNL     1      -6.216   8.733  67.083  1.00  0.00    -0.059 C  
HETATM    3  C   UNL     1      -6.237   7.657  66.014  1.00  0.00    -0.042 C  
HETATM    4  O   UNL     1      -5.636   6.481  66.554  1.00  0.00    -0.013 OA 
HETATM    5  C   UNL     1      -5.554   6.632  67.964  1.00  0.00    -0.012 C  
HETATM    6  O   UNL     1      -6.746   6.186  68.610  1.00  0.00    -0.056 OA 
HETATM    7  C   UNL     1      -6.940   7.011  69.763  1.00  0.00    -0.059 C  
HETATM    8  C   UNL     1      -6.065   8.256  69.624  1.00  0.00    -0.029 C  
ENDROOT
BRANCH   8   9
HETATM    9  O   UNL     1      -6.901   9.420  69.728  1.00  0.00    -0.048 OA 
BRANCH   9  10
HETATM   10  C   UNL     1      -8.094   9.248  70.348  1.00  0.00    -0.160 C  
HETATM   11  O   UNL     1      -8.242   9.062  71.544  1.00  0.00    -0.303 OA 
HETATM   12  N   UNL     1      -9.075   9.225  69.399  1.00  0.00    -0.146 N  
HETATM   13  H   UNL     1      -8.831   9.494  68.446  1.00  0.00     0.000 HD 
BRANCH  12  14
HETATM   14  C   UNL     1     -10.465   8.833  69.679  1.00  0.00    -0.220 C  
BRANCH  14  15
HETATM   15  C   UNL     1     -10.538   7.462  70.427  1.00  0.00    -0.238 C  
BRANCH  15  16
HETATM   16  C   UNL     1     -10.264   6.222  69.591  1.00  0.00    -0.233 A  
HETATM   17  C   UNL     1      -9.797   5.047  70.194  1.00  0.00    -0.303 A  
HETATM   18  C   UNL     1     -10.434   6.237  68.198  1.00  0.00    -0.278 A  
HETATM   19  C   UNL     1      -9.503   3.919  69.423  1.00  0.00    -0.260 A  
HETATM   20  C   UNL     1      -9.684   3.946  68.041  1.00  0.00    -0.127 A  
HETATM   21  C   UNL     1     -10.157   5.104  67.429  1.00  0.00    -0.222 A  
ENDBRANCH  15  16
ENDBRANCH  14  15
BRANCH  14  22
HETATM   22  C   UNL     1     -11.281   9.914  70.451  1.00  0.00    -0.313 C  
HETATM   23  O   UNL     1     -12.676   9.580  70.473  1.00  0.00    -0.504 OA 
HETATM   24  H   UNL     1     -13.174  10.238  70.944  1.00  0.00     0.000 HD 
BRANCH  22  25
HETATM   25  C   UNL     1     -11.074  11.391  70.062  1.00  0.00     0.027 C  
BRANCH  25  26
HETATM   26  N   UNL     1     -11.714  11.930  68.786  1.00  0.00    -0.302 N  
BRANCH  26  27
HETATM   27  C   UNL     1     -12.156  13.382  68.965  1.00  0.00    -0.259 C  
HETATM   28  C   UNL     1     -11.457  14.257  70.028  1.00  0.00    -0.280 C  
HETATM   29  C   UNL     1      -9.967  14.472  69.776  1.00  0.00     0.308 C  
HETATM   30  C   UNL     1     -12.127  15.644  70.059  1.00  0.00    -0.379 C  
ENDBRANCH  26  27
BRANCH  26  31
HETATM   31  S   UNL     1     -10.582  11.743  67.448  1.00  0.00    -0.233 S  
HETATM   32  O   UNL     1      -9.237  11.821  67.962  1.00  0.00    -0.168 OA 
HETATM   33  O   UNL     1     -11.038  10.594  66.687  1.00  0.00    -0.143 OA 
BRANCH  31  34
HETATM   34  C   UNL     1     -10.843  13.195  66.430  1.00  0.00    -0.287 A  
HETATM   35  C   UNL     1     -12.278  14.538  65.022  1.00  0.00    -0.376 A  
HETATM   36  C   UNL     1     -12.099  13.437  65.874  1.00  0.00    -0.486 A  
HETATM   37  C   UNL     1     -11.207  15.373  64.683  1.00  0.00    -0.364 A  
HETATM   38  N   UNL     1     -11.418  16.522  63.921  1.00  0.00    -1.599 NA 
HETATM   39  C   UNL     1      -9.979  15.164  65.316  1.00  0.00    -0.325 A  
HETATM   40  H1  UNL     1     -10.638  17.131  63.673  1.00  0.00     0.000 HD 
HETATM   41  C   UNL     1      -9.786  14.074  66.175  1.00  0.00    -0.300 A  
HETATM   42  H2  UNL     1     -12.129  17.088  64.385  1.00  0.00     0.000 HD 
ENDBRANCH  31  34
ENDBRANCH  26  31
ENDBRANCH  25  26
ENDBRANCH  22  25
ENDBRANCH  14  22
ENDBRANCH  12  14
ENDBRANCH   9  10
ENDBRANCH   8   9
TORSDOF 11
ENDMDL
MODEL      251
REMARK 921   NORMALIZED FREE ENERGY PREDICTED BY IDOCK:   -4.36 KCAL/MOL
REMARK 922        TOTAL FREE ENERGY PREDICTED BY IDOCK:   -9.78 KCAL/MOL
REMARK 923 INTER-LIGAND FREE ENERGY PREDICTED BY IDOCK:   -9.18 KCAL/MOL
REMARK 924 INTRA-LIGAND FREE ENERGY PREDICTED BY IDOCK:   -0.60 KCAL/MOL
REMARK 927      BINDING AFFINITY PREDICTED BY RF-SCORE:    0.00 PKD
ROOT
HETATM    1  C   UNL     1     -11.474  14.014  64.429  1.00  0.00    -0.357 C  
HETATM    2  C   UNL     1     -10.384  14.239  65.461  1.00  0.00    -0.374 C  
HETATM    3  C   UNL     1     -11.128  14.481  66.761  1.00  0.00    -0.325 C  
HETATM    4  O   UNL     1     -12.522  14.302  66.517  1.00  0.00    -0.428 OA 
HETATM    5  C   UNL     1     -12.672  13.642  65.268  1.00  0.00    -0.430 C  
HETATM    6  O   UNL     1     -12.627  12.223  65.414  1.00  0.00    -0.572 OA 
HETATM    7  C   UNL     1     -12.020  11.691  64.233  1.00  0.00    -0.092 C  
HETATM    8  C   UNL     1     -11.310  12.827  63.497  1.00  0.00    -0.420 C  
ENDROOT
BRANCH   8   9
HETATM    9  O   UNL     1      -9.930  12.467  63.318  1.00  0.00    -0.348 OA 
BRANCH   9  10
HETATM   10  C   UNL     1      -9.605  11.180  63.593  1.00  0.00    -0.288 C  
HETATM   11  O   UNL     1      -9.820  10.231  62.858  1.00  0.00    -0.244 OA 
HETATM   12  N   UNL     1      -9.089  11.125  64.855  1.00  0.00    -0.338 N  
HETATM   13  H   UNL     1      -8.867  12.003  65.325  1.00  0.00     0.000 HD 
BRANCH  12  14
HETATM   14  C   UNL     1      -8.837   9.867  65.574  1.00  0.00    -0.159 C  
BRANCH  14  15
HETATM   15  C   UNL     1      -7.461   9.894  66.316  1.00  0.00    -0.102 C  
BRANCH  15  16
HETATM   16  C   UNL     1      -7.044  11.227  66.916  1.00  0.00    -0.139 A  
HETATM   17  C   UNL     1      -7.986  12.048  67.550  1.00  0.00    -0.159 A  
HETATM   18  C   UNL     1      -5.720  11.683  66.815  1.00  0.00    -0.139 A  
HETATM   19  C   UNL     1      -7.614  13.293  68.065  1.00  0.00    -0.145 A  
HETATM   20  C   UNL     1      -6.294  13.729  67.963  1.00  0.00    -0.141 A  
HETATM   21  C   UNL     1      -5.345  12.920  67.345  1.00  0.00     0.007 A  
ENDBRANCH  15  16
ENDBRANCH  14  15
BRANCH  14  22
HETATM   22  C   UNL     1      -9.975   9.464  66.560  1.00  0.00    -0.269 C  
HETATM   23  O   UNL     1     -10.762  10.607  66.923  1.00  0.00    -0.257 OA 
HETATM   24  H   UNL     1     -11.455  10.362  67.524  1.00  0.00     0.000 HD 
BRANCH  22  25
HETATM   25  C   UNL     1      -9.593   8.639  67.805  1.00  0.00    -0.148 C  
BRANCH  25  26
HETATM   26  N   UNL     1      -8.897   7.293  67.632  1.00  0.00    -0.124 N  
BRANCH  26  27
HETATM   27  C   UNL     1      -7.792   7.108  68.671  1.00  0.00    -0.122 C  
HETATM   28  C   UNL     1      -7.261   8.342  69.432  1.00  0.00    -0.059 C  
HETATM   29  C   UNL     1      -8.309   9.042  70.294  1.00  0.00    -0.167 C  
HETATM   30  C   UNL     1      -6.113   7.905  70.362  1.00  0.00    -0.029 C  
ENDBRANCH  26  27
BRANCH  26  31
HETATM   31  S   UNL     1     -10.100   6.005  67.709  1.00  0.00    -0.175 S  
HETATM   32  O   UNL     1     -11.309   6.460  67.070  1.00  0.00    -0.314 OA 
HETATM   33  O   UNL     1      -9.425   4.793  67.282  1.00  0.00    -0.129 OA 
BRANCH  31  34
HETATM   34  C   UNL     1     -10.459   5.829  69.456  1.00  0.00    -0.293 A  
HETATM   35  C   UNL     1     -10.255   4.595  71.525  1.00  0.00    -0.224 A  
HETATM   36  C   UNL     1      -9.913   4.765  70.174  1.00  0.00    -0.321 A  
HETATM   37  C   UNL     1     -11.170   5.447  72.154  1.00  0.00    -0.130 A  
HETATM   38  N   UNL     1     -11.422   5.331  73.521  1.00  0.00    -0.452 NA 
HETATM   39  C   UNL     1     -11.640   6.554  71.443  1.00  0.00    -0.371 A  
HETATM   40  H1  UNL     1     -12.089   5.952  73.980  1.00  0.00     0.000 HD 
HETATM   41  C   UNL     1     -11.303   6.743  70.096  1.00  0.00    -0.404 A  
HETATM   42  H2  UNL     1     -10.533   5.397  74.017  1.00  0.00     0.000 HD 
ENDBRANCH  31  34
ENDBRANCH  26  31
ENDBRANCH  25  26
ENDBRANCH  22  25
ENDBRANCH  14  22
ENDBRANCH  12  14
ENDBRANCH   9  10
ENDBRANCH   8   9
TORSDOF 11
ENDMDL
MODEL      252
REMARK 921   NORMALIZED FREE ENERGY PREDICTED BY IDOCK:   -4.35 KCAL/MOL
REMARK 922        TOTAL FREE ENERGY PREDICTED BY IDOCK:   -9.76 KCAL/MOL
REMARK 923 INTER-LIGAND FREE ENERGY PREDICTED BY IDOCK:   -8.18 KCAL/MOL
REMARK 924 INTRA-LIGAND FREE ENERGY PREDICTED BY IDOCK:   -1.58 KCAL/MOL
REMARK 927      BINDING AFFINITY PREDICTED BY RF-SCORE:    0.00 PKD
ROOT
HETATM    1  C   UNL     1     -11.287  13.983  64.559  1.00  0.00    -0.365 C  
HETATM    2  C   UNL     1     -10.231  14.148  65.637  1.00  0.00    -0.357 C  
HETATM    3  C   UNL     1     -11.014  14.452  66.900  1.00  0.00    -0.308 C  
HETATM    4  O   UNL     1     -12.404  14.360  66.595  1.00  0.00    -0.409 OA 
HETATM    5  C   UNL     1     -12.542  13.698  65.346  1.00  0.00    -0.491 C  
HETATM    6  O   UNL     1     -12.596  12.281  65.506  1.00  0.00    -0.548 OA 
HETATM    7  C   UNL     1     -11.973  11.697  64.358  1.00  0.00    -0.050 C  
HETATM    8  C   UNL     1     -11.159  12.777  63.645  1.00  0.00    -0.393 C  
ENDROOT
BRANCH   8   9
HETATM    9  O   UNL     1      -9.799  12.327  63.530  1.00  0.00    -0.331 OA 
BRANCH   9  10
HETATM   10  C   UNL     1      -9.589  11.000  63.709  1.00  0.00    -0.286 C  
HETATM   11  O   UNL     1      -9.784  10.140  62.867  1.00  0.00    -0.261 OA 
HETATM   12  N   UNL     1      -9.218  10.793  65.006  1.00  0.00    -0.203 N  
HETATM   13  H   UNL     1      -8.993  11.606  65.580  1.00  0.00     0.000 HD 
BRANCH  12  14
HETATM   14  C   UNL     1      -9.127   9.459  65.620  1.00  0.00    -0.207 C  
BRANCH  14  15
HETATM   15  C   UNL     1      -7.783   9.275  66.398  1.00  0.00    -0.093 C  
BRANCH  15  16
HETATM   16  C   UNL     1      -7.222  10.512  67.080  1.00  0.00    -0.098 A  
HETATM   17  C   UNL     1      -7.754  10.957  68.297  1.00  0.00    -0.111 A  
HETATM   18  C   UNL     1      -6.189  11.257  66.490  1.00  0.00    -0.130 A  
HETATM   19  C   UNL     1      -7.269  12.118  68.905  1.00  0.00    -0.079 A  
HETATM   20  C   UNL     1      -6.238  12.843  68.311  1.00  0.00    -0.082 A  
HETATM   21  C   UNL     1      -5.692  12.409  67.106  1.00  0.00    -0.063 A  
ENDBRANCH  15  16
ENDBRANCH  14  15
BRANCH  14  22
HETATM   22  C   UNL     1     -10.335   9.103  66.539  1.00  0.00    -0.199 C  
HETATM   23  O   UNL     1     -10.831  10.273  67.205  1.00  0.00    -0.262 OA 
HETATM   24  H   UNL     1     -11.567  10.056  67.764  1.00  0.00     0.000 HD 
BRANCH  22  25
HETATM   25  C   UNL     1     -10.170   7.933  67.529  1.00  0.00    -0.242 C  
BRANCH  25  26
HETATM   26  N   UNL     1      -9.894   8.226  69.001  1.00  0.00    -0.172 N  
BRANCH  26  27
HETATM   27  C   UNL     1     -11.171   8.106  69.833  1.00  0.00    -0.028 C  
HETATM   28  C   UNL     1     -11.401   9.085  71.004  1.00  0.00    -0.362 C  
HETATM   29  C   UNL     1     -11.508  10.549  70.582  1.00  0.00    -0.418 C  
HETATM   30  C   UNL     1     -12.713   8.713  71.721  1.00  0.00    -0.401 C  
ENDBRANCH  26  27
BRANCH  26  31
HETATM   31  S   UNL     1      -8.625   7.148  69.578  1.00  0.00    -0.134 S  
HETATM   32  O   UNL     1      -7.374   7.864  69.586  1.00  0.00    -0.084 OA 
HETATM   33  O   UNL     1      -9.144   6.514  70.776  1.00  0.00    -0.153 OA 
BRANCH  31  34
HETATM   34  C   UNL     1      -8.501   5.882  68.316  1.00  0.00    -0.114 A  
HETATM   35  C   UNL     1      -7.266   4.807  66.537  1.00  0.00    -0.077 A  
HETATM   36  C   UNL     1      -7.329   5.754  67.571  1.00  0.00    -0.077 A  
HETATM   37  C   UNL     1      -8.373   4.016  66.210  1.00  0.00    -0.105 A  
HETATM   38  N   UNL     1      -8.267   3.007  65.252  1.00  0.00    -0.090 NA 
HETATM   39  C   UNL     1      -9.508   4.099  67.020  1.00  0.00    -0.215 A  
HETATM   40  H1  UNL     1      -9.074   2.431  65.013  1.00  0.00     0.000 HD 
HETATM   41  C   UNL     1      -9.585   5.035  68.061  1.00  0.00    -0.181 A  
HETATM   42  H2  UNL     1      -7.502   2.389  65.523  1.00  0.00     0.000 HD 
ENDBRANCH  31  34
ENDBRANCH  26  31
ENDBRANCH  25  26
ENDBRANCH  22  25
ENDBRANCH  14  22
ENDBRANCH  12  14
ENDBRANCH   9  10
ENDBRANCH   8   9
TORSDOF 11
ENDMDL
MODEL      253
REMARK 921   NORMALIZED FREE ENERGY PREDICTED BY IDOCK:   -4.35 KCAL/MOL
REMARK 922        TOTAL FREE ENERGY PREDICTED BY IDOCK:   -9.76 KCAL/MOL
REMARK 923 INTER-LIGAND FREE ENERGY PREDICTED BY IDOCK:   -8.77 KCAL/MOL
REMARK 924 INTRA-LIGAND FREE ENERGY PREDICTED BY IDOCK:   -0.99 KCAL/MOL
REMARK 927      BINDING AFFINITY PREDICTED BY RF-SCORE:    0.00 PKD
ROOT
HETATM    1  C   UNL     1      -8.035   5.683  64.990  1.00  0.00    -0.115 C  
HETATM    2  C   UNL     1      -6.690   5.524  65.676  1.00  0.00    -0.045 C  
HETATM    3  C   UNL     1      -6.396   4.037  65.607  1.00  0.00    -0.032 C  
HETATM    4  O   UNL     1      -7.432   3.413  64.849  1.00  0.00    -0.070 OA 
HETATM    5  C   UNL     1      -8.152   4.427  64.163  1.00  0.00    -0.095 C  
HETATM    6  O   UNL     1      -7.561   4.728  62.900  1.00  0.00    -0.057 OA 
HETATM    7  C   UNL     1      -7.771   6.122  62.651  1.00  0.00    -0.085 C  
HETATM    8  C   UNL     1      -8.161   6.797  63.966  1.00  0.00    -0.015 C  
ENDROOT
BRANCH   8   9
HETATM    9  O   UNL     1      -7.242   7.872  64.221  1.00  0.00    -0.074 OA 
BRANCH   9  10
HETATM   10  C   UNL     1      -7.792   9.061  64.571  1.00  0.00    -0.123 C  
HETATM   11  O   UNL     1      -7.225  10.139  64.514  1.00  0.00    -0.138 OA 
HETATM   12  N   UNL     1      -9.038   8.828  65.077  1.00  0.00    -0.428 N  
HETATM   13  H   UNL     1      -9.434   7.893  64.973  1.00  0.00     0.000 HD 
BRANCH  12  14
HETATM   14  C   UNL     1      -9.839   9.853  65.763  1.00  0.00    -0.287 C  
BRANCH  14  15
HETATM   15  C   UNL     1     -10.515  10.830  64.748  1.00  0.00    -0.335 C  
BRANCH  15  16
HETATM   16  C   UNL     1     -10.442  12.311  65.086  1.00  0.00    -0.320 A  
HETATM   17  C   UNL     1      -9.581  12.770  66.091  1.00  0.00    -0.214 A  
HETATM   18  C   UNL     1     -11.261  13.243  64.429  1.00  0.00    -0.409 A  
HETATM   19  C   UNL     1      -9.543  14.125  66.432  1.00  0.00    -0.310 A  
HETATM   20  C   UNL     1     -10.356  15.040  65.766  1.00  0.00    -0.354 A  
HETATM   21  C   UNL     1     -11.210  14.600  64.759  1.00  0.00    -0.395 A  
ENDBRANCH  15  16
ENDBRANCH  14  15
BRANCH  14  22
HETATM   22  C   UNL     1     -10.903   9.270  66.743  1.00  0.00     0.082 C  
HETATM   23  O   UNL     1     -11.327  10.265  67.685  1.00  0.00    -0.481 OA 
HETATM   24  H   UNL     1     -11.976   9.910  68.282  1.00  0.00     0.000 HD 
BRANCH  22  25
HETATM   25  C   UNL     1     -10.580   7.940  67.453  1.00  0.00    -0.272 C  
BRANCH  25  26
HETATM   26  N   UNL     1      -9.301   7.818  68.275  1.00  0.00    -0.143 N  
BRANCH  26  27
HETATM   27  C   UNL     1      -8.819   9.189  68.748  1.00  0.00    -0.132 C  
HETATM   28  C   UNL     1      -7.321   9.395  69.058  1.00  0.00    -0.072 C  
HETATM   29  C   UNL     1      -6.402   9.202  67.853  1.00  0.00    -0.055 C  
HETATM   30  C   UNL     1      -7.106  10.829  69.579  1.00  0.00    -0.132 C  
ENDBRANCH  26  27
BRANCH  26  31
HETATM   31  S   UNL     1      -9.583   6.716  69.623  1.00  0.00    -0.150 S  
HETATM   32  O   UNL     1     -10.062   5.459  69.103  1.00  0.00    -0.184 OA 
HETATM   33  O   UNL     1      -8.400   6.788  70.461  1.00  0.00    -0.126 OA 
BRANCH  31  34
HETATM   34  C   UNL     1     -10.932   7.458  70.538  1.00  0.00    -0.253 A  
HETATM   35  C   UNL     1     -11.818   9.278  71.860  1.00  0.00    -0.426 A  
HETATM   36  C   UNL     1     -10.783   8.732  71.086  1.00  0.00    -0.316 A  
HETATM   37  C   UNL     1     -12.982   8.550  72.131  1.00  0.00    -0.363 A  
HETATM   38  N   UNL     1     -14.046   9.140  72.814  1.00  0.00    -1.013 NA 
HETATM   39  C   UNL     1     -13.148   7.312  71.505  1.00  0.00    -0.434 A  
HETATM   40  H1  UNL     1     -14.894   8.609  73.011  1.00  0.00     0.000 HD 
HETATM   41  C   UNL     1     -12.127   6.755  70.723  1.00  0.00    -0.402 A  
HETATM   42  H2  UNL     1     -14.311   9.991  72.317  1.00  0.00     0.000 HD 
ENDBRANCH  31  34
ENDBRANCH  26  31
ENDBRANCH  25  26
ENDBRANCH  22  25
ENDBRANCH  14  22
ENDBRANCH  12  14
ENDBRANCH   9  10
ENDBRANCH   8   9
TORSDOF 11
ENDMDL
MODEL      254
REMARK 921   NORMALIZED FREE ENERGY PREDICTED BY IDOCK:   -4.34 KCAL/MOL
REMARK 922        TOTAL FREE ENERGY PREDICTED BY IDOCK:   -9.75 KCAL/MOL
REMARK 923 INTER-LIGAND FREE ENERGY PREDICTED BY IDOCK:   -7.93 KCAL/MOL
REMARK 924 INTRA-LIGAND FREE ENERGY PREDICTED BY IDOCK:   -1.82 KCAL/MOL
REMARK 927      BINDING AFFINITY PREDICTED BY RF-SCORE:    0.00 PKD
ROOT
HETATM    1  C   UNL     1      -7.365   8.206  63.360  1.00  0.00    -0.103 C  
HETATM    2  C   UNL     1      -8.128   6.909  63.556  1.00  0.00     0.004 C  
HETATM    3  C   UNL     1      -7.095   5.818  63.349  1.00  0.00    -0.047 C  
HETATM    4  O   UNL     1      -5.824   6.438  63.159  1.00  0.00    -0.025 OA 
HETATM    5  C   UNL     1      -5.928   7.795  63.567  1.00  0.00    -0.058 C  
HETATM    6  O   UNL     1      -5.670   7.946  64.962  1.00  0.00    -0.037 OA 
HETATM    7  C   UNL     1      -6.488   9.020  65.435  1.00  0.00    -0.067 C  
HETATM    8  C   UNL     1      -7.576   9.295  64.396  1.00  0.00    -0.115 C  
ENDROOT
BRANCH   8   9
HETATM    9  O   UNL     1      -8.858   9.193  65.035  1.00  0.00    -0.190 OA 
BRANCH   9  10
HETATM   10  C   UNL     1      -9.231  10.245  65.805  1.00  0.00    -0.175 C  
HETATM   11  O   UNL     1      -8.734  11.357  65.759  1.00  0.00    -0.162 OA 
HETATM   12  N   UNL     1     -10.179   9.819  66.689  1.00  0.00    -0.233 N  
HETATM   13  H   UNL     1     -10.582   8.891  66.556  1.00  0.00     0.000 HD 
BRANCH  12  14
HETATM   14  C   UNL     1     -10.651  10.627  67.824  1.00  0.00    -0.236 C  
BRANCH  14  15
HETATM   15  C   UNL     1     -11.893  11.494  67.437  1.00  0.00    -0.108 C  
BRANCH  15  16
HETATM   16  C   UNL     1     -11.623  12.704  66.556  1.00  0.00    -0.441 A  
HETATM   17  C   UNL     1     -10.880  13.787  67.042  1.00  0.00    -0.288 A  
HETATM   18  C   UNL     1     -12.142  12.780  65.254  1.00  0.00    -0.505 A  
HETATM   19  C   UNL     1     -10.666  14.918  66.250  1.00  0.00    -0.320 A  
HETATM   20  C   UNL     1     -11.182  14.976  64.956  1.00  0.00    -0.413 A  
HETATM   21  C   UNL     1     -11.914  13.903  64.455  1.00  0.00    -0.480 A  
ENDBRANCH  15  16
ENDBRANCH  14  15
BRANCH  14  22
HETATM   22  C   UNL     1     -10.953   9.795  69.108  1.00  0.00    -0.175 C  
HETATM   23  O   UNL     1     -12.107  10.309  69.788  1.00  0.00    -0.459 OA 
HETATM   24  H   UNL     1     -12.291   9.802  70.570  1.00  0.00     0.000 HD 
BRANCH  22  25
HETATM   25  C   UNL     1      -9.796   9.546  70.096  1.00  0.00    -0.244 C  
BRANCH  25  26
HETATM   26  N   UNL     1      -8.412   9.192  69.561  1.00  0.00    -0.122 N  
BRANCH  26  27
HETATM   27  C   UNL     1      -7.338  10.085  70.183  1.00  0.00    -0.163 C  
HETATM   28  C   UNL     1      -6.588  11.095  69.288  1.00  0.00    -0.096 C  
HETATM   29  C   UNL     1      -7.484  12.165  68.669  1.00  0.00    -0.105 C  
HETATM   30  C   UNL     1      -5.518  11.816  70.129  1.00  0.00    -0.116 C  
ENDBRANCH  26  27
BRANCH  26  31
HETATM   31  S   UNL     1      -8.100   7.481  69.851  1.00  0.00    -0.131 S  
HETATM   32  O   UNL     1      -6.703   7.216  69.612  1.00  0.00    -0.046 OA 
HETATM   33  O   UNL     1      -8.726   7.164  71.122  1.00  0.00    -0.132 OA 
BRANCH  31  34
HETATM   34  C   UNL     1      -9.026   6.632  68.574  1.00  0.00    -0.120 A  
HETATM   35  C   UNL     1      -9.084   5.205  66.623  1.00  0.00    -0.120 A  
HETATM   36  C   UNL     1      -8.362   5.811  67.663  1.00  0.00    -0.104 A  
HETATM   37  C   UNL     1     -10.453   5.444  66.456  1.00  0.00    -0.294 A  
HETATM   38  N   UNL     1     -11.180   4.755  65.485  1.00  0.00    -0.968 NA 
HETATM   39  C   UNL     1     -11.115   6.199  67.427  1.00  0.00    -0.326 A  
HETATM   40  H1  UNL     1     -12.178   4.930  65.363  1.00  0.00     0.000 HD 
HETATM   41  C   UNL     1     -10.410   6.806  68.475  1.00  0.00    -0.210 A  
HETATM   42  H2  UNL     1     -11.047   3.755  65.635  1.00  0.00     0.000 HD 
ENDBRANCH  31  34
ENDBRANCH  26  31
ENDBRANCH  25  26
ENDBRANCH  22  25
ENDBRANCH  14  22
ENDBRANCH  12  14
ENDBRANCH   9  10
ENDBRANCH   8   9
TORSDOF 11
ENDMDL
MODEL      255
REMARK 921   NORMALIZED FREE ENERGY PREDICTED BY IDOCK:   -4.32 KCAL/MOL
REMARK 922        TOTAL FREE ENERGY PREDICTED BY IDOCK:   -9.72 KCAL/MOL
REMARK 923 INTER-LIGAND FREE ENERGY PREDICTED BY IDOCK:   -8.88 KCAL/MOL
REMARK 924 INTRA-LIGAND FREE ENERGY PREDICTED BY IDOCK:   -0.83 KCAL/MOL
REMARK 927      BINDING AFFINITY PREDICTED BY RF-SCORE:    0.00 PKD
ROOT
HETATM    1  C   UNL     1      -7.131   8.269  63.262  1.00  0.00    -0.090 C  
HETATM    2  C   UNL     1      -5.703   8.345  63.769  1.00  0.00    -0.066 C  
HETATM    3  C   UNL     1      -5.137   9.604  63.140  1.00  0.00    -0.070 C  
HETATM    4  O   UNL     1      -6.185  10.253  62.422  1.00  0.00    -0.113 OA 
HETATM    5  C   UNL     1      -7.421   9.686  62.832  1.00  0.00    -0.116 C  
HETATM    6  O   UNL     1      -7.948  10.348  63.982  1.00  0.00    -0.147 OA 
HETATM    7  C   UNL     1      -8.644   9.368  64.758  1.00  0.00    -0.180 C  
HETATM    8  C   UNL     1      -8.214   7.979  64.286  1.00  0.00    -0.067 C  
ENDROOT
BRANCH   8   9
HETATM    9  O   UNL     1      -7.709   7.247  65.415  1.00  0.00    -0.096 OA 
BRANCH   9  10
HETATM   10  C   UNL     1      -8.625   6.855  66.334  1.00  0.00    -0.134 C  
HETATM   11  O   UNL     1      -9.626   6.202  66.092  1.00  0.00    -0.131 OA 
HETATM   12  N   UNL     1      -8.281   7.391  67.541  1.00  0.00    -0.113 N  
HETATM   13  H   UNL     1      -7.366   7.832  67.631  1.00  0.00     0.000 HD 
BRANCH  12  14
HETATM   14  C   UNL     1      -9.162   7.366  68.720  1.00  0.00    -0.144 C  
BRANCH  14  15
HETATM   15  C   UNL     1      -8.360   7.082  70.031  1.00  0.00    -0.138 C  
BRANCH  15  16
HETATM   16  C   UNL     1      -9.183   6.849  71.288  1.00  0.00    -0.157 A  
HETATM   17  C   UNL     1      -9.270   7.839  72.275  1.00  0.00    -0.207 A  
HETATM   18  C   UNL     1      -9.841   5.628  71.505  1.00  0.00    -0.213 A  
HETATM   19  C   UNL     1      -9.991   7.611  73.451  1.00  0.00    -0.373 A  
HETATM   20  C   UNL     1     -10.645   6.396  73.650  1.00  0.00    -0.288 A  
HETATM   21  C   UNL     1     -10.576   5.407  72.673  1.00  0.00    -0.274 A  
ENDBRANCH  15  16
ENDBRANCH  14  15
BRANCH  14  22
HETATM   22  C   UNL     1     -10.030   8.651  68.885  1.00  0.00    -0.189 C  
HETATM   23  O   UNL     1     -10.858   8.858  67.732  1.00  0.00    -0.461 OA 
HETATM   24  H   UNL     1     -11.387   9.640  67.833  1.00  0.00     0.000 HD 
BRANCH  22  25
HETATM   25  C   UNL     1      -9.319   9.956  69.295  1.00  0.00    -0.206 C  
BRANCH  25  26
HETATM   26  N   UNL     1     -10.082  11.276  69.247  1.00  0.00    -0.069 N  
BRANCH  26  27
HETATM   27  C   UNL     1      -9.894  11.969  67.897  1.00  0.00    -0.196 C  
HETATM   28  C   UNL     1      -9.774  13.508  67.852  1.00  0.00    -0.225 C  
HETATM   29  C   UNL     1      -8.561  14.061  68.596  1.00  0.00    -0.100 C  
HETATM   30  C   UNL     1      -9.664  13.962  66.384  1.00  0.00    -0.309 C  
ENDBRANCH  26  27
BRANCH  26  31
HETATM   31  S   UNL     1     -11.782  10.974  69.604  1.00  0.00    -0.360 S  
HETATM   32  O   UNL     1     -12.531  11.018  68.373  1.00  0.00    -0.352 OA 
HETATM   33  O   UNL     1     -11.815   9.810  70.471  1.00  0.00    -0.266 OA 
BRANCH  31  34
HETATM   34  C   UNL     1     -12.293  12.384  70.584  1.00  0.00    -0.279 A  
HETATM   35  C   UNL     1     -13.407  13.295  72.528  1.00  0.00    -0.569 A  
HETATM   36  C   UNL     1     -12.948  12.186  71.800  1.00  0.00    -0.437 A  
HETATM   37  C   UNL     1     -13.260  14.596  72.035  1.00  0.00    -0.351 A  
HETATM   38  N   UNL     1     -13.625  15.695  72.814  1.00  0.00    -0.566 NA 
HETATM   39  C   UNL     1     -12.528  14.780  70.859  1.00  0.00    -0.396 A  
HETATM   40  H1  UNL     1     -13.518  16.644  72.455  1.00  0.00     0.000 HD 
HETATM   41  C   UNL     1     -12.057  13.684  70.124  1.00  0.00    -0.431 A  
HETATM   42  H2  UNL     1     -13.132  15.634  73.705  1.00  0.00     0.000 HD 
ENDBRANCH  31  34
ENDBRANCH  26  31
ENDBRANCH  25  26
ENDBRANCH  22  25
ENDBRANCH  14  22
ENDBRANCH  12  14
ENDBRANCH   9  10
ENDBRANCH   8   9
TORSDOF 11
ENDMDL
MODEL      256
REMARK 921   NORMALIZED FREE ENERGY PREDICTED BY IDOCK:   -4.32 KCAL/MOL
REMARK 922        TOTAL FREE ENERGY PREDICTED BY IDOCK:   -9.71 KCAL/MOL
REMARK 923 INTER-LIGAND FREE ENERGY PREDICTED BY IDOCK:   -7.13 KCAL/MOL
REMARK 924 INTRA-LIGAND FREE ENERGY PREDICTED BY IDOCK:   -2.59 KCAL/MOL
REMARK 927      BINDING AFFINITY PREDICTED BY RF-SCORE:    0.00 PKD
ROOT
HETATM    1  C   UNL     1     -10.301  14.542  67.924  1.00  0.00    -0.231 C  
HETATM    2  C   UNL     1      -9.687  15.101  69.194  1.00  0.00    -0.232 C  
HETATM    3  C   UNL     1     -10.685  16.132  69.684  1.00  0.00    -0.325 C  
HETATM    4  O   UNL     1     -11.826  16.090  68.828  1.00  0.00    -0.375 OA 
HETATM    5  C   UNL     1     -11.762  14.896  68.062  1.00  0.00    -0.320 C  
HETATM    6  O   UNL     1     -12.371  13.801  68.745  1.00  0.00    -0.284 OA 
HETATM    7  C   UNL     1     -11.650  12.618  68.385  1.00  0.00    -0.328 C  
HETATM    8  C   UNL     1     -10.314  13.032  67.769  1.00  0.00    -0.226 C  
ENDROOT
BRANCH   8   9
HETATM    9  O   UNL     1      -9.253  12.403  68.507  1.00  0.00    -0.170 OA 
BRANCH   9  10
HETATM   10  C   UNL     1      -8.364  11.681  67.782  1.00  0.00    -0.143 C  
HETATM   11  O   UNL     1      -8.025  11.931  66.638  1.00  0.00    -0.132 OA 
HETATM   12  N   UNL     1      -7.995  10.590  68.515  1.00  0.00    -0.111 N  
HETATM   13  H   UNL     1      -8.270  10.552  69.497  1.00  0.00     0.000 HD 
BRANCH  12  14
HETATM   14  C   UNL     1      -7.219   9.468  67.965  1.00  0.00    -0.081 C  
BRANCH  14  15
HETATM   15  C   UNL     1      -6.015   9.092  68.888  1.00  0.00    -0.043 C  
BRANCH  15  16
HETATM   16  C   UNL     1      -6.294   8.072  69.980  1.00  0.00    -0.033 A  
HETATM   17  C   UNL     1      -7.004   8.437  71.131  1.00  0.00    -0.063 A  
HETATM   18  C   UNL     1      -5.816   6.756  69.878  1.00  0.00    -0.023 A  
HETATM   19  C   UNL     1      -7.225   7.513  72.155  1.00  0.00    -0.068 A  
HETATM   20  C   UNL     1      -6.751   6.208  72.037  1.00  0.00    -0.064 A  
HETATM   21  C   UNL     1      -6.053   5.826  70.895  1.00  0.00    -0.030 A  
ENDBRANCH  15  16
ENDBRANCH  14  15
BRANCH  14  22
HETATM   22  C   UNL     1      -8.075   8.203  67.652  1.00  0.00    -0.127 C  
HETATM   23  O   UNL     1      -7.813   7.725  66.326  1.00  0.00    -0.086 OA 
HETATM   24  H   UNL     1      -8.334   6.954  66.135  1.00  0.00     0.000 HD 
BRANCH  22  25
HETATM   25  C   UNL     1      -9.592   8.272  67.924  1.00  0.00    -0.152 C  
BRANCH  25  26
HETATM   26  N   UNL     1     -10.127   7.901  69.303  1.00  0.00    -0.192 N  
BRANCH  26  27
HETATM   27  C   UNL     1     -10.944   9.046  69.901  1.00  0.00    -0.193 C  
HETATM   28  C   UNL     1     -11.613   8.853  71.279  1.00  0.00    -0.371 C  
HETATM   29  C   UNL     1     -10.630   8.614  72.423  1.00  0.00    -0.310 C  
HETATM   30  C   UNL     1     -12.428  10.114  71.624  1.00  0.00    -0.506 C  
ENDBRANCH  26  27
BRANCH  26  31
HETATM   31  S   UNL     1     -11.067   6.414  69.178  1.00  0.00    -0.350 S  
HETATM   32  O   UNL     1     -12.203   6.506  70.060  1.00  0.00    -0.174 OA 
HETATM   33  O   UNL     1     -11.227   6.152  67.759  1.00  0.00    -0.294 OA 
BRANCH  31  34
HETATM   34  C   UNL     1      -9.988   5.143  69.835  1.00  0.00    -0.246 A  
HETATM   35  C   UNL     1      -8.372   3.379  69.490  1.00  0.00    -0.086 A  
HETATM   36  C   UNL     1      -9.161   4.419  68.977  1.00  0.00    -0.201 A  
HETATM   37  C   UNL     1      -8.431   3.023  70.842  1.00  0.00    -0.065 A  
HETATM   38  N   UNL     1      -7.567   2.059  71.361  1.00  0.00    -0.039 NA 
HETATM   39  C   UNL     1      -9.200   3.813  71.701  1.00  0.00    -0.184 A  
HETATM   40  H1  UNL     1      -7.610   1.799  72.347  1.00  0.00     0.000 HD 
HETATM   41  C   UNL     1      -9.989   4.860  71.206  1.00  0.00    -0.271 A  
HETATM   42  H2  UNL     1      -6.609   2.339  71.147  1.00  0.00     0.000 HD 
ENDBRANCH  31  34
ENDBRANCH  26  31
ENDBRANCH  25  26
ENDBRANCH  22  25
ENDBRANCH  14  22
ENDBRANCH  12  14
ENDBRANCH   9  10
ENDBRANCH   8   9
TORSDOF 11
ENDMDL
MODEL      257
REMARK 921   NORMALIZED FREE ENERGY PREDICTED BY IDOCK:   -4.31 KCAL/MOL
REMARK 922        TOTAL FREE ENERGY PREDICTED BY IDOCK:   -9.71 KCAL/MOL
REMARK 923 INTER-LIGAND FREE ENERGY PREDICTED BY IDOCK:   -8.39 KCAL/MOL
REMARK 924 INTRA-LIGAND FREE ENERGY PREDICTED BY IDOCK:   -1.32 KCAL/MOL
REMARK 927      BINDING AFFINITY PREDICTED BY RF-SCORE:    0.00 PKD
ROOT
HETATM    1  C   UNL     1     -11.278   6.940  71.624  1.00  0.00    -0.280 C  
HETATM    2  C   UNL     1     -10.323   7.814  72.415  1.00  0.00    -0.311 C  
HETATM    3  C   UNL     1     -10.167   7.107  73.748  1.00  0.00    -0.352 C  
HETATM    4  O   UNL     1     -10.884   5.875  73.686  1.00  0.00    -0.262 OA 
HETATM    5  C   UNL     1     -11.186   5.606  72.324  1.00  0.00    -0.259 C  
HETATM    6  O   UNL     1     -10.128   4.895  71.682  1.00  0.00    -0.185 OA 
HETATM    7  C   UNL     1     -10.094   5.321  70.316  1.00  0.00    -0.259 C  
HETATM    8  C   UNL     1     -10.895   6.617  70.191  1.00  0.00    -0.279 C  
ENDROOT
BRANCH   8   9
HETATM    9  O   UNL     1     -10.048   7.626  69.618  1.00  0.00    -0.186 OA 
BRANCH   9  10
HETATM   10  C   UNL     1     -10.055   7.718  68.265  1.00  0.00    -0.192 C  
HETATM   11  O   UNL     1     -10.890   7.213  67.533  1.00  0.00    -0.257 OA 
HETATM   12  N   UNL     1      -8.931   8.383  67.871  1.00  0.00    -0.137 N  
HETATM   13  H   UNL     1      -8.366   8.843  68.586  1.00  0.00     0.000 HD 
BRANCH  12  14
HETATM   14  C   UNL     1      -8.490   8.473  66.471  1.00  0.00    -0.115 C  
BRANCH  14  15
HETATM   15  C   UNL     1      -8.836   7.174  65.674  1.00  0.00    -0.043 C  
BRANCH  15  16
HETATM   16  C   UNL     1      -7.723   6.588  64.820  1.00  0.00    -0.106 A  
HETATM   17  C   UNL     1      -7.989   6.119  63.527  1.00  0.00    -0.100 A  
HETATM   18  C   UNL     1      -6.416   6.469  65.319  1.00  0.00    -0.039 A  
HETATM   19  C   UNL     1      -6.977   5.542  62.756  1.00  0.00    -0.036 A  
HETATM   20  C   UNL     1      -5.683   5.437  63.262  1.00  0.00    -0.014 A  
HETATM   21  C   UNL     1      -5.400   5.908  64.541  1.00  0.00    -0.017 A  
ENDBRANCH  15  16
ENDBRANCH  14  15
BRANCH  14  22
HETATM   22  C   UNL     1      -9.029   9.728  65.719  1.00  0.00    -0.160 C  
HETATM   23  O   UNL     1      -8.041  10.767  65.688  1.00  0.00    -0.192 OA 
HETATM   24  H   UNL     1      -8.370  11.531  65.229  1.00  0.00     0.000 HD 
BRANCH  22  25
HETATM   25  C   UNL     1     -10.404  10.286  66.139  1.00  0.00    -0.183 C  
BRANCH  25  26
HETATM   26  N   UNL     1     -10.521  11.742  66.579  1.00  0.00    -0.223 N  
BRANCH  26  27
HETATM   27  C   UNL     1     -11.552  12.490  65.734  1.00  0.00    -0.392 C  
HETATM   28  C   UNL     1     -11.447  14.025  65.602  1.00  0.00    -0.319 C  
HETATM   29  C   UNL     1     -10.165  14.507  64.929  1.00  0.00    -0.338 C  
HETATM   30  C   UNL     1     -12.633  14.541  64.765  1.00  0.00    -0.232 C  
ENDBRANCH  26  27
BRANCH  26  31
HETATM   31  S   UNL     1     -10.911  11.797  68.298  1.00  0.00    -0.249 S  
HETATM   32  O   UNL     1     -12.281  11.383  68.478  1.00  0.00    -0.557 OA 
HETATM   33  O   UNL     1      -9.820  11.128  68.984  1.00  0.00    -0.189 OA 
BRANCH  31  34
HETATM   34  C   UNL     1     -10.824  13.535  68.725  1.00  0.00    -0.253 A  
HETATM   35  C   UNL     1     -11.912  15.589  69.388  1.00  0.00    -0.358 A  
HETATM   36  C   UNL     1     -11.976  14.212  69.124  1.00  0.00    -0.388 A  
HETATM   37  C   UNL     1     -10.723  16.306  69.216  1.00  0.00    -0.307 A  
HETATM   38  N   UNL     1     -10.646  17.651  69.582  1.00  0.00    -0.204 NA 
HETATM   39  C   UNL     1      -9.563  15.597  68.898  1.00  0.00    -0.224 A  
HETATM   40  H1  UNL     1      -9.779  18.174  69.456  1.00  0.00     0.000 HD 
HETATM   41  C   UNL     1      -9.607  14.220  68.637  1.00  0.00    -0.192 A  
HETATM   42  H2  UNL     1     -10.929  17.733  70.558  1.00  0.00     0.000 HD 
ENDBRANCH  31  34
ENDBRANCH  26  31
ENDBRANCH  25  26
ENDBRANCH  22  25
ENDBRANCH  14  22
ENDBRANCH  12  14
ENDBRANCH   9  10
ENDBRANCH   8   9
TORSDOF 11
ENDMDL
MODEL      258
REMARK 921   NORMALIZED FREE ENERGY PREDICTED BY IDOCK:   -4.30 KCAL/MOL
REMARK 922        TOTAL FREE ENERGY PREDICTED BY IDOCK:   -9.68 KCAL/MOL
REMARK 923 INTER-LIGAND FREE ENERGY PREDICTED BY IDOCK:   -8.92 KCAL/MOL
REMARK 924 INTRA-LIGAND FREE ENERGY PREDICTED BY IDOCK:   -0.77 KCAL/MOL
REMARK 927      BINDING AFFINITY PREDICTED BY RF-SCORE:    0.00 PKD
ROOT
HETATM    1  C   UNL     1     -12.407  12.575  65.060  1.00  0.00    -0.522 C  
HETATM    2  C   UNL     1     -11.431  11.669  65.789  1.00  0.00    -0.175 C  
HETATM    3  C   UNL     1     -10.609  11.024  64.690  1.00  0.00    -0.299 C  
HETATM    4  O   UNL     1     -11.006  11.594  63.444  1.00  0.00    -0.397 OA 
HETATM    5  C   UNL     1     -11.756  12.769  63.712  1.00  0.00    -0.493 C  
HETATM    6  O   UNL     1     -10.913  13.913  63.841  1.00  0.00    -0.018 OA 
HETATM    7  C   UNL     1     -11.517  14.783  64.803  1.00  0.00    -0.410 C  
HETATM    8  C   UNL     1     -12.562  13.990  65.587  1.00  0.00    -0.512 C  
ENDROOT
BRANCH   8   9
HETATM    9  O   UNL     1     -12.254  14.083  66.988  1.00  0.00    -0.430 OA 
BRANCH   9  10
HETATM   10  C   UNL     1     -11.060  14.643  67.304  1.00  0.00    -0.328 C  
HETATM   11  O   UNL     1     -10.763  15.810  67.118  1.00  0.00    -0.314 OA 
HETATM   12  N   UNL     1     -10.234  13.662  67.771  1.00  0.00    -0.238 N  
HETATM   13  H   UNL     1     -10.637  12.747  67.975  1.00  0.00     0.000 HD 
BRANCH  12  14
HETATM   14  C   UNL     1      -8.794  13.855  67.999  1.00  0.00    -0.184 C  
BRANCH  14  15
HETATM   15  C   UNL     1      -8.521  15.005  69.023  1.00  0.00    -0.200 C  
BRANCH  15  16
HETATM   16  C   UNL     1      -7.635  16.142  68.542  1.00  0.00    -0.170 A  
HETATM   17  C   UNL     1      -7.463  17.291  69.324  1.00  0.00    -0.039 A  
HETATM   18  C   UNL     1      -7.000  16.084  67.291  1.00  0.00    -0.240 A  
HETATM   19  C   UNL     1      -6.683  18.355  68.866  1.00  0.00    -0.270 A  
HETATM   20  C   UNL     1      -6.053  18.281  67.624  1.00  0.00    -0.172 A  
HETATM   21  C   UNL     1      -6.206  17.141  66.839  1.00  0.00    -0.231 A  
ENDBRANCH  15  16
ENDBRANCH  14  15
BRANCH  14  22
HETATM   22  C   UNL     1      -8.044  12.558  68.430  1.00  0.00    -0.136 C  
HETATM   23  O   UNL     1      -6.623  12.750  68.377  1.00  0.00    -0.071 OA 
HETATM   24  H   UNL     1      -6.166  11.960  68.641  1.00  0.00     0.000 HD 
BRANCH  22  25
HETATM   25  C   UNL     1      -8.447  11.232  67.755  1.00  0.00    -0.126 C  
BRANCH  25  26
HETATM   26  N   UNL     1      -9.008  10.096  68.604  1.00  0.00    -0.130 N  
BRANCH  26  27
HETATM   27  C   UNL     1     -10.216  10.563  69.416  1.00  0.00    -0.221 C  
HETATM   28  C   UNL     1     -10.855   9.597  70.437  1.00  0.00    -0.353 C  
HETATM   29  C   UNL     1      -9.924   9.186  71.575  1.00  0.00    -0.358 C  
HETATM   30  C   UNL     1     -12.087  10.274  71.068  1.00  0.00    -0.487 C  
ENDBRANCH  26  27
BRANCH  26  31
HETATM   31  S   UNL     1      -9.403   8.733  67.557  1.00  0.00    -0.138 S  
HETATM   32  O   UNL     1     -10.819   8.749  67.286  1.00  0.00    -0.214 OA 
HETATM   33  O   UNL     1      -8.425   8.747  66.484  1.00  0.00    -0.111 OA 
BRANCH  31  34
HETATM   34  C   UNL     1      -9.073   7.285  68.560  1.00  0.00    -0.136 A  
HETATM   35  C   UNL     1      -7.517   5.869  69.751  1.00  0.00    -0.080 A  
HETATM   36  C   UNL     1      -7.781   7.041  69.025  1.00  0.00    -0.109 A  
HETATM   37  C   UNL     1      -8.517   4.916  69.978  1.00  0.00    -0.083 A  
HETATM   38  N   UNL     1      -8.269   3.807  70.788  1.00  0.00    -0.064 NA 
HETATM   39  C   UNL     1      -9.821   5.217  69.578  1.00  0.00    -0.270 A  
HETATM   40  H1  UNL     1      -8.998   3.113  70.954  1.00  0.00     0.000 HD 
HETATM   41  C   UNL     1     -10.103   6.387  68.858  1.00  0.00    -0.187 A  
HETATM   42  H2  UNL     1      -7.935   4.140  71.692  1.00  0.00     0.000 HD 
ENDBRANCH  31  34
ENDBRANCH  26  31
ENDBRANCH  25  26
ENDBRANCH  22  25
ENDBRANCH  14  22
ENDBRANCH  12  14
ENDBRANCH   9  10
ENDBRANCH   8   9
TORSDOF 11
ENDMDL
MODEL      259
REMARK 921   NORMALIZED FREE ENERGY PREDICTED BY IDOCK:   -4.29 KCAL/MOL
REMARK 922        TOTAL FREE ENERGY PREDICTED BY IDOCK:   -9.68 KCAL/MOL
REMARK 923 INTER-LIGAND FREE ENERGY PREDICTED BY IDOCK:   -9.24 KCAL/MOL
REMARK 924 INTRA-LIGAND FREE ENERGY PREDICTED BY IDOCK:   -0.44 KCAL/MOL
REMARK 927      BINDING AFFINITY PREDICTED BY RF-SCORE:    0.00 PKD
ROOT
HETATM    1  C   UNL     1     -10.359   5.620  68.707  1.00  0.00    -0.288 C  
HETATM    2  C   UNL     1     -11.336   6.285  69.658  1.00  0.00    -0.492 C  
HETATM    3  C   UNL     1     -10.775   6.013  71.041  1.00  0.00    -0.265 C  
HETATM    4  O   UNL     1      -9.525   5.343  70.890  1.00  0.00    -0.158 OA 
HETATM    5  C   UNL     1      -9.108   5.480  69.540  1.00  0.00    -0.120 C  
HETATM    6  O   UNL     1      -8.363   6.681  69.339  1.00  0.00    -0.125 OA 
HETATM    7  C   UNL     1      -8.646   7.143  68.014  1.00  0.00    -0.128 C  
HETATM    8  C   UNL     1      -9.900   6.430  67.508  1.00  0.00    -0.123 C  
ENDROOT
BRANCH   8   9
HETATM    9  O   UNL     1     -10.867   7.420  67.122  1.00  0.00    -0.331 OA 
BRANCH   9  10
HETATM   10  C   UNL     1     -10.497   8.715  67.280  1.00  0.00    -0.289 C  
HETATM   11  O   UNL     1      -9.562   9.250  66.710  1.00  0.00    -0.158 OA 
HETATM   12  N   UNL     1     -11.283   9.274  68.245  1.00  0.00    -0.456 N  
HETATM   13  H   UNL     1     -12.095   8.749  68.571  1.00  0.00     0.000 HD 
BRANCH  12  14
HETATM   14  C   UNL     1     -11.022  10.594  68.840  1.00  0.00    -0.249 C  
BRANCH  14  15
HETATM   15  C   UNL     1     -11.554  10.679  70.307  1.00  0.00    -0.424 C  
BRANCH  15  16
HETATM   16  C   UNL     1     -12.247  11.974  70.700  1.00  0.00    -0.409 A  
HETATM   17  C   UNL     1     -12.073  13.135  69.935  1.00  0.00    -0.357 A  
HETATM   18  C   UNL     1     -13.044  12.047  71.853  1.00  0.00    -0.475 A  
HETATM   19  C   UNL     1     -12.674  14.337  70.316  1.00  0.00    -0.305 A  
HETATM   20  C   UNL     1     -13.468  14.393  71.460  1.00  0.00    -0.443 A  
HETATM   21  C   UNL     1     -13.660  13.245  72.225  1.00  0.00    -0.703 A  
ENDBRANCH  15  16
ENDBRANCH  14  15
BRANCH  14  22
HETATM   22  C   UNL     1      -9.526  11.027  68.782  1.00  0.00    -0.183 C  
HETATM   23  O   UNL     1      -8.804  10.518  69.912  1.00  0.00    -0.377 OA 
HETATM   24  H   UNL     1      -7.892  10.782  69.877  1.00  0.00     0.000 HD 
BRANCH  22  25
HETATM   25  C   UNL     1      -9.214  12.520  68.555  1.00  0.00    -0.070 C  
BRANCH  25  26
HETATM   26  N   UNL     1      -8.299  12.932  67.406  1.00  0.00    -0.181 N  
BRANCH  26  27
HETATM   27  C   UNL     1      -8.559  14.379  66.989  1.00  0.00    -0.203 C  
HETATM   28  C   UNL     1      -9.837  14.715  66.191  1.00  0.00    -0.334 C  
HETATM   29  C   UNL     1     -11.135  14.428  66.943  1.00  0.00    -0.325 C  
HETATM   30  C   UNL     1      -9.829  16.213  65.835  1.00  0.00    -0.384 C  
ENDBRANCH  26  27
BRANCH  26  31
HETATM   31  S   UNL     1      -6.621  12.671  67.881  1.00  0.00    -0.129 S  
HETATM   32  O   UNL     1      -5.785  13.600  67.163  1.00  0.00    -0.260 OA 
HETATM   33  O   UNL     1      -6.614  12.607  69.331  1.00  0.00    -0.111 OA 
BRANCH  31  34
HETATM   34  C   UNL     1      -6.231  11.031  67.273  1.00  0.00    -0.068 A  
HETATM   35  C   UNL     1      -5.334   8.816  67.641  1.00  0.00    -0.035 A  
HETATM   36  C   UNL     1      -5.702  10.075  68.140  1.00  0.00    -0.038 A  
HETATM   37  C   UNL     1      -5.446   8.515  66.279  1.00  0.00    -0.035 A  
HETATM   38  N   UNL     1      -5.176   7.229  65.812  1.00  0.00    -0.024 NA 
HETATM   39  C   UNL     1      -6.055   9.454  65.442  1.00  0.00    -0.064 A  
HETATM   40  H1  UNL     1      -5.257   7.009  64.819  1.00  0.00     0.000 HD 
HETATM   41  C   UNL     1      -6.435  10.713  65.926  1.00  0.00    -0.121 A  
HETATM   42  H2  UNL     1      -5.757   6.571  66.332  1.00  0.00     0.000 HD 
ENDBRANCH  31  34
ENDBRANCH  26  31
ENDBRANCH  25  26
ENDBRANCH  22  25
ENDBRANCH  14  22
ENDBRANCH  12  14
ENDBRANCH   9  10
ENDBRANCH   8   9
TORSDOF 11
ENDMDL
MODEL      260
REMARK 921   NORMALIZED FREE ENERGY PREDICTED BY IDOCK:   -4.28 KCAL/MOL
REMARK 922        TOTAL FREE ENERGY PREDICTED BY IDOCK:   -9.65 KCAL/MOL
REMARK 923 INTER-LIGAND FREE ENERGY PREDICTED BY IDOCK:   -8.78 KCAL/MOL
REMARK 924 INTRA-LIGAND FREE ENERGY PREDICTED BY IDOCK:   -0.87 KCAL/MOL
REMARK 927      BINDING AFFINITY PREDICTED BY RF-SCORE:    0.00 PKD
ROOT
HETATM    1  C   UNL     1     -11.779  13.005  65.578  1.00  0.00    -0.408 C  
HETATM    2  C   UNL     1     -11.591  12.045  64.418  1.00  0.00    -0.411 C  
HETATM    3  C   UNL     1     -12.229  12.744  63.232  1.00  0.00    -0.410 C  
HETATM    4  O   UNL     1     -12.649  14.041  63.652  1.00  0.00    -0.818 OA 
HETATM    5  C   UNL     1     -12.025  14.328  64.895  1.00  0.00    -0.425 C  
HETATM    6  O   UNL     1     -10.741  14.924  64.712  1.00  0.00    -0.404 OA 
HETATM    7  C   UNL     1      -9.909  14.486  65.792  1.00  0.00    -0.314 C  
HETATM    8  C   UNL     1     -10.569  13.276  66.454  1.00  0.00    -0.284 C  
ENDROOT
BRANCH   8   9
HETATM    9  O   UNL     1      -9.637  12.182  66.443  1.00  0.00    -0.224 OA 
BRANCH   9  10
HETATM   10  C   UNL     1      -9.074  11.862  67.634  1.00  0.00    -0.179 C  
HETATM   11  O   UNL     1      -9.605  12.007  68.722  1.00  0.00    -0.117 OA 
HETATM   12  N   UNL     1      -7.794  11.446  67.408  1.00  0.00    -0.129 N  
HETATM   13  H   UNL     1      -7.505  11.273  66.445  1.00  0.00     0.000 HD 
BRANCH  12  14
HETATM   14  C   UNL     1      -6.809  11.233  68.480  1.00  0.00    -0.071 C  
BRANCH  14  15
HETATM   15  C   UNL     1      -5.922  12.500  68.707  1.00  0.00    -0.066 C  
BRANCH  15  16
HETATM   16  C   UNL     1      -6.611  13.845  68.545  1.00  0.00    -0.098 A  
HETATM   17  C   UNL     1      -6.437  14.597  67.376  1.00  0.00     0.056 A  
HETATM   18  C   UNL     1      -7.403  14.380  69.573  1.00  0.00    -0.011 A  
HETATM   19  C   UNL     1      -7.035  15.853  67.241  1.00  0.00    -0.241 A  
HETATM   20  C   UNL     1      -7.825  16.368  68.267  1.00  0.00    -0.168 A  
HETATM   21  C   UNL     1      -8.016  15.628  69.431  1.00  0.00    -0.226 A  
ENDBRANCH  15  16
ENDBRANCH  14  15
BRANCH  14  22
HETATM   22  C   UNL     1      -7.437  10.765  69.829  1.00  0.00    -0.018 C  
HETATM   23  O   UNL     1      -6.589  11.112  70.933  1.00  0.00    -0.417 OA 
HETATM   24  H   UNL     1      -6.971  10.827  71.754  1.00  0.00     0.000 HD 
BRANCH  22  25
HETATM   25  C   UNL     1      -7.909   9.301  69.936  1.00  0.00    -0.109 C  
BRANCH  25  26
HETATM   26  N   UNL     1      -8.683   8.849  71.171  1.00  0.00    -0.207 N  
BRANCH  26  27
HETATM   27  C   UNL     1      -9.942   8.077  70.777  1.00  0.00    -0.188 C  
HETATM   28  C   UNL     1     -11.275   8.400  71.485  1.00  0.00    -0.328 C  
HETATM   29  C   UNL     1     -11.770   9.828  71.263  1.00  0.00    -0.472 C  
HETATM   30  C   UNL     1     -12.367   7.446  70.965  1.00  0.00    -0.303 C  
ENDBRANCH  26  27
BRANCH  26  31
HETATM   31  S   UNL     1      -7.619   7.895  72.203  1.00  0.00    -0.097 S  
HETATM   32  O   UNL     1      -6.549   7.359  71.399  1.00  0.00    -0.046 OA 
HETATM   33  O   UNL     1      -7.352   8.709  73.375  1.00  0.00    -0.342 OA 
BRANCH  31  34
HETATM   34  C   UNL     1      -8.626   6.511  72.733  1.00  0.00    -0.124 A  
HETATM   35  C   UNL     1      -9.451   4.265  72.391  1.00  0.00    -0.175 A  
HETATM   36  C   UNL     1      -8.607   5.319  72.010  1.00  0.00    -0.130 A  
HETATM   37  C   UNL     1     -10.347   4.403  73.457  1.00  0.00    -0.182 A  
HETATM   38  N   UNL     1     -11.105   3.315  73.892  1.00  0.00    -0.189 NA 
HETATM   39  C   UNL     1     -10.292   5.571  74.220  1.00  0.00    -0.293 A  
HETATM   40  H1  UNL     1     -11.758   3.416  74.669  1.00  0.00     0.000 HD 
HETATM   41  C   UNL     1      -9.449   6.631  73.858  1.00  0.00    -0.212 A  
HETATM   42  H2  UNL     1     -10.469   2.547  74.107  1.00  0.00     0.000 HD 
ENDBRANCH  31  34
ENDBRANCH  26  31
ENDBRANCH  25  26
ENDBRANCH  22  25
ENDBRANCH  14  22
ENDBRANCH  12  14
ENDBRANCH   9  10
ENDBRANCH   8   9
TORSDOF 11
ENDMDL
MODEL      261
REMARK 921   NORMALIZED FREE ENERGY PREDICTED BY IDOCK:   -4.27 KCAL/MOL
REMARK 922        TOTAL FREE ENERGY PREDICTED BY IDOCK:   -9.64 KCAL/MOL
REMARK 923 INTER-LIGAND FREE ENERGY PREDICTED BY IDOCK:   -9.13 KCAL/MOL
REMARK 924 INTRA-LIGAND FREE ENERGY PREDICTED BY IDOCK:   -0.50 KCAL/MOL
REMARK 927      BINDING AFFINITY PREDICTED BY RF-SCORE:    0.00 PKD
ROOT
HETATM    1  C   UNL     1      -7.200   8.768  64.902  1.00  0.00    -0.084 C  
HETATM    2  C   UNL     1      -6.840  10.140  65.440  1.00  0.00    -0.128 C  
HETATM    3  C   UNL     1      -5.488  10.452  64.826  1.00  0.00    -0.139 C  
HETATM    4  O   UNL     1      -5.153   9.396  63.927  1.00  0.00    -0.057 OA 
HETATM    5  C   UNL     1      -6.326   8.635  63.679  1.00  0.00    -0.081 C  
HETATM    6  O   UNL     1      -7.081   9.172  62.594  1.00  0.00    -0.096 OA 
HETATM    7  C   UNL     1      -8.464   8.933  62.875  1.00  0.00    -0.178 C  
HETATM    8  C   UNL     1      -8.605   8.586  64.357  1.00  0.00    -0.007 C  
ENDROOT
BRANCH   8   9
HETATM    9  O   UNL     1      -9.540   9.499  64.956  1.00  0.00    -0.268 OA 
BRANCH   9  10
HETATM   10  C   UNL     1      -9.867   9.261  66.250  1.00  0.00    -0.291 C  
HETATM   11  O   UNL     1     -10.369   8.232  66.668  1.00  0.00    -0.308 OA 
HETATM   12  N   UNL     1      -9.624  10.394  66.971  1.00  0.00    -0.163 N  
HETATM   13  H   UNL     1      -9.107  11.151  66.523  1.00  0.00     0.000 HD 
BRANCH  12  14
HETATM   14  C   UNL     1     -10.068  10.580  68.361  1.00  0.00    -0.164 C  
BRANCH  14  15
HETATM   15  C   UNL     1      -9.091   9.899  69.374  1.00  0.00    -0.216 C  
BRANCH  15  16
HETATM   16  C   UNL     1      -9.729   9.032  70.448  1.00  0.00    -0.245 A  
HETATM   17  C   UNL     1      -9.075   8.814  71.667  1.00  0.00    -0.314 A  
HETATM   18  C   UNL     1     -10.964   8.402  70.229  1.00  0.00    -0.236 A  
HETATM   19  C   UNL     1      -9.639   7.984  72.640  1.00  0.00    -0.327 A  
HETATM   20  C   UNL     1     -10.870   7.370  72.411  1.00  0.00    -0.305 A  
HETATM   21  C   UNL     1     -11.536   7.585  71.208  1.00  0.00    -0.305 A  
ENDBRANCH  15  16
ENDBRANCH  14  15
BRANCH  14  22
HETATM   22  C   UNL     1     -10.299  12.071  68.755  1.00  0.00    -0.160 C  
HETATM   23  O   UNL     1     -11.691  12.410  68.671  1.00  0.00    -0.292 OA 
HETATM   24  H   UNL     1     -11.832  13.318  68.911  1.00  0.00     0.000 HD 
BRANCH  22  25
HETATM   25  C   UNL     1      -9.429  13.143  68.068  1.00  0.00    -0.220 C  
BRANCH  25  26
HETATM   26  N   UNL     1     -10.099  14.315  67.359  1.00  0.00    -0.245 N  
BRANCH  26  27
HETATM   27  C   UNL     1     -11.389  13.874  66.668  1.00  0.00    -0.331 C  
HETATM   28  C   UNL     1     -11.557  14.129  65.155  1.00  0.00    -0.344 C  
HETATM   29  C   UNL     1     -10.537  13.402  64.282  1.00  0.00    -0.358 C  
HETATM   30  C   UNL     1     -12.959  13.661  64.718  1.00  0.00    -0.032 C  
ENDBRANCH  26  27
BRANCH  26  31
HETATM   31  S   UNL     1     -10.381  15.610  68.522  1.00  0.00    -0.225 S  
HETATM   32  O   UNL     1     -11.801  15.739  68.739  1.00  0.00    -0.387 OA 
HETATM   33  O   UNL     1      -9.464  15.376  69.622  1.00  0.00    -0.264 OA 
BRANCH  31  34
HETATM   34  C   UNL     1      -9.838  17.097  67.682  1.00  0.00    -0.270 A  
HETATM   35  C   UNL     1      -8.136  18.324  66.481  1.00  0.00    -0.293 A  
HETATM   36  C   UNL     1      -8.582  17.134  67.076  1.00  0.00    -0.239 A  
HETATM   37  C   UNL     1      -8.909  19.490  66.523  1.00  0.00    -0.357 A  
HETATM   38  N   UNL     1      -8.503  20.636  65.839  1.00  0.00    -0.264 NA 
HETATM   39  C   UNL     1     -10.197  19.410  67.058  1.00  0.00    -0.514 A  
HETATM   40  H1  UNL     1      -9.066  21.485  65.869  1.00  0.00     0.000 HD 
HETATM   41  C   UNL     1     -10.661  18.228  67.651  1.00  0.00    -0.427 A  
HETATM   42  H2  UNL     1      -8.353  20.388  64.860  1.00  0.00     0.000 HD 
ENDBRANCH  31  34
ENDBRANCH  26  31
ENDBRANCH  25  26
ENDBRANCH  22  25
ENDBRANCH  14  22
ENDBRANCH  12  14
ENDBRANCH   9  10
ENDBRANCH   8   9
TORSDOF 11
ENDMDL
MODEL      262
REMARK 921   NORMALIZED FREE ENERGY PREDICTED BY IDOCK:   -4.27 KCAL/MOL
REMARK 922        TOTAL FREE ENERGY PREDICTED BY IDOCK:   -9.63 KCAL/MOL
REMARK 923 INTER-LIGAND FREE ENERGY PREDICTED BY IDOCK:   -7.39 KCAL/MOL
REMARK 924 INTRA-LIGAND FREE ENERGY PREDICTED BY IDOCK:   -2.24 KCAL/MOL
REMARK 927      BINDING AFFINITY PREDICTED BY RF-SCORE:    0.00 PKD
ROOT
HETATM    1  C   UNL     1     -10.123  12.789  65.474  1.00  0.00    -0.278 C  
HETATM    2  C   UNL     1     -11.032  12.607  66.676  1.00  0.00    -0.292 C  
HETATM    3  C   UNL     1     -12.041  13.735  66.571  1.00  0.00    -0.443 C  
HETATM    4  O   UNL     1     -11.799  14.438  65.353  1.00  0.00    -0.353 OA 
HETATM    5  C   UNL     1     -10.951  13.638  64.541  1.00  0.00    -0.396 C  
HETATM    6  O   UNL     1     -11.700  12.727  63.737  1.00  0.00    -0.416 OA 
HETATM    7  C   UNL     1     -10.913  11.541  63.590  1.00  0.00    -0.404 C  
HETATM    8  C   UNL     1      -9.811  11.554  64.650  1.00  0.00    -0.246 C  
ENDROOT
BRANCH   8   9
HETATM    9  O   UNL     1      -9.906  10.348  65.426  1.00  0.00    -0.243 OA 
BRANCH   9  10
HETATM   10  C   UNL     1      -9.314   9.247  64.899  1.00  0.00    -0.073 C  
HETATM   11  O   UNL     1      -8.747   9.206  63.820  1.00  0.00    -0.197 OA 
HETATM   12  N   UNL     1      -9.545   8.192  65.733  1.00  0.00    -0.432 N  
HETATM   13  H   UNL     1      -9.944   8.381  66.652  1.00  0.00     0.000 HD 
BRANCH  12  14
HETATM   14  C   UNL     1      -9.248   6.796  65.375  1.00  0.00     0.422 C  
BRANCH  14  15
HETATM   15  C   UNL     1      -7.714   6.565  65.183  1.00  0.00    -0.097 C  
BRANCH  15  16
HETATM   16  C   UNL     1      -6.907   6.309  66.445  1.00  0.00    -0.062 A  
HETATM   17  C   UNL     1      -6.242   5.090  66.630  1.00  0.00    -0.032 A  
HETATM   18  C   UNL     1      -6.841   7.268  67.468  1.00  0.00    -0.074 A  
HETATM   19  C   UNL     1      -5.534   4.835  67.808  1.00  0.00    -0.012 A  
HETATM   20  C   UNL     1      -5.471   5.800  68.811  1.00  0.00    -0.011 A  
HETATM   21  C   UNL     1      -6.119   7.020  68.639  1.00  0.00    -0.027 A  
ENDBRANCH  15  16
ENDBRANCH  14  15
BRANCH  14  22
HETATM   22  C   UNL     1      -9.831   5.752  66.376  1.00  0.00    -0.138 C  
HETATM   23  O   UNL     1     -10.892   5.002  65.768  1.00  0.00    -0.626 OA 
HETATM   24  H   UNL     1     -11.247   4.365  66.378  1.00  0.00     0.000 HD 
BRANCH  22  25
HETATM   25  C   UNL     1     -10.237   6.244  67.779  1.00  0.00    -0.170 C  
BRANCH  25  26
HETATM   26  N   UNL     1     -10.282   5.255  68.940  1.00  0.00    -0.192 N  
BRANCH  26  27
HETATM   27  C   UNL     1      -8.964   4.492  69.062  1.00  0.00    -0.109 C  
HETATM   28  C   UNL     1      -8.978   2.949  68.997  1.00  0.00    -0.179 C  
HETATM   29  C   UNL     1      -9.478   2.386  67.669  1.00  0.00    -0.115 C  
HETATM   30  C   UNL     1      -7.547   2.423  69.214  1.00  0.00    -0.043 C  
ENDBRANCH  26  27
BRANCH  26  31
HETATM   31  S   UNL     1     -10.685   6.121  70.422  1.00  0.00    -0.310 S  
HETATM   32  O   UNL     1     -12.029   6.630  70.312  1.00  0.00    -0.387 OA 
HETATM   33  O   UNL     1     -10.289   5.255  71.518  1.00  0.00    -0.211 OA 
BRANCH  31  34
HETATM   34  C   UNL     1      -9.583   7.533  70.433  1.00  0.00    -0.168 A  
HETATM   35  C   UNL     1      -7.691   8.711  71.370  1.00  0.00    -0.150 A  
HETATM   36  C   UNL     1      -8.508   7.570  71.320  1.00  0.00    -0.116 A  
HETATM   37  C   UNL     1      -7.962   9.832  70.578  1.00  0.00    -0.022 A  
HETATM   38  N   UNL     1      -7.085  10.917  70.560  1.00  0.00    -0.376 NA 
HETATM   39  C   UNL     1      -8.991   9.744  69.637  1.00  0.00    -0.229 A  
HETATM   40  H1  UNL     1      -7.282  11.734  69.982  1.00  0.00     0.000 HD 
HETATM   41  C   UNL     1      -9.812   8.610  69.568  1.00  0.00    -0.187 A  
HETATM   42  H2  UNL     1      -6.155  10.572  70.317  1.00  0.00     0.000 HD 
ENDBRANCH  31  34
ENDBRANCH  26  31
ENDBRANCH  25  26
ENDBRANCH  22  25
ENDBRANCH  14  22
ENDBRANCH  12  14
ENDBRANCH   9  10
ENDBRANCH   8   9
TORSDOF 11
ENDMDL
MODEL      263
REMARK 921   NORMALIZED FREE ENERGY PREDICTED BY IDOCK:   -4.27 KCAL/MOL
REMARK 922        TOTAL FREE ENERGY PREDICTED BY IDOCK:   -9.63 KCAL/MOL
REMARK 923 INTER-LIGAND FREE ENERGY PREDICTED BY IDOCK:   -8.39 KCAL/MOL
REMARK 924 INTRA-LIGAND FREE ENERGY PREDICTED BY IDOCK:   -1.24 KCAL/MOL
REMARK 927      BINDING AFFINITY PREDICTED BY RF-SCORE:    0.00 PKD
ROOT
HETATM    1  C   UNL     1     -12.727  10.238  70.384  1.00  0.00    -0.243 C  
HETATM    2  C   UNL     1     -12.148  11.620  70.628  1.00  0.00    -0.432 C  
HETATM    3  C   UNL     1     -12.929  12.163  71.809  1.00  0.00    -0.332 C  
HETATM    4  O   UNL     1     -13.806  11.137  72.273  1.00  0.00     0.014 OA 
HETATM    5  C   UNL     1     -13.392   9.906  71.697  1.00  0.00    -0.389 C  
HETATM    6  O   UNL     1     -12.398   9.262  72.493  1.00  0.00    -0.252 OA 
HETATM    7  C   UNL     1     -11.523   8.564  71.601  1.00  0.00    -0.298 C  
HETATM    8  C   UNL     1     -11.742   9.101  70.186  1.00  0.00     0.065 C  
ENDROOT
BRANCH   8   9
HETATM    9  O   UNL     1     -10.482   9.559  69.669  1.00  0.00    -0.201 OA 
BRANCH   9  10
HETATM   10  C   UNL     1     -10.407   9.715  68.324  1.00  0.00    -0.204 C  
HETATM   11  O   UNL     1     -11.362   9.738  67.567  1.00  0.00    -0.055 OA 
HETATM   12  N   UNL     1      -9.090   9.746  67.967  1.00  0.00    -0.125 N  
HETATM   13  H   UNL     1      -8.390   9.821  68.706  1.00  0.00     0.000 HD 
BRANCH  12  14
HETATM   14  C   UNL     1      -8.626   9.678  66.572  1.00  0.00    -0.127 C  
BRANCH  14  15
HETATM   15  C   UNL     1      -9.379   8.568  65.769  1.00  0.00    -0.187 C  
BRANCH  15  16
HETATM   16  C   UNL     1      -9.145   7.134  66.216  1.00  0.00    -0.182 A  
HETATM   17  C   UNL     1      -7.866   6.567  66.146  1.00  0.00    -0.106 A  
HETATM   18  C   UNL     1     -10.206   6.337  66.673  1.00  0.00    -0.226 A  
HETATM   19  C   UNL     1      -7.655   5.236  66.516  1.00  0.00    -0.088 A  
HETATM   20  C   UNL     1      -8.718   4.458  66.974  1.00  0.00    -0.108 A  
HETATM   21  C   UNL     1      -9.993   5.011  67.060  1.00  0.00    -0.231 A  
ENDBRANCH  15  16
ENDBRANCH  14  15
BRANCH  14  22
HETATM   22  C   UNL     1      -8.703  11.038  65.815  1.00  0.00    -0.174 C  
HETATM   23  O   UNL     1      -8.178  10.912  64.486  1.00  0.00    -0.369 OA 
HETATM   24  H   UNL     1      -8.225  11.741  64.024  1.00  0.00     0.000 HD 
BRANCH  22  25
HETATM   25  C   UNL     1      -8.133  12.288  66.516  1.00  0.00     0.164 C  
BRANCH  25  26
HETATM   26  N   UNL     1      -8.912  13.599  66.468  1.00  0.00    -0.118 N  
BRANCH  26  27
HETATM   27  C   UNL     1     -10.419  13.342  66.496  1.00  0.00    -0.283 C  
HETATM   28  C   UNL     1     -11.297  13.897  65.354  1.00  0.00    -0.311 C  
HETATM   29  C   UNL     1     -10.965  13.326  63.978  1.00  0.00    -0.317 C  
HETATM   30  C   UNL     1     -12.773  13.568  65.649  1.00  0.00    -0.478 C  
ENDBRANCH  26  27
BRANCH  26  31
HETATM   31  S   UNL     1      -8.392  14.629  67.801  1.00  0.00    -0.176 S  
HETATM   32  O   UNL     1      -9.217  14.354  68.951  1.00  0.00    -0.174 OA 
HETATM   33  O   UNL     1      -6.946  14.518  67.861  1.00  0.00    -0.127 OA 
BRANCH  31  34
HETATM   34  C   UNL     1      -8.777  16.294  67.260  1.00  0.00    -0.182 A  
HETATM   35  C   UNL     1      -8.062  18.531  66.687  1.00  0.00    -0.280 A  
HETATM   36  C   UNL     1      -7.748  17.210  67.043  1.00  0.00    -0.221 A  
HETATM   37  C   UNL     1      -9.390  18.959  66.589  1.00  0.00    -0.330 A  
HETATM   38  N   UNL     1      -9.690  20.244  66.134  1.00  0.00    -0.657 NA 
HETATM   39  C   UNL     1     -10.404  18.008  66.728  1.00  0.00    -0.373 A  
HETATM   40  H1  UNL     1     -10.658  20.556  66.063  1.00  0.00     0.000 HD 
HETATM   41  C   UNL     1     -10.108  16.683  67.076  1.00  0.00    -0.281 A  
HETATM   42  H2  UNL     1      -9.246  20.372  65.224  1.00  0.00     0.000 HD 
ENDBRANCH  31  34
ENDBRANCH  26  31
ENDBRANCH  25  26
ENDBRANCH  22  25
ENDBRANCH  14  22
ENDBRANCH  12  14
ENDBRANCH   9  10
ENDBRANCH   8   9
TORSDOF 11
ENDMDL
MODEL      264
REMARK 921   NORMALIZED FREE ENERGY PREDICTED BY IDOCK:   -4.26 KCAL/MOL
REMARK 922        TOTAL FREE ENERGY PREDICTED BY IDOCK:   -9.63 KCAL/MOL
REMARK 923 INTER-LIGAND FREE ENERGY PREDICTED BY IDOCK:   -7.99 KCAL/MOL
REMARK 924 INTRA-LIGAND FREE ENERGY PREDICTED BY IDOCK:   -1.64 KCAL/MOL
REMARK 927      BINDING AFFINITY PREDICTED BY RF-SCORE:    0.00 PKD
ROOT
HETATM    1  C   UNL     1     -10.973  15.122  67.156  1.00  0.00    -0.326 C  
HETATM    2  C   UNL     1      -9.700  15.814  67.606  1.00  0.00    -0.222 C  
HETATM    3  C   UNL     1     -10.136  16.726  68.737  1.00  0.00    -0.286 C  
HETATM    4  O   UNL     1     -11.521  16.495  68.987  1.00  0.00    -0.249 OA 
HETATM    5  C   UNL     1     -11.893  15.286  68.341  1.00  0.00    -0.260 C  
HETATM    6  O   UNL     1     -11.667  14.152  69.177  1.00  0.00    -0.283 OA 
HETATM    7  C   UNL     1     -11.304  13.060  68.327  1.00  0.00    -0.288 C  
HETATM    8  C   UNL     1     -10.911  13.619  66.959  1.00  0.00    -0.286 C  
ENDROOT
BRANCH   8   9
HETATM    9  O   UNL     1      -9.583  13.169  66.643  1.00  0.00    -0.248 OA 
BRANCH   9  10
HETATM   10  C   UNL     1      -8.986  12.369  67.561  1.00  0.00    -0.183 C  
HETATM   11  O   UNL     1      -8.180  12.742  68.396  1.00  0.00    -0.157 OA 
HETATM   12  N   UNL     1      -9.369  11.081  67.325  1.00  0.00    -0.156 N  
HETATM   13  H   UNL     1     -10.127  10.916  66.662  1.00  0.00     0.000 HD 
BRANCH  12  14
HETATM   14  C   UNL     1      -8.748   9.918  67.977  1.00  0.00    -0.125 C  
BRANCH  14  15
HETATM   15  C   UNL     1      -9.296   9.710  69.426  1.00  0.00    -0.201 C  
BRANCH  15  16
HETATM   16  C   UNL     1      -8.269   9.370  70.494  1.00  0.00    -0.221 A  
HETATM   17  C   UNL     1      -6.937   9.781  70.356  1.00  0.00    -0.139 A  
HETATM   18  C   UNL     1      -8.621   8.608  71.620  1.00  0.00    -0.254 A  
HETATM   19  C   UNL     1      -5.981   9.434  71.315  1.00  0.00    -0.076 A  
HETATM   20  C   UNL     1      -6.347   8.683  72.431  1.00  0.00    -0.073 A  
HETATM   21  C   UNL     1      -7.669   8.276  72.587  1.00  0.00    -0.169 A  
ENDBRANCH  15  16
ENDBRANCH  14  15
BRANCH  14  22
HETATM   22  C   UNL     1      -8.870   8.596  67.159  1.00  0.00    -0.129 C  
HETATM   23  O   UNL     1     -10.168   8.487  66.558  1.00  0.00    -0.297 OA 
HETATM   24  H   UNL     1     -10.242   7.682  66.059  1.00  0.00     0.000 HD 
BRANCH  22  25
HETATM   25  C   UNL     1      -8.470   7.278  67.852  1.00  0.00    -0.118 C  
BRANCH  25  26
HETATM   26  N   UNL     1      -8.529   5.969  67.071  1.00  0.00    -0.108 N  
BRANCH  26  27
HETATM   27  C   UNL     1      -7.350   5.064  67.427  1.00  0.00    -0.082 C  
HETATM   28  C   UNL     1      -6.839   4.048  66.383  1.00  0.00    -0.058 C  
HETATM   29  C   UNL     1      -6.296   4.686  65.106  1.00  0.00    -0.035 C  
HETATM   30  C   UNL     1      -5.702   3.215  67.005  1.00  0.00    -0.022 C  
ENDBRANCH  26  27
BRANCH  26  31
HETATM   31  S   UNL     1     -10.080   5.185  67.371  1.00  0.00    -0.166 S  
HETATM   32  O   UNL     1     -11.098   5.859  66.604  1.00  0.00    -0.246 OA 
HETATM   33  O   UNL     1      -9.847   3.759  67.235  1.00  0.00    -0.163 OA 
BRANCH  31  34
HETATM   34  C   UNL     1     -10.420   5.508  69.100  1.00  0.00    -0.244 A  
HETATM   35  C   UNL     1      -9.996   5.066  71.439  1.00  0.00    -0.259 A  
HETATM   36  C   UNL     1      -9.676   4.861  70.088  1.00  0.00    -0.283 A  
HETATM   37  C   UNL     1     -11.076   5.872  71.815  1.00  0.00    -0.265 A  
HETATM   38  N   UNL     1     -11.319   6.151  73.160  1.00  0.00    -0.473 NA 
HETATM   39  C   UNL     1     -11.754   6.577  70.817  1.00  0.00    -0.427 A  
HETATM   40  H1  UNL     1     -12.106   6.739  73.434  1.00  0.00     0.000 HD 
HETATM   41  C   UNL     1     -11.444   6.389  69.463  1.00  0.00    -0.412 A  
HETATM   42  H2  UNL     1     -10.469   6.548  73.562  1.00  0.00     0.000 HD 
ENDBRANCH  31  34
ENDBRANCH  26  31
ENDBRANCH  25  26
ENDBRANCH  22  25
ENDBRANCH  14  22
ENDBRANCH  12  14
ENDBRANCH   9  10
ENDBRANCH   8   9
TORSDOF 11
ENDMDL
MODEL      265
REMARK 921   NORMALIZED FREE ENERGY PREDICTED BY IDOCK:   -4.26 KCAL/MOL
REMARK 922        TOTAL FREE ENERGY PREDICTED BY IDOCK:   -9.62 KCAL/MOL
REMARK 923 INTER-LIGAND FREE ENERGY PREDICTED BY IDOCK:   -7.85 KCAL/MOL
REMARK 924 INTRA-LIGAND FREE ENERGY PREDICTED BY IDOCK:   -1.78 KCAL/MOL
REMARK 927      BINDING AFFINITY PREDICTED BY RF-SCORE:    0.00 PKD
ROOT
HETATM    1  C   UNL     1     -11.070  11.937  64.775  1.00  0.00    -0.367 C  
HETATM    2  C   UNL     1      -9.870  12.642  64.170  1.00  0.00    -0.074 C  
HETATM    3  C   UNL     1      -9.391  11.713  63.071  1.00  0.00    -0.168 C  
HETATM    4  O   UNL     1     -10.304  10.621  62.981  1.00  0.00    -0.140 OA 
HETATM    5  C   UNL     1     -11.482  10.968  63.694  1.00  0.00     0.581 C  
HETATM    6  O   UNL     1     -12.410  11.669  62.867  1.00  0.00    -0.144 OA 
HETATM    7  C   UNL     1     -13.103  12.605  63.699  1.00  0.00     0.326 C  
HETATM    8  C   UNL     1     -12.319  12.770  65.001  1.00  0.00    -0.499 C  
ENDROOT
BRANCH   8   9
HETATM    9  O   UNL     1     -12.015  14.163  65.181  1.00  0.00    -0.354 OA 
BRANCH   9  10
HETATM   10  C   UNL     1     -11.487  14.513  66.380  1.00  0.00    -0.360 C  
HETATM   11  O   UNL     1     -10.992  15.596  66.638  1.00  0.00    -0.299 OA 
HETATM   12  N   UNL     1     -11.521  13.423  67.201  1.00  0.00    -0.322 N  
HETATM   13  H   UNL     1     -12.053  12.607  66.898  1.00  0.00     0.000 HD 
BRANCH  12  14
HETATM   14  C   UNL     1     -10.831  13.363  68.499  1.00  0.00    -0.265 C  
BRANCH  14  15
HETATM   15  C   UNL     1     -11.677  12.594  69.565  1.00  0.00    -0.374 C  
BRANCH  15  16
HETATM   16  C   UNL     1     -12.398  13.446  70.597  1.00  0.00    -0.423 A  
HETATM   17  C   UNL     1     -12.399  14.843  70.491  1.00  0.00    -0.400 A  
HETATM   18  C   UNL     1     -13.045  12.858  71.696  1.00  0.00    -0.430 A  
HETATM   19  C   UNL     1     -13.025  15.631  71.461  1.00  0.00    -0.549 A  
HETATM   20  C   UNL     1     -13.669  15.032  72.543  1.00  0.00    -0.572 A  
HETATM   21  C   UNL     1     -13.686  13.645  72.656  1.00  0.00    -0.551 A  
ENDBRANCH  15  16
ENDBRANCH  14  15
BRANCH  14  22
HETATM   22  C   UNL     1      -9.391  12.770  68.421  1.00  0.00    -0.143 C  
HETATM   23  O   UNL     1      -8.520  13.643  67.688  1.00  0.00    -0.158 OA 
HETATM   24  H   UNL     1      -7.643  13.282  67.641  1.00  0.00     0.000 HD 
BRANCH  22  25
HETATM   25  C   UNL     1      -9.235  11.311  67.948  1.00  0.00    -0.157 C  
BRANCH  25  26
HETATM   26  N   UNL     1      -8.919  10.220  68.967  1.00  0.00    -0.162 N  
BRANCH  26  27
HETATM   27  C   UNL     1     -10.085   9.241  69.102  1.00  0.00    -0.199 C  
HETATM   28  C   UNL     1     -10.416   8.652  70.490  1.00  0.00    -0.237 C  
HETATM   29  C   UNL     1     -10.834   9.692  71.526  1.00  0.00    -0.205 C  
HETATM   30  C   UNL     1     -11.576   7.648  70.348  1.00  0.00    -0.138 C  
ENDBRANCH  26  27
BRANCH  26  31
HETATM   31  S   UNL     1      -7.425   9.409  68.500  1.00  0.00    -0.081 S  
HETATM   32  O   UNL     1      -6.772  10.188  67.478  1.00  0.00    -0.070 OA 
HETATM   33  O   UNL     1      -6.749   9.059  69.736  1.00  0.00    -0.047 OA 
BRANCH  31  34
HETATM   34  C   UNL     1      -7.962   7.880  67.736  1.00  0.00    -0.124 A  
HETATM   35  C   UNL     1      -8.871   6.690  65.837  1.00  0.00    -0.126 A  
HETATM   36  C   UNL     1      -8.386   7.878  66.407  1.00  0.00    -0.129 A  
HETATM   37  C   UNL     1      -8.980   5.516  66.591  1.00  0.00    -0.118 A  
HETATM   38  N   UNL     1      -9.365   4.319  65.987  1.00  0.00    -0.151 NA 
HETATM   39  C   UNL     1      -8.473   5.517  67.893  1.00  0.00    -0.098 A  
HETATM   40  H1  UNL     1      -9.445   3.463  66.537  1.00  0.00     0.000 HD 
HETATM   41  C   UNL     1      -7.979   6.692  68.475  1.00  0.00    -0.118 A  
HETATM   42  H2  UNL     1      -8.735   4.138  65.205  1.00  0.00     0.000 HD 
ENDBRANCH  31  34
ENDBRANCH  26  31
ENDBRANCH  25  26
ENDBRANCH  22  25
ENDBRANCH  14  22
ENDBRANCH  12  14
ENDBRANCH   9  10
ENDBRANCH   8   9
TORSDOF 11
ENDMDL
MODEL      266
REMARK 921   NORMALIZED FREE ENERGY PREDICTED BY IDOCK:   -4.26 KCAL/MOL
REMARK 922        TOTAL FREE ENERGY PREDICTED BY IDOCK:   -9.62 KCAL/MOL
REMARK 923 INTER-LIGAND FREE ENERGY PREDICTED BY IDOCK:   -7.81 KCAL/MOL
REMARK 924 INTRA-LIGAND FREE ENERGY PREDICTED BY IDOCK:   -1.81 KCAL/MOL
REMARK 927      BINDING AFFINITY PREDICTED BY RF-SCORE:    0.00 PKD
ROOT
HETATM    1  C   UNL     1      -8.455   3.843  63.952  1.00  0.00    -0.094 C  
HETATM    2  C   UNL     1      -9.758   4.101  63.217  1.00  0.00    -0.116 C  
HETATM    3  C   UNL     1     -10.504   2.783  63.281  1.00  0.00    -0.199 C  
HETATM    4  O   UNL     1      -9.743   1.878  64.079  1.00  0.00    -0.132 OA 
HETATM    5  C   UNL     1      -8.765   2.626  64.788  1.00  0.00    -0.109 C  
HETATM    6  O   UNL     1      -9.275   3.116  66.027  1.00  0.00    -0.153 OA 
HETATM    7  C   UNL     1      -8.648   4.378  66.278  1.00  0.00    -0.112 C  
HETATM    8  C   UNL     1      -8.022   4.877  64.976  1.00  0.00    -0.099 C  
ENDROOT
BRANCH   8   9
HETATM    9  O   UNL     1      -8.548   6.181  64.683  1.00  0.00    -0.036 OA 
BRANCH   9  10
HETATM   10  C   UNL     1      -8.226   7.168  65.556  1.00  0.00    -0.139 C  
HETATM   11  O   UNL     1      -7.091   7.470  65.883  1.00  0.00    -0.063 OA 
HETATM   12  N   UNL     1      -9.380   7.688  66.064  1.00  0.00    -0.384 N  
HETATM   13  H   UNL     1     -10.264   7.418  65.632  1.00  0.00     0.000 HD 
BRANCH  12  14
HETATM   14  C   UNL     1      -9.417   8.620  67.203  1.00  0.00    -0.160 C  
BRANCH  14  15
HETATM   15  C   UNL     1     -10.672   9.550  67.145  1.00  0.00    -0.252 C  
BRANCH  15  16
HETATM   16  C   UNL     1     -10.531  10.823  66.326  1.00  0.00    -0.287 A  
HETATM   17  C   UNL     1     -10.560  12.077  66.950  1.00  0.00    -0.260 A  
HETATM   18  C   UNL     1     -10.409  10.774  64.929  1.00  0.00    -0.369 A  
HETATM   19  C   UNL     1     -10.473  13.251  66.196  1.00  0.00    -0.296 A  
HETATM   20  C   UNL     1     -10.345  13.186  64.810  1.00  0.00    -0.369 A  
HETATM   21  C   UNL     1     -10.305  11.947  64.176  1.00  0.00    -0.377 A  
ENDBRANCH  15  16
ENDBRANCH  14  15
BRANCH  14  22
HETATM   22  C   UNL     1      -9.327   7.920  68.593  1.00  0.00    -0.145 C  
HETATM   23  O   UNL     1      -8.413   6.816  68.549  1.00  0.00    -0.122 OA 
HETATM   24  H   UNL     1      -8.357   6.390  69.397  1.00  0.00     0.000 HD 
BRANCH  22  25
HETATM   25  C   UNL     1     -10.645   7.517  69.286  1.00  0.00    -0.210 C  
BRANCH  25  26
HETATM   26  N   UNL     1     -10.738   7.558  70.808  1.00  0.00    -0.225 N  
BRANCH  26  27
HETATM   27  C   UNL     1     -12.026   8.245  71.260  1.00  0.00    -0.287 C  
HETATM   28  C   UNL     1     -11.985   9.736  71.658  1.00  0.00    -0.454 C  
HETATM   29  C   UNL     1     -11.580  10.674  70.523  1.00  0.00    -0.444 C  
HETATM   30  C   UNL     1     -13.383  10.168  72.140  1.00  0.00    -0.431 C  
ENDBRANCH  26  27
BRANCH  26  31
HETATM   31  S   UNL     1     -10.605   5.918  71.440  1.00  0.00    -0.260 S  
HETATM   32  O   UNL     1     -11.615   5.726  72.451  1.00  0.00    -0.301 OA 
HETATM   33  O   UNL     1     -10.512   5.043  70.285  1.00  0.00    -0.261 OA 
BRANCH  31  34
HETATM   34  C   UNL     1      -9.016   5.881  72.266  1.00  0.00    -0.142 A  
HETATM   35  C   UNL     1      -6.828   4.895  72.563  1.00  0.00    -0.069 A  
HETATM   36  C   UNL     1      -8.044   4.965  71.865  1.00  0.00    -0.114 A  
HETATM   37  C   UNL     1      -6.589   5.697  73.684  1.00  0.00    -0.078 A  
HETATM   38  N   UNL     1      -5.340   5.694  74.305  1.00  0.00    -0.027 NA 
HETATM   39  C   UNL     1      -7.538   6.666  74.018  1.00  0.00    -0.094 A  
HETATM   40  H1  UNL     1      -5.165   6.279  75.122  1.00  0.00     0.000 HD 
HETATM   41  C   UNL     1      -8.755   6.754  73.328  1.00  0.00    -0.138 A  
HETATM   42  H2  UNL     1      -4.633   5.910  73.602  1.00  0.00     0.000 HD 
ENDBRANCH  31  34
ENDBRANCH  26  31
ENDBRANCH  25  26
ENDBRANCH  22  25
ENDBRANCH  14  22
ENDBRANCH  12  14
ENDBRANCH   9  10
ENDBRANCH   8   9
TORSDOF 11
ENDMDL
MODEL      267
REMARK 921   NORMALIZED FREE ENERGY PREDICTED BY IDOCK:   -4.25 KCAL/MOL
REMARK 922        TOTAL FREE ENERGY PREDICTED BY IDOCK:   -9.60 KCAL/MOL
REMARK 923 INTER-LIGAND FREE ENERGY PREDICTED BY IDOCK:   -7.83 KCAL/MOL
REMARK 924 INTRA-LIGAND FREE ENERGY PREDICTED BY IDOCK:   -1.77 KCAL/MOL
REMARK 927      BINDING AFFINITY PREDICTED BY RF-SCORE:    0.00 PKD
ROOT
HETATM    1  C   UNL     1      -8.062   6.887  64.487  1.00  0.00    -0.069 C  
HETATM    2  C   UNL     1      -7.010   6.114  65.261  1.00  0.00    -0.056 C  
HETATM    3  C   UNL     1      -6.669   4.933  64.373  1.00  0.00    -0.044 C  
HETATM    4  O   UNL     1      -7.383   5.076  63.147  1.00  0.00    -0.046 OA 
HETATM    5  C   UNL     1      -7.869   6.408  63.069  1.00  0.00    -0.099 C  
HETATM    6  O   UNL     1      -6.906   7.284  62.483  1.00  0.00    -0.065 OA 
HETATM    7  C   UNL     1      -7.062   8.566  63.101  1.00  0.00    -0.091 C  
HETATM    8  C   UNL     1      -7.877   8.390  64.383  1.00  0.00    -0.141 C  
ENDROOT
BRANCH   8   9
HETATM    9  O   UNL     1      -7.122   8.920  65.484  1.00  0.00    -0.079 OA 
BRANCH   9  10
HETATM   10  C   UNL     1      -7.492  10.146  65.931  1.00  0.00    -0.125 C  
HETATM   11  O   UNL     1      -6.723  11.035  66.254  1.00  0.00    -0.134 OA 
HETATM   12  N   UNL     1      -8.851  10.171  66.044  1.00  0.00    -0.140 N  
HETATM   13  H   UNL     1      -9.384   9.398  65.645  1.00  0.00     0.000 HD 
BRANCH  12  14
HETATM   14  C   UNL     1      -9.589  11.256  66.710  1.00  0.00    -0.193 C  
BRANCH  14  15
HETATM   15  C   UNL     1     -10.896  11.624  65.935  1.00  0.00    -0.339 C  
BRANCH  15  16
HETATM   16  C   UNL     1     -11.044  13.076  65.512  1.00  0.00    -0.300 A  
HETATM   17  C   UNL     1     -10.163  14.052  65.996  1.00  0.00    -0.313 A  
HETATM   18  C   UNL     1     -12.085  13.479  64.661  1.00  0.00    -0.450 A  
HETATM   19  C   UNL     1     -10.322  15.395  65.643  1.00  0.00    -0.395 A  
HETATM   20  C   UNL     1     -11.356  15.778  64.791  1.00  0.00    -0.319 A  
HETATM   21  C   UNL     1     -12.234  14.819  64.293  1.00  0.00    -0.402 A  
ENDBRANCH  15  16
ENDBRANCH  14  15
BRANCH  14  22
HETATM   22  C   UNL     1      -9.912  10.972  68.209  1.00  0.00    -0.179 C  
HETATM   23  O   UNL     1      -8.790  11.295  69.042  1.00  0.00    -0.350 OA 
HETATM   24  H   UNL     1      -8.987  11.122  69.955  1.00  0.00     0.000 HD 
BRANCH  22  25
HETATM   25  C   UNL     1     -10.490   9.589  68.573  1.00  0.00    -0.217 C  
BRANCH  25  26
HETATM   26  N   UNL     1     -10.125   8.951  69.910  1.00  0.00    -0.189 N  
BRANCH  26  27
HETATM   27  C   UNL     1     -11.370   8.426  70.626  1.00  0.00    -0.244 C  
HETATM   28  C   UNL     1     -12.118   9.351  71.610  1.00  0.00    -0.462 C  
HETATM   29  C   UNL     1     -12.702  10.606  70.965  1.00  0.00    -0.512 C  
HETATM   30  C   UNL     1     -13.284   8.572  72.247  1.00  0.00    -0.361 C  
ENDBRANCH  26  27
BRANCH  26  31
HETATM   31  S   UNL     1      -8.934   7.679  69.638  1.00  0.00    -0.139 S  
HETATM   32  O   UNL     1      -9.249   7.004  68.404  1.00  0.00    -0.131 OA 
HETATM   33  O   UNL     1      -7.634   8.285  69.862  1.00  0.00    -0.077 OA 
BRANCH  31  34
HETATM   34  C   UNL     1      -9.213   6.509  70.966  1.00  0.00    -0.160 A  
HETATM   35  C   UNL     1      -8.928   5.851  73.275  1.00  0.00    -0.130 A  
HETATM   36  C   UNL     1      -8.768   6.802  72.256  1.00  0.00    -0.130 A  
HETATM   37  C   UNL     1      -9.485   4.594  73.013  1.00  0.00    -0.129 A  
HETATM   38  N   UNL     1      -9.734   3.698  74.053  1.00  0.00    -0.103 NA 
HETATM   39  C   UNL     1     -10.000   4.352  71.738  1.00  0.00    -0.257 A  
HETATM   40  H1  UNL     1     -10.141   2.782  73.863  1.00  0.00     0.000 HD 
HETATM   41  C   UNL     1      -9.855   5.294  70.710  1.00  0.00    -0.261 A  
HETATM   42  H2  UNL     1     -10.317   4.167  74.747  1.00  0.00     0.000 HD 
ENDBRANCH  31  34
ENDBRANCH  26  31
ENDBRANCH  25  26
ENDBRANCH  22  25
ENDBRANCH  14  22
ENDBRANCH  12  14
ENDBRANCH   9  10
ENDBRANCH   8   9
TORSDOF 11
ENDMDL
MODEL      268
REMARK 921   NORMALIZED FREE ENERGY PREDICTED BY IDOCK:   -4.23 KCAL/MOL
REMARK 922        TOTAL FREE ENERGY PREDICTED BY IDOCK:   -9.58 KCAL/MOL
REMARK 923 INTER-LIGAND FREE ENERGY PREDICTED BY IDOCK:   -8.88 KCAL/MOL
REMARK 924 INTRA-LIGAND FREE ENERGY PREDICTED BY IDOCK:   -0.70 KCAL/MOL
REMARK 927      BINDING AFFINITY PREDICTED BY RF-SCORE:    0.00 PKD
ROOT
HETATM    1  C   UNL     1      -8.760  19.928  68.369  1.00  0.00    -0.222 C  
HETATM    2  C   UNL     1      -8.361  20.609  67.073  1.00  0.00    -0.258 C  
HETATM    3  C   UNL     1      -6.883  20.910  67.234  1.00  0.00    -0.365 C  
HETATM    4  O   UNL     1      -6.448  20.351  68.473  1.00  0.00    -0.298 OA 
HETATM    5  C   UNL     1      -7.443  19.445  68.925  1.00  0.00    -0.364 C  
HETATM    6  O   UNL     1      -7.244  18.136  68.391  1.00  0.00    -0.241 OA 
HETATM    7  C   UNL     1      -8.537  17.549  68.207  1.00  0.00    -0.266 C  
HETATM    8  C   UNL     1      -9.586  18.660  68.258  1.00  0.00    -0.347 C  
ENDROOT
BRANCH   8   9
HETATM    9  O   UNL     1     -10.357  18.620  67.045  1.00  0.00    -0.364 OA 
BRANCH   9  10
HETATM   10  C   UNL     1     -10.397  17.429  66.398  1.00  0.00    -0.317 C  
HETATM   11  O   UNL     1     -10.339  17.287  65.189  1.00  0.00    -0.546 OA 
HETATM   12  N   UNL     1     -10.604  16.444  67.320  1.00  0.00    -0.313 N  
HETATM   13  H   UNL     1     -10.532  16.684  68.309  1.00  0.00     0.000 HD 
BRANCH  12  14
HETATM   14  C   UNL     1     -10.926  15.054  66.962  1.00  0.00    -0.318 C  
BRANCH  14  15
HETATM   15  C   UNL     1     -10.279  14.645  65.599  1.00  0.00    -0.382 C  
BRANCH  15  16
HETATM   16  C   UNL     1     -10.989  13.554  64.815  1.00  0.00    -0.382 A  
HETATM   17  C   UNL     1     -12.347  13.288  65.035  1.00  0.00    -0.499 A  
HETATM   18  C   UNL     1     -10.296  12.766  63.882  1.00  0.00    -0.352 A  
HETATM   19  C   UNL     1     -12.992  12.257  64.346  1.00  0.00    -0.166 A  
HETATM   20  C   UNL     1     -12.292  11.488  63.419  1.00  0.00    -0.123 A  
HETATM   21  C   UNL     1     -10.945  11.747  63.181  1.00  0.00    -0.275 A  
ENDBRANCH  15  16
ENDBRANCH  14  15
BRANCH  14  22
HETATM   22  C   UNL     1     -10.559  14.017  68.067  1.00  0.00    -0.247 C  
HETATM   23  O   UNL     1     -11.268  14.296  69.283  1.00  0.00    -0.255 OA 
HETATM   24  H   UNL     1     -11.044  13.664  69.956  1.00  0.00     0.000 HD 
BRANCH  22  25
HETATM   25  C   UNL     1      -9.065  13.758  68.347  1.00  0.00    -0.175 C  
BRANCH  25  26
HETATM   26  N   UNL     1      -8.557  12.324  68.457  1.00  0.00    -0.117 N  
BRANCH  26  27
HETATM   27  C   UNL     1      -9.174  11.439  67.373  1.00  0.00    -0.164 C  
HETATM   28  C   UNL     1      -9.976  10.188  67.790  1.00  0.00    -0.198 C  
HETATM   29  C   UNL     1     -11.226  10.494  68.612  1.00  0.00    -0.328 C  
HETATM   30  C   UNL     1     -10.428   9.435  66.524  1.00  0.00    -0.199 C  
ENDBRANCH  26  27
BRANCH  26  31
HETATM   31  S   UNL     1      -6.795  12.327  68.385  1.00  0.00    -0.082 S  
HETATM   32  O   UNL     1      -6.376  13.173  67.295  1.00  0.00    -0.270 OA 
HETATM   33  O   UNL     1      -6.334  12.553  69.743  1.00  0.00    -0.128 OA 
BRANCH  31  34
HETATM   34  C   UNL     1      -6.360  10.645  67.947  1.00  0.00    -0.058 A  
HETATM   35  C   UNL     1      -5.596   9.033  66.315  1.00  0.00    -0.049 A  
HETATM   36  C   UNL     1      -5.868  10.363  66.673  1.00  0.00    -0.061 A  
HETATM   37  C   UNL     1      -5.850   7.978  67.199  1.00  0.00    -0.042 A  
HETATM   38  N   UNL     1      -5.478   6.674  66.872  1.00  0.00    -0.013 NA 
HETATM   39  C   UNL     1      -6.261   8.288  68.498  1.00  0.00    -0.053 A  
HETATM   40  H1  UNL     1      -5.663   5.905  67.516  1.00  0.00     0.000 HD 
HETATM   41  C   UNL     1      -6.531   9.611  68.873  1.00  0.00    -0.046 A  
HETATM   42  H2  UNL     1      -4.482   6.671  66.650  1.00  0.00     0.000 HD 
ENDBRANCH  31  34
ENDBRANCH  26  31
ENDBRANCH  25  26
ENDBRANCH  22  25
ENDBRANCH  14  22
ENDBRANCH  12  14
ENDBRANCH   9  10
ENDBRANCH   8   9
TORSDOF 11
ENDMDL
MODEL      269
REMARK 921   NORMALIZED FREE ENERGY PREDICTED BY IDOCK:   -4.23 KCAL/MOL
REMARK 922        TOTAL FREE ENERGY PREDICTED BY IDOCK:   -9.57 KCAL/MOL
REMARK 923 INTER-LIGAND FREE ENERGY PREDICTED BY IDOCK:   -8.63 KCAL/MOL
REMARK 924 INTRA-LIGAND FREE ENERGY PREDICTED BY IDOCK:   -0.94 KCAL/MOL
REMARK 927      BINDING AFFINITY PREDICTED BY RF-SCORE:    0.00 PKD
ROOT
HETATM    1  C   UNL     1      -9.376   7.502  72.276  1.00  0.00    -0.185 C  
HETATM    2  C   UNL     1      -8.200   6.544  72.337  1.00  0.00    -0.105 C  
HETATM    3  C   UNL     1      -7.937   6.351  73.818  1.00  0.00    -0.101 C  
HETATM    4  O   UNL     1      -8.945   7.051  74.545  1.00  0.00    -0.200 OA 
HETATM    5  C   UNL     1      -9.996   7.376  73.646  1.00  0.00    -0.328 C  
HETATM    6  O   UNL     1     -10.952   6.320  73.553  1.00  0.00    -0.224 OA 
HETATM    7  C   UNL     1     -11.458   6.319  72.214  1.00  0.00    -0.306 C  
HETATM    8  C   UNL     1     -10.513   7.141  71.337  1.00  0.00    -0.204 C  
ENDROOT
BRANCH   8   9
HETATM    9  O   UNL     1     -10.072   6.321  70.242  1.00  0.00    -0.176 OA 
BRANCH   9  10
HETATM   10  C   UNL     1     -10.006   6.923  69.029  1.00  0.00    -0.158 C  
HETATM   11  O   UNL     1     -10.901   6.928  68.201  1.00  0.00    -0.223 OA 
HETATM   12  N   UNL     1      -8.750   7.431  68.867  1.00  0.00    -0.132 N  
HETATM   13  H   UNL     1      -8.128   7.450  69.676  1.00  0.00     0.000 HD 
BRANCH  12  14
HETATM   14  C   UNL     1      -8.246   7.954  67.588  1.00  0.00    -0.124 C  
BRANCH  14  15
HETATM   15  C   UNL     1      -7.829   6.801  66.619  1.00  0.00    -0.107 C  
BRANCH  15  16
HETATM   16  C   UNL     1      -7.760   5.406  67.219  1.00  0.00    -0.096 A  
HETATM   17  C   UNL     1      -6.841   5.113  68.235  1.00  0.00    -0.056 A  
HETATM   18  C   UNL     1      -8.586   4.374  66.746  1.00  0.00    -0.107 A  
HETATM   19  C   UNL     1      -6.746   3.821  68.759  1.00  0.00    -0.045 A  
HETATM   20  C   UNL     1      -7.578   2.808  68.285  1.00  0.00    -0.055 A  
HETATM   21  C   UNL     1      -8.504   3.086  67.283  1.00  0.00    -0.103 A  
ENDBRANCH  15  16
ENDBRANCH  14  15
BRANCH  14  22
HETATM   22  C   UNL     1      -9.230   8.930  66.874  1.00  0.00    -0.147 C  
HETATM   23  O   UNL     1      -9.832   8.303  65.733  1.00  0.00    -0.445 OA 
HETATM   24  H   UNL     1     -10.432   8.897  65.298  1.00  0.00     0.000 HD 
BRANCH  22  25
HETATM   25  C   UNL     1      -8.718  10.341  66.521  1.00  0.00    -0.131 C  
BRANCH  25  26
HETATM   26  N   UNL     1      -9.706  11.501  66.441  1.00  0.00    -0.201 N  
BRANCH  26  27
HETATM   27  C   UNL     1     -10.636  11.349  65.238  1.00  0.00    -0.277 C  
HETATM   28  C   UNL     1     -11.513  12.545  64.808  1.00  0.00    -0.369 C  
HETATM   29  C   UNL     1     -10.719  13.772  64.364  1.00  0.00    -0.333 C  
HETATM   30  C   UNL     1     -12.404  12.117  63.627  1.00  0.00    -0.673 C  
ENDBRANCH  26  27
BRANCH  26  31
HETATM   31  S   UNL     1     -10.598  11.607  67.959  1.00  0.00    -0.212 S  
HETATM   32  O   UNL     1     -11.956  11.182  67.730  1.00  0.00    -0.630 OA 
HETATM   33  O   UNL     1      -9.764  10.975  68.965  1.00  0.00    -0.196 OA 
BRANCH  31  34
HETATM   34  C   UNL     1     -10.648  13.359  68.331  1.00  0.00    -0.248 A  
HETATM   35  C   UNL     1      -9.678  15.567  68.164  1.00  0.00    -0.208 A  
HETATM   36  C   UNL     1      -9.672  14.209  67.811  1.00  0.00    -0.223 A  
HETATM   37  C   UNL     1     -10.619  16.078  69.065  1.00  0.00    -0.257 A  
HETATM   38  N   UNL     1     -10.680  17.447  69.327  1.00  0.00    -0.352 NA 
HETATM   39  C   UNL     1     -11.638  15.231  69.508  1.00  0.00    -0.339 A  
HETATM   40  H1  UNL     1     -11.366  17.819  69.984  1.00  0.00     0.000 HD 
HETATM   41  C   UNL     1     -11.651  13.873  69.160  1.00  0.00    -0.359 A  
HETATM   42  H2  UNL     1     -10.790  17.937  68.439  1.00  0.00     0.000 HD 
ENDBRANCH  31  34
ENDBRANCH  26  31
ENDBRANCH  25  26
ENDBRANCH  22  25
ENDBRANCH  14  22
ENDBRANCH  12  14
ENDBRANCH   9  10
ENDBRANCH   8   9
TORSDOF 11
ENDMDL
MODEL      270
REMARK 921   NORMALIZED FREE ENERGY PREDICTED BY IDOCK:   -4.21 KCAL/MOL
REMARK 922        TOTAL FREE ENERGY PREDICTED BY IDOCK:   -9.54 KCAL/MOL
REMARK 923 INTER-LIGAND FREE ENERGY PREDICTED BY IDOCK:   -9.13 KCAL/MOL
REMARK 924 INTRA-LIGAND FREE ENERGY PREDICTED BY IDOCK:   -0.41 KCAL/MOL
REMARK 927      BINDING AFFINITY PREDICTED BY RF-SCORE:    0.00 PKD
ROOT
HETATM    1  C   UNL     1      -7.417   6.627  67.308  1.00  0.00    -0.092 C  
HETATM    2  C   UNL     1      -5.932   6.892  67.477  1.00  0.00    -0.028 C  
HETATM    3  C   UNL     1      -5.352   6.736  66.084  1.00  0.00    -0.018 C  
HETATM    4  O   UNL     1      -6.429   6.509  65.176  1.00  0.00    -0.037 OA 
HETATM    5  C   UNL     1      -7.642   6.847  65.832  1.00  0.00    -0.090 C  
HETATM    6  O   UNL     1      -7.953   8.231  65.681  1.00  0.00    -0.101 OA 
HETATM    7  C   UNL     1      -8.619   8.653  66.876  1.00  0.00    -0.120 C  
HETATM    8  C   UNL     1      -8.373   7.607  67.964  1.00  0.00    -0.124 C  
ENDROOT
BRANCH   8   9
HETATM    9  O   UNL     1      -7.785   8.257  69.102  1.00  0.00    -0.093 OA 
BRANCH   9  10
HETATM   10  C   UNL     1      -8.633   8.951  69.901  1.00  0.00    -0.137 C  
HETATM   11  O   UNL     1      -8.295   9.645  70.844  1.00  0.00    -0.272 OA 
HETATM   12  N   UNL     1      -9.912   8.662  69.527  1.00  0.00    -0.191 N  
HETATM   13  H   UNL     1     -10.057   8.147  68.658  1.00  0.00     0.000 HD 
BRANCH  12  14
HETATM   14  C   UNL     1     -11.095   9.054  70.309  1.00  0.00    -0.235 C  
BRANCH  14  15
HETATM   15  C   UNL     1     -10.814   8.992  71.846  1.00  0.00    -0.413 C  
BRANCH  15  16
HETATM   16  C   UNL     1     -10.768   7.606  72.469  1.00  0.00    -0.350 A  
HETATM   17  C   UNL     1     -11.657   6.608  72.050  1.00  0.00    -0.341 A  
HETATM   18  C   UNL     1      -9.864   7.307  73.500  1.00  0.00    -0.347 A  
HETATM   19  C   UNL     1     -11.645   5.346  72.649  1.00  0.00    -0.270 A  
HETATM   20  C   UNL     1     -10.737   5.061  73.667  1.00  0.00    -0.350 A  
HETATM   21  C   UNL     1      -9.840   6.039  74.088  1.00  0.00    -0.228 A  
ENDBRANCH  15  16
ENDBRANCH  14  15
BRANCH  14  22
HETATM   22  C   UNL     1     -11.673  10.449  69.922  1.00  0.00    -0.264 C  
HETATM   23  O   UNL     1     -13.103  10.398  69.825  1.00  0.00    -0.577 OA 
HETATM   24  H   UNL     1     -13.456  11.248  69.589  1.00  0.00     0.000 HD 
BRANCH  22  25
HETATM   25  C   UNL     1     -11.063  11.171  68.703  1.00  0.00    -0.239 C  
BRANCH  25  26
HETATM   26  N   UNL     1     -10.139  12.365  68.920  1.00  0.00    -0.045 N  
BRANCH  26  27
HETATM   27  C   UNL     1      -8.930  12.299  67.987  1.00  0.00    -0.190 C  
HETATM   28  C   UNL     1      -7.658  13.097  68.347  1.00  0.00    -0.133 C  
HETATM   29  C   UNL     1      -6.997  12.662  69.653  1.00  0.00     0.272 C  
HETATM   30  C   UNL     1      -6.619  12.923  67.223  1.00  0.00    -0.047 C  
ENDBRANCH  26  27
BRANCH  26  31
HETATM   31  S   UNL     1     -11.058  13.854  68.709  1.00  0.00    -0.276 S  
HETATM   32  O   UNL     1     -12.288  13.751  69.454  1.00  0.00    -0.310 OA 
HETATM   33  O   UNL     1     -10.125  14.943  68.932  1.00  0.00    -0.224 OA 
BRANCH  31  34
HETATM   34  C   UNL     1     -11.493  13.872  66.971  1.00  0.00    -0.346 A  
HETATM   35  C   UNL     1     -12.355  12.746  65.012  1.00  0.00    -0.559 A  
HETATM   36  C   UNL     1     -12.082  12.749  66.389  1.00  0.00    -0.370 A  
HETATM   37  C   UNL     1     -12.007  13.832  64.202  1.00  0.00    -0.432 A  
HETATM   38  N   UNL     1     -12.377  13.861  62.857  1.00  0.00    -0.843 NA 
HETATM   39  C   UNL     1     -11.497  14.979  64.815  1.00  0.00    -0.403 A  
HETATM   40  H1  UNL     1     -12.123  14.653  62.266  1.00  0.00     0.000 HD 
HETATM   41  C   UNL     1     -11.224  15.001  66.190  1.00  0.00    -0.307 A  
HETATM   42  H2  UNL     1     -13.387  13.732  62.801  1.00  0.00     0.000 HD 
ENDBRANCH  31  34
ENDBRANCH  26  31
ENDBRANCH  25  26
ENDBRANCH  22  25
ENDBRANCH  14  22
ENDBRANCH  12  14
ENDBRANCH   9  10
ENDBRANCH   8   9
TORSDOF 11
ENDMDL
MODEL      271
REMARK 921   NORMALIZED FREE ENERGY PREDICTED BY IDOCK:   -4.21 KCAL/MOL
REMARK 922        TOTAL FREE ENERGY PREDICTED BY IDOCK:   -9.53 KCAL/MOL
REMARK 923 INTER-LIGAND FREE ENERGY PREDICTED BY IDOCK:   -8.09 KCAL/MOL
REMARK 924 INTRA-LIGAND FREE ENERGY PREDICTED BY IDOCK:   -1.45 KCAL/MOL
REMARK 927      BINDING AFFINITY PREDICTED BY RF-SCORE:    0.00 PKD
ROOT
HETATM    1  C   UNL     1      -7.108   8.410  62.330  1.00  0.00    -0.097 C  
HETATM    2  C   UNL     1      -7.871   7.213  62.866  1.00  0.00    -0.119 C  
HETATM    3  C   UNL     1      -6.796   6.244  63.323  1.00  0.00    -0.045 C  
HETATM    4  O   UNL     1      -5.528   6.878  63.163  1.00  0.00    -0.031 OA 
HETATM    5  C   UNL     1      -5.748   8.268  62.968  1.00  0.00    -0.073 C  
HETATM    6  O   UNL     1      -5.818   8.968  64.210  1.00  0.00    -0.068 OA 
HETATM    7  C   UNL     1      -6.744  10.046  64.041  1.00  0.00    -0.128 C  
HETATM    8  C   UNL     1      -7.571   9.784  62.782  1.00  0.00    -0.121 C  
ENDROOT
BRANCH   8   9
HETATM    9  O   UNL     1      -8.963   9.796  63.136  1.00  0.00    -0.231 OA 
BRANCH   9  10
HETATM   10  C   UNL     1      -9.355  10.766  63.999  1.00  0.00    -0.252 C  
HETATM   11  O   UNL     1      -9.007  11.933  63.944  1.00  0.00     0.321 OA 
HETATM   12  N   UNL     1     -10.118  10.194  64.974  1.00  0.00    -0.305 N  
HETATM   13  H   UNL     1     -10.420   9.228  64.848  1.00  0.00     0.000 HD 
BRANCH  12  14
HETATM   14  C   UNL     1     -10.529  10.898  66.199  1.00  0.00    -0.229 C  
BRANCH  14  15
HETATM   15  C   UNL     1     -11.621  11.977  65.904  1.00  0.00    -0.364 C  
BRANCH  15  16
HETATM   16  C   UNL     1     -11.278  13.407  66.292  1.00  0.00    -0.322 A  
HETATM   17  C   UNL     1     -11.934  14.030  67.362  1.00  0.00    -0.439 A  
HETATM   18  C   UNL     1     -10.330  14.145  65.567  1.00  0.00    -0.368 A  
HETATM   19  C   UNL     1     -11.652  15.358  67.694  1.00  0.00    -0.202 A  
HETATM   20  C   UNL     1     -10.702  16.076  66.970  1.00  0.00    -0.277 A  
HETATM   21  C   UNL     1     -10.035  15.468  65.910  1.00  0.00    -0.377 A  
ENDBRANCH  15  16
ENDBRANCH  14  15
BRANCH  14  22
HETATM   22  C   UNL     1     -11.003   9.950  67.343  1.00  0.00    -0.145 C  
HETATM   23  O   UNL     1     -11.879  10.639  68.246  1.00  0.00    -0.731 OA 
HETATM   24  H   UNL     1     -12.168  10.061  68.942  1.00  0.00     0.000 HD 
BRANCH  22  25
HETATM   25  C   UNL     1      -9.929   9.156  68.114  1.00  0.00    -0.176 C  
BRANCH  25  26
HETATM   26  N   UNL     1      -9.630   9.511  69.567  1.00  0.00    -0.177 N  
BRANCH  26  27
HETATM   27  C   UNL     1     -10.402   8.602  70.524  1.00  0.00    -0.202 C  
HETATM   28  C   UNL     1     -11.125   9.227  71.736  1.00  0.00    -0.398 C  
HETATM   29  C   UNL     1     -12.235  10.207  71.363  1.00  0.00    -0.492 C  
HETATM   30  C   UNL     1     -11.762   8.105  72.577  1.00  0.00    -0.457 C  
ENDBRANCH  26  27
BRANCH  26  31
HETATM   31  S   UNL     1      -7.889   9.429  69.836  1.00  0.00    -0.145 S  
HETATM   32  O   UNL     1      -7.637   9.451  71.256  1.00  0.00    -0.333 OA 
HETATM   33  O   UNL     1      -7.398   8.353  68.995  1.00  0.00    -0.084 OA 
BRANCH  31  34
HETATM   34  C   UNL     1      -7.257  10.965  69.163  1.00  0.00    -0.118 A  
HETATM   35  C   UNL     1      -7.575  12.962  67.838  1.00  0.00    -0.138 A  
HETATM   36  C   UNL     1      -8.096  11.796  68.421  1.00  0.00    -0.150 A  
HETATM   37  C   UNL     1      -6.217  13.284  67.949  1.00  0.00    -0.144 A  
HETATM   38  N   UNL     1      -5.732  14.495  67.456  1.00  0.00    -0.349 NA 
HETATM   39  C   UNL     1      -5.413  12.484  68.765  1.00  0.00    -0.058 A  
HETATM   40  H1  UNL     1      -4.743  14.730  67.537  1.00  0.00     0.000 HD 
HETATM   41  C   UNL     1      -5.919  11.321  69.360  1.00  0.00    -0.063 A  
HETATM   42  H2  UNL     1      -6.275  15.251  67.875  1.00  0.00     0.000 HD 
ENDBRANCH  31  34
ENDBRANCH  26  31
ENDBRANCH  25  26
ENDBRANCH  22  25
ENDBRANCH  14  22
ENDBRANCH  12  14
ENDBRANCH   9  10
ENDBRANCH   8   9
TORSDOF 11
ENDMDL
MODEL      272
REMARK 921   NORMALIZED FREE ENERGY PREDICTED BY IDOCK:   -4.20 KCAL/MOL
REMARK 922        TOTAL FREE ENERGY PREDICTED BY IDOCK:   -9.53 KCAL/MOL
REMARK 923 INTER-LIGAND FREE ENERGY PREDICTED BY IDOCK:   -8.33 KCAL/MOL
REMARK 924 INTRA-LIGAND FREE ENERGY PREDICTED BY IDOCK:   -1.20 KCAL/MOL
REMARK 927      BINDING AFFINITY PREDICTED BY RF-SCORE:    0.00 PKD
ROOT
HETATM    1  C   UNL     1      -8.329  17.646  66.625  1.00  0.00    -0.288 C  
HETATM    2  C   UNL     1      -8.305  18.587  67.816  1.00  0.00    -0.273 C  
HETATM    3  C   UNL     1      -9.138  19.778  67.384  1.00  0.00    -0.330 C  
HETATM    4  O   UNL     1      -9.684  19.496  66.096  1.00  0.00    -0.381 OA 
HETATM    5  C   UNL     1      -9.538  18.106  65.846  1.00  0.00     0.089 C  
HETATM    6  O   UNL     1     -10.643  17.361  66.356  1.00  0.00    -0.294 OA 
HETATM    7  C   UNL     1     -10.142  16.090  66.782  1.00  0.00    -0.268 C  
HETATM    8  C   UNL     1      -8.621  16.183  66.905  1.00  0.00    -0.221 C  
ENDROOT
BRANCH   8   9
HETATM    9  O   UNL     1      -8.243  15.801  68.237  1.00  0.00    -0.139 OA 
BRANCH   9  10
HETATM   10  C   UNL     1      -8.259  14.473  68.508  1.00  0.00    -0.154 C  
HETATM   11  O   UNL     1      -7.278  13.749  68.522  1.00  0.00    -0.094 OA 
HETATM   12  N   UNL     1      -9.556  14.080  68.667  1.00  0.00    -0.320 N  
HETATM   13  H   UNL     1     -10.275  14.802  68.733  1.00  0.00     0.000 HD 
BRANCH  12  14
HETATM   14  C   UNL     1      -9.973  12.672  68.748  1.00  0.00    -0.010 C  
BRANCH  14  15
HETATM   15  C   UNL     1     -11.528  12.527  68.692  1.00  0.00    -0.348 C  
BRANCH  15  16
HETATM   16  C   UNL     1     -12.220  12.159  69.995  1.00  0.00    -0.270 A  
HETATM   17  C   UNL     1     -12.578  13.152  70.916  1.00  0.00    -0.377 A  
HETATM   18  C   UNL     1     -12.479  10.819  70.322  1.00  0.00    -0.395 A  
HETATM   19  C   UNL     1     -13.175  12.814  72.133  1.00  0.00    -0.546 A  
HETATM   20  C   UNL     1     -13.433  11.479  72.441  1.00  0.00     0.179 A  
HETATM   21  C   UNL     1     -13.092  10.481  71.532  1.00  0.00    -0.532 A  
ENDBRANCH  15  16
ENDBRANCH  14  15
BRANCH  14  22
HETATM   22  C   UNL     1      -9.306  11.754  67.678  1.00  0.00    -0.180 C  
HETATM   23  O   UNL     1      -9.653  12.181  66.354  1.00  0.00    -0.224 OA 
HETATM   24  H   UNL     1      -9.247  11.623  65.702  1.00  0.00     0.000 HD 
BRANCH  22  25
HETATM   25  C   UNL     1      -9.476  10.229  67.828  1.00  0.00    -0.148 C  
BRANCH  25  26
HETATM   26  N   UNL     1      -8.241   9.342  67.947  1.00  0.00    -0.114 N  
BRANCH  26  27
HETATM   27  C   UNL     1      -7.045   9.967  67.227  1.00  0.00    -0.085 C  
HETATM   28  C   UNL     1      -6.507   9.299  65.944  1.00  0.00    -0.071 C  
HETATM   29  C   UNL     1      -7.509   9.262  64.792  1.00  0.00    -0.104 C  
HETATM   30  C   UNL     1      -5.268  10.072  65.455  1.00  0.00    -0.058 C  
ENDBRANCH  26  27
BRANCH  26  31
HETATM   31  S   UNL     1      -7.904   9.046  69.653  1.00  0.00    -0.094 S  
HETATM   32  O   UNL     1      -6.883   8.034  69.756  1.00  0.00    -0.043 OA 
HETATM   33  O   UNL     1      -7.745  10.351  70.268  1.00  0.00    -0.144 OA 
BRANCH  31  34
HETATM   34  C   UNL     1      -9.419   8.335  70.293  1.00  0.00    -0.164 A  
HETATM   35  C   UNL     1     -10.941   7.949  72.132  1.00  0.00    -0.339 A  
HETATM   36  C   UNL     1      -9.790   8.566  71.618  1.00  0.00    -0.317 A  
HETATM   37  C   UNL     1     -11.701   7.069  71.353  1.00  0.00    -0.306 A  
HETATM   38  N   UNL     1     -12.899   6.544  71.839  1.00  0.00    -0.415 NA 
HETATM   39  C   UNL     1     -11.362   6.917  70.006  1.00  0.00    -0.343 A  
HETATM   40  H1  UNL     1     -13.453   5.902  71.271  1.00  0.00     0.000 HD 
HETATM   41  C   UNL     1     -10.220   7.531  69.475  1.00  0.00    -0.207 A  
HETATM   42  H2  UNL     1     -13.498   7.321  72.119  1.00  0.00     0.000 HD 
ENDBRANCH  31  34
ENDBRANCH  26  31
ENDBRANCH  25  26
ENDBRANCH  22  25
ENDBRANCH  14  22
ENDBRANCH  12  14
ENDBRANCH   9  10
ENDBRANCH   8   9
TORSDOF 11
ENDMDL
MODEL      273
REMARK 921   NORMALIZED FREE ENERGY PREDICTED BY IDOCK:   -4.18 KCAL/MOL
REMARK 922        TOTAL FREE ENERGY PREDICTED BY IDOCK:   -9.49 KCAL/MOL
REMARK 923 INTER-LIGAND FREE ENERGY PREDICTED BY IDOCK:   -7.63 KCAL/MOL
REMARK 924 INTRA-LIGAND FREE ENERGY PREDICTED BY IDOCK:   -1.87 KCAL/MOL
REMARK 927      BINDING AFFINITY PREDICTED BY RF-SCORE:    0.00 PKD
ROOT
HETATM    1  C   UNL     1     -12.440  10.720  70.273  1.00  0.00    -0.395 C  
HETATM    2  C   UNL     1     -12.043  12.043  70.901  1.00  0.00    -0.203 C  
HETATM    3  C   UNL     1     -13.074  12.280  71.988  1.00  0.00    -0.355 C  
HETATM    4  O   UNL     1     -13.925  11.137  72.051  1.00  0.00     0.175 OA 
HETATM    5  C   UNL     1     -13.303  10.080  71.334  1.00  0.00    -0.347 C  
HETATM    6  O   UNL     1     -12.418   9.330  72.164  1.00  0.00    -0.370 OA 
HETATM    7  C   UNL     1     -11.335   8.884  71.342  1.00  0.00    -0.309 C  
HETATM    8  C   UNL     1     -11.337   9.702  70.050  1.00  0.00    -0.195 C  
ENDROOT
BRANCH   8   9
HETATM    9  O   UNL     1     -10.050  10.323  69.897  1.00  0.00    -0.237 OA 
BRANCH   9  10
HETATM   10  C   UNL     1      -9.489  10.244  68.665  1.00  0.00    -0.169 C  
HETATM   11  O   UNL     1     -10.056   9.851  67.661  1.00  0.00    -0.176 OA 
HETATM   12  N   UNL     1      -8.172  10.588  68.769  1.00  0.00    -0.125 N  
HETATM   13  H   UNL     1      -7.846  10.995  69.645  1.00  0.00     0.000 HD 
BRANCH  12  14
HETATM   14  C   UNL     1      -7.198  10.401  67.682  1.00  0.00    -0.086 C  
BRANCH  14  15
HETATM   15  C   UNL     1      -7.384   9.021  66.973  1.00  0.00    -0.087 C  
BRANCH  15  16
HETATM   16  C   UNL     1      -6.956   7.793  67.761  1.00  0.00    -0.081 A  
HETATM   17  C   UNL     1      -7.727   6.624  67.732  1.00  0.00    -0.107 A  
HETATM   18  C   UNL     1      -5.804   7.815  68.563  1.00  0.00    -0.031 A  
HETATM   19  C   UNL     1      -7.360   5.509  68.489  1.00  0.00    -0.076 A  
HETATM   20  C   UNL     1      -6.209   5.542  69.276  1.00  0.00    -0.029 A  
HETATM   21  C   UNL     1      -5.427   6.693  69.307  1.00  0.00    -0.014 A  
ENDBRANCH  15  16
ENDBRANCH  14  15
BRANCH  14  22
HETATM   22  C   UNL     1      -7.197  11.553  66.631  1.00  0.00    -0.068 C  
HETATM   23  O   UNL     1      -6.041  11.470  65.786  1.00  0.00    -0.454 OA 
HETATM   24  H   UNL     1      -6.041  12.171  65.145  1.00  0.00     0.000 HD 
BRANCH  22  25
HETATM   25  C   UNL     1      -7.407  12.994  67.139  1.00  0.00     0.044 C  
BRANCH  25  26
HETATM   26  N   UNL     1      -8.453  13.881  66.472  1.00  0.00     0.169 N  
BRANCH  26  27
HETATM   27  C   UNL     1      -9.844  13.255  66.568  1.00  0.00    -0.281 C  
HETATM   28  C   UNL     1     -10.746  13.230  65.314  1.00  0.00    -0.322 C  
HETATM   29  C   UNL     1     -10.178  12.416  64.154  1.00  0.00    -0.377 C  
HETATM   30  C   UNL     1     -12.109  12.616  65.686  1.00  0.00    -0.502 C  
ENDBRANCH  26  27
BRANCH  26  31
HETATM   31  S   UNL     1      -8.399  15.486  67.200  1.00  0.00    -0.233 S  
HETATM   32  O   UNL     1      -7.206  15.593  68.003  1.00  0.00    -0.116 OA 
HETATM   33  O   UNL     1      -8.682  16.427  66.131  1.00  0.00    -0.312 OA 
BRANCH  31  34
HETATM   34  C   UNL     1      -9.796  15.519  68.323  1.00  0.00    -0.213 A  
HETATM   35  C   UNL     1     -12.152  15.878  68.729  1.00  0.00    -0.016 A  
HETATM   36  C   UNL     1     -11.075  15.785  67.834  1.00  0.00    -0.326 A  
HETATM   37  C   UNL     1     -11.960  15.753  70.110  1.00  0.00    -0.347 A  
HETATM   38  N   UNL     1     -13.051  15.744  70.979  1.00  0.00    -0.578 NA 
HETATM   39  C   UNL     1     -10.689  15.404  70.572  1.00  0.00    -0.290 A  
HETATM   40  H1  UNL     1     -12.911  15.653  71.986  1.00  0.00     0.000 HD 
HETATM   41  C   UNL     1      -9.603  15.300  69.691  1.00  0.00    -0.188 A  
HETATM   42  H2  UNL     1     -13.692  15.009  70.679  1.00  0.00     0.000 HD 
ENDBRANCH  31  34
ENDBRANCH  26  31
ENDBRANCH  25  26
ENDBRANCH  22  25
ENDBRANCH  14  22
ENDBRANCH  12  14
ENDBRANCH   9  10
ENDBRANCH   8   9
TORSDOF 11
ENDMDL
MODEL      274
REMARK 921   NORMALIZED FREE ENERGY PREDICTED BY IDOCK:   -4.16 KCAL/MOL
REMARK 922        TOTAL FREE ENERGY PREDICTED BY IDOCK:   -9.46 KCAL/MOL
REMARK 923 INTER-LIGAND FREE ENERGY PREDICTED BY IDOCK:   -7.56 KCAL/MOL
REMARK 924 INTRA-LIGAND FREE ENERGY PREDICTED BY IDOCK:   -1.90 KCAL/MOL
REMARK 927      BINDING AFFINITY PREDICTED BY RF-SCORE:    0.00 PKD
ROOT
HETATM    1  C   UNL     1     -10.799  12.997  66.951  1.00  0.00    -0.282 C  
HETATM    2  C   UNL     1     -11.389  12.578  68.285  1.00  0.00    -0.331 C  
HETATM    3  C   UNL     1     -12.069  13.826  68.815  1.00  0.00    -0.309 C  
HETATM    4  O   UNL     1     -11.972  14.843  67.819  1.00  0.00    -0.321 OA 
HETATM    5  C   UNL     1     -11.591  14.231  66.595  1.00  0.00    -0.383 C  
HETATM    6  O   UNL     1     -12.727  13.775  65.861  1.00  0.00    -0.467 OA 
HETATM    7  C   UNL     1     -12.334  12.592  65.157  1.00  0.00    -0.484 C  
HETATM    8  C   UNL     1     -11.034  12.071  65.771  1.00  0.00    -0.307 C  
ENDROOT
BRANCH   8   9
HETATM    9  O   UNL     1     -11.234  10.709  66.183  1.00  0.00     0.089 OA 
BRANCH   9  10
HETATM   10  C   UNL     1     -10.217   9.849  65.926  1.00  0.00    -0.194 C  
HETATM   11  O   UNL     1      -9.283  10.073  65.175  1.00  0.00    -0.185 OA 
HETATM   12  N   UNL     1     -10.472   8.675  66.572  1.00  0.00    -0.291 N  
HETATM   13  H   UNL     1     -11.235   8.651  67.250  1.00  0.00     0.000 HD 
BRANCH  12  14
HETATM   14  C   UNL     1      -9.705   7.440  66.344  1.00  0.00    -0.093 C  
BRANCH  14  15
HETATM   15  C   UNL     1      -8.237   7.571  66.862  1.00  0.00    -0.124 C  
BRANCH  15  16
HETATM   16  C   UNL     1      -7.147   7.036  65.947  1.00  0.00    -0.073 A  
HETATM   17  C   UNL     1      -6.634   7.829  64.912  1.00  0.00    -0.047 A  
HETATM   18  C   UNL     1      -6.659   5.728  66.092  1.00  0.00    -0.051 A  
HETATM   19  C   UNL     1      -5.663   7.325  64.042  1.00  0.00    -0.033 A  
HETATM   20  C   UNL     1      -5.183   6.027  64.203  1.00  0.00    -0.017 A  
HETATM   21  C   UNL     1      -5.675   5.230  65.233  1.00  0.00    -0.014 A  
ENDBRANCH  15  16
ENDBRANCH  14  15
BRANCH  14  22
HETATM   22  C   UNL     1     -10.376   6.163  66.935  1.00  0.00    -0.248 C  
HETATM   23  O   UNL     1     -11.296   5.590  65.996  1.00  0.00    -0.753 OA 
HETATM   24  H   UNL     1     -11.704   4.811  66.356  1.00  0.00     0.000 HD 
BRANCH  22  25
HETATM   25  C   UNL     1     -11.009   6.262  68.337  1.00  0.00    -0.325 C  
BRANCH  25  26
HETATM   26  N   UNL     1     -10.308   7.072  69.424  1.00  0.00    -0.200 N  
BRANCH  26  27
HETATM   27  C   UNL     1     -11.158   8.268  69.851  1.00  0.00    -0.100 C  
HETATM   28  C   UNL     1     -10.470   9.484  70.509  1.00  0.00    -0.358 C  
HETATM   29  C   UNL     1      -9.463  10.194  69.608  1.00  0.00    -0.226 C  
HETATM   30  C   UNL     1     -11.543  10.515  70.908  1.00  0.00    -0.385 C  
ENDBRANCH  26  27
BRANCH  26  31
HETATM   31  S   UNL     1      -9.927   6.012  70.781  1.00  0.00    -0.198 S  
HETATM   32  O   UNL     1      -9.039   6.707  71.678  1.00  0.00    -0.142 OA 
HETATM   33  O   UNL     1     -11.193   5.466  71.237  1.00  0.00    -0.082 OA 
BRANCH  31  34
HETATM   34  C   UNL     1      -8.996   4.665  70.053  1.00  0.00    -0.093 A  
HETATM   35  C   UNL     1      -7.005   3.845  68.954  1.00  0.00    -0.047 A  
HETATM   36  C   UNL     1      -7.701   4.888  69.586  1.00  0.00    -0.063 A  
HETATM   37  C   UNL     1      -7.603   2.598  68.743  1.00  0.00    -0.047 A  
HETATM   38  N   UNL     1      -6.867   1.540  68.209  1.00  0.00    -0.032 NA 
HETATM   39  C   UNL     1      -8.867   2.369  69.291  1.00  0.00    -0.148 A  
HETATM   40  H1  UNL     1      -7.303   0.631  68.054  1.00  0.00     0.000 HD 
HETATM   41  C   UNL     1      -9.573   3.397  69.931  1.00  0.00    -0.198 A  
HETATM   42  H2  UNL     1      -6.038   1.402  68.788  1.00  0.00     0.000 HD 
ENDBRANCH  31  34
ENDBRANCH  26  31
ENDBRANCH  25  26
ENDBRANCH  22  25
ENDBRANCH  14  22
ENDBRANCH  12  14
ENDBRANCH   9  10
ENDBRANCH   8   9
TORSDOF 11
ENDMDL
MODEL      275
REMARK 921   NORMALIZED FREE ENERGY PREDICTED BY IDOCK:   -4.15 KCAL/MOL
REMARK 922        TOTAL FREE ENERGY PREDICTED BY IDOCK:   -9.45 KCAL/MOL
REMARK 923 INTER-LIGAND FREE ENERGY PREDICTED BY IDOCK:   -7.86 KCAL/MOL
REMARK 924 INTRA-LIGAND FREE ENERGY PREDICTED BY IDOCK:   -1.59 KCAL/MOL
REMARK 927      BINDING AFFINITY PREDICTED BY RF-SCORE:    0.00 PKD
ROOT
HETATM    1  C   UNL     1     -11.842   9.006  70.699  1.00  0.00    -0.193 C  
HETATM    2  C   UNL     1     -12.137  10.471  70.968  1.00  0.00    -0.492 C  
HETATM    3  C   UNL     1     -13.218  10.457  72.032  1.00  0.00    -0.392 C  
HETATM    4  O   UNL     1     -13.446   9.103  72.418  1.00  0.00    -0.442 OA 
HETATM    5  C   UNL     1     -12.368   8.315  71.933  1.00  0.00    -0.338 C  
HETATM    6  O   UNL     1     -11.284   8.282  72.860  1.00  0.00    -0.337 OA 
HETATM    7  C   UNL     1     -10.074   8.203  72.099  1.00  0.00    -0.253 C  
HETATM    8  C   UNL     1     -10.383   8.592  70.653  1.00  0.00    -0.199 C  
ENDROOT
BRANCH   8   9
HETATM    9  O   UNL     1      -9.523   9.679  70.276  1.00  0.00    -0.242 OA 
BRANCH   9  10
HETATM   10  C   UNL     1      -9.358   9.880  68.945  1.00  0.00    -0.170 C  
HETATM   11  O   UNL     1      -9.812   9.166  68.068  1.00  0.00    -0.157 OA 
HETATM   12  N   UNL     1      -8.530  10.950  68.770  1.00  0.00    -0.148 N  
HETATM   13  H   UNL     1      -8.301  11.523  69.583  1.00  0.00     0.000 HD 
BRANCH  12  14
HETATM   14  C   UNL     1      -7.949  11.322  67.470  1.00  0.00    -0.124 C  
BRANCH  14  15
HETATM   15  C   UNL     1      -8.365  12.768  67.046  1.00  0.00    -0.123 C  
BRANCH  15  16
HETATM   16  C   UNL     1      -9.807  12.952  66.602  1.00  0.00    -0.250 A  
HETATM   17  C   UNL     1     -10.686  13.746  67.349  1.00  0.00    -0.279 A  
HETATM   18  C   UNL     1     -10.300  12.302  65.459  1.00  0.00    -0.296 A  
HETATM   19  C   UNL     1     -12.023  13.883  66.967  1.00  0.00    -0.459 A  
HETATM   20  C   UNL     1     -12.497  13.238  65.826  1.00  0.00    -0.480 A  
HETATM   21  C   UNL     1     -11.633  12.453  65.067  1.00  0.00    -0.392 A  
ENDBRANCH  15  16
ENDBRANCH  14  15
BRANCH  14  22
HETATM   22  C   UNL     1      -6.399  11.165  67.404  1.00  0.00    -0.067 C  
HETATM   23  O   UNL     1      -5.847  11.989  66.368  1.00  0.00    -0.504 OA 
HETATM   24  H   UNL     1      -4.903  11.893  66.328  1.00  0.00     0.000 HD 
BRANCH  22  25
HETATM   25  C   UNL     1      -5.819   9.737  67.341  1.00  0.00    -0.050 C  
BRANCH  25  26
HETATM   26  N   UNL     1      -6.616   8.631  66.656  1.00  0.00    -0.060 N  
BRANCH  26  27
HETATM   27  C   UNL     1      -6.158   8.439  65.211  1.00  0.00    -0.045 C  
HETATM   28  C   UNL     1      -7.139   8.754  64.062  1.00  0.00    -0.094 C  
HETATM   29  C   UNL     1      -7.578  10.215  63.999  1.00  0.00    -0.128 C  
HETATM   30  C   UNL     1      -6.467   8.413  62.718  1.00  0.00    -0.087 C  
ENDBRANCH  26  27
BRANCH  26  31
HETATM   31  S   UNL     1      -6.474   7.148  67.599  1.00  0.00    -0.050 S  
HETATM   32  O   UNL     1      -5.127   6.647  67.478  1.00  0.00    -0.007 OA 
HETATM   33  O   UNL     1      -7.065   7.431  68.894  1.00  0.00    -0.075 OA 
BRANCH  31  34
HETATM   34  C   UNL     1      -7.549   5.981  66.766  1.00  0.00    -0.095 A  
HETATM   35  C   UNL     1      -8.509   3.769  66.593  1.00  0.00    -0.106 A  
HETATM   36  C   UNL     1      -7.722   4.699  67.289  1.00  0.00    -0.090 A  
HETATM   37  C   UNL     1      -9.089   4.088  65.360  1.00  0.00    -0.142 A  
HETATM   38  N   UNL     1      -9.954   3.193  64.729  1.00  0.00    -0.353 NA 
HETATM   39  C   UNL     1      -8.974   5.401  64.895  1.00  0.00    -0.003 A  
HETATM   40  H1  UNL     1     -10.376   3.425  63.831  1.00  0.00     0.000 HD 
HETATM   41  C   UNL     1      -8.197   6.344  65.581  1.00  0.00    -0.140 A  
HETATM   42  H2  UNL     1     -10.702   2.958  65.382  1.00  0.00     0.000 HD 
ENDBRANCH  31  34
ENDBRANCH  26  31
ENDBRANCH  25  26
ENDBRANCH  22  25
ENDBRANCH  14  22
ENDBRANCH  12  14
ENDBRANCH   9  10
ENDBRANCH   8   9
TORSDOF 11
ENDMDL
MODEL      276
REMARK 921   NORMALIZED FREE ENERGY PREDICTED BY IDOCK:   -4.14 KCAL/MOL
REMARK 922        TOTAL FREE ENERGY PREDICTED BY IDOCK:   -9.42 KCAL/MOL
REMARK 923 INTER-LIGAND FREE ENERGY PREDICTED BY IDOCK:   -6.83 KCAL/MOL
REMARK 924 INTRA-LIGAND FREE ENERGY PREDICTED BY IDOCK:   -2.59 KCAL/MOL
REMARK 927      BINDING AFFINITY PREDICTED BY RF-SCORE:    0.00 PKD
ROOT
HETATM    1  C   UNL     1      -9.565  10.886  66.010  1.00  0.00    -0.248 C  
HETATM    2  C   UNL     1     -11.022  11.307  66.057  1.00  0.00    -0.237 C  
HETATM    3  C   UNL     1     -11.192  12.242  64.875  1.00  0.00    -0.319 C  
HETATM    4  O   UNL     1      -9.964  12.267  64.147  1.00  0.00    -0.293 OA 
HETATM    5  C   UNL     1      -9.168  11.175  64.584  1.00  0.00    -0.119 C  
HETATM    6  O   UNL     1      -9.453   9.988  63.845  1.00  0.00    -0.276 OA 
HETATM    7  C   UNL     1      -9.281   8.880  64.733  1.00  0.00     0.172 C  
HETATM    8  C   UNL     1      -9.268   9.406  66.169  1.00  0.00    -0.190 C  
ENDROOT
BRANCH   8   9
HETATM    9  O   UNL     1     -10.290   8.726  66.917  1.00  0.00    -0.271 OA 
BRANCH   9  10
HETATM   10  C   UNL     1     -10.171   7.378  67.009  1.00  0.00    -0.287 C  
HETATM   11  O   UNL     1     -11.067   6.580  66.797  1.00  0.00    -0.362 OA 
HETATM   12  N   UNL     1      -8.918   7.086  67.464  1.00  0.00    -0.118 N  
HETATM   13  H   UNL     1      -8.230   7.839  67.504  1.00  0.00     0.000 HD 
BRANCH  12  14
HETATM   14  C   UNL     1      -8.505   5.743  67.898  1.00  0.00    -0.103 C  
BRANCH  14  15
HETATM   15  C   UNL     1      -7.346   5.182  67.013  1.00  0.00    -0.082 C  
BRANCH  15  16
HETATM   16  C   UNL     1      -7.758   4.430  65.757  1.00  0.00    -0.090 A  
HETATM   17  C   UNL     1      -8.287   5.118  64.658  1.00  0.00    -0.140 A  
HETATM   18  C   UNL     1      -7.655   3.032  65.685  1.00  0.00    -0.074 A  
HETATM   19  C   UNL     1      -8.707   4.425  63.518  1.00  0.00    -0.129 A  
HETATM   20  C   UNL     1      -8.592   3.038  63.459  1.00  0.00    -0.089 A  
HETATM   21  C   UNL     1      -8.059   2.341  64.539  1.00  0.00    -0.078 A  
ENDBRANCH  15  16
ENDBRANCH  14  15
BRANCH  14  22
HETATM   22  C   UNL     1      -8.122   5.658  69.407  1.00  0.00    -0.100 C  
HETATM   23  O   UNL     1      -9.289   5.758  70.235  1.00  0.00    -0.152 OA 
HETATM   24  H   UNL     1      -9.055   5.706  71.155  1.00  0.00     0.000 HD 
BRANCH  22  25
HETATM   25  C   UNL     1      -7.001   6.584  69.921  1.00  0.00    -0.066 C  
BRANCH  25  26
HETATM   26  N   UNL     1      -7.300   7.581  71.035  1.00  0.00    -0.070 N  
BRANCH  26  27
HETATM   27  C   UNL     1      -6.178   7.598  72.073  1.00  0.00    -0.039 C  
HETATM   28  C   UNL     1      -6.459   8.175  73.477  1.00  0.00    -0.121 C  
HETATM   29  C   UNL     1      -7.524   7.414  74.263  1.00  0.00    -0.144 C  
HETATM   30  C   UNL     1      -5.161   8.143  74.305  1.00  0.00    -0.061 C  
ENDBRANCH  26  27
BRANCH  26  31
HETATM   31  S   UNL     1      -7.571   9.174  70.329  1.00  0.00    -0.125 S  
HETATM   32  O   UNL     1      -6.910  10.163  71.144  1.00  0.00    -0.314 OA 
HETATM   33  O   UNL     1      -7.283   9.044  68.912  1.00  0.00    -0.071 OA 
BRANCH  31  34
HETATM   34  C   UNL     1      -9.334   9.446  70.493  1.00  0.00    -0.262 A  
HETATM   35  C   UNL     1     -11.470   8.836  71.447  1.00  0.00    -0.366 A  
HETATM   36  C   UNL     1     -10.079   8.665  71.376  1.00  0.00    -0.325 A  
HETATM   37  C   UNL     1     -12.132   9.746  70.615  1.00  0.00    -0.230 A  
HETATM   38  N   UNL     1     -13.498   9.983  70.767  1.00  0.00    -0.522 NA 
HETATM   39  C   UNL     1     -11.361  10.577  69.798  1.00  0.00    -0.367 A  
HETATM   40  H1  UNL     1     -13.980  10.646  70.160  1.00  0.00     0.000 HD 
HETATM   41  C   UNL     1      -9.969  10.424  69.721  1.00  0.00    -0.167 A  
HETATM   42  H2  UNL     1     -13.670  10.254  71.735  1.00  0.00     0.000 HD 
ENDBRANCH  31  34
ENDBRANCH  26  31
ENDBRANCH  25  26
ENDBRANCH  22  25
ENDBRANCH  14  22
ENDBRANCH  12  14
ENDBRANCH   9  10
ENDBRANCH   8   9
TORSDOF 11
ENDMDL
MODEL      277
REMARK 921   NORMALIZED FREE ENERGY PREDICTED BY IDOCK:   -4.13 KCAL/MOL
REMARK 922        TOTAL FREE ENERGY PREDICTED BY IDOCK:   -9.41 KCAL/MOL
REMARK 923 INTER-LIGAND FREE ENERGY PREDICTED BY IDOCK:   -8.56 KCAL/MOL
REMARK 924 INTRA-LIGAND FREE ENERGY PREDICTED BY IDOCK:   -0.86 KCAL/MOL
REMARK 927      BINDING AFFINITY PREDICTED BY RF-SCORE:    0.00 PKD
ROOT
HETATM    1  C   UNL     1      -5.880   7.881  69.527  1.00  0.00    -0.027 C  
HETATM    2  C   UNL     1      -6.457   7.983  68.128  1.00  0.00    -0.055 C  
HETATM    3  C   UNL     1      -5.978   6.730  67.420  1.00  0.00    -0.021 C  
HETATM    4  O   UNL     1      -5.277   5.924  68.367  1.00  0.00    -0.003 OA 
HETATM    5  C   UNL     1      -5.573   6.410  69.668  1.00  0.00    -0.014 C  
HETATM    6  O   UNL     1      -6.754   5.808  70.197  1.00  0.00    -0.045 OA 
HETATM    7  C   UNL     1      -7.401   6.786  71.018  1.00  0.00    -0.078 C  
HETATM    8  C   UNL     1      -6.821   8.161  70.685  1.00  0.00    -0.037 C  
ENDROOT
BRANCH   8   9
HETATM    9  O   UNL     1      -7.897   9.035  70.309  1.00  0.00    -0.083 OA 
BRANCH   9  10
HETATM   10  C   UNL     1      -9.025   8.956  71.057  1.00  0.00    -0.241 C  
HETATM   11  O   UNL     1      -9.060   8.983  72.275  1.00  0.00    -0.351 OA 
HETATM   12  N   UNL     1     -10.083   8.749  70.221  1.00  0.00    -0.185 N  
HETATM   13  H   UNL     1      -9.933   8.849  69.217  1.00  0.00     0.000 HD 
BRANCH  12  14
HETATM   14  C   UNL     1     -11.430   8.390  70.692  1.00  0.00    -0.219 C  
BRANCH  14  15
HETATM   15  C   UNL     1     -11.381   7.256  71.767  1.00  0.00    -0.285 C  
BRANCH  15  16
HETATM   16  C   UNL     1     -10.759   5.939  71.331  1.00  0.00    -0.319 A  
HETATM   17  C   UNL     1     -10.627   5.630  69.971  1.00  0.00    -0.388 A  
HETATM   18  C   UNL     1     -10.340   4.989  72.276  1.00  0.00    -0.267 A  
HETATM   19  C   UNL     1     -10.096   4.403  69.567  1.00  0.00    -0.059 A  
HETATM   20  C   UNL     1      -9.677   3.472  70.517  1.00  0.00    -0.187 A  
HETATM   21  C   UNL     1      -9.792   3.769  71.872  1.00  0.00    -0.248 A  
ENDBRANCH  15  16
ENDBRANCH  14  15
BRANCH  14  22
HETATM   22  C   UNL     1     -12.256   9.601  71.223  1.00  0.00    -0.363 C  
HETATM   23  O   UNL     1     -13.554   9.639  70.612  1.00  0.00    -0.599 OA 
HETATM   24  H   UNL     1     -14.057  10.377  70.935  1.00  0.00     0.000 HD 
BRANCH  22  25
HETATM   25  C   UNL     1     -11.594  10.994  71.199  1.00  0.00     0.387 C  
BRANCH  25  26
HETATM   26  N   UNL     1     -12.095  12.048  70.216  1.00  0.00    -0.340 N  
BRANCH  26  27
HETATM   27  C   UNL     1     -11.983  13.451  70.812  1.00  0.00    -0.139 C  
HETATM   28  C   UNL     1     -13.266  14.185  71.255  1.00  0.00    -0.399 C  
HETATM   29  C   UNL     1     -14.026  13.489  72.382  1.00  0.00    -0.638 C  
HETATM   30  C   UNL     1     -12.894  15.596  71.751  1.00  0.00    -0.530 C  
ENDBRANCH  26  27
BRANCH  26  31
HETATM   31  S   UNL     1     -11.202  11.898  68.703  1.00  0.00    -0.283 S  
HETATM   32  O   UNL     1      -9.944  11.245  68.968  1.00  0.00    -0.189 OA 
HETATM   33  O   UNL     1     -12.140  11.372  67.728  1.00  0.00    -0.637 OA 
BRANCH  31  34
HETATM   34  C   UNL     1     -10.832  13.586  68.230  1.00  0.00    -0.259 A  
HETATM   35  C   UNL     1     -11.381  15.584  66.983  1.00  0.00    -0.106 A  
HETATM   36  C   UNL     1     -11.713  14.287  67.406  1.00  0.00    -0.422 A  
HETATM   37  C   UNL     1     -10.162  16.172  67.337  1.00  0.00    -0.272 A  
HETATM   38  N   UNL     1      -9.889  17.498  66.999  1.00  0.00    -0.283 NA 
HETATM   39  C   UNL     1      -9.332  15.489  68.230  1.00  0.00    -0.192 A  
HETATM   40  H1  UNL     1      -9.000  17.927  67.256  1.00  0.00     0.000 HD 
HETATM   41  C   UNL     1      -9.652  14.196  68.667  1.00  0.00    -0.179 A  
HETATM   42  H2  UNL     1     -10.642  18.082  67.363  1.00  0.00     0.000 HD 
ENDBRANCH  31  34
ENDBRANCH  26  31
ENDBRANCH  25  26
ENDBRANCH  22  25
ENDBRANCH  14  22
ENDBRANCH  12  14
ENDBRANCH   9  10
ENDBRANCH   8   9
TORSDOF 11
ENDMDL
MODEL      278
REMARK 921   NORMALIZED FREE ENERGY PREDICTED BY IDOCK:   -4.12 KCAL/MOL
REMARK 922        TOTAL FREE ENERGY PREDICTED BY IDOCK:   -9.39 KCAL/MOL
REMARK 923 INTER-LIGAND FREE ENERGY PREDICTED BY IDOCK:   -7.55 KCAL/MOL
REMARK 924 INTRA-LIGAND FREE ENERGY PREDICTED BY IDOCK:   -1.85 KCAL/MOL
REMARK 927      BINDING AFFINITY PREDICTED BY RF-SCORE:    0.00 PKD
ROOT
HETATM    1  C   UNL     1      -9.676   3.884  72.308  1.00  0.00    -0.217 C  
HETATM    2  C   UNL     1      -9.941   5.205  73.008  1.00  0.00    -0.190 C  
HETATM    3  C   UNL     1     -10.364   4.818  74.413  1.00  0.00    -0.281 C  
HETATM    4  O   UNL     1     -10.245   3.402  74.540  1.00  0.00    -0.154 OA 
HETATM    5  C   UNL     1      -9.468   2.923  73.453  1.00  0.00    -0.092 C  
HETATM    6  O   UNL     1      -8.073   2.956  73.749  1.00  0.00    -0.069 OA 
HETATM    7  C   UNL     1      -7.382   3.232  72.526  1.00  0.00    -0.049 C  
HETATM    8  C   UNL     1      -8.389   3.772  71.511  1.00  0.00    -0.069 C  
ENDROOT
BRANCH   8   9
HETATM    9  O   UNL     1      -7.929   5.050  71.043  1.00  0.00    -0.088 OA 
BRANCH   9  10
HETATM   10  C   UNL     1      -8.431   5.471  69.856  1.00  0.00    -0.116 C  
HETATM   11  O   UNL     1      -8.739   4.743  68.928  1.00  0.00    -0.088 OA 
HETATM   12  N   UNL     1      -8.441   6.836  69.851  1.00  0.00    -0.138 N  
HETATM   13  H   UNL     1      -8.254   7.323  70.727  1.00  0.00     0.000 HD 
BRANCH  12  14
HETATM   14  C   UNL     1      -8.708   7.640  68.649  1.00  0.00    -0.128 C  
BRANCH  14  15
HETATM   15  C   UNL     1     -10.232   7.950  68.490  1.00  0.00    -0.229 C  
BRANCH  15  16
HETATM   16  C   UNL     1     -11.049   7.993  69.771  1.00  0.00    -0.067 A  
HETATM   17  C   UNL     1     -11.079   9.151  70.558  1.00  0.00    -0.308 A  
HETATM   18  C   UNL     1     -11.759   6.865  70.213  1.00  0.00    -0.344 A  
HETATM   19  C   UNL     1     -11.795   9.179  71.758  1.00  0.00    -0.453 A  
HETATM   20  C   UNL     1     -12.501   8.054  72.181  1.00  0.00    -0.335 A  
HETATM   21  C   UNL     1     -12.489   6.898  71.404  1.00  0.00    -0.413 A  
ENDBRANCH  15  16
ENDBRANCH  14  15
BRANCH  14  22
HETATM   22  C   UNL     1      -7.878   8.958  68.575  1.00  0.00    -0.103 C  
HETATM   23  O   UNL     1      -7.969   9.687  69.808  1.00  0.00    -0.115 OA 
HETATM   24  H   UNL     1      -7.463  10.490  69.763  1.00  0.00     0.000 HD 
BRANCH  22  25
HETATM   25  C   UNL     1      -8.106   9.889  67.367  1.00  0.00    -0.113 C  
BRANCH  25  26
HETATM   26  N   UNL     1      -8.534  11.335  67.601  1.00  0.00    -0.122 N  
BRANCH  26  27
HETATM   27  C   UNL     1      -7.392  12.302  67.289  1.00  0.00    -0.140 C  
HETATM   28  C   UNL     1      -6.623  12.960  68.455  1.00  0.00    -0.087 C  
HETATM   29  C   UNL     1      -5.883  11.971  69.352  1.00  0.00    -0.085 C  
HETATM   30  C   UNL     1      -5.579  13.937  67.883  1.00  0.00    -0.103 C  
ENDBRANCH  26  27
BRANCH  26  31
HETATM   31  S   UNL     1      -9.971  11.676  66.638  1.00  0.00    -0.208 S  
HETATM   32  O   UNL     1      -9.689  11.372  65.257  1.00  0.00    -0.228 OA 
HETATM   33  O   UNL     1     -11.084  11.061  67.338  1.00  0.00    -0.278 OA 
BRANCH  31  34
HETATM   34  C   UNL     1     -10.181  13.451  66.756  1.00  0.00    -0.259 A  
HETATM   35  C   UNL     1     -10.319  15.622  65.701  1.00  0.00    -0.408 A  
HETATM   36  C   UNL     1     -10.224  14.225  65.597  1.00  0.00    -0.366 A  
HETATM   37  C   UNL     1     -10.326  16.257  66.948  1.00  0.00    -0.299 A  
HETATM   38  N   UNL     1     -10.526  17.635  67.041  1.00  0.00    -0.329 NA 
HETATM   39  C   UNL     1     -10.368  15.462  68.095  1.00  0.00    -0.239 A  
HETATM   40  H1  UNL     1     -10.531  18.098  67.950  1.00  0.00     0.000 HD 
HETATM   41  C   UNL     1     -10.281  14.065  68.009  1.00  0.00    -0.238 A  
HETATM   42  H2  UNL     1     -11.396  17.865  66.561  1.00  0.00     0.000 HD 
ENDBRANCH  31  34
ENDBRANCH  26  31
ENDBRANCH  25  26
ENDBRANCH  22  25
ENDBRANCH  14  22
ENDBRANCH  12  14
ENDBRANCH   9  10
ENDBRANCH   8   9
TORSDOF 11
ENDMDL
MODEL      279
REMARK 921   NORMALIZED FREE ENERGY PREDICTED BY IDOCK:   -4.11 KCAL/MOL
REMARK 922        TOTAL FREE ENERGY PREDICTED BY IDOCK:   -9.37 KCAL/MOL
REMARK 923 INTER-LIGAND FREE ENERGY PREDICTED BY IDOCK:   -7.11 KCAL/MOL
REMARK 924 INTRA-LIGAND FREE ENERGY PREDICTED BY IDOCK:   -2.27 KCAL/MOL
REMARK 927      BINDING AFFINITY PREDICTED BY RF-SCORE:    0.00 PKD
ROOT
HETATM    1  C   UNL     1      -9.293   5.027  67.021  1.00  0.00    -0.133 C  
HETATM    2  C   UNL     1     -10.576   5.192  66.227  1.00  0.00    -0.325 C  
HETATM    3  C   UNL     1     -10.458   4.193  65.092  1.00  0.00    -0.155 C  
HETATM    4  O   UNL     1      -9.260   3.442  65.281  1.00  0.00    -0.141 OA 
HETATM    5  C   UNL     1      -8.806   3.659  66.610  1.00  0.00    -0.130 C  
HETATM    6  O   UNL     1      -9.398   2.737  67.524  1.00  0.00    -0.189 OA 
HETATM    7  C   UNL     1      -9.557   3.417  68.774  1.00  0.00    -0.050 C  
HETATM    8  C   UNL     1      -9.423   4.920  68.529  1.00  0.00    -0.143 C  
ENDROOT
BRANCH   8   9
HETATM    9  O   UNL     1     -10.607   5.573  69.018  1.00  0.00    -0.236 OA 
BRANCH   9  10
HETATM   10  C   UNL     1     -10.625   5.870  70.341  1.00  0.00    -0.286 C  
HETATM   11  O   UNL     1     -11.632   6.025  71.010  1.00  0.00    -0.253 OA 
HETATM   12  N   UNL     1      -9.339   6.054  70.760  1.00  0.00    -0.153 N  
HETATM   13  H   UNL     1      -8.583   5.795  70.126  1.00  0.00     0.000 HD 
BRANCH  12  14
HETATM   14  C   UNL     1      -8.987   6.608  72.076  1.00  0.00    -0.139 C  
BRANCH  14  15
HETATM   15  C   UNL     1      -7.475   6.389  72.407  1.00  0.00    -0.096 C  
BRANCH  15  16
HETATM   16  C   UNL     1      -7.094   5.021  72.950  1.00  0.00    -0.084 A  
HETATM   17  C   UNL     1      -8.083   4.081  73.269  1.00  0.00    -0.089 A  
HETATM   18  C   UNL     1      -5.751   4.683  73.181  1.00  0.00    -0.009 A  
HETATM   19  C   UNL     1      -7.738   2.839  73.808  1.00  0.00    -0.052 A  
HETATM   20  C   UNL     1      -6.400   2.515  74.025  1.00  0.00    -0.020 A  
HETATM   21  C   UNL     1      -5.405   3.434  73.704  1.00  0.00     0.000 A  
ENDBRANCH  15  16
ENDBRANCH  14  15
BRANCH  14  22
HETATM   22  C   UNL     1      -9.366   8.110  72.251  1.00  0.00    -0.224 C  
HETATM   23  O   UNL     1     -10.695   8.242  72.775  1.00  0.00    -0.343 OA 
HETATM   24  H   UNL     1     -10.925   9.158  72.882  1.00  0.00     0.000 HD 
BRANCH  22  25
HETATM   25  C   UNL     1      -9.150   9.054  71.051  1.00  0.00    -0.257 C  
BRANCH  25  26
HETATM   26  N   UNL     1     -10.306   9.333  70.096  1.00  0.00    -0.206 N  
BRANCH  26  27
HETATM   27  C   UNL     1     -10.830  10.758  70.269  1.00  0.00     0.014 C  
HETATM   28  C   UNL     1     -12.353  10.994  70.360  1.00  0.00    -0.442 C  
HETATM   29  C   UNL     1     -13.018  10.328  71.563  1.00  0.00    -0.556 C  
HETATM   30  C   UNL     1     -12.624  12.507  70.460  1.00  0.00    -0.177 C  
ENDBRANCH  26  27
BRANCH  26  31
HETATM   31  S   UNL     1      -9.779   9.019  68.442  1.00  0.00    -0.160 S  
HETATM   32  O   UNL     1      -8.482   8.391  68.479  1.00  0.00    -0.129 OA 
HETATM   33  O   UNL     1     -10.904   8.396  67.769  1.00  0.00    -0.142 OA 
BRANCH  31  34
HETATM   34  C   UNL     1      -9.560  10.645  67.723  1.00  0.00    -0.157 A  
HETATM   35  C   UNL     1      -8.282  12.685  67.501  1.00  0.00    -0.178 A  
HETATM   36  C   UNL     1      -8.413  11.384  68.012  1.00  0.00    -0.145 A  
HETATM   37  C   UNL     1      -9.301  13.272  66.742  1.00  0.00    -0.252 A  
HETATM   38  N   UNL     1      -9.116  14.524  66.153  1.00  0.00    -0.507 NA 
HETATM   39  C   UNL     1     -10.403  12.487  66.394  1.00  0.00    -0.261 A  
HETATM   40  H1  UNL     1      -9.859  14.952  65.601  1.00  0.00     0.000 HD 
HETATM   41  C   UNL     1     -10.546  11.184  66.890  1.00  0.00    -0.304 A  
HETATM   42  H2  UNL     1      -8.273  14.485  65.579  1.00  0.00     0.000 HD 
ENDBRANCH  31  34
ENDBRANCH  26  31
ENDBRANCH  25  26
ENDBRANCH  22  25
ENDBRANCH  14  22
ENDBRANCH  12  14
ENDBRANCH   9  10
ENDBRANCH   8   9
TORSDOF 11
ENDMDL
MODEL      280
REMARK 921   NORMALIZED FREE ENERGY PREDICTED BY IDOCK:   -4.11 KCAL/MOL
REMARK 922        TOTAL FREE ENERGY PREDICTED BY IDOCK:   -9.37 KCAL/MOL
REMARK 923 INTER-LIGAND FREE ENERGY PREDICTED BY IDOCK:   -7.77 KCAL/MOL
REMARK 924 INTRA-LIGAND FREE ENERGY PREDICTED BY IDOCK:   -1.60 KCAL/MOL
REMARK 927      BINDING AFFINITY PREDICTED BY RF-SCORE:    0.00 PKD
ROOT
HETATM    1  C   UNL     1      -9.385  11.055  66.220  1.00  0.00    -0.206 C  
HETATM    2  C   UNL     1     -10.846  11.414  66.420  1.00  0.00    -0.323 C  
HETATM    3  C   UNL     1     -11.255  12.098  65.129  1.00  0.00    -0.329 C  
HETATM    4  O   UNL     1     -10.153  12.039  64.225  1.00  0.00    -0.289 OA 
HETATM    5  C   UNL     1      -9.224  11.085  64.720  1.00  0.00    -0.176 C  
HETATM    6  O   UNL     1      -9.529   9.768  64.263  1.00  0.00    -0.263 OA 
HETATM    7  C   UNL     1      -9.148   8.857  65.300  1.00  0.00    -0.136 C  
HETATM    8  C   UNL     1      -8.962   9.647  66.596  1.00  0.00    -0.146 C  
ENDROOT
BRANCH   8   9
HETATM    9  O   UNL     1      -9.811   9.078  67.606  1.00  0.00    -0.157 OA 
BRANCH   9  10
HETATM   10  C   UNL     1     -10.102   7.760  67.473  1.00  0.00    -0.209 C  
HETATM   11  O   UNL     1     -11.130   7.315  66.992  1.00  0.00    -0.308 OA 
HETATM   12  N   UNL     1      -9.099   7.037  68.050  1.00  0.00    -0.128 N  
HETATM   13  H   UNL     1      -8.247   7.526  68.326  1.00  0.00     0.000 HD 
BRANCH  12  14
HETATM   14  C   UNL     1      -9.182   5.588  68.295  1.00  0.00    -0.109 C  
BRANCH  14  15
HETATM   15  C   UNL     1      -7.799   4.889  68.084  1.00  0.00    -0.083 C  
BRANCH  15  16
HETATM   16  C   UNL     1      -7.691   3.954  66.891  1.00  0.00    -0.085 A  
HETATM   17  C   UNL     1      -7.884   2.576  67.047  1.00  0.00    -0.071 A  
HETATM   18  C   UNL     1      -7.358   4.443  65.618  1.00  0.00    -0.080 A  
HETATM   19  C   UNL     1      -7.744   1.708  65.960  1.00  0.00    -0.066 A  
HETATM   20  C   UNL     1      -7.420   2.209  64.700  1.00  0.00    -0.063 A  
HETATM   21  C   UNL     1      -7.235   3.578  64.527  1.00  0.00    -0.062 A  
ENDBRANCH  15  16
ENDBRANCH  14  15
BRANCH  14  22
HETATM   22  C   UNL     1      -9.767   5.217  69.692  1.00  0.00    -0.182 C  
HETATM   23  O   UNL     1     -11.132   5.644  69.801  1.00  0.00    -0.328 OA 
HETATM   24  H   UNL     1     -11.489   5.418  70.652  1.00  0.00     0.000 HD 
BRANCH  22  25
HETATM   25  C   UNL     1      -8.961   5.620  70.943  1.00  0.00    -0.140 C  
BRANCH  25  26
HETATM   26  N   UNL     1      -9.517   5.307  72.329  1.00  0.00    -0.141 N  
BRANCH  26  27
HETATM   27  C   UNL     1      -8.706   4.205  73.010  1.00  0.00    -0.099 C  
HETATM   28  C   UNL     1      -9.310   2.789  73.127  1.00  0.00    -0.116 C  
HETATM   29  C   UNL     1      -9.582   2.114  71.784  1.00  0.00    -0.205 C  
HETATM   30  C   UNL     1      -8.334   1.888  73.908  1.00  0.00    -0.054 C  
ENDBRANCH  26  27
BRANCH  26  31
HETATM   31  S   UNL     1      -9.554   6.788  73.285  1.00  0.00    -0.175 S  
HETATM   32  O   UNL     1     -10.229   6.520  74.531  1.00  0.00    -0.358 OA 
HETATM   33  O   UNL     1      -8.207   7.327  73.253  1.00  0.00    -0.105 OA 
BRANCH  31  34
HETATM   34  C   UNL     1     -10.597   7.903  72.348  1.00  0.00    -0.298 A  
HETATM   35  C   UNL     1     -10.844   9.680  70.727  1.00  0.00    -0.400 A  
HETATM   36  C   UNL     1     -10.029   8.761  71.406  1.00  0.00    -0.354 A  
HETATM   37  C   UNL     1     -12.211   9.784  71.009  1.00  0.00    -0.347 A  
HETATM   38  N   UNL     1     -13.029  10.626  70.255  1.00  0.00    -0.393 NA 
HETATM   39  C   UNL     1     -12.776   8.860  71.892  1.00  0.00    -0.436 A  
HETATM   40  H1  UNL     1     -14.025  10.702  70.460  1.00  0.00     0.000 HD 
HETATM   41  C   UNL     1     -11.978   7.932  72.574  1.00  0.00    -0.349 A  
HETATM   42  H2  UNL     1     -12.924  10.377  69.271  1.00  0.00     0.000 HD 
ENDBRANCH  31  34
ENDBRANCH  26  31
ENDBRANCH  25  26
ENDBRANCH  22  25
ENDBRANCH  14  22
ENDBRANCH  12  14
ENDBRANCH   9  10
ENDBRANCH   8   9
TORSDOF 11
ENDMDL
MODEL      281
REMARK 921   NORMALIZED FREE ENERGY PREDICTED BY IDOCK:   -4.10 KCAL/MOL
REMARK 922        TOTAL FREE ENERGY PREDICTED BY IDOCK:   -9.36 KCAL/MOL
REMARK 923 INTER-LIGAND FREE ENERGY PREDICTED BY IDOCK:   -8.24 KCAL/MOL
REMARK 924 INTRA-LIGAND FREE ENERGY PREDICTED BY IDOCK:   -1.12 KCAL/MOL
REMARK 927      BINDING AFFINITY PREDICTED BY RF-SCORE:    0.00 PKD
ROOT
HETATM    1  C   UNL     1      -7.888   7.066  72.450  1.00  0.00    -0.094 C  
HETATM    2  C   UNL     1      -6.943   8.199  72.808  1.00  0.00    -0.113 C  
HETATM    3  C   UNL     1      -5.557   7.647  72.536  1.00  0.00    -0.036 C  
HETATM    4  O   UNL     1      -5.700   6.347  71.966  1.00  0.00    -0.035 OA 
HETATM    5  C   UNL     1      -7.049   6.189  71.552  1.00  0.00    -0.078 C  
HETATM    6  O   UNL     1      -7.252   6.672  70.225  1.00  0.00    -0.072 OA 
HETATM    7  C   UNL     1      -8.579   7.202  70.161  1.00  0.00    -0.140 C  
HETATM    8  C   UNL     1      -9.088   7.413  71.588  1.00  0.00    -0.130 C  
ENDROOT
BRANCH   8   9
HETATM    9  O   UNL     1      -9.482   8.787  71.736  1.00  0.00    -0.260 OA 
BRANCH   9  10
HETATM   10  C   UNL     1      -9.704   9.475  70.590  1.00  0.00    -0.245 C  
HETATM   11  O   UNL     1      -8.836   9.965  69.888  1.00  0.00    -0.203 OA 
HETATM   12  N   UNL     1     -11.052   9.601  70.416  1.00  0.00    -0.268 N  
HETATM   13  H   UNL     1     -11.670   9.058  71.019  1.00  0.00     0.000 HD 
BRANCH  12  14
HETATM   14  C   UNL     1     -11.661  10.477  69.403  1.00  0.00    -0.246 C  
BRANCH  14  15
HETATM   15  C   UNL     1     -11.235  11.968  69.602  1.00  0.00    -0.168 C  
BRANCH  15  16
HETATM   16  C   UNL     1     -12.077  12.788  70.566  1.00  0.00    -0.369 A  
HETATM   17  C   UNL     1     -12.026  14.188  70.542  1.00  0.00    -0.393 A  
HETATM   18  C   UNL     1     -12.893  12.165  71.523  1.00  0.00    -0.394 A  
HETATM   19  C   UNL     1     -12.766  14.944  71.455  1.00  0.00    -0.404 A  
HETATM   20  C   UNL     1     -13.577  14.311  72.396  1.00  0.00    -0.599 A  
HETATM   21  C   UNL     1     -13.647  12.921  72.425  1.00  0.00    -0.577 A  
ENDBRANCH  15  16
ENDBRANCH  14  15
BRANCH  14  22
HETATM   22  C   UNL     1     -11.389  10.029  67.935  1.00  0.00     0.051 C  
HETATM   23  O   UNL     1     -11.033   8.640  67.885  1.00  0.00    -0.488 OA 
HETATM   24  H   UNL     1     -10.867   8.367  66.990  1.00  0.00     0.000 HD 
BRANCH  22  25
HETATM   25  C   UNL     1     -10.419  10.877  67.088  1.00  0.00    -0.237 C  
BRANCH  25  26
HETATM   26  N   UNL     1      -9.924  10.341  65.749  1.00  0.00    -0.259 N  
BRANCH  26  27
HETATM   27  C   UNL     1     -10.590  11.073  64.584  1.00  0.00    -0.299 C  
HETATM   28  C   UNL     1     -11.225  12.458  64.829  1.00  0.00    -0.353 C  
HETATM   29  C   UNL     1     -10.231  13.531  65.270  1.00  0.00    -0.323 C  
HETATM   30  C   UNL     1     -11.887  12.947  63.527  1.00  0.00    -0.605 C  
ENDBRANCH  26  27
BRANCH  26  31
HETATM   31  S   UNL     1      -8.166  10.468  65.690  1.00  0.00    -0.154 S  
HETATM   32  O   UNL     1      -7.753  10.572  64.313  1.00  0.00    -0.085 OA 
HETATM   33  O   UNL     1      -7.798  11.474  66.670  1.00  0.00    -0.154 OA 
BRANCH  31  34
HETATM   34  C   UNL     1      -7.580   8.889  66.301  1.00  0.00    -0.095 A  
HETATM   35  C   UNL     1      -5.875   7.562  67.386  1.00  0.00    -0.035 A  
HETATM   36  C   UNL     1      -6.360   8.813  66.973  1.00  0.00    -0.060 A  
HETATM   37  C   UNL     1      -6.571   6.383  67.097  1.00  0.00    -0.058 A  
HETATM   38  N   UNL     1      -6.134   5.158  67.603  1.00  0.00    -0.029 NA 
HETATM   39  C   UNL     1      -7.830   6.487  66.499  1.00  0.00    -0.104 A  
HETATM   40  H1  UNL     1      -6.641   4.299  67.392  1.00  0.00     0.000 HD 
HETATM   41  C   UNL     1      -8.332   7.729  66.086  1.00  0.00    -0.129 A  
HETATM   42  H2  UNL     1      -6.054   5.241  68.617  1.00  0.00     0.000 HD 
ENDBRANCH  31  34
ENDBRANCH  26  31
ENDBRANCH  25  26
ENDBRANCH  22  25
ENDBRANCH  14  22
ENDBRANCH  12  14
ENDBRANCH   9  10
ENDBRANCH   8   9
TORSDOF 11
ENDMDL
MODEL      282
REMARK 921   NORMALIZED FREE ENERGY PREDICTED BY IDOCK:   -4.10 KCAL/MOL
REMARK 922        TOTAL FREE ENERGY PREDICTED BY IDOCK:   -9.36 KCAL/MOL
REMARK 923 INTER-LIGAND FREE ENERGY PREDICTED BY IDOCK:   -8.44 KCAL/MOL
REMARK 924 INTRA-LIGAND FREE ENERGY PREDICTED BY IDOCK:   -0.92 KCAL/MOL
REMARK 927      BINDING AFFINITY PREDICTED BY RF-SCORE:    0.00 PKD
ROOT
HETATM    1  C   UNL     1      -9.509  17.265  68.059  1.00  0.00    -0.271 C  
HETATM    2  C   UNL     1      -9.859  17.045  66.599  1.00  0.00    -0.297 C  
HETATM    3  C   UNL     1     -10.386  18.385  66.122  1.00  0.00    -0.407 C  
HETATM    4  O   UNL     1     -10.248  19.323  67.188  1.00  0.00    -0.349 OA 
HETATM    5  C   UNL     1      -9.375  18.765  68.160  1.00  0.00    -0.316 C  
HETATM    6  O   UNL     1      -8.009  19.061  67.870  1.00  0.00    -0.265 OA 
HETATM    7  C   UNL     1      -7.227  17.947  68.313  1.00  0.00    -0.236 C  
HETATM    8  C   UNL     1      -8.159  16.755  68.531  1.00  0.00    -0.241 C  
ENDROOT
BRANCH   8   9
HETATM    9  O   UNL     1      -7.690  15.653  67.737  1.00  0.00    -0.128 OA 
BRANCH   9  10
HETATM   10  C   UNL     1      -7.995  14.413  68.192  1.00  0.00    -0.136 C  
HETATM   11  O   UNL     1      -7.696  13.977  69.291  1.00  0.00    -0.008 OA 
HETATM   12  N   UNL     1      -8.601  13.721  67.184  1.00  0.00    -0.265 N  
HETATM   13  H   UNL     1      -8.885  14.233  66.349  1.00  0.00     0.000 HD 
BRANCH  12  14
HETATM   14  C   UNL     1      -8.869  12.275  67.240  1.00  0.00    -0.190 C  
BRANCH  14  15
HETATM   15  C   UNL     1      -9.040  11.666  65.810  1.00  0.00    -0.128 C  
BRANCH  15  16
HETATM   16  C   UNL     1     -10.361  11.946  65.111  1.00  0.00    -0.318 A  
HETATM   17  C   UNL     1     -11.396  12.607  65.784  1.00  0.00    -0.370 A  
HETATM   18  C   UNL     1     -10.586  11.517  63.794  1.00  0.00    -0.465 A  
HETATM   19  C   UNL     1     -12.626  12.828  65.158  1.00  0.00    -0.513 A  
HETATM   20  C   UNL     1     -12.833  12.403  63.847  1.00  0.00    -0.369 A  
HETATM   21  C   UNL     1     -11.810  11.754  63.162  1.00  0.00    -0.194 A  
ENDBRANCH  15  16
ENDBRANCH  14  15
BRANCH  14  22
HETATM   22  C   UNL     1      -7.807  11.468  68.047  1.00  0.00    -0.126 C  
HETATM   23  O   UNL     1      -6.537  11.488  67.380  1.00  0.00    -0.081 OA 
HETATM   24  H   UNL     1      -5.890  10.996  67.872  1.00  0.00     0.000 HD 
BRANCH  22  25
HETATM   25  C   UNL     1      -8.173  10.038  68.494  1.00  0.00    -0.108 C  
BRANCH  25  26
HETATM   26  N   UNL     1      -8.737   9.053  67.475  1.00  0.00    -0.120 N  
BRANCH  26  27
HETATM   27  C   UNL     1      -7.865   7.801  67.380  1.00  0.00    -0.118 C  
HETATM   28  C   UNL     1      -7.265   7.403  66.014  1.00  0.00    -0.070 C  
HETATM   29  C   UNL     1      -6.300   8.433  65.433  1.00  0.00    -0.048 C  
HETATM   30  C   UNL     1      -6.493   6.080  66.169  1.00  0.00    -0.046 C  
ENDBRANCH  26  27
BRANCH  26  31
HETATM   31  S   UNL     1     -10.403   8.667  67.906  1.00  0.00    -0.215 S  
HETATM   32  O   UNL     1     -11.135   9.897  68.079  1.00  0.00    -0.249 OA 
HETATM   33  O   UNL     1     -10.840   7.649  66.967  1.00  0.00    -0.334 OA 
BRANCH  31  34
HETATM   34  C   UNL     1     -10.284   7.891  69.516  1.00  0.00    -0.208 A  
HETATM   35  C   UNL     1     -10.352   8.043  71.928  1.00  0.00    -0.284 A  
HETATM   36  C   UNL     1     -10.516   8.641  70.669  1.00  0.00    -0.243 A  
HETATM   37  C   UNL     1      -9.916   6.719  72.051  1.00  0.00    -0.171 A  
HETATM   38  N   UNL     1      -9.858   6.104  73.302  1.00  0.00    -0.161 NA 
HETATM   39  C   UNL     1      -9.771   5.960  70.887  1.00  0.00    -0.211 A  
HETATM   40  H1  UNL     1      -9.540   5.139  73.391  1.00  0.00     0.000 HD 
HETATM   41  C   UNL     1      -9.938   6.540  69.621  1.00  0.00    -0.186 A  
HETATM   42  H2  UNL     1     -10.777   6.180  73.738  1.00  0.00     0.000 HD 
ENDBRANCH  31  34
ENDBRANCH  26  31
ENDBRANCH  25  26
ENDBRANCH  22  25
ENDBRANCH  14  22
ENDBRANCH  12  14
ENDBRANCH   9  10
ENDBRANCH   8   9
TORSDOF 11
ENDMDL
MODEL      283
REMARK 921   NORMALIZED FREE ENERGY PREDICTED BY IDOCK:   -4.09 KCAL/MOL
REMARK 922        TOTAL FREE ENERGY PREDICTED BY IDOCK:   -9.35 KCAL/MOL
REMARK 923 INTER-LIGAND FREE ENERGY PREDICTED BY IDOCK:   -8.89 KCAL/MOL
REMARK 924 INTRA-LIGAND FREE ENERGY PREDICTED BY IDOCK:   -0.46 KCAL/MOL
REMARK 927      BINDING AFFINITY PREDICTED BY RF-SCORE:    0.00 PKD
ROOT
HETATM    1  C   UNL     1     -10.043   7.276  73.524  1.00  0.00    -0.387 C  
HETATM    2  C   UNL     1      -9.013   8.337  73.181  1.00  0.00    -0.301 C  
HETATM    3  C   UNL     1      -7.726   7.844  73.816  1.00  0.00    -0.167 C  
HETATM    4  O   UNL     1      -7.972   6.557  74.381  1.00  0.00    -0.110 OA 
HETATM    5  C   UNL     1      -9.199   6.070  73.856  1.00  0.00    -0.129 C  
HETATM    6  O   UNL     1      -9.004   5.372  72.627  1.00  0.00    -0.132 OA 
HETATM    7  C   UNL     1     -10.163   5.599  71.819  1.00  0.00    -0.202 C  
HETATM    8  C   UNL     1     -10.933   6.787  72.396  1.00  0.00    -0.246 C  
ENDROOT
BRANCH   8   9
HETATM    9  O   UNL     1     -11.092   7.776  71.365  1.00  0.00    -0.234 OA 
BRANCH   9  10
HETATM   10  C   UNL     1     -11.256   7.306  70.103  1.00  0.00    -0.239 C  
HETATM   11  O   UNL     1     -12.138   6.543  69.749  1.00  0.00    -0.167 OA 
HETATM   12  N   UNL     1     -10.221   7.758  69.337  1.00  0.00    -0.203 N  
HETATM   13  H   UNL     1      -9.607   8.473  69.728  1.00  0.00     0.000 HD 
BRANCH  12  14
HETATM   14  C   UNL     1      -9.945   7.270  67.977  1.00  0.00    -0.157 C  
BRANCH  14  15
HETATM   15  C   UNL     1     -10.567   5.856  67.736  1.00  0.00    -0.331 C  
BRANCH  15  16
HETATM   16  C   UNL     1      -9.759   4.903  66.870  1.00  0.00    -0.193 A  
HETATM   17  C   UNL     1      -8.449   4.557  67.223  1.00  0.00    -0.104 A  
HETATM   18  C   UNL     1     -10.292   4.380  65.681  1.00  0.00    -0.252 A  
HETATM   19  C   UNL     1      -7.689   3.714  66.407  1.00  0.00    -0.085 A  
HETATM   20  C   UNL     1      -8.234   3.197  65.233  1.00  0.00    -0.094 A  
HETATM   21  C   UNL     1      -9.539   3.523  64.873  1.00  0.00    -0.166 A  
ENDBRANCH  15  16
ENDBRANCH  14  15
BRANCH  14  22
HETATM   22  C   UNL     1     -10.389   8.254  66.852  1.00  0.00    -0.320 C  
HETATM   23  O   UNL     1      -9.417   8.294  65.798  1.00  0.00    -0.422 OA 
HETATM   24  H   UNL     1      -9.688   8.893  65.112  1.00  0.00     0.000 HD 
BRANCH  22  25
HETATM   25  C   UNL     1     -10.815   9.677  67.263  1.00  0.00    -0.142 C  
BRANCH  25  26
HETATM   26  N   UNL     1     -10.104  10.881  66.654  1.00  0.00    -0.211 N  
BRANCH  26  27
HETATM   27  C   UNL     1     -11.104  11.844  66.015  1.00  0.00    -0.322 C  
HETATM   28  C   UNL     1     -10.763  12.489  64.654  1.00  0.00    -0.341 C  
HETATM   29  C   UNL     1     -10.605  11.488  63.512  1.00  0.00    -0.487 C  
HETATM   30  C   UNL     1     -11.889  13.465  64.263  1.00  0.00    -0.470 C  
ENDBRANCH  26  27
BRANCH  26  31
HETATM   31  S   UNL     1      -9.130  11.667  67.897  1.00  0.00    -0.177 S  
HETATM   32  O   UNL     1      -9.556  11.193  69.190  1.00  0.00    -0.132 OA 
HETATM   33  O   UNL     1      -7.749  11.553  67.463  1.00  0.00    -0.118 OA 
BRANCH  31  34
HETATM   34  C   UNL     1      -9.580  13.398  67.794  1.00  0.00    -0.213 A  
HETATM   35  C   UNL     1     -11.200  15.166  68.105  1.00  0.00    -0.326 A  
HETATM   36  C   UNL     1     -10.827  13.821  68.254  1.00  0.00    -0.266 A  
HETATM   37  C   UNL     1     -10.361  16.084  67.463  1.00  0.00    -0.287 A  
HETATM   38  N   UNL     1     -10.695  17.438  67.415  1.00  0.00    -0.301 NA 
HETATM   39  C   UNL     1      -9.084  15.662  67.086  1.00  0.00    -0.227 A  
HETATM   40  H1  UNL     1     -10.084  18.107  66.946  1.00  0.00     0.000 HD 
HETATM   41  C   UNL     1      -8.693  14.323  67.233  1.00  0.00    -0.230 A  
HETATM   42  H2  UNL     1     -10.852  17.763  68.369  1.00  0.00     0.000 HD 
ENDBRANCH  31  34
ENDBRANCH  26  31
ENDBRANCH  25  26
ENDBRANCH  22  25
ENDBRANCH  14  22
ENDBRANCH  12  14
ENDBRANCH   9  10
ENDBRANCH   8   9
TORSDOF 11
ENDMDL
MODEL      284
REMARK 921   NORMALIZED FREE ENERGY PREDICTED BY IDOCK:   -4.09 KCAL/MOL
REMARK 922        TOTAL FREE ENERGY PREDICTED BY IDOCK:   -9.34 KCAL/MOL
REMARK 923 INTER-LIGAND FREE ENERGY PREDICTED BY IDOCK:   -8.10 KCAL/MOL
REMARK 924 INTRA-LIGAND FREE ENERGY PREDICTED BY IDOCK:   -1.24 KCAL/MOL
REMARK 927      BINDING AFFINITY PREDICTED BY RF-SCORE:    0.00 PKD
ROOT
HETATM    1  C   UNL     1      -7.082   7.762  62.723  1.00  0.00    -0.083 C  
HETATM    2  C   UNL     1      -7.726   6.485  63.232  1.00  0.00    -0.095 C  
HETATM    3  C   UNL     1      -6.571   5.522  63.426  1.00  0.00    -0.029 C  
HETATM    4  O   UNL     1      -5.357   6.221  63.156  1.00  0.00    -0.017 OA 
HETATM    5  C   UNL     1      -5.640   7.613  63.143  1.00  0.00    -0.050 C  
HETATM    6  O   UNL     1      -5.548   8.180  64.449  1.00  0.00    -0.047 OA 
HETATM    7  C   UNL     1      -6.517   9.230  64.529  1.00  0.00    -0.077 C  
HETATM    8  C   UNL     1      -7.511   9.062  63.380  1.00  0.00    -0.099 C  
ENDROOT
BRANCH   8   9
HETATM    9  O   UNL     1      -8.837   8.979  63.928  1.00  0.00    -0.145 OA 
BRANCH   9  10
HETATM   10  C   UNL     1      -9.335  10.119  64.468  1.00  0.00    -0.289 C  
HETATM   11  O   UNL     1      -9.211  11.233  63.989  1.00  0.00    -0.153 OA 
HETATM   12  N   UNL     1      -9.908   9.813  65.668  1.00  0.00    -0.296 N  
HETATM   13  H   UNL     1     -10.036   8.829  65.906  1.00  0.00     0.000 HD 
BRANCH  12  14
HETATM   14  C   UNL     1     -10.350  10.828  66.637  1.00  0.00    -0.241 C  
BRANCH  14  15
HETATM   15  C   UNL     1     -11.359  11.835  65.997  1.00  0.00    -0.335 C  
BRANCH  15  16
HETATM   16  C   UNL     1     -11.071  13.311  66.216  1.00  0.00    -0.306 A  
HETATM   17  C   UNL     1     -11.736  14.024  67.222  1.00  0.00    -0.420 A  
HETATM   18  C   UNL     1     -10.164  14.000  65.396  1.00  0.00    -0.368 A  
HETATM   19  C   UNL     1     -11.505  15.391  67.398  1.00  0.00    -0.197 A  
HETATM   20  C   UNL     1     -10.596  16.061  66.581  1.00  0.00    -0.297 A  
HETATM   21  C   UNL     1      -9.919  15.364  65.584  1.00  0.00    -0.396 A  
ENDBRANCH  15  16
ENDBRANCH  14  15
BRANCH  14  22
HETATM   22  C   UNL     1     -10.943  10.230  67.950  1.00  0.00    -0.292 C  
HETATM   23  O   UNL     1     -12.133  10.931  68.336  1.00  0.00    -0.776 OA 
HETATM   24  H   UNL     1     -12.495  10.567  69.135  1.00  0.00     0.000 HD 
BRANCH  22  25
HETATM   25  C   UNL     1      -9.996  10.047  69.153  1.00  0.00    -0.204 C  
BRANCH  25  26
HETATM   26  N   UNL     1      -8.494   9.920  68.916  1.00  0.00    -0.119 N  
BRANCH  26  27
HETATM   27  C   UNL     1      -7.767  11.206  69.308  1.00  0.00    -0.024 C  
HETATM   28  C   UNL     1      -6.585  11.696  68.443  1.00  0.00    -0.061 C  
HETATM   29  C   UNL     1      -6.966  12.045  67.006  1.00  0.00    -0.095 C  
HETATM   30  C   UNL     1      -5.983  12.961  69.083  1.00  0.00    -0.086 C  
ENDBRANCH  26  27
BRANCH  26  31
HETATM   31  S   UNL     1      -7.885   8.521  69.798  1.00  0.00    -0.097 S  
HETATM   32  O   UNL     1      -7.427   7.536  68.850  1.00  0.00    -0.092 OA 
HETATM   33  O   UNL     1      -7.011   9.042  70.834  1.00  0.00    -0.073 OA 
BRANCH  31  34
HETATM   34  C   UNL     1      -9.328   7.839  70.613  1.00  0.00    -0.162 A  
HETATM   35  C   UNL     1     -10.653   7.515  72.609  1.00  0.00    -0.338 A  
HETATM   36  C   UNL     1      -9.559   8.110  71.961  1.00  0.00    -0.284 A  
HETATM   37  C   UNL     1     -11.493   6.619  71.938  1.00  0.00    -0.291 A  
HETATM   38  N   UNL     1     -12.636   6.116  72.561  1.00  0.00    -0.514 NA 
HETATM   39  C   UNL     1     -11.296   6.426  70.569  1.00  0.00    -0.438 A  
HETATM   40  H1  UNL     1     -13.248   5.463  72.072  1.00  0.00     0.000 HD 
HETATM   41  C   UNL     1     -10.213   7.018  69.905  1.00  0.00    -0.213 A  
HETATM   42  H2  UNL     1     -13.200   6.905  72.879  1.00  0.00     0.000 HD 
ENDBRANCH  31  34
ENDBRANCH  26  31
ENDBRANCH  25  26
ENDBRANCH  22  25
ENDBRANCH  14  22
ENDBRANCH  12  14
ENDBRANCH   9  10
ENDBRANCH   8   9
TORSDOF 11
ENDMDL
MODEL      285
REMARK 921   NORMALIZED FREE ENERGY PREDICTED BY IDOCK:   -4.04 KCAL/MOL
REMARK 922        TOTAL FREE ENERGY PREDICTED BY IDOCK:   -9.26 KCAL/MOL
REMARK 923 INTER-LIGAND FREE ENERGY PREDICTED BY IDOCK:   -8.91 KCAL/MOL
REMARK 924 INTRA-LIGAND FREE ENERGY PREDICTED BY IDOCK:   -0.34 KCAL/MOL
REMARK 927      BINDING AFFINITY PREDICTED BY RF-SCORE:    0.00 PKD
ROOT
HETATM    1  C   UNL     1     -12.140  12.028  64.526  1.00  0.00    -0.340 C  
HETATM    2  C   UNL     1     -11.392  11.217  65.567  1.00  0.00     0.026 C  
HETATM    3  C   UNL     1     -10.285  10.525  64.795  1.00  0.00    -0.303 C  
HETATM    4  O   UNL     1     -10.328  10.986  63.445  1.00  0.00    -0.355 OA 
HETATM    5  C   UNL     1     -11.143  12.148  63.399  1.00  0.00    -0.420 C  
HETATM    6  O   UNL     1     -10.389  13.331  63.663  1.00  0.00    -0.132 OA 
HETATM    7  C   UNL     1     -11.252  14.245  64.347  1.00  0.00    -0.249 C  
HETATM    8  C   UNL     1     -12.461  13.471  64.873  1.00  0.00    -0.384 C  
ENDROOT
BRANCH   8   9
HETATM    9  O   UNL     1     -12.558  13.678  66.291  1.00  0.00    -0.391 OA 
BRANCH   9  10
HETATM   10  C   UNL     1     -11.536  14.356  66.870  1.00  0.00    -0.388 C  
HETATM   11  O   UNL     1     -11.191  15.488  66.574  1.00  0.00    -0.243 OA 
HETATM   12  N   UNL     1     -10.916  13.528  67.759  1.00  0.00    -0.261 N  
HETATM   13  H   UNL     1     -11.366  12.641  67.988  1.00  0.00     0.000 HD 
BRANCH  12  14
HETATM   14  C   UNL     1      -9.633  13.846  68.405  1.00  0.00    -0.215 C  
BRANCH  14  15
HETATM   15  C   UNL     1      -9.794  14.967  69.483  1.00  0.00    -0.071 C  
BRANCH  15  16
HETATM   16  C   UNL     1     -11.012  14.865  70.387  1.00  0.00    -0.160 A  
HETATM   17  C   UNL     1     -11.369  15.931  71.222  1.00  0.00    -0.425 A  
HETATM   18  C   UNL     1     -11.781  13.691  70.434  1.00  0.00    -0.223 A  
HETATM   19  C   UNL     1     -12.463  15.824  72.085  1.00  0.00    -0.533 A  
HETATM   20  C   UNL     1     -13.222  14.655  72.116  1.00  0.00    -0.450 A  
HETATM   21  C   UNL     1     -12.885  13.591  71.285  1.00  0.00    -0.420 A  
ENDBRANCH  15  16
ENDBRANCH  14  15
BRANCH  14  22
HETATM   22  C   UNL     1      -8.912  12.607  69.018  1.00  0.00     0.516 C  
HETATM   23  O   UNL     1      -7.500  12.840  69.124  1.00  0.00    -0.312 OA 
HETATM   24  H   UNL     1      -7.061  12.086  69.498  1.00  0.00     0.000 HD 
BRANCH  22  25
HETATM   25  C   UNL     1      -9.197  11.224  68.398  1.00  0.00    -0.178 C  
BRANCH  25  26
HETATM   26  N   UNL     1      -9.755  10.107  69.274  1.00  0.00    -0.213 N  
BRANCH  26  27
HETATM   27  C   UNL     1     -11.158  10.451  69.774  1.00  0.00    -0.295 C  
HETATM   28  C   UNL     1     -11.871   9.481  70.741  1.00  0.00    -0.350 C  
HETATM   29  C   UNL     1     -11.160   9.301  72.080  1.00  0.00    -0.173 C  
HETATM   30  C   UNL     1     -13.286  10.014  71.037  1.00  0.00    -0.334 C  
ENDBRANCH  26  27
BRANCH  26  31
HETATM   31  S   UNL     1      -9.727   8.594  68.370  1.00  0.00    -0.167 S  
HETATM   32  O   UNL     1     -11.016   8.396  67.754  1.00  0.00    -0.061 OA 
HETATM   33  O   UNL     1      -8.506   8.612  67.584  1.00  0.00    -0.123 OA 
BRANCH  31  34
HETATM   34  C   UNL     1      -9.538   7.325  69.620  1.00  0.00    -0.155 A  
HETATM   35  C   UNL     1      -8.267   6.324  71.417  1.00  0.00    -0.122 A  
HETATM   36  C   UNL     1      -8.445   7.360  70.487  1.00  0.00    -0.137 A  
HETATM   37  C   UNL     1      -9.141   5.232  71.463  1.00  0.00    -0.145 A  
HETATM   38  N   UNL     1      -9.014   4.263  72.459  1.00  0.00    -0.110 NA 
HETATM   39  C   UNL     1     -10.274   5.257  70.646  1.00  0.00    -0.327 A  
HETATM   40  H1  UNL     1      -9.651   3.467  72.492  1.00  0.00     0.000 HD 
HETATM   41  C   UNL     1     -10.471   6.287  69.716  1.00  0.00    -0.289 A  
HETATM   42  H2  UNL     1      -9.041   4.731  73.365  1.00  0.00     0.000 HD 
ENDBRANCH  31  34
ENDBRANCH  26  31
ENDBRANCH  25  26
ENDBRANCH  22  25
ENDBRANCH  14  22
ENDBRANCH  12  14
ENDBRANCH   9  10
ENDBRANCH   8   9
TORSDOF 11
ENDMDL
MODEL      286
REMARK 921   NORMALIZED FREE ENERGY PREDICTED BY IDOCK:   -4.01 KCAL/MOL
REMARK 922        TOTAL FREE ENERGY PREDICTED BY IDOCK:   -9.21 KCAL/MOL
REMARK 923 INTER-LIGAND FREE ENERGY PREDICTED BY IDOCK:   -9.88 KCAL/MOL
REMARK 924 INTRA-LIGAND FREE ENERGY PREDICTED BY IDOCK:    0.67 KCAL/MOL
REMARK 927      BINDING AFFINITY PREDICTED BY RF-SCORE:    0.00 PKD
ROOT
HETATM    1  C   UNL     1      -8.486  18.036  67.157  1.00  0.00    -0.241 C  
HETATM    2  C   UNL     1      -7.474  18.847  67.944  1.00  0.00    -0.269 C  
HETATM    3  C   UNL     1      -7.742  20.287  67.550  1.00  0.00    -0.305 C  
HETATM    4  O   UNL     1      -8.882  20.309  66.693  1.00  0.00    -0.298 OA 
HETATM    5  C   UNL     1      -9.540  19.055  66.797  1.00  0.00    -0.333 C  
HETATM    6  O   UNL     1     -10.483  19.043  67.869  1.00  0.00    -0.392 OA 
HETATM    7  C   UNL     1     -10.504  17.717  68.405  1.00  0.00    -0.359 C  
HETATM    8  C   UNL     1      -9.261  16.974  67.915  1.00  0.00    -0.239 C  
ENDROOT
BRANCH   8   9
HETATM    9  O   UNL     1      -8.537  16.487  69.056  1.00  0.00    -0.246 OA 
BRANCH   9  10
HETATM   10  C   UNL     1      -8.470  15.140  69.195  1.00  0.00    -0.220 C  
HETATM   11  O   UNL     1      -7.464  14.514  69.482  1.00  0.00    -0.121 OA 
HETATM   12  N   UNL     1      -9.686  14.612  68.869  1.00  0.00    -0.263 N  
HETATM   13  H   UNL     1     -10.472  15.249  68.745  1.00  0.00     0.000 HD 
BRANCH  12  14
HETATM   14  C   UNL     1      -9.921  13.171  68.686  1.00  0.00    -0.111 C  
BRANCH  14  15
HETATM   15  C   UNL     1     -11.363  12.886  68.153  1.00  0.00    -0.327 C  
BRANCH  15  16
HETATM   16  C   UNL     1     -11.624  13.233  66.696  1.00  0.00    -0.408 A  
HETATM   17  C   UNL     1     -11.964  12.233  65.776  1.00  0.00    -0.362 A  
HETATM   18  C   UNL     1     -11.494  14.552  66.233  1.00  0.00    -0.358 A  
HETATM   19  C   UNL     1     -12.164  12.543  64.428  1.00  0.00    -0.528 A  
HETATM   20  C   UNL     1     -12.038  13.858  63.984  1.00  0.00    -0.437 A  
HETATM   21  C   UNL     1     -11.711  14.865  64.888  1.00  0.00    -0.371 A  
ENDBRANCH  15  16
ENDBRANCH  14  15
BRANCH  14  22
HETATM   22  C   UNL     1      -8.862  12.468  67.783  1.00  0.00    -0.178 C  
HETATM   23  O   UNL     1      -8.474  13.321  66.697  1.00  0.00    -0.421 OA 
HETATM   24  H   UNL     1      -7.828  12.893  66.146  1.00  0.00     0.000 HD 
BRANCH  22  25
HETATM   25  C   UNL     1      -9.172  11.043  67.281  1.00  0.00    -0.148 C  
BRANCH  25  26
HETATM   26  N   UNL     1      -8.058  10.002  67.239  1.00  0.00    -0.113 N  
BRANCH  26  27
HETATM   27  C   UNL     1      -7.000  10.372  66.199  1.00  0.00    -0.126 C  
HETATM   28  C   UNL     1      -7.045   9.704  64.808  1.00  0.00    -0.115 C  
HETATM   29  C   UNL     1      -8.309  10.012  64.009  1.00  0.00    -0.170 C  
HETATM   30  C   UNL     1      -5.842  10.188  63.978  1.00  0.00    -0.140 C  
ENDBRANCH  26  27
BRANCH  26  31
HETATM   31  S   UNL     1      -7.368   9.827  68.852  1.00  0.00    -0.076 S  
HETATM   32  O   UNL     1      -6.477   8.694  68.856  1.00  0.00    -0.047 OA 
HETATM   33  O   UNL     1      -6.916  11.149  69.246  1.00  0.00    -0.097 OA 
BRANCH  31  34
HETATM   34  C   UNL     1      -8.762   9.407  69.895  1.00  0.00    -0.197 A  
HETATM   35  C   UNL     1     -11.141   9.429  70.326  1.00  0.00    -0.299 A  
HETATM   36  C   UNL     1     -10.059   9.697  69.473  1.00  0.00    -0.223 A  
HETATM   37  C   UNL     1     -10.940   8.917  71.613  1.00  0.00    -0.345 A  
HETATM   38  N   UNL     1     -12.026   8.557  72.411  1.00  0.00    -0.380 NA 
HETATM   39  C   UNL     1      -9.643   8.554  71.985  1.00  0.00    -0.371 A  
HETATM   40  H1  UNL     1     -11.880   8.183  73.349  1.00  0.00     0.000 HD 
HETATM   41  C   UNL     1      -8.552   8.809  71.142  1.00  0.00    -0.244 A  
HETATM   42  H2  UNL     1     -12.600   7.894  71.890  1.00  0.00     0.000 HD 
ENDBRANCH  31  34
ENDBRANCH  26  31
ENDBRANCH  25  26
ENDBRANCH  22  25
ENDBRANCH  14  22
ENDBRANCH  12  14
ENDBRANCH   9  10
ENDBRANCH   8   9
TORSDOF 11
ENDMDL
MODEL      287
REMARK 921   NORMALIZED FREE ENERGY PREDICTED BY IDOCK:   -4.00 KCAL/MOL
REMARK 922        TOTAL FREE ENERGY PREDICTED BY IDOCK:   -9.20 KCAL/MOL
REMARK 923 INTER-LIGAND FREE ENERGY PREDICTED BY IDOCK:   -8.64 KCAL/MOL
REMARK 924 INTRA-LIGAND FREE ENERGY PREDICTED BY IDOCK:   -0.56 KCAL/MOL
REMARK 927      BINDING AFFINITY PREDICTED BY RF-SCORE:    0.00 PKD
ROOT
HETATM    1  C   UNL     1      -9.739   5.257  68.781  1.00  0.00    -0.203 C  
HETATM    2  C   UNL     1     -10.546   5.640  70.007  1.00  0.00    -0.388 C  
HETATM    3  C   UNL     1      -9.573   5.516  71.164  1.00  0.00    -0.162 C  
HETATM    4  O   UNL     1      -8.289   5.194  70.633  1.00  0.00    -0.106 OA 
HETATM    5  C   UNL     1      -8.312   5.443  69.235  1.00  0.00    -0.096 C  
HETATM    6  O   UNL     1      -7.975   6.797  68.936  1.00  0.00    -0.112 OA 
HETATM    7  C   UNL     1      -8.720   7.177  67.775  1.00  0.00    -0.125 C  
HETATM    8  C   UNL     1      -9.848   6.165  67.569  1.00  0.00    -0.125 C  
ENDROOT
BRANCH   8   9
HETATM    9  O   UNL     1     -11.098   6.872  67.534  1.00  0.00    -0.270 OA 
BRANCH   9  10
HETATM   10  C   UNL     1     -11.024   8.225  67.552  1.00  0.00     0.159 C  
HETATM   11  O   UNL     1     -10.677   8.920  66.613  1.00  0.00    -0.161 OA 
HETATM   12  N   UNL     1     -11.309   8.656  68.816  1.00  0.00    -0.099 N  
HETATM   13  H   UNL     1     -11.683   7.981  69.483  1.00  0.00     0.000 HD 
BRANCH  12  14
HETATM   14  C   UNL     1     -11.106  10.042  69.265  1.00  0.00    -0.206 C  
BRANCH  14  15
HETATM   15  C   UNL     1     -11.457  10.214  70.779  1.00  0.00    -0.442 C  
BRANCH  15  16
HETATM   16  C   UNL     1     -12.160  11.505  71.166  1.00  0.00    -0.149 A  
HETATM   17  C   UNL     1     -13.195  11.496  72.110  1.00  0.00    -0.315 A  
HETATM   18  C   UNL     1     -11.817  12.724  70.562  1.00  0.00    -0.142 A  
HETATM   19  C   UNL     1     -13.871  12.674  72.437  1.00  0.00    -0.265 A  
HETATM   20  C   UNL     1     -13.515  13.879  71.834  1.00  0.00    -0.511 A  
HETATM   21  C   UNL     1     -12.482  13.906  70.901  1.00  0.00    -0.447 A  
ENDBRANCH  15  16
ENDBRANCH  14  15
BRANCH  14  22
HETATM   22  C   UNL     1      -9.677  10.596  68.976  1.00  0.00    -0.202 C  
HETATM   23  O   UNL     1      -8.813  10.388  70.101  1.00  0.00    -0.323 OA 
HETATM   24  H   UNL     1      -7.943  10.726  69.925  1.00  0.00     0.000 HD 
BRANCH  22  25
HETATM   25  C   UNL     1      -9.556  12.039  68.446  1.00  0.00    -0.190 C  
BRANCH  25  26
HETATM   26  N   UNL     1      -9.151  12.276  66.994  1.00  0.00    -0.195 N  
BRANCH  26  27
HETATM   27  C   UNL     1      -8.662  10.982  66.342  1.00  0.00    -0.173 C  
HETATM   28  C   UNL     1      -7.145  10.734  66.209  1.00  0.00    -0.134 C  
HETATM   29  C   UNL     1      -6.408  10.643  67.543  1.00  0.00    -0.057 C  
HETATM   30  C   UNL     1      -6.915   9.406  65.462  1.00  0.00    -0.086 C  
ENDBRANCH  26  27
BRANCH  26  31
HETATM   31  S   UNL     1     -10.512  12.982  66.122  1.00  0.00    -0.283 S  
HETATM   32  O   UNL     1     -10.198  13.012  64.715  1.00  0.00    -0.321 OA 
HETATM   33  O   UNL     1     -11.703  12.317  66.620  1.00  0.00    -0.452 OA 
BRANCH  31  34
HETATM   34  C   UNL     1     -10.574  14.682  66.686  1.00  0.00    -0.289 A  
HETATM   35  C   UNL     1     -11.371  16.344  68.250  1.00  0.00    -0.241 A  
HETATM   36  C   UNL     1     -11.268  15.002  67.853  1.00  0.00    -0.330 A  
HETATM   37  C   UNL     1     -10.829  17.374  67.473  1.00  0.00    -0.203 A  
HETATM   38  N   UNL     1     -10.846  18.692  67.929  1.00  0.00    -0.293 NA 
HETATM   39  C   UNL     1     -10.066  17.027  66.354  1.00  0.00    -0.325 A  
HETATM   40  H1  UNL     1     -10.451  19.443  67.362  1.00  0.00     0.000 HD 
HETATM   41  C   UNL     1      -9.948  15.691  65.948  1.00  0.00    -0.379 A  
HETATM   42  H2  UNL     1     -10.403  18.718  68.847  1.00  0.00     0.000 HD 
ENDBRANCH  31  34
ENDBRANCH  26  31
ENDBRANCH  25  26
ENDBRANCH  22  25
ENDBRANCH  14  22
ENDBRANCH  12  14
ENDBRANCH   9  10
ENDBRANCH   8   9
TORSDOF 11
ENDMDL
MODEL      288
REMARK 921   NORMALIZED FREE ENERGY PREDICTED BY IDOCK:   -3.96 KCAL/MOL
REMARK 922        TOTAL FREE ENERGY PREDICTED BY IDOCK:   -9.12 KCAL/MOL
REMARK 923 INTER-LIGAND FREE ENERGY PREDICTED BY IDOCK:   -8.03 KCAL/MOL
REMARK 924 INTRA-LIGAND FREE ENERGY PREDICTED BY IDOCK:   -1.09 KCAL/MOL
REMARK 927      BINDING AFFINITY PREDICTED BY RF-SCORE:    0.00 PKD
ROOT
HETATM    1  C   UNL     1      -5.352  12.188  69.802  1.00  0.00    -0.083 C  
HETATM    2  C   UNL     1      -5.355  12.501  71.287  1.00  0.00    -0.096 C  
HETATM    3  C   UNL     1      -5.150  14.002  71.364  1.00  0.00    -0.150 C  
HETATM    4  O   UNL     1      -5.140  14.520  70.035  1.00  0.00    -0.092 OA 
HETATM    5  C   UNL     1      -5.657  13.522  69.166  1.00  0.00    -0.075 C  
HETATM    6  O   UNL     1      -7.079  13.597  69.067  1.00  0.00    -0.110 OA 
HETATM    7  C   UNL     1      -7.566  12.262  68.893  1.00  0.00     0.021 C  
HETATM    8  C   UNL     1      -6.457  11.285  69.284  1.00  0.00    -0.089 C  
ENDROOT
BRANCH   8   9
HETATM    9  O   UNL     1      -6.959  10.404  70.302  1.00  0.00    -0.174 OA 
BRANCH   9  10
HETATM   10  C   UNL     1      -8.161   9.827  70.058  1.00  0.00    -0.189 C  
HETATM   11  O   UNL     1      -9.115   9.849  70.816  1.00  0.00    -0.046 OA 
HETATM   12  N   UNL     1      -8.082   9.149  68.876  1.00  0.00    -0.099 N  
HETATM   13  H   UNL     1      -7.260   9.295  68.289  1.00  0.00     0.000 HD 
BRANCH  12  14
HETATM   14  C   UNL     1      -9.120   8.220  68.403  1.00  0.00    -0.136 C  
BRANCH  14  15
HETATM   15  C   UNL     1      -9.906   7.582  69.594  1.00  0.00    -0.180 C  
BRANCH  15  16
HETATM   16  C   UNL     1      -9.405   6.234  70.088  1.00  0.00    -0.165 A  
HETATM   17  C   UNL     1      -9.806   5.050  69.456  1.00  0.00    -0.281 A  
HETATM   18  C   UNL     1      -8.564   6.143  71.208  1.00  0.00    -0.129 A  
HETATM   19  C   UNL     1      -9.381   3.808  69.935  1.00  0.00    -0.248 A  
HETATM   20  C   UNL     1      -8.541   3.733  71.044  1.00  0.00    -0.108 A  
HETATM   21  C   UNL     1      -8.125   4.901  71.677  1.00  0.00    -0.112 A  
ENDBRANCH  15  16
ENDBRANCH  14  15
BRANCH  14  22
HETATM   22  C   UNL     1     -10.110   8.850  67.377  1.00  0.00    -0.227 C  
HETATM   23  O   UNL     1     -10.158   8.074  66.172  1.00  0.00    -0.475 OA 
HETATM   24  H   UNL     1     -10.762   8.458  65.547  1.00  0.00     0.000 HD 
BRANCH  22  25
HETATM   25  C   UNL     1      -9.964  10.352  67.060  1.00  0.00    -0.206 C  
BRANCH  25  26
HETATM   26  N   UNL     1     -11.183  11.264  67.156  1.00  0.00    -0.300 N  
BRANCH  26  27
HETATM   27  C   UNL     1     -11.171  12.061  68.460  1.00  0.00    -0.256 C  
HETATM   28  C   UNL     1     -12.282  11.814  69.503  1.00  0.00    -0.232 C  
HETATM   29  C   UNL     1     -12.302  10.396  70.069  1.00  0.00    -0.229 C  
HETATM   30  C   UNL     1     -12.088  12.782  70.686  1.00  0.00    -0.316 C  
ENDBRANCH  26  27
BRANCH  26  31
HETATM   31  S   UNL     1     -11.233  12.314  65.740  1.00  0.00    -0.350 S  
HETATM   32  O   UNL     1     -10.210  11.894  64.814  1.00  0.00    -0.259 OA 
HETATM   33  O   UNL     1     -12.627  12.397  65.345  1.00  0.00    -0.637 OA 
BRANCH  31  34
HETATM   34  C   UNL     1     -10.756  13.927  66.358  1.00  0.00    -0.281 A  
HETATM   35  C   UNL     1      -9.095  15.663  66.627  1.00  0.00    -0.313 A  
HETATM   36  C   UNL     1      -9.486  14.431  66.081  1.00  0.00    -0.271 A  
HETATM   37  C   UNL     1      -9.942  16.377  67.483  1.00  0.00    -0.250 A  
HETATM   38  N   UNL     1      -9.585  17.648  67.936  1.00  0.00    -0.275 NA 
HETATM   39  C   UNL     1     -11.239  15.898  67.681  1.00  0.00    -0.219 A  
HETATM   40  H1  UNL     1     -10.202  18.168  68.560  1.00  0.00     0.000 HD 
HETATM   41  C   UNL     1     -11.647  14.673  67.137  1.00  0.00    -0.394 A  
HETATM   42  H2  UNL     1      -9.387  18.232  67.123  1.00  0.00     0.000 HD 
ENDBRANCH  31  34
ENDBRANCH  26  31
ENDBRANCH  25  26
ENDBRANCH  22  25
ENDBRANCH  14  22
ENDBRANCH  12  14
ENDBRANCH   9  10
ENDBRANCH   8   9
TORSDOF 11
ENDMDL
MODEL      289
REMARK 921   NORMALIZED FREE ENERGY PREDICTED BY IDOCK:   -3.94 KCAL/MOL
REMARK 922        TOTAL FREE ENERGY PREDICTED BY IDOCK:   -9.09 KCAL/MOL
REMARK 923 INTER-LIGAND FREE ENERGY PREDICTED BY IDOCK:   -7.26 KCAL/MOL
REMARK 924 INTRA-LIGAND FREE ENERGY PREDICTED BY IDOCK:   -1.83 KCAL/MOL
REMARK 927      BINDING AFFINITY PREDICTED BY RF-SCORE:    0.00 PKD
ROOT
HETATM    1  C   UNL     1      -7.363   8.778  64.920  1.00  0.00    -0.093 C  
HETATM    2  C   UNL     1      -8.134   9.399  63.770  1.00  0.00    -0.155 C  
HETATM    3  C   UNL     1      -8.156   8.327  62.697  1.00  0.00    -0.172 C  
HETATM    4  O   UNL     1      -7.545   7.152  63.229  1.00  0.00    -0.095 OA 
HETATM    5  C   UNL     1      -7.455   7.298  64.639  1.00  0.00    -0.091 C  
HETATM    6  O   UNL     1      -8.640   6.844  65.291  1.00  0.00    -0.105 OA 
HETATM    7  C   UNL     1      -8.831   7.663  66.449  1.00  0.00    -0.156 C  
HETATM    8  C   UNL     1      -7.963   8.914  66.308  1.00  0.00    -0.103 C  
ENDROOT
BRANCH   8   9
HETATM    9  O   UNL     1      -8.806  10.073  66.422  1.00  0.00    -0.140 OA 
BRANCH   9  10
HETATM   10  C   UNL     1      -8.973  10.573  67.671  1.00  0.00    -0.138 C  
HETATM   11  O   UNL     1      -8.076  10.987  68.385  1.00  0.00    -0.119 OA 
HETATM   12  N   UNL     1     -10.287  10.443  68.015  1.00  0.00    -0.169 N  
HETATM   13  H   UNL     1     -10.952  10.175  67.290  1.00  0.00     0.000 HD 
BRANCH  12  14
HETATM   14  C   UNL     1     -10.794  10.670  69.378  1.00  0.00    -0.246 C  
BRANCH  14  15
HETATM   15  C   UNL     1     -12.128  11.486  69.367  1.00  0.00    -0.345 C  
BRANCH  15  16
HETATM   16  C   UNL     1     -12.027  12.950  69.760  1.00  0.00    -0.365 A  
HETATM   17  C   UNL     1     -11.615  13.911  68.827  1.00  0.00    -0.370 A  
HETATM   18  C   UNL     1     -12.305  13.368  71.071  1.00  0.00    -0.401 A  
HETATM   19  C   UNL     1     -11.480  15.252  69.197  1.00  0.00    -0.330 A  
HETATM   20  C   UNL     1     -11.767  15.653  70.501  1.00  0.00    -0.392 A  
HETATM   21  C   UNL     1     -12.187  14.712  71.436  1.00  0.00    -0.411 A  
ENDBRANCH  15  16
ENDBRANCH  14  15
BRANCH  14  22
HETATM   22  C   UNL     1     -10.966   9.365  70.212  1.00  0.00    -0.262 C  
HETATM   23  O   UNL     1     -12.352   9.109  70.478  1.00  0.00    -0.485 OA 
HETATM   24  H   UNL     1     -12.457   8.313  70.986  1.00  0.00     0.000 HD 
BRANCH  22  25
HETATM   25  C   UNL     1     -10.121   9.209  71.493  1.00  0.00    -0.311 C  
BRANCH  25  26
HETATM   26  N   UNL     1      -9.567   7.838  71.867  1.00  0.00    -0.159 N  
BRANCH  26  27
HETATM   27  C   UNL     1     -10.697   6.847  72.146  1.00  0.00    -0.219 C  
HETATM   28  C   UNL     1     -10.425   5.635  73.064  1.00  0.00    -0.246 C  
HETATM   29  C   UNL     1     -10.053   6.009  74.496  1.00  0.00    -0.328 C  
HETATM   30  C   UNL     1     -11.690   4.759  73.128  1.00  0.00    -0.213 C  
ENDBRANCH  26  27
BRANCH  26  31
HETATM   31  S   UNL     1      -8.497   7.277  70.583  1.00  0.00    -0.142 S  
HETATM   32  O   UNL     1      -9.290   6.639  69.562  1.00  0.00    -0.146 OA 
HETATM   33  O   UNL     1      -7.614   8.387  70.276  1.00  0.00    -0.064 OA 
BRANCH  31  34
HETATM   34  C   UNL     1      -7.501   6.001  71.352  1.00  0.00    -0.093 A  
HETATM   35  C   UNL     1      -6.893   3.673  71.590  1.00  0.00    -0.027 A  
HETATM   36  C   UNL     1      -7.625   4.676  70.935  1.00  0.00    -0.068 A  
HETATM   37  C   UNL     1      -6.074   3.972  72.685  1.00  0.00    -0.016 A  
HETATM   38  N   UNL     1      -5.272   2.985  73.261  1.00  0.00     0.000 NA 
HETATM   39  C   UNL     1      -5.898   5.313  73.033  1.00  0.00    -0.023 A  
HETATM   40  H1  UNL     1      -4.675   3.203  74.059  1.00  0.00     0.000 HD 
HETATM   41  C   UNL     1      -6.616   6.328  72.385  1.00  0.00    -0.067 A  
HETATM   42  H2  UNL     1      -4.690   2.579  72.528  1.00  0.00     0.000 HD 
ENDBRANCH  31  34
ENDBRANCH  26  31
ENDBRANCH  25  26
ENDBRANCH  22  25
ENDBRANCH  14  22
ENDBRANCH  12  14
ENDBRANCH   9  10
ENDBRANCH   8   9
TORSDOF 11
ENDMDL
MODEL      290
REMARK 921   NORMALIZED FREE ENERGY PREDICTED BY IDOCK:   -3.94 KCAL/MOL
REMARK 922        TOTAL FREE ENERGY PREDICTED BY IDOCK:   -9.09 KCAL/MOL
REMARK 923 INTER-LIGAND FREE ENERGY PREDICTED BY IDOCK:   -8.10 KCAL/MOL
REMARK 924 INTRA-LIGAND FREE ENERGY PREDICTED BY IDOCK:   -0.99 KCAL/MOL
REMARK 927      BINDING AFFINITY PREDICTED BY RF-SCORE:    0.00 PKD
ROOT
HETATM    1  C   UNL     1      -9.895   6.845  70.837  1.00  0.00    -0.193 C  
HETATM    2  C   UNL     1     -11.225   6.653  70.131  1.00  0.00    -0.416 C  
HETATM    3  C   UNL     1     -12.254   6.637  71.245  1.00  0.00    -0.314 C  
HETATM    4  O   UNL     1     -11.583   6.907  72.475  1.00  0.00    -0.261 OA 
HETATM    5  C   UNL     1     -10.293   7.420  72.174  1.00  0.00    -0.199 C  
HETATM    6  O   UNL     1     -10.318   8.836  72.004  1.00  0.00    -0.324 OA 
HETATM    7  C   UNL     1      -9.334   9.166  71.018  1.00  0.00    -0.263 C  
HETATM    8  C   UNL     1      -8.954   7.890  70.266  1.00  0.00    -0.151 C  
ENDROOT
BRANCH   8   9
HETATM    9  O   UNL     1      -9.170   8.103  68.861  1.00  0.00    -0.147 OA 
BRANCH   9  10
HETATM   10  C   UNL     1      -8.248   8.863  68.221  1.00  0.00    -0.121 C  
HETATM   11  O   UNL     1      -7.041   8.774  68.370  1.00  0.00    -0.074 OA 
HETATM   12  N   UNL     1      -8.903   9.791  67.465  1.00  0.00    -0.125 N  
HETATM   13  H   UNL     1      -9.912   9.693  67.347  1.00  0.00     0.000 HD 
BRANCH  12  14
HETATM   14  C   UNL     1      -8.232  10.926  66.812  1.00  0.00    -0.140 C  
BRANCH  14  15
HETATM   15  C   UNL     1      -8.684  11.083  65.324  1.00  0.00    -0.099 C  
BRANCH  15  16
HETATM   16  C   UNL     1      -8.113  10.078  64.336  1.00  0.00    -0.156 A  
HETATM   17  C   UNL     1      -8.947   9.438  63.410  1.00  0.00    -0.150 A  
HETATM   18  C   UNL     1      -6.750   9.741  64.353  1.00  0.00    -0.119 A  
HETATM   19  C   UNL     1      -8.433   8.483  62.528  1.00  0.00    -0.156 A  
HETATM   20  C   UNL     1      -7.076   8.164  62.553  1.00  0.00    -0.090 A  
HETATM   21  C   UNL     1      -6.233   8.799  63.460  1.00  0.00    -0.085 A  
ENDBRANCH  15  16
ENDBRANCH  14  15
BRANCH  14  22
HETATM   22  C   UNL     1      -8.396  12.278  67.571  1.00  0.00    -0.170 C  
HETATM   23  O   UNL     1      -9.168  12.100  68.767  1.00  0.00    -0.385 OA 
HETATM   24  H   UNL     1      -9.267  12.924  69.230  1.00  0.00     0.000 HD 
BRANCH  22  25
HETATM   25  C   UNL     1      -8.891  13.500  66.772  1.00  0.00    -0.131 C  
BRANCH  25  26
HETATM   26  N   UNL     1      -8.971  14.862  67.453  1.00  0.00    -0.181 N  
BRANCH  26  27
HETATM   27  C   UNL     1      -9.868  14.806  68.690  1.00  0.00    -0.225 C  
HETATM   28  C   UNL     1     -11.394  14.971  68.520  1.00  0.00    -0.317 C  
HETATM   29  C   UNL     1     -12.050  13.880  67.677  1.00  0.00    -0.342 C  
HETATM   30  C   UNL     1     -12.061  14.947  69.909  1.00  0.00    -0.379 C  
ENDBRANCH  26  27
BRANCH  26  31
HETATM   31  S   UNL     1      -7.341  15.411  67.844  1.00  0.00    -0.156 S  
HETATM   32  O   UNL     1      -7.068  15.108  69.227  1.00  0.00    -0.142 OA 
HETATM   33  O   UNL     1      -6.484  14.928  66.777  1.00  0.00     0.250 OA 
BRANCH  31  34
HETATM   34  C   UNL     1      -7.420  17.195  67.698  1.00  0.00    -0.169 A  
HETATM   35  C   UNL     1      -7.988  19.352  68.630  1.00  0.00    -0.403 A  
HETATM   36  C   UNL     1      -7.863  17.962  68.776  1.00  0.00    -0.258 A  
HETATM   37  C   UNL     1      -7.718  19.980  67.409  1.00  0.00    -0.295 A  
HETATM   38  N   UNL     1      -7.745  21.372  67.306  1.00  0.00    -0.685 NA 
HETATM   39  C   UNL     1      -7.195  19.208  66.369  1.00  0.00    -0.256 A  
HETATM   40  H1  UNL     1      -7.549  21.830  66.416  1.00  0.00     0.000 HD 
HETATM   41  C   UNL     1      -7.058  17.819  66.500  1.00  0.00    -0.275 A  
HETATM   42  H2  UNL     1      -7.114  21.756  68.009  1.00  0.00     0.000 HD 
ENDBRANCH  31  34
ENDBRANCH  26  31
ENDBRANCH  25  26
ENDBRANCH  22  25
ENDBRANCH  14  22
ENDBRANCH  12  14
ENDBRANCH   9  10
ENDBRANCH   8   9
TORSDOF 11
ENDMDL
MODEL      291
REMARK 921   NORMALIZED FREE ENERGY PREDICTED BY IDOCK:   -3.93 KCAL/MOL
REMARK 922        TOTAL FREE ENERGY PREDICTED BY IDOCK:   -9.07 KCAL/MOL
REMARK 923 INTER-LIGAND FREE ENERGY PREDICTED BY IDOCK:   -7.59 KCAL/MOL
REMARK 924 INTRA-LIGAND FREE ENERGY PREDICTED BY IDOCK:   -1.48 KCAL/MOL
REMARK 927      BINDING AFFINITY PREDICTED BY RF-SCORE:    0.00 PKD
ROOT
HETATM    1  C   UNL     1      -9.013   5.624  73.116  1.00  0.00    -0.121 C  
HETATM    2  C   UNL     1      -9.655   4.468  72.372  1.00  0.00    -0.193 C  
HETATM    3  C   UNL     1     -10.633   3.867  73.364  1.00  0.00    -0.194 C  
HETATM    4  O   UNL     1     -10.630   4.676  74.539  1.00  0.00    -0.278 OA 
HETATM    5  C   UNL     1      -9.993   5.907  74.228  1.00  0.00    -0.257 C  
HETATM    6  O   UNL     1     -10.918   6.860  73.707  1.00  0.00    -0.192 OA 
HETATM    7  C   UNL     1     -10.213   7.665  72.756  1.00  0.00    -0.279 C  
HETATM    8  C   UNL     1      -8.914   6.949  72.383  1.00  0.00    -0.133 C  
ENDROOT
BRANCH   8   9
HETATM    9  O   UNL     1      -8.879   6.777  70.957  1.00  0.00    -0.140 OA 
BRANCH   9  10
HETATM   10  C   UNL     1      -8.505   7.860  70.231  1.00  0.00    -0.128 C  
HETATM   11  O   UNL     1      -7.692   8.695  70.587  1.00  0.00    -0.069 OA 
HETATM   12  N   UNL     1      -9.257   7.896  69.092  1.00  0.00    -0.145 N  
HETATM   13  H   UNL     1      -9.828   7.082  68.864  1.00  0.00     0.000 HD 
BRANCH  12  14
HETATM   14  C   UNL     1      -9.286   9.047  68.176  1.00  0.00    -0.136 C  
BRANCH  14  15
HETATM   15  C   UNL     1      -8.861   8.641  66.728  1.00  0.00    -0.152 C  
BRANCH  15  16
HETATM   16  C   UNL     1      -8.497   7.180  66.515  1.00  0.00    -0.125 A  
HETATM   17  C   UNL     1      -7.156   6.787  66.425  1.00  0.00    -0.071 A  
HETATM   18  C   UNL     1      -9.493   6.202  66.367  1.00  0.00    -0.172 A  
HETATM   19  C   UNL     1      -6.819   5.451  66.188  1.00  0.00    -0.058 A  
HETATM   20  C   UNL     1      -7.819   4.490  66.049  1.00  0.00    -0.095 A  
HETATM   21  C   UNL     1      -9.156   4.863  66.146  1.00  0.00    -0.135 A  
ENDBRANCH  15  16
ENDBRANCH  14  15
BRANCH  14  22
HETATM   22  C   UNL     1     -10.653   9.796  68.148  1.00  0.00    -0.231 C  
HETATM   23  O   UNL     1     -11.115   9.961  66.801  1.00  0.00    -0.009 OA 
HETATM   24  H   UNL     1     -11.948  10.417  66.783  1.00  0.00     0.000 HD 
BRANCH  22  25
HETATM   25  C   UNL     1     -10.770  11.116  68.937  1.00  0.00    -0.207 C  
BRANCH  25  26
HETATM   26  N   UNL     1     -10.057  12.364  68.426  1.00  0.00    -0.223 N  
BRANCH  26  27
HETATM   27  C   UNL     1      -8.586  12.073  68.131  1.00  0.00    -0.173 C  
HETATM   28  C   UNL     1      -7.642  13.244  67.783  1.00  0.00    -0.161 C  
HETATM   29  C   UNL     1      -7.481  14.270  68.903  1.00  0.00    -0.123 C  
HETATM   30  C   UNL     1      -6.243  12.686  67.462  1.00  0.00    -0.159 C  
ENDBRANCH  26  27
BRANCH  26  31
HETATM   31  S   UNL     1     -10.907  12.976  67.008  1.00  0.00    -0.264 S  
HETATM   32  O   UNL     1     -10.169  12.604  65.827  1.00  0.00    -0.264 OA 
HETATM   33  O   UNL     1     -12.301  12.608  67.180  1.00  0.00    -0.370 OA 
BRANCH  31  34
HETATM   34  C   UNL     1     -10.804  14.759  67.156  1.00  0.00    -0.311 A  
HETATM   35  C   UNL     1     -10.161  16.905  66.248  1.00  0.00    -0.337 A  
HETATM   36  C   UNL     1     -10.304  15.517  66.097  1.00  0.00    -0.327 A  
HETATM   37  C   UNL     1     -10.469  17.539  67.457  1.00  0.00    -0.355 A  
HETATM   38  N   UNL     1     -10.423  18.929  67.561  1.00  0.00    -0.426 NA 
HETATM   39  C   UNL     1     -11.047  16.777  68.475  1.00  0.00    -0.260 A  
HETATM   40  H1  UNL     1     -10.647  19.392  68.442  1.00  0.00     0.000 HD 
HETATM   41  C   UNL     1     -11.203  15.390  68.339  1.00  0.00    -0.318 A  
HETATM   42  H2  UNL     1     -11.019  19.324  66.833  1.00  0.00     0.000 HD 
ENDBRANCH  31  34
ENDBRANCH  26  31
ENDBRANCH  25  26
ENDBRANCH  22  25
ENDBRANCH  14  22
ENDBRANCH  12  14
ENDBRANCH   9  10
ENDBRANCH   8   9
TORSDOF 11
ENDMDL
MODEL      292
REMARK 921   NORMALIZED FREE ENERGY PREDICTED BY IDOCK:   -3.89 KCAL/MOL
REMARK 922        TOTAL FREE ENERGY PREDICTED BY IDOCK:   -9.02 KCAL/MOL
REMARK 923 INTER-LIGAND FREE ENERGY PREDICTED BY IDOCK:   -8.71 KCAL/MOL
REMARK 924 INTRA-LIGAND FREE ENERGY PREDICTED BY IDOCK:   -0.30 KCAL/MOL
REMARK 927      BINDING AFFINITY PREDICTED BY RF-SCORE:    0.00 PKD
ROOT
HETATM    1  C   UNL     1     -12.843  14.623  70.975  1.00  0.00    -0.414 C  
HETATM    2  C   UNL     1     -11.519  15.124  71.522  1.00  0.00    -0.422 C  
HETATM    3  C   UNL     1     -11.900  16.092  72.626  1.00  0.00    -0.506 C  
HETATM    4  O   UNL     1     -13.319  16.065  72.773  1.00  0.00    -0.486 OA 
HETATM    5  C   UNL     1     -13.814  14.921  72.091  1.00  0.00    -0.471 C  
HETATM    6  O   UNL     1     -13.815  13.768  72.932  1.00  0.00    -0.668 OA 
HETATM    7  C   UNL     1     -13.552  12.632  72.101  1.00  0.00    -0.413 C  
HETATM    8  C   UNL     1     -12.984  13.125  70.770  1.00  0.00    -0.001 C  
ENDROOT
BRANCH   8   9
HETATM    9  O   UNL     1     -11.716  12.488  70.548  1.00  0.00    -0.170 OA 
BRANCH   9  10
HETATM   10  C   UNL     1     -11.294  12.424  69.261  1.00  0.00    -0.254 C  
HETATM   11  O   UNL     1     -11.977  12.686  68.286  1.00  0.00    -0.320 OA 
HETATM   12  N   UNL     1     -10.021  11.932  69.248  1.00  0.00    -0.354 N  
HETATM   13  H   UNL     1      -9.526  11.850  70.137  1.00  0.00     0.000 HD 
BRANCH  12  14
HETATM   14  C   UNL     1      -9.324  11.516  68.021  1.00  0.00    -0.175 C  
BRANCH  14  15
HETATM   15  C   UNL     1      -8.515  12.695  67.390  1.00  0.00    -0.186 C  
BRANCH  15  16
HETATM   16  C   UNL     1      -9.286  13.980  67.130  1.00  0.00    -0.240 A  
HETATM   17  C   UNL     1     -10.391  13.985  66.269  1.00  0.00    -0.294 A  
HETATM   18  C   UNL     1      -8.887  15.192  67.714  1.00  0.00    -0.171 A  
HETATM   19  C   UNL     1     -11.075  15.173  65.995  1.00  0.00    -0.312 A  
HETATM   20  C   UNL     1     -10.672  16.368  66.588  1.00  0.00    -0.173 A  
HETATM   21  C   UNL     1      -9.582  16.377  67.454  1.00  0.00    -0.231 A  
ENDBRANCH  15  16
ENDBRANCH  14  15
BRANCH  14  22
HETATM   22  C   UNL     1      -8.405  10.270  68.209  1.00  0.00    -0.116 C  
HETATM   23  O   UNL     1      -7.158  10.644  68.811  1.00  0.00    -0.066 OA 
HETATM   24  H   UNL     1      -6.598   9.885  68.926  1.00  0.00     0.000 HD 
BRANCH  22  25
HETATM   25  C   UNL     1      -8.177   9.351  66.993  1.00  0.00    -0.116 C  
BRANCH  25  26
HETATM   26  N   UNL     1      -8.165   7.838  67.185  1.00  0.00    -0.117 N  
BRANCH  26  27
HETATM   27  C   UNL     1      -7.238   7.438  68.333  1.00  0.00    -0.093 C  
HETATM   28  C   UNL     1      -6.500   6.083  68.267  1.00  0.00    -0.046 C  
HETATM   29  C   UNL     1      -5.527   5.960  67.096  1.00  0.00    -0.005 C  
HETATM   30  C   UNL     1      -5.692   5.886  69.563  1.00  0.00    -0.016 C  
ENDBRANCH  26  27
BRANCH  26  31
HETATM   31  S   UNL     1      -9.816   7.274  67.441  1.00  0.00    -0.174 S  
HETATM   32  O   UNL     1     -10.685   8.418  67.561  1.00  0.00    -0.240 OA 
HETATM   33  O   UNL     1     -10.052   6.242  66.447  1.00  0.00    -0.134 OA 
BRANCH  31  34
HETATM   34  C   UNL     1      -9.774   6.472  69.043  1.00  0.00    -0.135 A  
HETATM   35  C   UNL     1      -9.948   4.474  70.393  1.00  0.00    -0.284 A  
HETATM   36  C   UNL     1      -9.911   5.087  69.131  1.00  0.00    -0.267 A  
HETATM   37  C   UNL     1      -9.894   5.232  71.569  1.00  0.00    -0.172 A  
HETATM   38  N   UNL     1      -9.826   4.605  72.814  1.00  0.00    -0.139 NA 
HETATM   39  C   UNL     1      -9.672   6.606  71.460  1.00  0.00    -0.172 A  
HETATM   40  H1  UNL     1      -9.787   5.158  73.670  1.00  0.00     0.000 HD 
HETATM   41  C   UNL     1      -9.627   7.233  70.207  1.00  0.00    -0.165 A  
HETATM   42  H2  UNL     1      -9.029   3.969  72.808  1.00  0.00     0.000 HD 
ENDBRANCH  31  34
ENDBRANCH  26  31
ENDBRANCH  25  26
ENDBRANCH  22  25
ENDBRANCH  14  22
ENDBRANCH  12  14
ENDBRANCH   9  10
ENDBRANCH   8   9
TORSDOF 11
ENDMDL
MODEL      293
REMARK 921   NORMALIZED FREE ENERGY PREDICTED BY IDOCK:   -3.87 KCAL/MOL
REMARK 922        TOTAL FREE ENERGY PREDICTED BY IDOCK:   -8.98 KCAL/MOL
REMARK 923 INTER-LIGAND FREE ENERGY PREDICTED BY IDOCK:   -7.73 KCAL/MOL
REMARK 924 INTRA-LIGAND FREE ENERGY PREDICTED BY IDOCK:   -1.24 KCAL/MOL
REMARK 927      BINDING AFFINITY PREDICTED BY RF-SCORE:    0.00 PKD
ROOT
HETATM    1  C   UNL     1      -8.239   7.662  72.389  1.00  0.00    -0.140 C  
HETATM    2  C   UNL     1      -7.142   6.619  72.277  1.00  0.00    -0.073 C  
HETATM    3  C   UNL     1      -6.345   6.758  73.561  1.00  0.00    -0.064 C  
HETATM    4  O   UNL     1      -6.995   7.723  74.386  1.00  0.00    -0.108 OA 
HETATM    5  C   UNL     1      -8.301   7.940  73.870  1.00  0.00    -0.245 C  
HETATM    6  O   UNL     1      -9.240   7.010  74.409  1.00  0.00    -0.214 OA 
HETATM    7  C   UNL     1     -10.211   6.746  73.391  1.00  0.00    -0.268 C  
HETATM    8  C   UNL     1      -9.650   7.219  72.050  1.00  0.00    -0.150 C  
ENDROOT
BRANCH   8   9
HETATM    9  O   UNL     1      -9.665   6.115  71.130  1.00  0.00    -0.174 OA 
BRANCH   9  10
HETATM   10  C   UNL     1     -10.077   6.390  69.868  1.00  0.00    -0.171 C  
HETATM   11  O   UNL     1     -11.164   6.090  69.405  1.00  0.00    -0.395 OA 
HETATM   12  N   UNL     1      -9.041   6.969  69.193  1.00  0.00    -0.137 N  
HETATM   13  H   UNL     1      -8.220   7.258  69.725  1.00  0.00     0.000 HD 
BRANCH  12  14
HETATM   14  C   UNL     1      -9.048   7.197  67.740  1.00  0.00    -0.127 C  
BRANCH  14  15
HETATM   15  C   UNL     1      -9.254   5.865  66.949  1.00  0.00    -0.128 C  
BRANCH  15  16
HETATM   16  C   UNL     1      -8.464   5.716  65.659  1.00  0.00    -0.147 A  
HETATM   17  C   UNL     1      -8.846   4.775  64.694  1.00  0.00    -0.152 A  
HETATM   18  C   UNL     1      -7.315   6.488  65.422  1.00  0.00    -0.076 A  
HETATM   19  C   UNL     1      -8.096   4.607  63.527  1.00  0.00    -0.097 A  
HETATM   20  C   UNL     1      -6.962   5.385  63.302  1.00  0.00    -0.041 A  
HETATM   21  C   UNL     1      -6.575   6.332  64.247  1.00  0.00    -0.034 A  
ENDBRANCH  15  16
ENDBRANCH  14  15
BRANCH  14  22
HETATM   22  C   UNL     1     -10.081   8.268  67.274  1.00  0.00    -0.247 C  
HETATM   23  O   UNL     1     -11.355   7.664  67.009  1.00  0.00    -0.255 OA 
HETATM   24  H   UNL     1     -11.985   8.317  66.726  1.00  0.00     0.000 HD 
BRANCH  22  25
HETATM   25  C   UNL     1      -9.672   9.217  66.130  1.00  0.00    -0.279 C  
BRANCH  25  26
HETATM   26  N   UNL     1      -9.825  10.724  66.312  1.00  0.00    -0.207 N  
BRANCH  26  27
HETATM   27  C   UNL     1     -11.093  11.233  65.627  1.00  0.00    -0.072 C  
HETATM   28  C   UNL     1     -10.979  12.344  64.561  1.00  0.00    -0.355 C  
HETATM   29  C   UNL     1     -10.166  11.947  63.331  1.00  0.00    -0.478 C  
HETATM   30  C   UNL     1     -12.391  12.727  64.078  1.00  0.00    -0.492 C  
ENDBRANCH  26  27
BRANCH  26  31
HETATM   31  S   UNL     1      -9.805  11.104  68.034  1.00  0.00    -0.180 S  
HETATM   32  O   UNL     1     -10.909  10.430  68.672  1.00  0.00    -0.205 OA 
HETATM   33  O   UNL     1      -8.437  10.907  68.477  1.00  0.00    -0.132 OA 
BRANCH  31  34
HETATM   34  C   UNL     1     -10.143  12.862  68.111  1.00  0.00    -0.240 A  
HETATM   35  C   UNL     1      -9.408  15.152  67.866  1.00  0.00    -0.185 A  
HETATM   36  C   UNL     1      -9.159  13.777  67.736  1.00  0.00    -0.193 A  
HETATM   37  C   UNL     1     -10.609  15.624  68.407  1.00  0.00    -0.252 A  
HETATM   38  N   UNL     1     -10.886  16.991  68.434  1.00  0.00    -0.361 NA 
HETATM   39  C   UNL     1     -11.613  14.697  68.697  1.00  0.00    -0.343 A  
HETATM   40  H1  UNL     1     -11.762  17.335  68.828  1.00  0.00     0.000 HD 
HETATM   41  C   UNL     1     -11.384  13.320  68.566  1.00  0.00    -0.319 A  
HETATM   42  H2  UNL     1     -10.800  17.353  67.484  1.00  0.00     0.000 HD 
ENDBRANCH  31  34
ENDBRANCH  26  31
ENDBRANCH  25  26
ENDBRANCH  22  25
ENDBRANCH  14  22
ENDBRANCH  12  14
ENDBRANCH   9  10
ENDBRANCH   8   9
TORSDOF 11
ENDMDL
MODEL      294
REMARK 921   NORMALIZED FREE ENERGY PREDICTED BY IDOCK:   -3.86 KCAL/MOL
REMARK 922        TOTAL FREE ENERGY PREDICTED BY IDOCK:   -8.97 KCAL/MOL
REMARK 923 INTER-LIGAND FREE ENERGY PREDICTED BY IDOCK:   -7.61 KCAL/MOL
REMARK 924 INTRA-LIGAND FREE ENERGY PREDICTED BY IDOCK:   -1.36 KCAL/MOL
REMARK 927      BINDING AFFINITY PREDICTED BY RF-SCORE:    0.00 PKD
ROOT
HETATM    1  C   UNL     1      -9.088   5.939  73.230  1.00  0.00    -0.133 C  
HETATM    2  C   UNL     1      -9.543   4.991  72.135  1.00  0.00    -0.191 C  
HETATM    3  C   UNL     1     -10.821   4.371  72.668  1.00  0.00    -0.086 C  
HETATM    4  O   UNL     1     -11.131   4.992  73.915  1.00  0.00    -0.285 OA 
HETATM    5  C   UNL     1     -10.346   6.170  74.031  1.00  0.00    -0.300 C  
HETATM    6  O   UNL     1     -10.994   7.293  73.436  1.00  0.00    -0.358 OA 
HETATM    7  C   UNL     1      -9.973   8.139  72.897  1.00  0.00    -0.266 C  
HETATM    8  C   UNL     1      -8.675   7.336  72.806  1.00  0.00    -0.122 C  
ENDROOT
BRANCH   8   9
HETATM    9  O   UNL     1      -8.206   7.374  71.448  1.00  0.00    -0.103 OA 
BRANCH   9  10
HETATM   10  C   UNL     1      -8.122   8.600  70.876  1.00  0.00    -0.136 C  
HETATM   11  O   UNL     1      -7.418   9.512  71.274  1.00  0.00    -0.332 OA 
HETATM   12  N   UNL     1      -9.020   8.659  69.850  1.00  0.00    -0.146 N  
HETATM   13  H   UNL     1      -9.474   7.795  69.554  1.00  0.00     0.000 HD 
BRANCH  12  14
HETATM   14  C   UNL     1      -9.367   9.905  69.148  1.00  0.00    -0.193 C  
BRANCH  14  15
HETATM   15  C   UNL     1      -8.709   9.970  67.731  1.00  0.00    -0.125 C  
BRANCH  15  16
HETATM   16  C   UNL     1      -8.145   8.666  67.188  1.00  0.00    -0.100 A  
HETATM   17  C   UNL     1      -6.826   8.288  67.472  1.00  0.00    -0.070 A  
HETATM   18  C   UNL     1      -8.916   7.833  66.362  1.00  0.00    -0.196 A  
HETATM   19  C   UNL     1      -6.292   7.112  66.940  1.00  0.00    -0.050 A  
HETATM   20  C   UNL     1      -7.072   6.291  66.127  1.00  0.00    -0.067 A  
HETATM   21  C   UNL     1      -8.388   6.648  65.844  1.00  0.00    -0.137 A  
ENDBRANCH  15  16
ENDBRANCH  14  15
BRANCH  14  22
HETATM   22  C   UNL     1     -10.901  10.163  69.042  1.00  0.00    -0.224 C  
HETATM   23  O   UNL     1     -11.413   9.685  67.791  1.00  0.00    -0.458 OA 
HETATM   24  H   UNL     1     -12.348   9.842  67.727  1.00  0.00     0.000 HD 
BRANCH  22  25
HETATM   25  C   UNL     1     -11.416  11.585  69.342  1.00  0.00    -0.309 C  
BRANCH  25  26
HETATM   26  N   UNL     1     -10.824  12.774  68.591  1.00  0.00    -0.249 N  
BRANCH  26  27
HETATM   27  C   UNL     1     -10.984  12.604  67.081  1.00  0.00    -0.261 C  
HETATM   28  C   UNL     1     -10.235  13.565  66.132  1.00  0.00    -0.303 C  
HETATM   29  C   UNL     1      -8.713  13.486  66.239  1.00  0.00     0.372 C  
HETATM   30  C   UNL     1     -10.615  13.233  64.676  1.00  0.00    -0.421 C  
ENDBRANCH  26  27
BRANCH  26  31
HETATM   31  S   UNL     1     -11.575  14.259  69.174  1.00  0.00    -0.327 S  
HETATM   32  O   UNL     1     -12.597  14.661  68.240  1.00  0.00     0.124 OA 
HETATM   33  O   UNL     1     -11.874  14.039  70.578  1.00  0.00    -0.306 OA 
BRANCH  31  34
HETATM   34  C   UNL     1     -10.272  15.485  69.092  1.00  0.00    -0.240 A  
HETATM   35  C   UNL     1      -9.555  17.761  68.704  1.00  0.00    -0.322 A  
HETATM   36  C   UNL     1     -10.587  16.819  68.836  1.00  0.00    -0.350 A  
HETATM   37  C   UNL     1      -8.210  17.379  68.780  1.00  0.00    -0.226 A  
HETATM   38  N   UNL     1      -7.198  18.338  68.751  1.00  0.00    -0.276 NA 
HETATM   39  C   UNL     1      -7.917  16.056  69.120  1.00  0.00    -0.238 A  
HETATM   40  H1  UNL     1      -6.218  18.060  68.807  1.00  0.00     0.000 HD 
HETATM   41  C   UNL     1      -8.936  15.104  69.262  1.00  0.00    -0.202 A  
HETATM   42  H2  UNL     1      -7.379  19.016  69.492  1.00  0.00     0.000 HD 
ENDBRANCH  31  34
ENDBRANCH  26  31
ENDBRANCH  25  26
ENDBRANCH  22  25
ENDBRANCH  14  22
ENDBRANCH  12  14
ENDBRANCH   9  10
ENDBRANCH   8   9
TORSDOF 11
ENDMDL
MODEL      295
REMARK 921   NORMALIZED FREE ENERGY PREDICTED BY IDOCK:   -3.85 KCAL/MOL
REMARK 922        TOTAL FREE ENERGY PREDICTED BY IDOCK:   -8.95 KCAL/MOL
REMARK 923 INTER-LIGAND FREE ENERGY PREDICTED BY IDOCK:   -7.03 KCAL/MOL
REMARK 924 INTRA-LIGAND FREE ENERGY PREDICTED BY IDOCK:   -1.93 KCAL/MOL
REMARK 927      BINDING AFFINITY PREDICTED BY RF-SCORE:    0.00 PKD
ROOT
HETATM    1  C   UNL     1      -7.864  16.203  67.671  1.00  0.00    -0.165 C  
HETATM    2  C   UNL     1      -7.037  16.606  66.463  1.00  0.00    -0.212 C  
HETATM    3  C   UNL     1      -7.194  18.112  66.374  1.00  0.00    -0.247 C  
HETATM    4  O   UNL     1      -7.955  18.549  67.499  1.00  0.00    -0.234 OA 
HETATM    5  C   UNL     1      -7.993  17.492  68.446  1.00  0.00    -0.261 C  
HETATM    6  O   UNL     1      -6.872  17.536  69.328  1.00  0.00    -0.248 OA 
HETATM    7  C   UNL     1      -6.539  16.186  69.665  1.00  0.00    -0.182 C  
HETATM    8  C   UNL     1      -7.220  15.253  68.663  1.00  0.00    -0.121 C  
ENDROOT
BRANCH   8   9
HETATM    9  O   UNL     1      -6.218  14.427  68.049  1.00  0.00    -0.128 OA 
BRANCH   9  10
HETATM   10  C   UNL     1      -6.561  13.135  67.822  1.00  0.00    -0.151 C  
HETATM   11  O   UNL     1      -6.225  12.482  66.849  1.00  0.00    -0.216 OA 
HETATM   12  N   UNL     1      -7.412  12.734  68.811  1.00  0.00    -0.243 N  
HETATM   13  H   UNL     1      -7.532  13.342  69.621  1.00  0.00     0.000 HD 
BRANCH  12  14
HETATM   14  C   UNL     1      -8.164  11.471  68.771  1.00  0.00    -0.082 C  
BRANCH  14  15
HETATM   15  C   UNL     1      -9.314  11.519  67.712  1.00  0.00    -0.168 C  
BRANCH  15  16
HETATM   16  C   UNL     1     -10.114  12.809  67.643  1.00  0.00    -0.220 A  
HETATM   17  C   UNL     1     -10.899  13.219  68.729  1.00  0.00    -0.273 A  
HETATM   18  C   UNL     1     -10.116  13.597  66.481  1.00  0.00    -0.286 A  
HETATM   19  C   UNL     1     -11.669  14.383  68.652  1.00  0.00    -0.367 A  
HETATM   20  C   UNL     1     -11.655  15.158  67.494  1.00  0.00    -0.268 A  
HETATM   21  C   UNL     1     -10.873  14.770  66.411  1.00  0.00    -0.322 A  
ENDBRANCH  15  16
ENDBRANCH  14  15
BRANCH  14  22
HETATM   22  C   UNL     1      -7.272  10.212  68.543  1.00  0.00    -0.080 C  
HETATM   23  O   UNL     1      -7.744   9.450  67.423  1.00  0.00    -0.094 OA 
HETATM   24  H   UNL     1      -7.201   8.683  67.284  1.00  0.00     0.000 HD 
BRANCH  22  25
HETATM   25  C   UNL     1      -6.989   9.299  69.752  1.00  0.00    -0.058 C  
BRANCH  25  26
HETATM   26  N   UNL     1      -8.049   8.301  70.206  1.00  0.00    -0.102 N  
BRANCH  26  27
HETATM   27  C   UNL     1      -9.429   8.955  70.266  1.00  0.00    -0.187 C  
HETATM   28  C   UNL     1     -10.554   8.267  71.068  1.00  0.00    -0.243 C  
HETATM   29  C   UNL     1     -10.267   8.138  72.562  1.00  0.00    -0.383 C  
HETATM   30  C   UNL     1     -11.853   9.081  70.915  1.00  0.00    -0.302 C  
ENDBRANCH  26  27
BRANCH  26  31
HETATM   31  S   UNL     1      -8.026   6.903  69.130  1.00  0.00    -0.121 S  
HETATM   32  O   UNL     1      -9.141   6.998  68.221  1.00  0.00    -0.128 OA 
HETATM   33  O   UNL     1      -6.662   6.784  68.649  1.00  0.00    -0.059 OA 
BRANCH  31  34
HETATM   34  C   UNL     1      -8.337   5.503  70.205  1.00  0.00    -0.116 A  
HETATM   35  C   UNL     1      -7.601   3.981  71.932  1.00  0.00    -0.066 A  
HETATM   36  C   UNL     1      -7.379   5.120  71.143  1.00  0.00    -0.074 A  
HETATM   37  C   UNL     1      -8.746   3.194  71.764  1.00  0.00    -0.077 A  
HETATM   38  N   UNL     1      -9.005   2.126  72.623  1.00  0.00    -0.069 NA 
HETATM   39  C   UNL     1      -9.731   3.640  70.880  1.00  0.00    -0.229 A  
HETATM   40  H1  UNL     1      -9.840   1.552  72.501  1.00  0.00     0.000 HD 
HETATM   41  C   UNL     1      -9.529   4.780  70.089  1.00  0.00    -0.246 A  
HETATM   42  H2  UNL     1      -8.997   2.477  73.581  1.00  0.00     0.000 HD 
ENDBRANCH  31  34
ENDBRANCH  26  31
ENDBRANCH  25  26
ENDBRANCH  22  25
ENDBRANCH  14  22
ENDBRANCH  12  14
ENDBRANCH   9  10
ENDBRANCH   8   9
TORSDOF 11
ENDMDL
MODEL      296
REMARK 921   NORMALIZED FREE ENERGY PREDICTED BY IDOCK:   -3.84 KCAL/MOL
REMARK 922        TOTAL FREE ENERGY PREDICTED BY IDOCK:   -8.94 KCAL/MOL
REMARK 923 INTER-LIGAND FREE ENERGY PREDICTED BY IDOCK:   -9.38 KCAL/MOL
REMARK 924 INTRA-LIGAND FREE ENERGY PREDICTED BY IDOCK:    0.44 KCAL/MOL
REMARK 927      BINDING AFFINITY PREDICTED BY RF-SCORE:    0.00 PKD
ROOT
HETATM    1  C   UNL     1     -10.449   6.957  70.931  1.00  0.00    -0.233 C  
HETATM    2  C   UNL     1     -11.855   6.871  70.366  1.00  0.00    -0.351 C  
HETATM    3  C   UNL     1     -12.765   7.067  71.563  1.00  0.00    -0.381 C  
HETATM    4  O   UNL     1     -11.951   7.350  72.700  1.00  0.00    -0.188 OA 
HETATM    5  C   UNL     1     -10.647   7.679  72.241  1.00  0.00    -0.246 C  
HETATM    6  O   UNL     1     -10.529   9.070  71.948  1.00  0.00    -0.343 OA 
HETATM    7  C   UNL     1      -9.616   9.200  70.853  1.00  0.00    -0.279 C  
HETATM    8  C   UNL     1      -9.457   7.833  70.188  1.00  0.00    -0.160 C  
ENDROOT
BRANCH   8   9
HETATM    9  O   UNL     1      -9.784   7.959  68.795  1.00  0.00    -0.154 OA 
BRANCH   9  10
HETATM   10  C   UNL     1      -8.794   8.404  67.983  1.00  0.00    -0.142 C  
HETATM   11  O   UNL     1      -7.741   7.824  67.780  1.00  0.00    -0.116 OA 
HETATM   12  N   UNL     1      -9.139   9.640  67.519  1.00  0.00    -0.130 N  
HETATM   13  H   UNL     1     -10.091   9.969  67.681  1.00  0.00     0.000 HD 
BRANCH  12  14
HETATM   14  C   UNL     1      -8.211  10.523  66.795  1.00  0.00    -0.126 C  
BRANCH  14  15
HETATM   15  C   UNL     1      -8.657  10.735  65.312  1.00  0.00    -0.153 C  
BRANCH  15  16
HETATM   16  C   UNL     1      -9.987  11.440  65.101  1.00  0.00    -0.310 A  
HETATM   17  C   UNL     1     -10.314  11.985  63.852  1.00  0.00    -0.433 A  
HETATM   18  C   UNL     1     -10.899  11.595  66.157  1.00  0.00    -0.343 A  
HETATM   19  C   UNL     1     -11.518  12.670  63.667  1.00  0.00    -0.563 A  
HETATM   20  C   UNL     1     -12.416  12.810  64.723  1.00  0.00    -0.539 A  
HETATM   21  C   UNL     1     -12.110  12.265  65.967  1.00  0.00    -0.229 A  
ENDBRANCH  15  16
ENDBRANCH  14  15
BRANCH  14  22
HETATM   22  C   UNL     1      -7.978  11.898  67.491  1.00  0.00    -0.155 C  
HETATM   23  O   UNL     1      -8.685  11.965  68.737  1.00  0.00    -0.339 OA 
HETATM   24  H   UNL     1      -8.542  12.803  69.161  1.00  0.00     0.000 HD 
BRANCH  22  25
HETATM   25  C   UNL     1      -8.205  13.177  66.659  1.00  0.00     0.296 C  
BRANCH  25  26
HETATM   26  N   UNL     1      -8.558  14.482  67.366  1.00  0.00    -0.188 N  
BRANCH  26  27
HETATM   27  C   UNL     1      -9.589  14.246  68.470  1.00  0.00    -0.220 C  
HETATM   28  C   UNL     1     -10.725  15.272  68.670  1.00  0.00    -0.245 C  
HETATM   29  C   UNL     1     -11.661  15.409  67.470  1.00  0.00    -0.176 C  
HETATM   30  C   UNL     1     -11.581  14.848  69.878  1.00  0.00    -0.328 C  
ENDBRANCH  26  27
BRANCH  26  31
HETATM   31  S   UNL     1      -7.083  15.221  67.986  1.00  0.00    -0.143 S  
HETATM   32  O   UNL     1      -7.178  15.318  69.421  1.00  0.00    -0.169 OA 
HETATM   33  O   UNL     1      -5.980  14.529  67.344  1.00  0.00    -0.344 OA 
BRANCH  31  34
HETATM   34  C   UNL     1      -7.111  16.892  67.340  1.00  0.00    -0.158 A  
HETATM   35  C   UNL     1      -8.150  19.071  67.205  1.00  0.00    -0.281 A  
HETATM   36  C   UNL     1      -8.092  17.787  67.768  1.00  0.00    -0.226 A  
HETATM   37  C   UNL     1      -7.268  19.458  66.190  1.00  0.00    -0.267 A  
HETATM   38  N   UNL     1      -7.267  20.769  65.713  1.00  0.00    -0.505 NA 
HETATM   39  C   UNL     1      -6.241  18.580  65.835  1.00  0.00    -0.260 A  
HETATM   40  H1  UNL     1      -6.624  21.051  64.972  1.00  0.00     0.000 HD 
HETATM   41  C   UNL     1      -6.165  17.296  66.392  1.00  0.00    -0.246 A  
HETATM   42  H2  UNL     1      -7.136  21.398  66.505  1.00  0.00     0.000 HD 
ENDBRANCH  31  34
ENDBRANCH  26  31
ENDBRANCH  25  26
ENDBRANCH  22  25
ENDBRANCH  14  22
ENDBRANCH  12  14
ENDBRANCH   9  10
ENDBRANCH   8   9
TORSDOF 11
ENDMDL
MODEL      297
REMARK 921   NORMALIZED FREE ENERGY PREDICTED BY IDOCK:   -3.82 KCAL/MOL
REMARK 922        TOTAL FREE ENERGY PREDICTED BY IDOCK:   -8.90 KCAL/MOL
REMARK 923 INTER-LIGAND FREE ENERGY PREDICTED BY IDOCK:   -7.69 KCAL/MOL
REMARK 924 INTRA-LIGAND FREE ENERGY PREDICTED BY IDOCK:   -1.21 KCAL/MOL
REMARK 927      BINDING AFFINITY PREDICTED BY RF-SCORE:    0.00 PKD
ROOT
HETATM    1  C   UNL     1     -10.978  13.524  63.931  1.00  0.00    -0.019 C  
HETATM    2  C   UNL     1     -10.201  14.069  65.115  1.00  0.00    -0.396 C  
HETATM    3  C   UNL     1     -11.251  14.704  66.006  1.00  0.00    -0.342 C  
HETATM    4  O   UNL     1     -12.533  14.449  65.435  1.00  0.00    -0.407 OA 
HETATM    5  C   UNL     1     -12.388  13.428  64.458  1.00  0.00    -0.360 C  
HETATM    6  O   UNL     1     -12.508  12.128  65.035  1.00  0.00    -0.490 OA 
HETATM    7  C   UNL     1     -11.645  11.254  64.300  1.00  0.00     0.167 C  
HETATM    8  C   UNL     1     -10.665  12.105  63.493  1.00  0.00    -0.457 C  
ENDROOT
BRANCH   8   9
HETATM    9  O   UNL     1      -9.325  11.715  63.839  1.00  0.00    -0.102 OA 
BRANCH   9  10
HETATM   10  C   UNL     1      -9.206  10.647  64.666  1.00  0.00    -0.227 C  
HETATM   11  O   UNL     1      -9.160   9.483  64.305  1.00  0.00    -0.233 OA 
HETATM   12  N   UNL     1      -9.241  11.093  65.955  1.00  0.00    -0.202 N  
HETATM   13  H   UNL     1      -9.178  12.098  66.120  1.00  0.00     0.000 HD 
BRANCH  12  14
HETATM   14  C   UNL     1      -9.363  10.202  67.118  1.00  0.00    -0.153 C  
BRANCH  14  15
HETATM   15  C   UNL     1      -9.149  10.974  68.461  1.00  0.00    -0.173 C  
BRANCH  15  16
HETATM   16  C   UNL     1      -7.824  10.743  69.169  1.00  0.00    -0.142 A  
HETATM   17  C   UNL     1      -6.664  11.404  68.743  1.00  0.00    -0.073 A  
HETATM   18  C   UNL     1      -7.724   9.836  70.236  1.00  0.00    -0.187 A  
HETATM   19  C   UNL     1      -5.437  11.161  69.365  1.00  0.00    -0.041 A  
HETATM   20  C   UNL     1      -5.354  10.263  70.428  1.00  0.00    -0.053 A  
HETATM   21  C   UNL     1      -6.499   9.606  70.869  1.00  0.00    -0.083 A  
ENDBRANCH  15  16
ENDBRANCH  14  15
BRANCH  14  22
HETATM   22  C   UNL     1     -10.701   9.402  67.163  1.00  0.00    -0.163 C  
HETATM   23  O   UNL     1     -11.689  10.106  67.928  1.00  0.00    -0.646 OA 
HETATM   24  H   UNL     1     -12.504   9.619  67.955  1.00  0.00     0.000 HD 
BRANCH  22  25
HETATM   25  C   UNL     1     -10.642   7.917  67.571  1.00  0.00    -0.242 C  
BRANCH  25  26
HETATM   26  N   UNL     1      -9.882   7.512  68.831  1.00  0.00    -0.156 N  
BRANCH  26  27
HETATM   27  C   UNL     1     -10.794   6.772  69.808  1.00  0.00    -0.272 C  
HETATM   28  C   UNL     1     -11.097   7.405  71.183  1.00  0.00    -0.271 C  
HETATM   29  C   UNL     1     -11.834   8.740  71.107  1.00  0.00    -0.345 C  
HETATM   30  C   UNL     1     -11.974   6.438  72.002  1.00  0.00    -0.375 C  
ENDBRANCH  26  27
BRANCH  26  31
HETATM   31  S   UNL     1      -8.478   6.547  68.375  1.00  0.00    -0.120 S  
HETATM   32  O   UNL     1      -7.358   7.429  68.158  1.00  0.00    -0.094 OA 
HETATM   33  O   UNL     1      -8.410   5.454  69.328  1.00  0.00    -0.095 OA 
BRANCH  31  34
HETATM   34  C   UNL     1      -8.913   5.843  66.786  1.00  0.00    -0.120 A  
HETATM   35  C   UNL     1     -10.211   4.290  65.464  1.00  0.00    -0.224 A  
HETATM   36  C   UNL     1      -9.925   4.888  66.701  1.00  0.00    -0.254 A  
HETATM   37  C   UNL     1      -9.469   4.603  64.319  1.00  0.00     0.020 A  
HETATM   38  N   UNL     1      -9.830   4.082  63.076  1.00  0.00    -0.161 NA 
HETATM   39  C   UNL     1      -8.518   5.622  64.406  1.00  0.00    -0.052 A  
HETATM   40  H1  UNL     1      -9.289   4.310  62.242  1.00  0.00     0.000 HD 
HETATM   41  C   UNL     1      -8.224   6.234  65.632  1.00  0.00    -0.143 A  
HETATM   42  H2  UNL     1     -10.806   4.323  62.899  1.00  0.00     0.000 HD 
ENDBRANCH  31  34
ENDBRANCH  26  31
ENDBRANCH  25  26
ENDBRANCH  22  25
ENDBRANCH  14  22
ENDBRANCH  12  14
ENDBRANCH   9  10
ENDBRANCH   8   9
TORSDOF 11
ENDMDL
MODEL      298
REMARK 921   NORMALIZED FREE ENERGY PREDICTED BY IDOCK:   -3.81 KCAL/MOL
REMARK 922        TOTAL FREE ENERGY PREDICTED BY IDOCK:   -8.89 KCAL/MOL
REMARK 923 INTER-LIGAND FREE ENERGY PREDICTED BY IDOCK:   -8.60 KCAL/MOL
REMARK 924 INTRA-LIGAND FREE ENERGY PREDICTED BY IDOCK:   -0.29 KCAL/MOL
REMARK 927      BINDING AFFINITY PREDICTED BY RF-SCORE:    0.00 PKD
ROOT
HETATM    1  C   UNL     1      -8.430  17.901  66.735  1.00  0.00    -0.268 C  
HETATM    2  C   UNL     1      -7.530  18.728  67.634  1.00  0.00    -0.244 C  
HETATM    3  C   UNL     1      -7.824  20.167  67.255  1.00  0.00    -0.313 C  
HETATM    4  O   UNL     1      -8.882  20.168  66.298  1.00  0.00    -0.309 OA 
HETATM    5  C   UNL     1      -9.491  18.885  66.308  1.00  0.00    -0.297 C  
HETATM    6  O   UNL     1     -10.525  18.802  67.288  1.00  0.00    -0.388 OA 
HETATM    7  C   UNL     1     -10.537  17.460  67.784  1.00  0.00    -0.371 C  
HETATM    8  C   UNL     1      -9.223  16.785  67.390  1.00  0.00    -0.218 C  
ENDROOT
BRANCH   8   9
HETATM    9  O   UNL     1      -8.585  16.293  68.580  1.00  0.00    -0.199 OA 
BRANCH   9  10
HETATM   10  C   UNL     1      -8.683  14.960  68.808  1.00  0.00    -0.182 C  
HETATM   11  O   UNL     1      -7.753  14.229  69.099  1.00  0.00    -0.103 OA 
HETATM   12  N   UNL     1      -9.969  14.575  68.563  1.00  0.00    -0.233 N  
HETATM   13  H   UNL     1     -10.674  15.300  68.426  1.00  0.00     0.000 HD 
BRANCH  12  14
HETATM   14  C   UNL     1     -10.394  13.168  68.488  1.00  0.00    -0.238 C  
BRANCH  14  15
HETATM   15  C   UNL     1     -11.818  13.029  67.859  1.00  0.00    -0.389 C  
BRANCH  15  16
HETATM   16  C   UNL     1     -11.923  13.282  66.364  1.00  0.00    -0.465 A  
HETATM   17  C   UNL     1     -12.157  12.223  65.478  1.00  0.00    -0.326 A  
HETATM   18  C   UNL     1     -11.751  14.571  65.835  1.00  0.00    -0.345 A  
HETATM   19  C   UNL     1     -12.212  12.446  64.099  1.00  0.00    -0.558 A  
HETATM   20  C   UNL     1     -12.047  13.733  63.589  1.00  0.00    -0.330 A  
HETATM   21  C   UNL     1     -11.823  14.797  64.458  1.00  0.00    -0.428 A  
ENDBRANCH  15  16
ENDBRANCH  14  15
BRANCH  14  22
HETATM   22  C   UNL     1      -9.383  12.243  67.745  1.00  0.00    -0.194 C  
HETATM   23  O   UNL     1      -8.897  12.875  66.552  1.00  0.00    -0.397 OA 
HETATM   24  H   UNL     1      -8.281  12.311  66.099  1.00  0.00     0.000 HD 
BRANCH  22  25
HETATM   25  C   UNL     1      -9.807  10.787  67.464  1.00  0.00    -0.172 C  
BRANCH  25  26
HETATM   26  N   UNL     1      -8.761   9.678  67.507  1.00  0.00    -0.126 N  
BRANCH  26  27
HETATM   27  C   UNL     1      -7.626   9.954  66.521  1.00  0.00    -0.103 C  
HETATM   28  C   UNL     1      -7.699   9.353  65.101  1.00  0.00    -0.109 C  
HETATM   29  C   UNL     1      -8.883   9.848  64.274  1.00  0.00    -0.252 C  
HETATM   30  C   UNL     1      -6.414   9.716  64.333  1.00  0.00    -0.102 C  
ENDBRANCH  26  27
BRANCH  26  31
HETATM   31  S   UNL     1      -8.173   9.501  69.160  1.00  0.00    -0.119 S  
HETATM   32  O   UNL     1      -6.892  10.153  69.270  1.00  0.00    -0.054 OA 
HETATM   33  O   UNL     1      -9.282   9.855  70.026  1.00  0.00    -0.226 OA 
BRANCH  31  34
HETATM   34  C   UNL     1      -7.888   7.742  69.351  1.00  0.00    -0.115 A  
HETATM   35  C   UNL     1      -6.370   5.881  69.629  1.00  0.00    -0.040 A  
HETATM   36  C   UNL     1      -6.593   7.265  69.551  1.00  0.00    -0.040 A  
HETATM   37  C   UNL     1      -7.418   4.968  69.466  1.00  0.00    -0.057 A  
HETATM   38  N   UNL     1      -7.202   3.601  69.649  1.00  0.00    -0.042 NA 
HETATM   39  C   UNL     1      -8.718   5.466  69.351  1.00  0.00    -0.110 A  
HETATM   40  H1  UNL     1      -7.966   2.935  69.530  1.00  0.00     0.000 HD 
HETATM   41  C   UNL     1      -8.959   6.844  69.278  1.00  0.00    -0.137 A  
HETATM   42  H2  UNL     1      -6.800   3.463  70.577  1.00  0.00     0.000 HD 
ENDBRANCH  31  34
ENDBRANCH  26  31
ENDBRANCH  25  26
ENDBRANCH  22  25
ENDBRANCH  14  22
ENDBRANCH  12  14
ENDBRANCH   9  10
ENDBRANCH   8   9
TORSDOF 11
ENDMDL
MODEL      299
REMARK 921   NORMALIZED FREE ENERGY PREDICTED BY IDOCK:   -3.77 KCAL/MOL
REMARK 922        TOTAL FREE ENERGY PREDICTED BY IDOCK:   -8.82 KCAL/MOL
REMARK 923 INTER-LIGAND FREE ENERGY PREDICTED BY IDOCK:   -6.91 KCAL/MOL
REMARK 924 INTRA-LIGAND FREE ENERGY PREDICTED BY IDOCK:   -1.91 KCAL/MOL
REMARK 927      BINDING AFFINITY PREDICTED BY RF-SCORE:    0.00 PKD
ROOT
HETATM    1  C   UNL     1     -12.378  12.172  69.313  1.00  0.00     0.058 C  
HETATM    2  C   UNL     1     -11.537  13.429  69.437  1.00  0.00    -0.365 C  
HETATM    3  C   UNL     1     -11.960  14.048  70.755  1.00  0.00    -0.291 C  
HETATM    4  O   UNL     1     -12.886  13.164  71.386  1.00  0.00    -0.365 OA 
HETATM    5  C   UNL     1     -12.811  11.905  70.734  1.00  0.00    -0.052 C  
HETATM    6  O   UNL     1     -11.799  11.076  71.306  1.00  0.00    -0.172 OA 
HETATM    7  C   UNL     1     -11.254  10.277  70.251  1.00  0.00    -0.323 C  
HETATM    8  C   UNL     1     -11.660  10.896  68.913  1.00  0.00    -0.309 C  
ENDROOT
BRANCH   8   9
HETATM    9  O   UNL     1     -10.472  11.160  68.150  1.00  0.00    -0.176 OA 
BRANCH   9  10
HETATM   10  C   UNL     1     -10.123  10.219  67.238  1.00  0.00    -0.203 C  
HETATM   11  O   UNL     1     -10.866   9.757  66.389  1.00  0.00    -0.003 OA 
HETATM   12  N   UNL     1      -8.844   9.821  67.497  1.00  0.00    -0.125 N  
HETATM   13  H   UNL     1      -8.297  10.358  68.170  1.00  0.00     0.000 HD 
BRANCH  12  14
HETATM   14  C   UNL     1      -8.211   8.657  66.856  1.00  0.00    -0.105 C  
BRANCH  14  15
HETATM   15  C   UNL     1      -6.664   8.840  66.731  1.00  0.00    -0.069 C  
BRANCH  15  16
HETATM   16  C   UNL     1      -6.127   9.113  65.335  1.00  0.00    -0.063 A  
HETATM   17  C   UNL     1      -5.589  10.365  65.012  1.00  0.00    -0.141 A  
HETATM   18  C   UNL     1      -6.192   8.134  64.331  1.00  0.00    -0.064 A  
HETATM   19  C   UNL     1      -5.133  10.634  63.719  1.00  0.00    -0.168 A  
HETATM   20  C   UNL     1      -5.199   9.650  62.734  1.00  0.00    -0.082 A  
HETATM   21  C   UNL     1      -5.721   8.397  63.042  1.00  0.00    -0.073 A  
ENDBRANCH  15  16
ENDBRANCH  14  15
BRANCH  14  22
HETATM   22  C   UNL     1      -8.541   7.299  67.548  1.00  0.00    -0.122 C  
HETATM   23  O   UNL     1      -9.763   6.751  67.036  1.00  0.00    -0.142 OA 
HETATM   24  H   UNL     1      -9.964   5.923  67.457  1.00  0.00     0.000 HD 
BRANCH  22  25
HETATM   25  C   UNL     1      -8.516   7.249  69.089  1.00  0.00    -0.133 C  
BRANCH  25  26
HETATM   26  N   UNL     1      -7.956   6.017  69.792  1.00  0.00    -0.104 N  
BRANCH  26  27
HETATM   27  C   UNL     1      -7.034   6.414  70.945  1.00  0.00    -0.068 C  
HETATM   28  C   UNL     1      -6.483   7.855  71.005  1.00  0.00    -0.037 C  
HETATM   29  C   UNL     1      -7.558   8.929  71.155  1.00  0.00    -0.143 C  
HETATM   30  C   UNL     1      -5.532   7.981  72.211  1.00  0.00    -0.036 C  
ENDBRANCH  26  27
BRANCH  26  31
HETATM   31  S   UNL     1      -9.292   5.002  70.333  1.00  0.00    -0.170 S  
HETATM   32  O   UNL     1      -9.939   4.429  69.179  1.00  0.00    -0.162 OA 
HETATM   33  O   UNL     1      -8.764   4.168  71.398  1.00  0.00    -0.101 OA 
BRANCH  31  34
HETATM   34  C   UNL     1     -10.454   6.145  71.077  1.00  0.00    -0.229 A  
HETATM   35  C   UNL     1     -11.128   7.538  72.935  1.00  0.00    -0.426 A  
HETATM   36  C   UNL     1     -10.181   6.698  72.328  1.00  0.00    -0.206 A  
HETATM   37  C   UNL     1     -12.362   7.796  72.327  1.00  0.00    -0.221 A  
HETATM   38  N   UNL     1     -13.251   8.714  72.889  1.00  0.00    -0.744 NA 
HETATM   39  C   UNL     1     -12.581   7.303  71.039  1.00  0.00    -0.304 A  
HETATM   40  H1  UNL     1     -14.150   8.903  72.446  1.00  0.00     0.000 HD 
HETATM   41  C   UNL     1     -11.643   6.469  70.416  1.00  0.00    -0.470 A  
HETATM   42  H2  UNL     1     -12.762   9.601  73.007  1.00  0.00     0.000 HD 
ENDBRANCH  31  34
ENDBRANCH  26  31
ENDBRANCH  25  26
ENDBRANCH  22  25
ENDBRANCH  14  22
ENDBRANCH  12  14
ENDBRANCH   9  10
ENDBRANCH   8   9
TORSDOF 11
ENDMDL
MODEL      300
REMARK 921   NORMALIZED FREE ENERGY PREDICTED BY IDOCK:   -3.77 KCAL/MOL
REMARK 922        TOTAL FREE ENERGY PREDICTED BY IDOCK:   -8.81 KCAL/MOL
REMARK 923 INTER-LIGAND FREE ENERGY PREDICTED BY IDOCK:   -8.09 KCAL/MOL
REMARK 924 INTRA-LIGAND FREE ENERGY PREDICTED BY IDOCK:   -0.72 KCAL/MOL
REMARK 927      BINDING AFFINITY PREDICTED BY RF-SCORE:    0.00 PKD
ROOT
HETATM    1  C   UNL     1      -7.188   7.516  66.892  1.00  0.00    -0.085 C  
HETATM    2  C   UNL     1      -7.016   8.922  66.346  1.00  0.00    -0.079 C  
HETATM    3  C   UNL     1      -5.648   8.916  65.690  1.00  0.00    -0.049 C  
HETATM    4  O   UNL     1      -5.128   7.589  65.757  1.00  0.00    -0.024 OA 
HETATM    5  C   UNL     1      -6.192   6.711  66.093  1.00  0.00    -0.041 C  
HETATM    6  O   UNL     1      -6.889   6.261  64.931  1.00  0.00    -0.048 OA 
HETATM    7  C   UNL     1      -8.262   6.090  65.296  1.00  0.00    -0.138 C  
HETATM    8  C   UNL     1      -8.510   6.824  66.614  1.00  0.00    -0.120 C  
ENDROOT
BRANCH   8   9
HETATM    9  O   UNL     1      -9.582   7.761  66.423  1.00  0.00    -0.203 OA 
BRANCH   9  10
HETATM   10  C   UNL     1     -10.276   8.114  67.534  1.00  0.00    -0.243 C  
HETATM   11  O   UNL     1     -10.883   7.341  68.255  1.00  0.00    -0.157 OA 
HETATM   12  N   UNL     1     -10.252   9.474  67.643  1.00  0.00    -0.205 N  
HETATM   13  H   UNL     1      -9.623   9.997  67.033  1.00  0.00     0.000 HD 
BRANCH  12  14
HETATM   14  C   UNL     1     -11.084  10.225  68.596  1.00  0.00    -0.239 C  
BRANCH  14  15
HETATM   15  C   UNL     1     -10.808   9.788  70.071  1.00  0.00    -0.319 C  
BRANCH  15  16
HETATM   16  C   UNL     1     -11.985   9.197  70.831  1.00  0.00    -0.299 A  
HETATM   17  C   UNL     1     -12.245   7.822  70.784  1.00  0.00    -0.076 A  
HETATM   18  C   UNL     1     -12.858  10.018  71.563  1.00  0.00    -0.537 A  
HETATM   19  C   UNL     1     -13.351   7.282  71.447  1.00  0.00    -0.399 A  
HETATM   20  C   UNL     1     -14.204   8.108  72.175  1.00  0.00    -0.427 A  
HETATM   21  C   UNL     1     -13.954   9.476  72.240  1.00  0.00    -0.287 A  
ENDBRANCH  15  16
ENDBRANCH  14  15
BRANCH  14  22
HETATM   22  C   UNL     1     -10.957  11.773  68.459  1.00  0.00    -0.227 C  
HETATM   23  O   UNL     1     -12.185  12.419  68.825  1.00  0.00    -0.178 OA 
HETATM   24  H   UNL     1     -12.108  13.362  68.742  1.00  0.00     0.000 HD 
BRANCH  22  25
HETATM   25  C   UNL     1     -10.411  12.340  67.133  1.00  0.00    -0.218 C  
BRANCH  25  26
HETATM   26  N   UNL     1     -11.071  13.565  66.509  1.00  0.00    -0.297 N  
BRANCH  26  27
HETATM   27  C   UNL     1     -10.087  14.730  66.412  1.00  0.00    -0.280 C  
HETATM   28  C   UNL     1     -10.456  16.083  67.056  1.00  0.00    -0.307 C  
HETATM   29  C   UNL     1     -10.634  16.025  68.571  1.00  0.00    -0.268 C  
HETATM   30  C   UNL     1      -9.340  17.103  66.760  1.00  0.00    -0.268 C  
ENDBRANCH  26  27
BRANCH  26  31
HETATM   31  S   UNL     1     -11.735  13.126  64.935  1.00  0.00    -0.362 S  
HETATM   32  O   UNL     1     -12.968  12.406  65.135  1.00  0.00    -0.607 OA 
HETATM   33  O   UNL     1     -11.680  14.327  64.122  1.00  0.00    -0.349 OA 
BRANCH  31  34
HETATM   34  C   UNL     1     -10.550  11.967  64.255  1.00  0.00    -0.334 A  
HETATM   35  C   UNL     1      -8.796  11.445  62.674  1.00  0.00    -0.163 A  
HETATM   36  C   UNL     1      -9.673  12.377  63.251  1.00  0.00     0.426 A  
HETATM   37  C   UNL     1      -8.816  10.099  63.057  1.00  0.00    -0.229 A  
HETATM   38  N   UNL     1      -7.870   9.205  62.553  1.00  0.00    -0.117 NA 
HETATM   39  C   UNL     1      -9.640   9.725  64.121  1.00  0.00    -0.058 A  
HETATM   40  H1  UNL     1      -7.884   8.223  62.832  1.00  0.00     0.000 HD 
HETATM   41  C   UNL     1     -10.517  10.645  64.712  1.00  0.00    -0.280 A  
HETATM   42  H2  UNL     1      -6.941   9.578  62.748  1.00  0.00     0.000 HD 
ENDBRANCH  31  34
ENDBRANCH  26  31
ENDBRANCH  25  26
ENDBRANCH  22  25
ENDBRANCH  14  22
ENDBRANCH  12  14
ENDBRANCH   9  10
ENDBRANCH   8   9
TORSDOF 11
ENDMDL
MODEL      301
REMARK 921   NORMALIZED FREE ENERGY PREDICTED BY IDOCK:   -3.75 KCAL/MOL
REMARK 922        TOTAL FREE ENERGY PREDICTED BY IDOCK:   -8.78 KCAL/MOL
REMARK 923 INTER-LIGAND FREE ENERGY PREDICTED BY IDOCK:   -8.10 KCAL/MOL
REMARK 924 INTRA-LIGAND FREE ENERGY PREDICTED BY IDOCK:   -0.68 KCAL/MOL
REMARK 927      BINDING AFFINITY PREDICTED BY RF-SCORE:    0.00 PKD
ROOT
HETATM    1  C   UNL     1      -8.695   8.256  71.609  1.00  0.00    -0.213 C  
HETATM    2  C   UNL     1      -7.340   8.428  72.270  1.00  0.00    -0.126 C  
HETATM    3  C   UNL     1      -6.913   7.022  72.647  1.00  0.00    -0.069 C  
HETATM    4  O   UNL     1      -7.890   6.111  72.146  1.00  0.00    -0.100 OA 
HETATM    5  C   UNL     1      -8.701   6.802  71.207  1.00  0.00    -0.128 C  
HETATM    6  O   UNL     1      -8.142   6.752  69.895  1.00  0.00    -0.121 OA 
HETATM    7  C   UNL     1      -8.478   7.980  69.241  1.00  0.00    -0.136 C  
HETATM    8  C   UNL     1      -8.924   8.989  70.300  1.00  0.00    -0.198 C  
ENDROOT
BRANCH   8   9
HETATM    9  O   UNL     1      -8.105  10.165  70.188  1.00  0.00    -0.146 OA 
BRANCH   9  10
HETATM   10  C   UNL     1      -8.532  11.113  69.318  1.00  0.00     0.136 C  
HETATM   11  O   UNL     1      -9.682  11.245  68.935  1.00  0.00    -0.196 OA 
HETATM   12  N   UNL     1      -7.449  11.819  68.882  1.00  0.00    -0.222 N  
HETATM   13  H   UNL     1      -6.557  11.676  69.356  1.00  0.00     0.000 HD 
BRANCH  12  14
HETATM   14  C   UNL     1      -7.499  12.774  67.765  1.00  0.00    -0.135 C  
BRANCH  14  15
HETATM   15  C   UNL     1      -8.684  12.463  66.794  1.00  0.00    -0.160 C  
BRANCH  15  16
HETATM   16  C   UNL     1      -8.555  11.201  65.955  1.00  0.00    -0.154 A  
HETATM   17  C   UNL     1      -7.305  10.600  65.762  1.00  0.00    -0.110 A  
HETATM   18  C   UNL     1      -9.674  10.634  65.326  1.00  0.00    -0.315 A  
HETATM   19  C   UNL     1      -7.177   9.464  64.957  1.00  0.00    -0.105 A  
HETATM   20  C   UNL     1      -8.298   8.908  64.344  1.00  0.00    -0.176 A  
HETATM   21  C   UNL     1      -9.549   9.489  64.535  1.00  0.00     0.039 A  
ENDBRANCH  15  16
ENDBRANCH  14  15
BRANCH  14  22
HETATM   22  C   UNL     1      -7.548  14.267  68.214  1.00  0.00    -0.130 C  
HETATM   23  O   UNL     1      -6.223  14.805  68.336  1.00  0.00    -0.091 OA 
HETATM   24  H   UNL     1      -6.253  15.714  68.609  1.00  0.00     0.000 HD 
BRANCH  22  25
HETATM   25  C   UNL     1      -8.404  14.624  69.446  1.00  0.00     0.086 C  
BRANCH  25  26
HETATM   26  N   UNL     1      -9.875  14.983  69.261  1.00  0.00    -0.215 N  
BRANCH  26  27
HETATM   27  C   UNL     1     -10.527  15.330  70.599  1.00  0.00     0.012 C  
HETATM   28  C   UNL     1     -12.067  15.379  70.695  1.00  0.00    -0.412 C  
HETATM   29  C   UNL     1     -12.752  14.043  70.415  1.00  0.00    -0.316 C  
HETATM   30  C   UNL     1     -12.469  15.816  72.117  1.00  0.00    -0.533 C  
ENDBRANCH  26  27
BRANCH  26  31
HETATM   31  S   UNL     1     -10.006  16.303  68.099  1.00  0.00    -0.245 S  
HETATM   32  O   UNL     1     -10.894  17.306  68.633  1.00  0.00    -0.307 OA 
HETATM   33  O   UNL     1      -8.650  16.627  67.696  1.00  0.00    -0.196 OA 
BRANCH  31  34
HETATM   34  C   UNL     1     -10.824  15.574  66.681  1.00  0.00    -0.285 A  
HETATM   35  C   UNL     1     -12.265  13.881  65.732  1.00  0.00    -0.488 A  
HETATM   36  C   UNL     1     -11.684  14.490  66.855  1.00  0.00    -0.399 A  
HETATM   37  C   UNL     1     -11.963  14.313  64.435  1.00  0.00    -0.456 A  
HETATM   38  N   UNL     1     -12.626  13.770  63.334  1.00  0.00    -0.989 NA 
HETATM   39  C   UNL     1     -11.168  15.452  64.286  1.00  0.00    -0.070 A  
HETATM   40  H1  UNL     1     -12.406  14.085  62.389  1.00  0.00     0.000 HD 
HETATM   41  C   UNL     1     -10.585  16.076  65.397  1.00  0.00    -0.428 A  
HETATM   42  H2  UNL     1     -13.630  13.877  63.480  1.00  0.00     0.000 HD 
ENDBRANCH  31  34
ENDBRANCH  26  31
ENDBRANCH  25  26
ENDBRANCH  22  25
ENDBRANCH  14  22
ENDBRANCH  12  14
ENDBRANCH   9  10
ENDBRANCH   8   9
TORSDOF 11
ENDMDL
MODEL      302
REMARK 921   NORMALIZED FREE ENERGY PREDICTED BY IDOCK:   -3.72 KCAL/MOL
REMARK 922        TOTAL FREE ENERGY PREDICTED BY IDOCK:   -8.73 KCAL/MOL
REMARK 923 INTER-LIGAND FREE ENERGY PREDICTED BY IDOCK:   -7.09 KCAL/MOL
REMARK 924 INTRA-LIGAND FREE ENERGY PREDICTED BY IDOCK:   -1.63 KCAL/MOL
REMARK 927      BINDING AFFINITY PREDICTED BY RF-SCORE:    0.00 PKD
ROOT
HETATM    1  C   UNL     1      -8.528  16.973  68.020  1.00  0.00    -0.216 C  
HETATM    2  C   UNL     1      -9.576  16.481  67.039  1.00  0.00    -0.249 C  
HETATM    3  C   UNL     1     -10.316  17.732  66.605  1.00  0.00    -0.345 C  
HETATM    4  O   UNL     1      -9.675  18.858  67.202  1.00  0.00    -0.291 OA 
HETATM    5  C   UNL     1      -8.408  18.440  67.690  1.00  0.00    -0.251 C  
HETATM    6  O   UNL     1      -7.400  18.539  66.685  1.00  0.00    -0.208 OA 
HETATM    7  C   UNL     1      -6.467  17.477  66.909  1.00  0.00    -0.180 C  
HETATM    8  C   UNL     1      -7.114  16.451  67.840  1.00  0.00    -0.135 C  
ENDROOT
BRANCH   8   9
HETATM    9  O   UNL     1      -7.089  15.167  67.196  1.00  0.00    -0.190 OA 
BRANCH   9  10
HETATM   10  C   UNL     1      -7.487  14.111  67.947  1.00  0.00    -0.152 C  
HETATM   11  O   UNL     1      -7.054  13.835  69.053  1.00  0.00    -0.110 OA 
HETATM   12  N   UNL     1      -8.374  13.373  67.219  1.00  0.00    -0.236 N  
HETATM   13  H   UNL     1      -8.731  13.767  66.348  1.00  0.00     0.000 HD 
BRANCH  12  14
HETATM   14  C   UNL     1      -8.844  12.038  67.623  1.00  0.00    -0.172 C  
BRANCH  14  15
HETATM   15  C   UNL     1     -10.401  11.927  67.544  1.00  0.00    -0.219 C  
BRANCH  15  16
HETATM   16  C   UNL     1     -11.077  12.700  66.423  1.00  0.00    -0.325 A  
HETATM   17  C   UNL     1     -10.649  12.551  65.097  1.00  0.00    -0.322 A  
HETATM   18  C   UNL     1     -12.114  13.606  66.693  1.00  0.00    -0.459 A  
HETATM   19  C   UNL     1     -11.240  13.292  64.070  1.00  0.00    -0.374 A  
HETATM   20  C   UNL     1     -12.274  14.183  64.352  1.00  0.00    -0.466 A  
HETATM   21  C   UNL     1     -12.717  14.334  65.663  1.00  0.00    -0.395 A  
ENDBRANCH  15  16
ENDBRANCH  14  15
BRANCH  14  22
HETATM   22  C   UNL     1      -8.178  10.870  66.834  1.00  0.00    -0.135 C  
HETATM   23  O   UNL     1      -7.456  11.368  65.699  1.00  0.00    -0.336 OA 
HETATM   24  H   UNL     1      -7.050  10.656  65.219  1.00  0.00     0.000 HD 
BRANCH  22  25
HETATM   25  C   UNL     1      -9.061   9.668  66.440  1.00  0.00    -0.156 C  
BRANCH  25  26
HETATM   26  N   UNL     1      -8.628   8.258  66.827  1.00  0.00    -0.124 N  
BRANCH  26  27
HETATM   27  C   UNL     1      -7.184   7.991  66.404  1.00  0.00    -0.079 C  
HETATM   28  C   UNL     1      -6.868   6.745  65.550  1.00  0.00    -0.052 C  
HETATM   29  C   UNL     1      -7.541   6.740  64.180  1.00  0.00    -0.105 C  
HETATM   30  C   UNL     1      -5.347   6.665  65.319  1.00  0.00    -0.025 C  
ENDBRANCH  26  27
BRANCH  26  31
HETATM   31  S   UNL     1      -8.861   8.037  68.561  1.00  0.00    -0.133 S  
HETATM   32  O   UNL     1      -7.688   8.513  69.252  1.00  0.00    -0.089 OA 
HETATM   33  O   UNL     1     -10.183   8.555  68.863  1.00  0.00    -0.199 OA 
BRANCH  31  34
HETATM   34  C   UNL     1      -8.921   6.260  68.785  1.00  0.00    -0.125 A  
HETATM   35  C   UNL     1     -10.174   4.193  68.826  1.00  0.00     0.388 A  
HETATM   36  C   UNL     1     -10.118   5.573  68.581  1.00  0.00    -0.246 A  
HETATM   37  C   UNL     1      -9.062   3.497  69.314  1.00  0.00    -0.135 A  
HETATM   38  N   UNL     1      -9.098   2.109  69.454  1.00  0.00    -0.104 NA 
HETATM   39  C   UNL     1      -7.851   4.184  69.430  1.00  0.00    -0.056 A  
HETATM   40  H1  UNL     1      -8.287   1.603  69.809  1.00  0.00     0.000 HD 
HETATM   41  C   UNL     1      -7.776   5.562  69.183  1.00  0.00    -0.087 A  
HETATM   42  H2  UNL     1      -9.358   1.704  68.554  1.00  0.00     0.000 HD 
ENDBRANCH  31  34
ENDBRANCH  26  31
ENDBRANCH  25  26
ENDBRANCH  22  25
ENDBRANCH  14  22
ENDBRANCH  12  14
ENDBRANCH   9  10
ENDBRANCH   8   9
TORSDOF 11
ENDMDL
MODEL      303
REMARK 921   NORMALIZED FREE ENERGY PREDICTED BY IDOCK:   -3.71 KCAL/MOL
REMARK 922        TOTAL FREE ENERGY PREDICTED BY IDOCK:   -8.72 KCAL/MOL
REMARK 923 INTER-LIGAND FREE ENERGY PREDICTED BY IDOCK:   -8.18 KCAL/MOL
REMARK 924 INTRA-LIGAND FREE ENERGY PREDICTED BY IDOCK:   -0.54 KCAL/MOL
REMARK 927      BINDING AFFINITY PREDICTED BY RF-SCORE:    0.00 PKD
ROOT
HETATM    1  C   UNL     1     -11.087  14.038  64.729  1.00  0.00    -0.391 C  
HETATM    2  C   UNL     1     -10.023  14.148  65.806  1.00  0.00    -0.331 C  
HETATM    3  C   UNL     1     -10.788  14.484  67.071  1.00  0.00    -0.297 C  
HETATM    4  O   UNL     1     -12.182  14.459  66.769  1.00  0.00    -0.420 OA 
HETATM    5  C   UNL     1     -12.353  13.809  65.518  1.00  0.00    -0.475 C  
HETATM    6  O   UNL     1     -12.474  12.396  65.672  1.00  0.00    -0.640 OA 
HETATM    7  C   UNL     1     -11.881  11.788  64.520  1.00  0.00    -0.152 C  
HETATM    8  C   UNL     1     -11.018  12.832  63.810  1.00  0.00    -0.402 C  
ENDROOT
BRANCH   8   9
HETATM    9  O   UNL     1      -9.681  12.318  63.691  1.00  0.00    -0.251 OA 
BRANCH   9  10
HETATM   10  C   UNL     1      -9.534  10.981  63.862  1.00  0.00    -0.251 C  
HETATM   11  O   UNL     1      -9.667  10.144  62.985  1.00  0.00    -0.258 OA 
HETATM   12  N   UNL     1      -9.309  10.737  65.185  1.00  0.00    -0.205 N  
HETATM   13  H   UNL     1      -9.118  11.531  65.797  1.00  0.00     0.000 HD 
BRANCH  12  14
HETATM   14  C   UNL     1      -9.325   9.390  65.776  1.00  0.00    -0.239 C  
BRANCH  14  15
HETATM   15  C   UNL     1      -7.982   9.066  66.507  1.00  0.00    -0.103 C  
BRANCH  15  16
HETATM   16  C   UNL     1      -7.197  10.255  67.037  1.00  0.00    -0.091 A  
HETATM   17  C   UNL     1      -7.590  10.898  68.218  1.00  0.00    -0.100 A  
HETATM   18  C   UNL     1      -6.089  10.758  66.338  1.00  0.00    -0.118 A  
HETATM   19  C   UNL     1      -6.896  12.018  68.684  1.00  0.00    -0.091 A  
HETATM   20  C   UNL     1      -5.793  12.502  67.983  1.00  0.00    -0.082 A  
HETATM   21  C   UNL     1      -5.384  11.867  66.813  1.00  0.00    -0.051 A  
ENDBRANCH  15  16
ENDBRANCH  14  15
BRANCH  14  22
HETATM   22  C   UNL     1     -10.534   9.133  66.727  1.00  0.00    -0.196 C  
HETATM   23  O   UNL     1     -10.837  10.307  67.494  1.00  0.00    -0.276 OA 
HETATM   24  H   UNL     1     -11.573  10.151  68.073  1.00  0.00     0.000 HD 
BRANCH  22  25
HETATM   25  C   UNL     1     -10.491   7.882  67.628  1.00  0.00    -0.234 C  
BRANCH  25  26
HETATM   26  N   UNL     1      -9.296   7.659  68.549  1.00  0.00    -0.147 N  
BRANCH  26  27
HETATM   27  C   UNL     1      -9.639   8.032  69.992  1.00  0.00    -0.171 C  
HETATM   28  C   UNL     1     -11.114   8.268  70.378  1.00  0.00    -0.238 C  
HETATM   29  C   UNL     1     -12.007   7.040  70.212  1.00  0.00    -0.197 C  
HETATM   30  C   UNL     1     -11.186   8.696  71.856  1.00  0.00    -0.413 C  
ENDBRANCH  26  27
BRANCH  26  31
HETATM   31  S   UNL     1      -8.761   5.985  68.408  1.00  0.00    -0.112 S  
HETATM   32  O   UNL     1      -9.770   5.233  67.704  1.00  0.00    -0.130 OA 
HETATM   33  O   UNL     1      -7.388   6.035  67.941  1.00  0.00    -0.080 OA 
BRANCH  31  34
HETATM   34  C   UNL     1      -8.729   5.378  70.093  1.00  0.00    -0.126 A  
HETATM   35  C   UNL     1      -7.669   5.268  72.263  1.00  0.00    -0.101 A  
HETATM   36  C   UNL     1      -7.727   5.801  70.966  1.00  0.00    -0.101 A  
HETATM   37  C   UNL     1      -8.571   4.284  72.684  1.00  0.00    -0.105 A  
HETATM   38  N   UNL     1      -8.569   3.838  74.006  1.00  0.00    -0.089 NA 
HETATM   39  C   UNL     1      -9.617   3.936  71.826  1.00  0.00    -0.227 A  
HETATM   40  H1  UNL     1      -9.226   3.121  74.312  1.00  0.00     0.000 HD 
HETATM   41  C   UNL     1      -9.694   4.464  70.530  1.00  0.00    -0.287 A  
HETATM   42  H2  UNL     1      -8.672   4.648  74.617  1.00  0.00     0.000 HD 
ENDBRANCH  31  34
ENDBRANCH  26  31
ENDBRANCH  25  26
ENDBRANCH  22  25
ENDBRANCH  14  22
ENDBRANCH  12  14
ENDBRANCH   9  10
ENDBRANCH   8   9
TORSDOF 11
ENDMDL
MODEL      304
REMARK 921   NORMALIZED FREE ENERGY PREDICTED BY IDOCK:   -3.71 KCAL/MOL
REMARK 922        TOTAL FREE ENERGY PREDICTED BY IDOCK:   -8.72 KCAL/MOL
REMARK 923 INTER-LIGAND FREE ENERGY PREDICTED BY IDOCK:   -9.76 KCAL/MOL
REMARK 924 INTRA-LIGAND FREE ENERGY PREDICTED BY IDOCK:    1.05 KCAL/MOL
REMARK 927      BINDING AFFINITY PREDICTED BY RF-SCORE:    0.00 PKD
ROOT
HETATM    1  C   UNL     1     -10.665  17.052  67.914  1.00  0.00    -0.348 C  
HETATM    2  C   UNL     1     -10.652  17.177  66.401  1.00  0.00    -0.172 C  
HETATM    3  C   UNL     1     -10.643  18.671  66.138  1.00  0.00    -0.363 C  
HETATM    4  O   UNL     1     -10.548  19.344  67.393  1.00  0.00    -0.437 OA 
HETATM    5  C   UNL     1     -10.158  18.396  68.376  1.00  0.00    -0.390 C  
HETATM    6  O   UNL     1      -8.738  18.277  68.457  1.00  0.00    -0.309 OA 
HETATM    7  C   UNL     1      -8.442  16.917  68.794  1.00  0.00    -0.244 C  
HETATM    8  C   UNL     1      -9.688  16.070  68.535  1.00  0.00    -0.214 C  
ENDROOT
BRANCH   8   9
HETATM    9  O   UNL     1      -9.341  15.008  67.631  1.00  0.00    -0.191 OA 
BRANCH   9  10
HETATM   10  C   UNL     1      -9.008  13.822  68.199  1.00  0.00    -0.190 C  
HETATM   11  O   UNL     1      -7.871  13.404  68.332  1.00  0.00    -0.131 OA 
HETATM   12  N   UNL     1     -10.158  13.152  68.502  1.00  0.00    -0.324 N  
HETATM   13  H   UNL     1     -11.043  13.655  68.435  1.00  0.00     0.000 HD 
BRANCH  12  14
HETATM   14  C   UNL     1     -10.188  11.742  68.922  1.00  0.00    -0.100 C  
BRANCH  14  15
HETATM   15  C   UNL     1     -11.590  11.338  69.483  1.00  0.00    -0.398 C  
BRANCH  15  16
HETATM   16  C   UNL     1     -12.269  12.347  70.394  1.00  0.00    -0.370 A  
HETATM   17  C   UNL     1     -12.027  13.719  70.242  1.00  0.00    -0.397 A  
HETATM   18  C   UNL     1     -13.120  11.929  71.429  1.00  0.00    -0.303 A  
HETATM   19  C   UNL     1     -12.617  14.647  71.105  1.00  0.00    -0.404 A  
HETATM   20  C   UNL     1     -13.465  14.217  72.124  1.00  0.00    -0.545 A  
HETATM   21  C   UNL     1     -13.724  12.858  72.281  1.00  0.00    -0.553 A  
ENDBRANCH  15  16
ENDBRANCH  14  15
BRANCH  14  22
HETATM   22  C   UNL     1      -9.742  10.743  67.811  1.00  0.00    -0.162 C  
HETATM   23  O   UNL     1     -10.737   9.730  67.609  1.00  0.00    -0.260 OA 
HETATM   24  H   UNL     1     -10.466   9.121  66.931  1.00  0.00     0.000 HD 
BRANCH  22  25
HETATM   25  C   UNL     1      -8.335  10.122  67.919  1.00  0.00    -0.117 C  
BRANCH  25  26
HETATM   26  N   UNL     1      -7.920   9.024  66.944  1.00  0.00    -0.104 N  
BRANCH  26  27
HETATM   27  C   UNL     1      -9.090   8.088  66.641  1.00  0.00    -0.163 C  
HETATM   28  C   UNL     1      -8.932   6.576  66.907  1.00  0.00    -0.128 C  
HETATM   29  C   UNL     1      -8.693   6.222  68.373  1.00  0.00    -0.116 C  
HETATM   30  C   UNL     1     -10.213   5.848  66.458  1.00  0.00    -0.217 C  
ENDBRANCH  26  27
BRANCH  26  31
HETATM   31  S   UNL     1      -7.270   9.765  65.482  1.00  0.00    -0.114 S  
HETATM   32  O   UNL     1      -6.246  10.709  65.855  1.00  0.00    -0.117 OA 
HETATM   33  O   UNL     1      -7.001   8.677  64.560  1.00  0.00    -0.079 OA 
BRANCH  31  34
HETATM   34  C   UNL     1      -8.638  10.707  64.809  1.00  0.00    -0.130 A  
HETATM   35  C   UNL     1     -10.065  12.658  64.856  1.00  0.00    -0.244 A  
HETATM   36  C   UNL     1      -8.950  11.958  65.342  1.00  0.00     0.230 A  
HETATM   37  C   UNL     1     -10.898  12.105  63.876  1.00  0.00    -0.406 A  
HETATM   38  N   UNL     1     -11.940  12.853  63.327  1.00  0.00    -0.774 NA 
HETATM   39  C   UNL     1     -10.521  10.892  63.295  1.00  0.00    -0.145 A  
HETATM   40  H1  UNL     1     -12.547  12.450  62.612  1.00  0.00     0.000 HD 
HETATM   41  C   UNL     1      -9.406  10.183  63.764  1.00  0.00    -0.336 A  
HETATM   42  H2  UNL     1     -11.552  13.723  62.962  1.00  0.00     0.000 HD 
ENDBRANCH  31  34
ENDBRANCH  26  31
ENDBRANCH  25  26
ENDBRANCH  22  25
ENDBRANCH  14  22
ENDBRANCH  12  14
ENDBRANCH   9  10
ENDBRANCH   8   9
TORSDOF 11
ENDMDL
MODEL      305
REMARK 921   NORMALIZED FREE ENERGY PREDICTED BY IDOCK:   -3.70 KCAL/MOL
REMARK 922        TOTAL FREE ENERGY PREDICTED BY IDOCK:   -8.69 KCAL/MOL
REMARK 923 INTER-LIGAND FREE ENERGY PREDICTED BY IDOCK:   -6.93 KCAL/MOL
REMARK 924 INTRA-LIGAND FREE ENERGY PREDICTED BY IDOCK:   -1.77 KCAL/MOL
REMARK 927      BINDING AFFINITY PREDICTED BY RF-SCORE:    0.00 PKD
ROOT
HETATM    1  C   UNL     1      -8.104  14.505  68.381  1.00  0.00    -0.143 C  
HETATM    2  C   UNL     1      -8.145  15.261  67.065  1.00  0.00    -0.253 C  
HETATM    3  C   UNL     1      -7.698  16.668  67.415  1.00  0.00    -0.163 C  
HETATM    4  O   UNL     1      -7.326  16.687  68.792  1.00  0.00    -0.194 OA 
HETATM    5  C   UNL     1      -7.184  15.345  69.233  1.00  0.00    -0.186 C  
HETATM    6  O   UNL     1      -5.866  14.851  68.998  1.00  0.00    -0.094 OA 
HETATM    7  C   UNL     1      -5.978  13.453  68.712  1.00  0.00    -0.084 C  
HETATM    8  C   UNL     1      -7.436  13.142  68.373  1.00  0.00    -0.124 C  
ENDROOT
BRANCH   8   9
HETATM    9  O   UNL     1      -7.484  12.522  67.078  1.00  0.00    -0.114 OA 
BRANCH   9  10
HETATM   10  C   UNL     1      -8.448  11.586  66.896  1.00  0.00    -0.165 C  
HETATM   11  O   UNL     1      -9.158  11.495  65.909  1.00  0.00    -0.209 OA 
HETATM   12  N   UNL     1      -8.543  10.838  68.033  1.00  0.00    -0.125 N  
HETATM   13  H   UNL     1      -7.822  10.949  68.746  1.00  0.00     0.000 HD 
BRANCH  12  14
HETATM   14  C   UNL     1      -9.629   9.878  68.284  1.00  0.00    -0.140 C  
BRANCH  14  15
HETATM   15  C   UNL     1     -11.013  10.594  68.407  1.00  0.00    -0.303 C  
BRANCH  15  16
HETATM   16  C   UNL     1     -11.692  10.523  69.765  1.00  0.00    -0.354 A  
HETATM   17  C   UNL     1     -11.724   9.320  70.482  1.00  0.00    -0.225 A  
HETATM   18  C   UNL     1     -12.334  11.645  70.313  1.00  0.00    -0.339 A  
HETATM   19  C   UNL     1     -12.384   9.240  71.711  1.00  0.00    -0.454 A  
HETATM   20  C   UNL     1     -13.011  10.364  72.246  1.00  0.00    -0.241 A  
HETATM   21  C   UNL     1     -12.979  11.569  71.550  1.00  0.00    -0.485 A  
ENDBRANCH  15  16
ENDBRANCH  14  15
BRANCH  14  22
HETATM   22  C   UNL     1      -9.709   8.727  67.235  1.00  0.00    -0.183 C  
HETATM   23  O   UNL     1     -10.947   8.012  67.356  1.00  0.00    -0.512 OA 
HETATM   24  H   UNL     1     -10.995   7.311  66.717  1.00  0.00     0.000 HD 
BRANCH  22  25
HETATM   25  C   UNL     1      -8.517   7.753  67.140  1.00  0.00    -0.124 C  
BRANCH  25  26
HETATM   26  N   UNL     1      -8.174   6.864  68.332  1.00  0.00    -0.120 N  
BRANCH  26  27
HETATM   27  C   UNL     1      -8.719   7.456  69.632  1.00  0.00    -0.137 C  
HETATM   28  C   UNL     1      -7.736   7.803  70.771  1.00  0.00    -0.084 C  
HETATM   29  C   UNL     1      -6.715   8.878  70.408  1.00  0.00    -0.047 C  
HETATM   30  C   UNL     1      -8.533   8.313  71.987  1.00  0.00    -0.227 C  
ENDBRANCH  26  27
BRANCH  26  31
HETATM   31  S   UNL     1      -8.789   5.238  68.037  1.00  0.00    -0.105 S  
HETATM   32  O   UNL     1     -10.194   5.322  67.726  1.00  0.00    -0.177 OA 
HETATM   33  O   UNL     1      -7.847   4.606  67.132  1.00  0.00    -0.093 OA 
BRANCH  31  34
HETATM   34  C   UNL     1      -8.646   4.409  69.619  1.00  0.00    -0.072 A  
HETATM   35  C   UNL     1      -7.289   3.357  71.321  1.00  0.00    -0.033 A  
HETATM   36  C   UNL     1      -7.388   4.068  70.115  1.00  0.00    -0.045 A  
HETATM   37  C   UNL     1      -8.432   2.944  72.015  1.00  0.00    -0.066 A  
HETATM   38  N   UNL     1      -8.321   2.330  73.263  1.00  0.00    -0.064 NA 
HETATM   39  C   UNL     1      -9.678   3.367  71.548  1.00  0.00    -0.233 A  
HETATM   40  H1  UNL     1      -9.154   2.028  73.769  1.00  0.00     0.000 HD 
HETATM   41  C   UNL     1      -9.795   4.084  70.349  1.00  0.00    -0.209 A  
HETATM   42  H2  UNL     1      -7.781   2.944  73.874  1.00  0.00     0.000 HD 
ENDBRANCH  31  34
ENDBRANCH  26  31
ENDBRANCH  25  26
ENDBRANCH  22  25
ENDBRANCH  14  22
ENDBRANCH  12  14
ENDBRANCH   9  10
ENDBRANCH   8   9
TORSDOF 11
ENDMDL
MODEL      306
REMARK 921   NORMALIZED FREE ENERGY PREDICTED BY IDOCK:   -3.68 KCAL/MOL
REMARK 922        TOTAL FREE ENERGY PREDICTED BY IDOCK:   -8.67 KCAL/MOL
REMARK 923 INTER-LIGAND FREE ENERGY PREDICTED BY IDOCK:   -7.77 KCAL/MOL
REMARK 924 INTRA-LIGAND FREE ENERGY PREDICTED BY IDOCK:   -0.90 KCAL/MOL
REMARK 927      BINDING AFFINITY PREDICTED BY RF-SCORE:    0.00 PKD
ROOT
HETATM    1  C   UNL     1      -7.449  16.872  68.688  1.00  0.00    -0.226 C  
HETATM    2  C   UNL     1      -8.638  17.747  69.038  1.00  0.00    -0.013 C  
HETATM    3  C   UNL     1      -8.509  18.954  68.128  1.00  0.00    -0.309 C  
HETATM    4  O   UNL     1      -7.402  18.737  67.254  1.00  0.00    -0.216 OA 
HETATM    5  C   UNL     1      -7.049  17.363  67.318  1.00  0.00    -0.167 C  
HETATM    6  O   UNL     1      -7.797  16.585  66.385  1.00  0.00    -0.281 OA 
HETATM    7  C   UNL     1      -8.005  15.296  66.972  1.00  0.00    -0.208 C  
HETATM    8  C   UNL     1      -7.719  15.394  68.471  1.00  0.00    -0.132 C  
ENDROOT
BRANCH   8   9
HETATM    9  O   UNL     1      -8.879  14.944  69.190  1.00  0.00    -0.193 OA 
BRANCH   9  10
HETATM   10  C   UNL     1      -9.672  14.050  68.551  1.00  0.00    -0.215 C  
HETATM   11  O   UNL     1     -10.863  14.197  68.338  1.00  0.00    -0.241 OA 
HETATM   12  N   UNL     1      -8.933  12.936  68.277  1.00  0.00    -0.244 N  
HETATM   13  H   UNL     1      -7.923  12.980  68.415  1.00  0.00     0.000 HD 
BRANCH  12  14
HETATM   14  C   UNL     1      -9.515  11.674  67.794  1.00  0.00    -0.178 C  
BRANCH  14  15
HETATM   15  C   UNL     1      -9.255  11.468  66.266  1.00  0.00    -0.222 C  
BRANCH  15  16
HETATM   16  C   UNL     1     -10.380  11.877  65.329  1.00  0.00    -0.316 A  
HETATM   17  C   UNL     1     -11.581  12.387  65.839  1.00  0.00    -0.449 A  
HETATM   18  C   UNL     1     -10.256  11.720  63.940  1.00  0.00    -0.411 A  
HETATM   19  C   UNL     1     -12.633  12.724  64.982  1.00  0.00    -0.538 A  
HETATM   20  C   UNL     1     -12.493  12.568  63.604  1.00  0.00    -0.570 A  
HETATM   21  C   UNL     1     -11.301  12.073  63.082  1.00  0.00    -0.255 A  
ENDBRANCH  15  16
ENDBRANCH  14  15
BRANCH  14  22
HETATM   22  C   UNL     1      -9.054  10.419  68.595  1.00  0.00    -0.157 C  
HETATM   23  O   UNL     1      -8.570  10.792  69.893  1.00  0.00    -0.307 OA 
HETATM   24  H   UNL     1      -8.289  10.027  70.381  1.00  0.00     0.000 HD 
BRANCH  22  25
HETATM   25  C   UNL     1      -8.083   9.439  67.905  1.00  0.00    -0.103 C  
BRANCH  25  26
HETATM   26  N   UNL     1      -8.223   7.941  68.154  1.00  0.00    -0.122 N  
BRANCH  26  27
HETATM   27  C   UNL     1      -8.383   7.645  69.645  1.00  0.00    -0.130 C  
HETATM   28  C   UNL     1      -7.716   6.385  70.239  1.00  0.00    -0.098 C  
HETATM   29  C   UNL     1      -6.192   6.381  70.140  1.00  0.00    -0.035 C  
HETATM   30  C   UNL     1      -8.083   6.276  71.731  1.00  0.00    -0.103 C  
ENDBRANCH  26  27
BRANCH  26  31
HETATM   31  S   UNL     1      -9.575   7.321  67.207  1.00  0.00    -0.162 S  
HETATM   32  O   UNL     1     -10.628   6.920  68.107  1.00  0.00    -0.193 OA 
HETATM   33  O   UNL     1      -9.807   8.288  66.150  1.00  0.00    -0.196 OA 
BRANCH  31  34
HETATM   34  C   UNL     1      -8.941   5.832  66.439  1.00  0.00    -0.137 A  
HETATM   35  C   UNL     1      -7.829   4.734  64.594  1.00  0.00    -0.088 A  
HETATM   36  C   UNL     1      -8.260   5.912  65.224  1.00  0.00    -0.141 A  
HETATM   37  C   UNL     1      -8.108   3.476  65.140  1.00  0.00    -0.093 A  
HETATM   38  N   UNL     1      -7.585   2.319  64.560  1.00  0.00    -0.063 NA 
HETATM   39  C   UNL     1      -8.715   3.420  66.396  1.00  0.00    -0.126 A  
HETATM   40  H1  UNL     1      -7.788   1.402  64.958  1.00  0.00     0.000 HD 
HETATM   41  C   UNL     1      -9.147   4.587  67.042  1.00  0.00    -0.133 A  
HETATM   42  H2  UNL     1      -6.572   2.423  64.500  1.00  0.00     0.000 HD 
ENDBRANCH  31  34
ENDBRANCH  26  31
ENDBRANCH  25  26
ENDBRANCH  22  25
ENDBRANCH  14  22
ENDBRANCH  12  14
ENDBRANCH   9  10
ENDBRANCH   8   9
TORSDOF 11
ENDMDL
MODEL      307
REMARK 921   NORMALIZED FREE ENERGY PREDICTED BY IDOCK:   -3.66 KCAL/MOL
REMARK 922        TOTAL FREE ENERGY PREDICTED BY IDOCK:   -8.63 KCAL/MOL
REMARK 923 INTER-LIGAND FREE ENERGY PREDICTED BY IDOCK:   -9.55 KCAL/MOL
REMARK 924 INTRA-LIGAND FREE ENERGY PREDICTED BY IDOCK:    0.92 KCAL/MOL
REMARK 927      BINDING AFFINITY PREDICTED BY RF-SCORE:    0.00 PKD
ROOT
HETATM    1  C   UNL     1     -11.008  12.033  64.866  1.00  0.00    -0.356 C  
HETATM    2  C   UNL     1      -9.949  12.836  64.133  1.00  0.00    -0.152 C  
HETATM    3  C   UNL     1      -9.347  11.862  63.139  1.00  0.00     0.112 C  
HETATM    4  O   UNL     1     -10.072  10.637  63.219  1.00  0.00    -0.305 OA 
HETATM    5  C   UNL     1     -11.278  10.881  63.930  1.00  0.00     0.516 C  
HETATM    6  O   UNL     1     -12.322  11.315  63.059  1.00  0.00     0.095 OA 
HETATM    7  C   UNL     1     -13.142  12.227  63.797  1.00  0.00    -0.038 C  
HETATM    8  C   UNL     1     -12.371  12.679  65.037  1.00  0.00    -0.497 C  
ENDROOT
BRANCH   8   9
HETATM    9  O   UNL     1     -12.294  14.114  65.033  1.00  0.00    -0.417 OA 
BRANCH   9  10
HETATM   10  C   UNL     1     -11.870  14.696  66.182  1.00  0.00    -0.277 C  
HETATM   11  O   UNL     1     -11.715  15.894  66.344  1.00  0.00     0.370 OA 
HETATM   12  N   UNL     1     -11.564  13.712  67.076  1.00  0.00    -0.340 N  
HETATM   13  H   UNL     1     -11.836  12.754  66.853  1.00  0.00     0.000 HD 
BRANCH  12  14
HETATM   14  C   UNL     1     -10.863  13.960  68.346  1.00  0.00    -0.254 C  
BRANCH  14  15
HETATM   15  C   UNL     1     -11.349  12.989  69.471  1.00  0.00    -0.223 C  
BRANCH  15  16
HETATM   16  C   UNL     1     -12.304  13.572  70.500  1.00  0.00    -0.412 A  
HETATM   17  C   UNL     1     -12.660  14.926  70.453  1.00  0.00    -0.394 A  
HETATM   18  C   UNL     1     -12.818  12.781  71.539  1.00  0.00    -0.369 A  
HETATM   19  C   UNL     1     -13.504  15.475  71.422  1.00  0.00    -0.583 A  
HETATM   20  C   UNL     1     -14.013  14.675  72.444  1.00  0.00    -0.578 A  
HETATM   21  C   UNL     1     -13.676  13.326  72.498  1.00  0.00    -0.613 A  
ENDBRANCH  15  16
ENDBRANCH  14  15
BRANCH  14  22
HETATM   22  C   UNL     1      -9.309  13.915  68.227  1.00  0.00    -0.209 C  
HETATM   23  O   UNL     1      -8.803  12.641  68.650  1.00  0.00    -0.365 OA 
HETATM   24  H   UNL     1      -7.856  12.613  68.577  1.00  0.00     0.000 HD 
BRANCH  22  25
HETATM   25  C   UNL     1      -8.502  15.066  68.861  1.00  0.00    -0.192 C  
BRANCH  25  26
HETATM   26  N   UNL     1      -8.018  16.217  67.984  1.00  0.00    -0.144 N  
BRANCH  26  27
HETATM   27  C   UNL     1      -8.657  17.538  68.411  1.00  0.00    -0.275 C  
HETATM   28  C   UNL     1      -9.365  18.409  67.351  1.00  0.00    -0.275 C  
HETATM   29  C   UNL     1     -10.572  17.740  66.699  1.00  0.00    -0.224 C  
HETATM   30  C   UNL     1      -9.858  19.709  68.014  1.00  0.00    -0.524 C  
ENDBRANCH  26  27
BRANCH  26  31
HETATM   31  S   UNL     1      -6.257  16.285  68.040  1.00  0.00    -0.133 S  
HETATM   32  O   UNL     1      -5.766  15.093  68.686  1.00  0.00    -0.085 OA 
HETATM   33  O   UNL     1      -5.822  16.660  66.707  1.00  0.00    -0.283 OA 
BRANCH  31  34
HETATM   34  C   UNL     1      -5.894  17.663  69.127  1.00  0.00    -0.208 A  
HETATM   35  C   UNL     1      -5.278  18.509  71.306  1.00  0.00    -0.267 A  
HETATM   36  C   UNL     1      -5.492  17.425  70.441  1.00  0.00    -0.243 A  
HETATM   37  C   UNL     1      -5.502  19.826  70.888  1.00  0.00    -0.264 A  
HETATM   38  N   UNL     1      -5.186  20.899  71.721  1.00  0.00    -0.581 NA 
HETATM   39  C   UNL     1      -5.822  20.048  69.546  1.00  0.00    -0.337 A  
HETATM   40  H1  UNL     1      -5.350  21.858  71.416  1.00  0.00     0.000 HD 
HETATM   41  C   UNL     1      -6.033  18.976  68.667  1.00  0.00    -0.232 A  
HETATM   42  H2  UNL     1      -4.207  20.814  71.994  1.00  0.00     0.000 HD 
ENDBRANCH  31  34
ENDBRANCH  26  31
ENDBRANCH  25  26
ENDBRANCH  22  25
ENDBRANCH  14  22
ENDBRANCH  12  14
ENDBRANCH   9  10
ENDBRANCH   8   9
TORSDOF 11
ENDMDL
MODEL      308
REMARK 921   NORMALIZED FREE ENERGY PREDICTED BY IDOCK:   -3.62 KCAL/MOL
REMARK 922        TOTAL FREE ENERGY PREDICTED BY IDOCK:   -8.57 KCAL/MOL
REMARK 923 INTER-LIGAND FREE ENERGY PREDICTED BY IDOCK:   -6.95 KCAL/MOL
REMARK 924 INTRA-LIGAND FREE ENERGY PREDICTED BY IDOCK:   -1.61 KCAL/MOL
REMARK 927      BINDING AFFINITY PREDICTED BY RF-SCORE:    0.00 PKD
ROOT
HETATM    1  C   UNL     1      -8.664   6.279  73.173  1.00  0.00    -0.123 C  
HETATM    2  C   UNL     1      -8.905   5.016  72.368  1.00  0.00    -0.133 C  
HETATM    3  C   UNL     1      -9.747   4.137  73.272  1.00  0.00    -0.120 C  
HETATM    4  O   UNL     1     -10.056   4.878  74.452  1.00  0.00    -0.187 OA 
HETATM    5  C   UNL     1      -9.763   6.246  74.206  1.00  0.00    -0.256 C  
HETATM    6  O   UNL     1     -10.875   6.924  73.622  1.00  0.00    -0.315 OA 
HETATM    7  C   UNL     1     -10.352   7.921  72.739  1.00  0.00    -0.333 C  
HETATM    8  C   UNL     1      -8.882   7.603  72.463  1.00  0.00    -0.137 C  
ENDROOT
BRANCH   8   9
HETATM    9  O   UNL     1      -8.695   7.493  71.043  1.00  0.00    -0.132 OA 
BRANCH   9  10
HETATM   10  C   UNL     1      -8.335   8.629  70.395  1.00  0.00    -0.130 C  
HETATM   11  O   UNL     1      -8.640   9.758  70.740  1.00  0.00    -0.183 OA 
HETATM   12  N   UNL     1      -7.665   8.284  69.258  1.00  0.00    -0.101 N  
HETATM   13  H   UNL     1      -7.387   7.309  69.138  1.00  0.00     0.000 HD 
BRANCH  12  14
HETATM   14  C   UNL     1      -7.321   9.242  68.196  1.00  0.00    -0.079 C  
BRANCH  14  15
HETATM   15  C   UNL     1      -6.049  10.075  68.562  1.00  0.00    -0.045 C  
BRANCH  15  16
HETATM   16  C   UNL     1      -6.231  11.581  68.648  1.00  0.00    -0.052 A  
HETATM   17  C   UNL     1      -6.080  12.247  69.872  1.00  0.00    -0.140 A  
HETATM   18  C   UNL     1      -6.589  12.333  67.518  1.00  0.00    -0.141 A  
HETATM   19  C   UNL     1      -6.287  13.626  69.963  1.00  0.00    -0.065 A  
HETATM   20  C   UNL     1      -6.636  14.360  68.831  1.00  0.00    -0.094 A  
HETATM   21  C   UNL     1      -6.780  13.714  67.606  1.00  0.00    -0.185 A  
ENDBRANCH  15  16
ENDBRANCH  14  15
BRANCH  14  22
HETATM   22  C   UNL     1      -7.156   8.592  66.789  1.00  0.00    -0.078 C  
HETATM   23  O   UNL     1      -6.107   9.235  66.051  1.00  0.00    -0.057 OA 
HETATM   24  H   UNL     1      -6.006   8.839  65.194  1.00  0.00     0.000 HD 
BRANCH  22  25
HETATM   25  C   UNL     1      -8.417   8.421  65.919  1.00  0.00    -0.148 C  
BRANCH  25  26
HETATM   26  N   UNL     1      -9.342   9.613  65.692  1.00  0.00    -0.217 N  
BRANCH  26  27
HETATM   27  C   UNL     1      -9.293  10.579  66.876  1.00  0.00    -0.159 C  
HETATM   28  C   UNL     1     -10.577  10.832  67.694  1.00  0.00    -0.271 C  
HETATM   29  C   UNL     1     -11.123   9.592  68.398  1.00  0.00    -0.036 C  
HETATM   30  C   UNL     1     -10.285  11.888  68.777  1.00  0.00    -0.158 C  
ENDBRANCH  26  27
BRANCH  26  31
HETATM   31  S   UNL     1      -8.907  10.402  64.176  1.00  0.00    -0.224 S  
HETATM   32  O   UNL     1      -7.550  10.880  64.273  1.00  0.00     0.235 OA 
HETATM   33  O   UNL     1      -9.321   9.501  63.116  1.00  0.00    -0.145 OA 
BRANCH  31  34
HETATM   34  C   UNL     1      -9.971  11.842  64.097  1.00  0.00    -0.272 A  
HETATM   35  C   UNL     1     -10.433  14.143  64.678  1.00  0.00    -0.366 A  
HETATM   36  C   UNL     1      -9.564  13.040  64.683  1.00  0.00     0.298 A  
HETATM   37  C   UNL     1     -11.719  14.050  64.134  1.00  0.00    -0.315 A  
HETATM   38  N   UNL     1     -12.533  15.179  64.041  1.00  0.00    -0.965 NA 
HETATM   39  C   UNL     1     -12.075  12.870  63.477  1.00  0.00    -0.633 A  
HETATM   40  H1  UNL     1     -13.470  15.112  63.644  1.00  0.00     0.000 HD 
HETATM   41  C   UNL     1     -11.218  11.761  63.468  1.00  0.00    -0.494 A  
HETATM   42  H2  UNL     1     -12.022  15.900  63.530  1.00  0.00     0.000 HD 
ENDBRANCH  31  34
ENDBRANCH  26  31
ENDBRANCH  25  26
ENDBRANCH  22  25
ENDBRANCH  14  22
ENDBRANCH  12  14
ENDBRANCH   9  10
ENDBRANCH   8   9
TORSDOF 11
ENDMDL
MODEL      309
REMARK 921   NORMALIZED FREE ENERGY PREDICTED BY IDOCK:   -3.62 KCAL/MOL
REMARK 922        TOTAL FREE ENERGY PREDICTED BY IDOCK:   -8.56 KCAL/MOL
REMARK 923 INTER-LIGAND FREE ENERGY PREDICTED BY IDOCK:   -8.53 KCAL/MOL
REMARK 924 INTRA-LIGAND FREE ENERGY PREDICTED BY IDOCK:   -0.03 KCAL/MOL
REMARK 927      BINDING AFFINITY PREDICTED BY RF-SCORE:    0.00 PKD
ROOT
HETATM    1  C   UNL     1      -8.390   8.138  72.878  1.00  0.00    -0.248 C  
HETATM    2  C   UNL     1      -6.921   8.517  72.900  1.00  0.00    -0.058 C  
HETATM    3  C   UNL     1      -6.295   7.574  73.910  1.00  0.00    -0.077 C  
HETATM    4  O   UNL     1      -7.299   6.659  74.347  1.00  0.00    -0.098 OA 
HETATM    5  C   UNL     1      -8.396   6.741  73.448  1.00  0.00    -0.117 C  
HETATM    6  O   UNL     1      -8.232   5.860  72.338  1.00  0.00    -0.110 OA 
HETATM    7  C   UNL     1      -8.836   6.487  71.202  1.00  0.00    -0.138 C  
HETATM    8  C   UNL     1      -9.040   7.969  71.516  1.00  0.00    -0.143 C  
ENDROOT
BRANCH   8   9
HETATM    9  O   UNL     1      -8.382   8.748  70.503  1.00  0.00    -0.119 OA 
BRANCH   9  10
HETATM   10  C   UNL     1      -9.033   8.864  69.319  1.00  0.00    -0.144 C  
HETATM   11  O   UNL     1     -10.241   8.787  69.173  1.00  0.00    -0.197 OA 
HETATM   12  N   UNL     1      -8.104   8.984  68.326  1.00  0.00    -0.108 N  
HETATM   13  H   UNL     1      -7.131   9.138  68.591  1.00  0.00     0.000 HD 
BRANCH  12  14
HETATM   14  C   UNL     1      -8.433   8.905  66.894  1.00  0.00    -0.112 C  
BRANCH  14  15
HETATM   15  C   UNL     1      -9.609   7.911  66.628  1.00  0.00    -0.293 C  
BRANCH  15  16
HETATM   16  C   UNL     1      -9.234   6.445  66.481  1.00  0.00    -0.174 A  
HETATM   17  C   UNL     1      -8.017   6.078  65.892  1.00  0.00    -0.111 A  
HETATM   18  C   UNL     1     -10.111   5.429  66.893  1.00  0.00    -0.240 A  
HETATM   19  C   UNL     1      -7.688   4.731  65.717  1.00  0.00    -0.090 A  
HETATM   20  C   UNL     1      -8.565   3.733  66.138  1.00  0.00    -0.113 A  
HETATM   21  C   UNL     1      -9.774   4.082  66.734  1.00  0.00    -0.216 A  
ENDBRANCH  15  16
ENDBRANCH  14  15
BRANCH  14  22
HETATM   22  C   UNL     1      -8.735  10.287  66.240  1.00  0.00    -0.146 C  
HETATM   23  O   UNL     1      -7.691  10.659  65.329  1.00  0.00    -0.273 OA 
HETATM   24  H   UNL     1      -7.875  11.501  64.930  1.00  0.00     0.000 HD 
BRANCH  22  25
HETATM   25  C   UNL     1      -9.100  11.463  67.169  1.00  0.00    -0.164 C  
BRANCH  25  26
HETATM   26  N   UNL     1     -10.549  11.935  67.251  1.00  0.00    -0.221 N  
BRANCH  26  27
HETATM   27  C   UNL     1     -10.734  12.941  68.387  1.00  0.00    -0.255 C  
HETATM   28  C   UNL     1     -11.962  12.811  69.314  1.00  0.00    -0.300 C  
HETATM   29  C   UNL     1     -12.005  11.510  70.114  1.00  0.00    -0.452 C  
HETATM   30  C   UNL     1     -11.957  13.975  70.323  1.00  0.00    -0.409 C  
ENDBRANCH  26  27
BRANCH  26  31
HETATM   31  S   UNL     1     -11.029  12.603  65.691  1.00  0.00    -0.289 S  
HETATM   32  O   UNL     1     -10.292  11.930  64.651  1.00  0.00    -0.260 OA 
HETATM   33  O   UNL     1     -12.480  12.636  65.693  1.00  0.00    -0.622 OA 
BRANCH  31  34
HETATM   34  C   UNL     1     -10.456  14.300  65.732  1.00  0.00    -0.316 A  
HETATM   35  C   UNL     1      -8.846  15.953  66.454  1.00  0.00    -0.368 A  
HETATM   36  C   UNL     1      -9.253  14.613  66.365  1.00  0.00    -0.280 A  
HETATM   37  C   UNL     1      -9.647  16.988  65.958  1.00  0.00    -0.187 A  
HETATM   38  N   UNL     1      -9.186  18.305  65.958  1.00  0.00    -0.512 NA 
HETATM   39  C   UNL     1     -10.806  16.649  65.254  1.00  0.00    -0.194 A  
HETATM   40  H1  UNL     1      -9.770  19.059  65.597  1.00  0.00     0.000 HD 
HETATM   41  C   UNL     1     -11.223  15.315  65.151  1.00  0.00    -0.374 A  
HETATM   42  H2  UNL     1      -8.292  18.330  65.467  1.00  0.00     0.000 HD 
ENDBRANCH  31  34
ENDBRANCH  26  31
ENDBRANCH  25  26
ENDBRANCH  22  25
ENDBRANCH  14  22
ENDBRANCH  12  14
ENDBRANCH   9  10
ENDBRANCH   8   9
TORSDOF 11
ENDMDL
MODEL      310
REMARK 921   NORMALIZED FREE ENERGY PREDICTED BY IDOCK:   -3.62 KCAL/MOL
REMARK 922        TOTAL FREE ENERGY PREDICTED BY IDOCK:   -8.56 KCAL/MOL
REMARK 923 INTER-LIGAND FREE ENERGY PREDICTED BY IDOCK:   -8.13 KCAL/MOL
REMARK 924 INTRA-LIGAND FREE ENERGY PREDICTED BY IDOCK:   -0.43 KCAL/MOL
REMARK 927      BINDING AFFINITY PREDICTED BY RF-SCORE:    0.00 PKD
ROOT
HETATM    1  C   UNL     1      -6.207   4.884  70.042  1.00  0.00    -0.026 C  
HETATM    2  C   UNL     1      -5.238   4.805  68.877  1.00  0.00    -0.004 C  
HETATM    3  C   UNL     1      -5.588   3.508  68.172  1.00  0.00    -0.018 C  
HETATM    4  O   UNL     1      -6.732   2.947  68.813  1.00  0.00    -0.036 OA 
HETATM    5  C   UNL     1      -7.318   3.950  69.631  1.00  0.00    -0.049 C  
HETATM    6  O   UNL     1      -8.253   4.743  68.901  1.00  0.00    -0.082 OA 
HETATM    7  C   UNL     1      -8.198   6.070  69.437  1.00  0.00    -0.115 C  
HETATM    8  C   UNL     1      -6.918   6.208  70.261  1.00  0.00    -0.065 C  
ENDROOT
BRANCH   8   9
HETATM    9  O   UNL     1      -6.161   7.319  69.752  1.00  0.00    -0.030 OA 
BRANCH   9  10
HETATM   10  C   UNL     1      -6.545   7.803  68.545  1.00  0.00    -0.057 C  
HETATM   11  O   UNL     1      -5.882   7.744  67.524  1.00  0.00    -0.035 OA 
HETATM   12  N   UNL     1      -7.742   8.441  68.697  1.00  0.00    -0.105 N  
HETATM   13  H   UNL     1      -8.240   8.331  69.581  1.00  0.00     0.000 HD 
BRANCH  12  14
HETATM   14  C   UNL     1      -8.352   9.280  67.654  1.00  0.00    -0.116 C  
BRANCH  14  15
HETATM   15  C   UNL     1      -9.748   8.729  67.215  1.00  0.00    -0.238 C  
BRANCH  15  16
HETATM   16  C   UNL     1      -9.770   7.316  66.655  1.00  0.00    -0.249 A  
HETATM   17  C   UNL     1     -10.806   6.434  66.989  1.00  0.00    -0.464 A  
HETATM   18  C   UNL     1      -8.737   6.850  65.826  1.00  0.00    -0.120 A  
HETATM   19  C   UNL     1     -10.807   5.121  66.510  1.00  0.00    -0.146 A  
HETATM   20  C   UNL     1      -9.778   4.675  65.682  1.00  0.00    -0.202 A  
HETATM   21  C   UNL     1      -8.747   5.543  65.333  1.00  0.00    -0.148 A  
ENDBRANCH  15  16
ENDBRANCH  14  15
BRANCH  14  22
HETATM   22  C   UNL     1      -8.464  10.786  68.040  1.00  0.00    -0.124 C  
HETATM   23  O   UNL     1      -7.163  11.384  68.141  1.00  0.00    -0.075 OA 
HETATM   24  H   UNL     1      -7.231  12.302  68.376  1.00  0.00     0.000 HD 
BRANCH  22  25
HETATM   25  C   UNL     1      -9.336  11.157  69.256  1.00  0.00     0.146 C  
BRANCH  25  26
HETATM   26  N   UNL     1     -10.711  11.780  69.033  1.00  0.00    -0.200 N  
BRANCH  26  27
HETATM   27  C   UNL     1     -11.621  11.546  70.239  1.00  0.00    -0.214 C  
HETATM   28  C   UNL     1     -12.085  10.110  70.565  1.00  0.00    -0.380 C  
HETATM   29  C   UNL     1     -10.949   9.151  70.912  1.00  0.00    -0.349 C  
HETATM   30  C   UNL     1     -13.042  10.151  71.771  1.00  0.00    -0.568 C  
ENDBRANCH  26  27
BRANCH  26  31
HETATM   31  S   UNL     1     -10.518  13.495  68.673  1.00  0.00    -0.199 S  
HETATM   32  O   UNL     1     -11.398  14.252  69.528  1.00  0.00    -0.257 OA 
HETATM   33  O   UNL     1      -9.088  13.746  68.644  1.00  0.00    -0.163 OA 
BRANCH  31  34
HETATM   34  C   UNL     1     -11.125  13.675  66.997  1.00  0.00    -0.301 A  
HETATM   35  C   UNL     1     -12.347  12.798  65.104  1.00  0.00    -0.555 A  
HETATM   36  C   UNL     1     -11.933  12.684  66.440  1.00  0.00    -0.425 A  
HETATM   37  C   UNL     1     -11.926  13.867  64.304  1.00  0.00    -0.444 A  
HETATM   38  N   UNL     1     -12.427  14.025  63.011  1.00  0.00    -0.988 NA 
HETATM   39  C   UNL     1     -11.188  14.891  64.903  1.00  0.00    -0.415 A  
HETATM   40  H1  UNL     1     -12.121  14.804  62.428  1.00  0.00     0.000 HD 
HETATM   41  C   UNL     1     -10.772  14.796  66.238  1.00  0.00    -0.313 A  
HETATM   42  H2  UNL     1     -13.446  14.048  63.064  1.00  0.00     0.000 HD 
ENDBRANCH  31  34
ENDBRANCH  26  31
ENDBRANCH  25  26
ENDBRANCH  22  25
ENDBRANCH  14  22
ENDBRANCH  12  14
ENDBRANCH   9  10
ENDBRANCH   8   9
TORSDOF 11
ENDMDL
MODEL      311
REMARK 921   NORMALIZED FREE ENERGY PREDICTED BY IDOCK:   -3.60 KCAL/MOL
REMARK 922        TOTAL FREE ENERGY PREDICTED BY IDOCK:   -8.54 KCAL/MOL
REMARK 923 INTER-LIGAND FREE ENERGY PREDICTED BY IDOCK:   -6.66 KCAL/MOL
REMARK 924 INTRA-LIGAND FREE ENERGY PREDICTED BY IDOCK:   -1.88 KCAL/MOL
REMARK 927      BINDING AFFINITY PREDICTED BY RF-SCORE:    0.00 PKD
ROOT
HETATM    1  C   UNL     1      -6.934   8.009  65.714  1.00  0.00    -0.060 C  
HETATM    2  C   UNL     1      -6.888   9.525  65.755  1.00  0.00    -0.087 C  
HETATM    3  C   UNL     1      -5.709   9.900  64.878  1.00  0.00    -0.090 C  
HETATM    4  O   UNL     1      -5.190   8.705  64.296  1.00  0.00    -0.046 OA 
HETATM    5  C   UNL     1      -6.151   7.674  64.468  1.00  0.00    -0.041 C  
HETATM    6  O   UNL     1      -7.097   7.652  63.400  1.00  0.00    -0.065 OA 
HETATM    7  C   UNL     1      -8.350   7.229  63.947  1.00  0.00     0.186 C  
HETATM    8  C   UNL     1      -8.286   7.364  65.469  1.00  0.00    -0.135 C  
ENDROOT
BRANCH   8   9
HETATM    9  O   UNL     1      -9.371   8.201  65.902  1.00  0.00    -0.155 OA 
BRANCH   9  10
HETATM   10  C   UNL     1      -9.851   7.964  67.148  1.00  0.00    -0.208 C  
HETATM   11  O   UNL     1     -10.174   6.870  67.577  1.00  0.00    -0.160 OA 
HETATM   12  N   UNL     1      -9.994   9.160  67.789  1.00  0.00    -0.178 N  
HETATM   13  H   UNL     1      -9.592   9.991  67.357  1.00  0.00     0.000 HD 
BRANCH  12  14
HETATM   14  C   UNL     1     -10.698   9.312  69.072  1.00  0.00    -0.167 C  
BRANCH  14  15
HETATM   15  C   UNL     1      -9.717   9.199  70.284  1.00  0.00    -0.248 C  
BRANCH  15  16
HETATM   16  C   UNL     1     -10.150   8.285  71.419  1.00  0.00    -0.257 A  
HETATM   17  C   UNL     1     -11.314   7.514  71.308  1.00  0.00    -0.284 A  
HETATM   18  C   UNL     1      -9.419   8.223  72.616  1.00  0.00    -0.354 A  
HETATM   19  C   UNL     1     -11.738   6.705  72.366  1.00  0.00    -0.260 A  
HETATM   20  C   UNL     1     -10.997   6.648  73.545  1.00  0.00    -0.114 A  
HETATM   21  C   UNL     1      -9.833   7.401  73.668  1.00  0.00    -0.365 A  
ENDBRANCH  15  16
ENDBRANCH  14  15
BRANCH  14  22
HETATM   22  C   UNL     1     -11.539  10.621  69.178  1.00  0.00    -0.271 C  
HETATM   23  O   UNL     1     -12.832  10.352  69.737  1.00  0.00    -0.579 OA 
HETATM   24  H   UNL     1     -13.344  11.150  69.802  1.00  0.00     0.000 HD 
BRANCH  22  25
HETATM   25  C   UNL     1     -11.654  11.510  67.923  1.00  0.00    -0.282 C  
BRANCH  25  26
HETATM   26  N   UNL     1     -12.345  12.866  68.022  1.00  0.00     0.057 N  
BRANCH  26  27
HETATM   27  C   UNL     1     -11.627  13.777  69.018  1.00  0.00    -0.313 C  
HETATM   28  C   UNL     1     -12.411  14.341  70.223  1.00  0.00    -0.422 C  
HETATM   29  C   UNL     1     -12.934  13.274  71.182  1.00  0.00    -0.297 C  
HETATM   30  C   UNL     1     -11.491  15.278  71.028  1.00  0.00    -0.396 C  
ENDBRANCH  26  27
BRANCH  26  31
HETATM   31  S   UNL     1     -12.439  13.586  66.416  1.00  0.00    -0.197 S  
HETATM   32  O   UNL     1     -13.772  13.400  65.900  1.00  0.00     0.392 OA 
HETATM   33  O   UNL     1     -11.846  14.907  66.527  1.00  0.00    -0.279 OA 
BRANCH  31  34
HETATM   34  C   UNL     1     -11.340  12.591  65.411  1.00  0.00    -0.325 A  
HETATM   35  C   UNL     1      -9.103  11.953  64.750  1.00  0.00     0.387 A  
HETATM   36  C   UNL     1      -9.959  12.684  65.588  1.00  0.00    -0.253 A  
HETATM   37  C   UNL     1      -9.607  11.166  63.708  1.00  0.00    -0.271 A  
HETATM   38  N   UNL     1      -8.754  10.363  62.949  1.00  0.00    -0.186 NA 
HETATM   39  C   UNL     1     -10.992  11.018  63.600  1.00  0.00    -0.065 A  
HETATM   40  H1  UNL     1      -9.121   9.789  62.190  1.00  0.00     0.000 HD 
HETATM   41  C   UNL     1     -11.861  11.736  64.434  1.00  0.00    -0.274 A  
HETATM   42  H2  UNL     1      -8.235   9.757  63.585  1.00  0.00     0.000 HD 
ENDBRANCH  31  34
ENDBRANCH  26  31
ENDBRANCH  25  26
ENDBRANCH  22  25
ENDBRANCH  14  22
ENDBRANCH  12  14
ENDBRANCH   9  10
ENDBRANCH   8   9
TORSDOF 11
ENDMDL
MODEL      312
REMARK 921   NORMALIZED FREE ENERGY PREDICTED BY IDOCK:   -3.57 KCAL/MOL
REMARK 922        TOTAL FREE ENERGY PREDICTED BY IDOCK:   -8.49 KCAL/MOL
REMARK 923 INTER-LIGAND FREE ENERGY PREDICTED BY IDOCK:   -8.67 KCAL/MOL
REMARK 924 INTRA-LIGAND FREE ENERGY PREDICTED BY IDOCK:    0.18 KCAL/MOL
REMARK 927      BINDING AFFINITY PREDICTED BY RF-SCORE:    0.00 PKD
ROOT
HETATM    1  C   UNL     1      -7.129   7.981  66.357  1.00  0.00    -0.074 C  
HETATM    2  C   UNL     1      -6.846   9.468  66.250  1.00  0.00    -0.086 C  
HETATM    3  C   UNL     1      -5.521   9.557  65.519  1.00  0.00    -0.044 C  
HETATM    4  O   UNL     1      -5.130   8.238  65.142  1.00  0.00    -0.031 OA 
HETATM    5  C   UNL     1      -6.258   7.385  65.278  1.00  0.00    -0.038 C  
HETATM    6  O   UNL     1      -7.052   7.371  64.092  1.00  0.00    -0.063 OA 
HETATM    7  C   UNL     1      -8.416   7.204  64.493  1.00  0.00     0.204 C  
HETATM    8  C   UNL     1      -8.525   7.514  65.986  1.00  0.00    -0.148 C  
ENDROOT
BRANCH   8   9
HETATM    9  O   UNL     1      -9.508   8.546  66.170  1.00  0.00    -0.218 OA 
BRANCH   9  10
HETATM   10  C   UNL     1      -9.981   8.706  67.430  1.00  0.00    -0.210 C  
HETATM   11  O   UNL     1     -10.394   7.807  68.142  1.00  0.00    -0.197 OA 
HETATM   12  N   UNL     1     -10.002  10.040  67.718  1.00  0.00    -0.163 N  
HETATM   13  H   UNL     1      -9.534  10.680  67.076  1.00  0.00     0.000 HD 
BRANCH  12  14
HETATM   14  C   UNL     1     -10.662  10.603  68.906  1.00  0.00    -0.219 C  
BRANCH  14  15
HETATM   15  C   UNL     1     -10.390   9.739  70.180  1.00  0.00    -0.335 C  
BRANCH  15  16
HETATM   16  C   UNL     1     -11.614   9.230  70.924  1.00  0.00    -0.364 A  
HETATM   17  C   UNL     1     -11.970   7.876  70.864  1.00  0.00    -0.211 A  
HETATM   18  C   UNL     1     -12.434  10.106  71.652  1.00  0.00    -0.506 A  
HETATM   19  C   UNL     1     -13.119   7.412  71.512  1.00  0.00    -0.424 A  
HETATM   20  C   UNL     1     -13.919   8.293  72.237  1.00  0.00    -0.319 A  
HETATM   21  C   UNL     1     -13.573   9.639  72.314  1.00  0.00    -0.449 A  
ENDBRANCH  15  16
ENDBRANCH  14  15
BRANCH  14  22
HETATM   22  C   UNL     1     -10.303  12.096  69.179  1.00  0.00     0.124 C  
HETATM   23  O   UNL     1     -11.354  12.748  69.905  1.00  0.00    -0.492 OA 
HETATM   24  H   UNL     1     -11.135  13.657  70.072  1.00  0.00     0.000 HD 
BRANCH  22  25
HETATM   25  C   UNL     1      -9.840  12.957  67.986  1.00  0.00    -0.223 C  
BRANCH  25  26
HETATM   26  N   UNL     1      -9.483  14.423  68.211  1.00  0.00    -0.201 N  
BRANCH  26  27
HETATM   27  C   UNL     1      -7.997  14.583  68.535  1.00  0.00    -0.142 C  
HETATM   28  C   UNL     1      -7.079  13.343  68.488  1.00  0.00    -0.108 C  
HETATM   29  C   UNL     1      -6.973  12.697  67.109  1.00  0.00    -0.031 C  
HETATM   30  C   UNL     1      -5.658  13.752  68.919  1.00  0.00    -0.078 C  
ENDBRANCH  26  27
BRANCH  26  31
HETATM   31  S   UNL     1      -9.955  15.358  66.792  1.00  0.00    -0.258 S  
HETATM   32  O   UNL     1     -11.017  16.260  67.162  1.00  0.00    -0.248 OA 
HETATM   33  O   UNL     1      -8.723  15.839  66.195  1.00  0.00    -0.325 OA 
BRANCH  31  34
HETATM   34  C   UNL     1     -10.655  14.149  65.670  1.00  0.00    -0.310 A  
HETATM   35  C   UNL     1     -10.433  12.135  64.352  1.00  0.00    -0.352 A  
HETATM   36  C   UNL     1      -9.903  13.039  65.285  1.00  0.00    -0.102 A  
HETATM   37  C   UNL     1     -11.685  12.349  63.764  1.00  0.00    -0.483 A  
HETATM   38  N   UNL     1     -12.245  11.391  62.918  1.00  0.00    -0.825 NA 
HETATM   39  C   UNL     1     -12.457  13.418  64.224  1.00  0.00    -0.321 A  
HETATM   40  H1  UNL     1     -13.157  11.547  62.490  1.00  0.00     0.000 HD 
HETATM   41  C   UNL     1     -11.946  14.327  65.161  1.00  0.00    -0.395 A  
HETATM   42  H2  UNL     1     -12.275  10.502  63.418  1.00  0.00     0.000 HD 
ENDBRANCH  31  34
ENDBRANCH  26  31
ENDBRANCH  25  26
ENDBRANCH  22  25
ENDBRANCH  14  22
ENDBRANCH  12  14
ENDBRANCH   9  10
ENDBRANCH   8   9
TORSDOF 11
ENDMDL
MODEL      313
REMARK 921   NORMALIZED FREE ENERGY PREDICTED BY IDOCK:   -3.54 KCAL/MOL
REMARK 922        TOTAL FREE ENERGY PREDICTED BY IDOCK:   -8.45 KCAL/MOL
REMARK 923 INTER-LIGAND FREE ENERGY PREDICTED BY IDOCK:   -7.71 KCAL/MOL
REMARK 924 INTRA-LIGAND FREE ENERGY PREDICTED BY IDOCK:   -0.74 KCAL/MOL
REMARK 927      BINDING AFFINITY PREDICTED BY RF-SCORE:    0.00 PKD
ROOT
HETATM    1  C   UNL     1      -8.753  19.067  66.428  1.00  0.00    -0.322 C  
HETATM    2  C   UNL     1      -7.326  18.554  66.376  1.00  0.00    -0.277 C  
HETATM    3  C   UNL     1      -6.643  19.191  67.571  1.00  0.00    -0.198 C  
HETATM    4  O   UNL     1      -7.623  19.921  68.308  1.00  0.00    -0.302 OA 
HETATM    5  C   UNL     1      -8.908  19.511  67.862  1.00  0.00    -0.323 C  
HETATM    6  O   UNL     1      -9.375  18.371  68.582  1.00  0.00    -0.324 OA 
HETATM    7  C   UNL     1     -10.163  17.589  67.679  1.00  0.00    -0.343 C  
HETATM    8  C   UNL     1      -9.862  18.045  66.251  1.00  0.00    -0.307 C  
ENDROOT
BRANCH   8   9
HETATM    9  O   UNL     1      -9.432  16.907  65.486  1.00  0.00    -0.496 OA 
BRANCH   9  10
HETATM   10  C   UNL     1      -9.378  15.725  66.148  1.00  0.00    -0.346 C  
HETATM   11  O   UNL     1      -8.488  15.390  66.910  1.00  0.00    -0.214 OA 
HETATM   12  N   UNL     1     -10.428  14.955  65.742  1.00  0.00    -0.309 N  
HETATM   13  H   UNL     1     -11.157  15.390  65.177  1.00  0.00     0.000 HD 
BRANCH  12  14
HETATM   14  C   UNL     1     -10.565  13.528  66.076  1.00  0.00    -0.285 C  
BRANCH  14  15
HETATM   15  C   UNL     1      -9.193  12.783  65.990  1.00  0.00     0.024 C  
BRANCH  15  16
HETATM   16  C   UNL     1      -9.141  11.571  65.074  1.00  0.00     0.049 A  
HETATM   17  C   UNL     1      -8.253  10.519  65.335  1.00  0.00    -0.152 A  
HETATM   18  C   UNL     1      -9.950  11.494  63.929  1.00  0.00    -0.360 A  
HETATM   19  C   UNL     1      -8.172   9.423  64.472  1.00  0.00    -0.147 A  
HETATM   20  C   UNL     1      -8.986   9.358  63.343  1.00  0.00    -0.150 A  
HETATM   21  C   UNL     1      -9.881  10.390  63.075  1.00  0.00    -0.192 A  
ENDBRANCH  15  16
ENDBRANCH  14  15
BRANCH  14  22
HETATM   22  C   UNL     1     -11.235  13.266  67.459  1.00  0.00    -0.281 C  
HETATM   23  O   UNL     1     -12.076  14.367  67.834  1.00  0.00    -0.531 OA 
HETATM   24  H   UNL     1     -12.485  14.207  68.676  1.00  0.00     0.000 HD 
BRANCH  22  25
HETATM   25  C   UNL     1     -10.330  12.840  68.632  1.00  0.00    -0.179 C  
BRANCH  25  26
HETATM   26  N   UNL     1      -9.633  11.484  68.591  1.00  0.00    -0.182 N  
BRANCH  26  27
HETATM   27  C   UNL     1      -8.407  11.468  69.503  1.00  0.00     0.751 C  
HETATM   28  C   UNL     1      -7.010  11.705  68.890  1.00  0.00    -0.109 C  
HETATM   29  C   UNL     1      -6.835  13.080  68.250  1.00  0.00    -0.101 C  
HETATM   30  C   UNL     1      -5.946  11.571  69.996  1.00  0.00    -0.143 C  
ENDBRANCH  26  27
BRANCH  26  31
HETATM   31  S   UNL     1     -10.792  10.225  69.018  1.00  0.00    -0.242 S  
HETATM   32  O   UNL     1     -10.751  10.020  70.445  1.00  0.00    -0.287 OA 
HETATM   33  O   UNL     1     -12.028  10.562  68.335  1.00  0.00    -0.364 OA 
BRANCH  31  34
HETATM   34  C   UNL     1     -10.146   8.740  68.252  1.00  0.00    -0.188 A  
HETATM   35  C   UNL     1      -8.609   6.874  68.260  1.00  0.00    -0.125 A  
HETATM   36  C   UNL     1      -9.159   7.996  68.898  1.00  0.00    -0.144 A  
HETATM   37  C   UNL     1      -9.001   6.511  66.967  1.00  0.00    -0.120 A  
HETATM   38  N   UNL     1      -8.525   5.335  66.385  1.00  0.00    -0.112 NA 
HETATM   39  C   UNL     1     -10.050   7.216  66.371  1.00  0.00    -0.051 A  
HETATM   40  H1  UNL     1      -8.811   5.071  65.442  1.00  0.00     0.000 HD 
HETATM   41  C   UNL     1     -10.614   8.335  66.997  1.00  0.00    -0.328 A  
HETATM   42  H2  UNL     1      -8.738   4.559  67.012  1.00  0.00     0.000 HD 
ENDBRANCH  31  34
ENDBRANCH  26  31
ENDBRANCH  25  26
ENDBRANCH  22  25
ENDBRANCH  14  22
ENDBRANCH  12  14
ENDBRANCH   9  10
ENDBRANCH   8   9
TORSDOF 11
ENDMDL
MODEL      314
REMARK 921   NORMALIZED FREE ENERGY PREDICTED BY IDOCK:   -3.53 KCAL/MOL
REMARK 922        TOTAL FREE ENERGY PREDICTED BY IDOCK:   -8.42 KCAL/MOL
REMARK 923 INTER-LIGAND FREE ENERGY PREDICTED BY IDOCK:   -7.32 KCAL/MOL
REMARK 924 INTRA-LIGAND FREE ENERGY PREDICTED BY IDOCK:   -1.10 KCAL/MOL
REMARK 927      BINDING AFFINITY PREDICTED BY RF-SCORE:    0.00 PKD
ROOT
HETATM    1  C   UNL     1      -6.900   8.494  65.101  1.00  0.00    -0.068 C  
HETATM    2  C   UNL     1      -6.776  10.002  65.214  1.00  0.00    -0.117 C  
HETATM    3  C   UNL     1      -5.588  10.358  64.341  1.00  0.00    -0.134 C  
HETATM    4  O   UNL     1      -5.136   9.168  63.696  1.00  0.00    -0.059 OA 
HETATM    5  C   UNL     1      -6.147   8.180  63.831  1.00  0.00    -0.066 C  
HETATM    6  O   UNL     1      -7.103   8.258  62.775  1.00  0.00    -0.089 OA 
HETATM    7  C   UNL     1      -8.371   7.873  63.316  1.00  0.00     0.063 C  
HETATM    8  C   UNL     1      -8.285   7.931  64.842  1.00  0.00    -0.124 C  
ENDROOT
BRANCH   8   9
HETATM    9  O   UNL     1      -9.322   8.800  65.327  1.00  0.00    -0.122 OA 
BRANCH   9  10
HETATM   10  C   UNL     1      -9.858   8.480  66.531  1.00  0.00    -0.272 C  
HETATM   11  O   UNL     1     -10.619   7.549  66.733  1.00  0.00    -0.318 OA 
HETATM   12  N   UNL     1      -9.476   9.425  67.438  1.00  0.00    -0.130 N  
HETATM   13  H   UNL     1      -8.756  10.094  67.165  1.00  0.00     0.000 HD 
BRANCH  12  14
HETATM   14  C   UNL     1     -10.048   9.529  68.790  1.00  0.00    -0.188 C  
BRANCH  14  15
HETATM   15  C   UNL     1      -9.044   9.032  69.880  1.00  0.00    -0.176 C  
BRANCH  15  16
HETATM   16  C   UNL     1      -9.485   7.835  70.708  1.00  0.00    -0.163 A  
HETATM   17  C   UNL     1     -10.713   7.210  70.456  1.00  0.00    -0.259 A  
HETATM   18  C   UNL     1      -8.693   7.355  71.763  1.00  0.00    -0.125 A  
HETATM   19  C   UNL     1     -11.140   6.136  71.243  1.00  0.00    -0.351 A  
HETATM   20  C   UNL     1     -10.340   5.667  72.283  1.00  0.00    -0.250 A  
HETATM   21  C   UNL     1      -9.112   6.271  72.539  1.00  0.00    -0.141 A  
ENDBRANCH  15  16
ENDBRANCH  14  15
BRANCH  14  22
HETATM   22  C   UNL     1     -10.569  10.955  69.146  1.00  0.00    -0.220 C  
HETATM   23  O   UNL     1     -11.996  10.955  69.290  1.00  0.00    -0.341 OA 
HETATM   24  H   UNL     1     -12.313  11.823  69.507  1.00  0.00     0.000 HD 
BRANCH  22  25
HETATM   25  C   UNL     1     -10.104  12.134  68.268  1.00  0.00    -0.210 C  
BRANCH  25  26
HETATM   26  N   UNL     1      -8.820  12.878  68.624  1.00  0.00    -0.013 N  
BRANCH  26  27
HETATM   27  C   UNL     1      -7.600  11.968  68.477  1.00  0.00    -0.126 C  
HETATM   28  C   UNL     1      -6.213  12.495  68.903  1.00  0.00    -0.080 C  
HETATM   29  C   UNL     1      -6.103  12.832  70.388  1.00  0.00    -0.024 C  
HETATM   30  C   UNL     1      -5.150  11.424  68.591  1.00  0.00    -0.043 C  
ENDBRANCH  26  27
BRANCH  26  31
HETATM   31  S   UNL     1      -8.692  14.324  67.623  1.00  0.00    -0.205 S  
HETATM   32  O   UNL     1      -9.144  15.460  68.388  1.00  0.00    -0.182 OA 
HETATM   33  O   UNL     1      -7.370  14.288  67.026  1.00  0.00    -0.013 OA 
BRANCH  31  34
HETATM   34  C   UNL     1      -9.879  14.066  66.306  1.00  0.00    -0.305 A  
HETATM   35  C   UNL     1     -10.712  12.743  64.462  1.00  0.00    -0.380 A  
HETATM   36  C   UNL     1      -9.823  12.905  65.536  1.00  0.00    -0.159 A  
HETATM   37  C   UNL     1     -11.626  13.747  64.120  1.00  0.00    -0.331 A  
HETATM   38  N   UNL     1     -12.573  13.532  63.118  1.00  0.00    -0.897 NA 
HETATM   39  C   UNL     1     -11.725  14.863  64.953  1.00  0.00    -0.371 A  
HETATM   40  H1  UNL     1     -13.239  14.263  62.869  1.00  0.00     0.000 HD 
HETATM   41  C   UNL     1     -10.849  15.037  66.034  1.00  0.00    -0.334 A  
HETATM   42  H2  UNL     1     -13.098  12.688  63.350  1.00  0.00     0.000 HD 
ENDBRANCH  31  34
ENDBRANCH  26  31
ENDBRANCH  25  26
ENDBRANCH  22  25
ENDBRANCH  14  22
ENDBRANCH  12  14
ENDBRANCH   9  10
ENDBRANCH   8   9
TORSDOF 11
ENDMDL
MODEL      315
REMARK 921   NORMALIZED FREE ENERGY PREDICTED BY IDOCK:   -3.49 KCAL/MOL
REMARK 922        TOTAL FREE ENERGY PREDICTED BY IDOCK:   -8.36 KCAL/MOL
REMARK 923 INTER-LIGAND FREE ENERGY PREDICTED BY IDOCK:   -8.18 KCAL/MOL
REMARK 924 INTRA-LIGAND FREE ENERGY PREDICTED BY IDOCK:   -0.18 KCAL/MOL
REMARK 927      BINDING AFFINITY PREDICTED BY RF-SCORE:    0.00 PKD
ROOT
HETATM    1  C   UNL     1      -6.610   9.411  63.380  1.00  0.00    -0.094 C  
HETATM    2  C   UNL     1      -7.416  10.633  62.978  1.00  0.00     0.030 C  
HETATM    3  C   UNL     1      -8.685  10.073  62.365  1.00  0.00    -0.217 C  
HETATM    4  O   UNL     1      -8.658   8.653  62.503  1.00  0.00    -0.202 OA 
HETATM    5  C   UNL     1      -7.649   8.319  63.445  1.00  0.00    -0.131 C  
HETATM    6  O   UNL     1      -8.151   8.329  64.780  1.00  0.00    -0.139 OA 
HETATM    7  C   UNL     1      -7.087   8.759  65.634  1.00  0.00    -0.083 C  
HETATM    8  C   UNL     1      -6.005   9.410  64.772  1.00  0.00    -0.071 C  
ENDROOT
BRANCH   8   9
HETATM    9  O   UNL     1      -5.767  10.740  65.261  1.00  0.00    -0.140 OA 
BRANCH   9  10
HETATM   10  C   UNL     1      -5.837  10.908  66.604  1.00  0.00    -0.096 C  
HETATM   11  O   UNL     1      -5.359  10.150  67.430  1.00  0.00    -0.041 OA 
HETATM   12  N   UNL     1      -6.606  12.006  66.862  1.00  0.00    -0.328 N  
HETATM   13  H   UNL     1      -6.861  12.612  66.082  1.00  0.00     0.000 HD 
BRANCH  12  14
HETATM   14  C   UNL     1      -7.086  12.362  68.207  1.00  0.00    -0.098 C  
BRANCH  14  15
HETATM   15  C   UNL     1      -5.954  13.009  69.069  1.00  0.00    -0.084 C  
BRANCH  15  16
HETATM   16  C   UNL     1      -5.801  14.518  68.959  1.00  0.00    -0.088 A  
HETATM   17  C   UNL     1      -6.205  15.352  70.009  1.00  0.00    -0.146 A  
HETATM   18  C   UNL     1      -5.290  15.110  67.793  1.00  0.00    -0.072 A  
HETATM   19  C   UNL     1      -6.105  16.742  69.895  1.00  0.00    -0.194 A  
HETATM   20  C   UNL     1      -5.589  17.315  68.733  1.00  0.00    -0.153 A  
HETATM   21  C   UNL     1      -5.174  16.498  67.685  1.00  0.00    -0.150 A  
ENDBRANCH  15  16
ENDBRANCH  14  15
BRANCH  14  22
HETATM   22  C   UNL     1      -8.351  13.273  68.204  1.00  0.00    -0.161 C  
HETATM   23  O   UNL     1      -9.488  12.567  68.721  1.00  0.00    -0.403 OA 
HETATM   24  H   UNL     1     -10.259  13.122  68.720  1.00  0.00     0.000 HD 
BRANCH  22  25
HETATM   25  C   UNL     1      -8.708  14.010  66.897  1.00  0.00    -0.164 C  
BRANCH  25  26
HETATM   26  N   UNL     1      -9.982  14.846  66.829  1.00  0.00    -0.241 N  
BRANCH  26  27
HETATM   27  C   UNL     1     -11.200  13.967  66.543  1.00  0.00    -0.321 C  
HETATM   28  C   UNL     1     -11.698  13.821  65.089  1.00  0.00    -0.354 C  
HETATM   29  C   UNL     1     -10.687  13.173  64.145  1.00  0.00    -0.399 C  
HETATM   30  C   UNL     1     -12.968  12.949  65.076  1.00  0.00    -0.171 C  
ENDBRANCH  26  27
BRANCH  26  31
HETATM   31  S   UNL     1     -10.160  15.754  68.329  1.00  0.00    -0.225 S  
HETATM   32  O   UNL     1     -11.565  15.924  68.606  1.00  0.00    -0.382 OA 
HETATM   33  O   UNL     1      -9.267  15.131  69.290  1.00  0.00    -0.220 OA 
BRANCH  31  34
HETATM   34  C   UNL     1      -9.495  17.375  67.956  1.00  0.00    -0.281 A  
HETATM   35  C   UNL     1      -9.415  19.756  68.369  1.00  0.00    -0.423 A  
HETATM   36  C   UNL     1      -9.887  18.479  68.713  1.00  0.00    -0.411 A  
HETATM   37  C   UNL     1      -8.593  19.949  67.253  1.00  0.00    -0.325 A  
HETATM   38  N   UNL     1      -8.047  21.204  66.984  1.00  0.00    -0.630 NA 
HETATM   39  C   UNL     1      -8.144  18.823  66.560  1.00  0.00    -0.302 A  
HETATM   40  H1  UNL     1      -7.448  21.345  66.170  1.00  0.00     0.000 HD 
HETATM   41  C   UNL     1      -8.600  17.540  66.893  1.00  0.00    -0.267 A  
HETATM   42  H2  UNL     1      -7.539  21.517  67.811  1.00  0.00     0.000 HD 
ENDBRANCH  31  34
ENDBRANCH  26  31
ENDBRANCH  25  26
ENDBRANCH  22  25
ENDBRANCH  14  22
ENDBRANCH  12  14
ENDBRANCH   9  10
ENDBRANCH   8   9
TORSDOF 11
ENDMDL
MODEL      316
REMARK 921   NORMALIZED FREE ENERGY PREDICTED BY IDOCK:   -3.47 KCAL/MOL
REMARK 922        TOTAL FREE ENERGY PREDICTED BY IDOCK:   -8.33 KCAL/MOL
REMARK 923 INTER-LIGAND FREE ENERGY PREDICTED BY IDOCK:   -6.90 KCAL/MOL
REMARK 924 INTRA-LIGAND FREE ENERGY PREDICTED BY IDOCK:   -1.43 KCAL/MOL
REMARK 927      BINDING AFFINITY PREDICTED BY RF-SCORE:    0.00 PKD
ROOT
HETATM    1  C   UNL     1     -11.023  11.915  64.759  1.00  0.00    -0.366 C  
HETATM    2  C   UNL     1      -9.856  12.596  64.069  1.00  0.00    -0.032 C  
HETATM    3  C   UNL     1      -9.430  11.626  62.983  1.00  0.00    -0.236 C  
HETATM    4  O   UNL     1     -10.345  10.531  62.980  1.00  0.00    -0.036 OA 
HETATM    5  C   UNL     1     -11.487  10.905  63.737  1.00  0.00     0.912 C  
HETATM    6  O   UNL     1     -12.456  11.575  62.931  1.00  0.00    -0.114 OA 
HETATM    7  C   UNL     1     -13.108  12.541  63.762  1.00  0.00     0.128 C  
HETATM    8  C   UNL     1     -12.261  12.756  65.016  1.00  0.00    -0.473 C  
ENDROOT
BRANCH   8   9
HETATM    9  O   UNL     1     -11.951  14.154  65.128  1.00  0.00    -0.354 OA 
BRANCH   9  10
HETATM   10  C   UNL     1     -11.391  14.553  66.296  1.00  0.00    -0.352 C  
HETATM   11  O   UNL     1     -10.909  15.654  66.502  1.00  0.00    -0.311 OA 
HETATM   12  N   UNL     1     -11.379  13.492  67.154  1.00  0.00    -0.309 N  
HETATM   13  H   UNL     1     -11.906  12.657  66.897  1.00  0.00     0.000 HD 
BRANCH  12  14
HETATM   14  C   UNL     1     -10.648  13.489  68.430  1.00  0.00    -0.248 C  
BRANCH  14  15
HETATM   15  C   UNL     1     -11.441  12.736  69.547  1.00  0.00    -0.293 C  
BRANCH  15  16
HETATM   16  C   UNL     1     -12.242  13.601  70.506  1.00  0.00    -0.438 A  
HETATM   17  C   UNL     1     -12.367  14.979  70.287  1.00  0.00    -0.392 A  
HETATM   18  C   UNL     1     -12.840  13.049  71.650  1.00  0.00    -0.376 A  
HETATM   19  C   UNL     1     -13.066  15.784  71.190  1.00  0.00    -0.366 A  
HETATM   20  C   UNL     1     -13.661  15.220  72.318  1.00  0.00    -0.586 A  
HETATM   21  C   UNL     1     -13.554  13.851  72.544  1.00  0.00    -0.680 A  
ENDBRANCH  15  16
ENDBRANCH  14  15
BRANCH  14  22
HETATM   22  C   UNL     1      -9.198  12.925  68.324  1.00  0.00    -0.187 C  
HETATM   23  O   UNL     1      -8.471  13.582  67.276  1.00  0.00    -0.187 OA 
HETATM   24  H   UNL     1      -7.588  13.239  67.212  1.00  0.00     0.000 HD 
BRANCH  22  25
HETATM   25  C   UNL     1      -9.021  11.396  68.242  1.00  0.00    -0.175 C  
BRANCH  25  26
HETATM   26  N   UNL     1      -7.619  10.797  68.292  1.00  0.00    -0.094 N  
BRANCH  26  27
HETATM   27  C   UNL     1      -7.348  10.147  69.649  1.00  0.00    -0.138 C  
HETATM   28  C   UNL     1      -5.931  10.238  70.257  1.00  0.00    -0.088 C  
HETATM   29  C   UNL     1      -5.472  11.663  70.558  1.00  0.00    -0.144 C  
HETATM   30  C   UNL     1      -5.900   9.451  71.581  1.00  0.00    -0.054 C  
ENDBRANCH  26  27
BRANCH  26  31
HETATM   31  S   UNL     1      -7.431   9.654  66.963  1.00  0.00    -0.091 S  
HETATM   32  O   UNL     1      -8.509   9.850  66.025  1.00  0.00    -0.125 OA 
HETATM   33  O   UNL     1      -6.042   9.736  66.550  1.00  0.00    -0.058 OA 
BRANCH  31  34
HETATM   34  C   UNL     1      -7.670   8.045  67.714  1.00  0.00    -0.110 A  
HETATM   35  C   UNL     1      -9.138   6.340  68.598  1.00  0.00    -0.126 A  
HETATM   36  C   UNL     1      -8.960   7.570  67.945  1.00  0.00    -0.131 A  
HETATM   37  C   UNL     1      -8.044   5.601  69.062  1.00  0.00    -0.097 A  
HETATM   38  N   UNL     1      -8.228   4.333  69.615  1.00  0.00    -0.059 NA 
HETATM   39  C   UNL     1      -6.760   6.051  68.747  1.00  0.00    -0.064 A  
HETATM   40  H1  UNL     1      -7.431   3.794  69.954  1.00  0.00     0.000 HD 
HETATM   41  C   UNL     1      -6.565   7.274  68.090  1.00  0.00    -0.050 A  
HETATM   42  H2  UNL     1      -8.736   3.761  68.941  1.00  0.00     0.000 HD 
ENDBRANCH  31  34
ENDBRANCH  26  31
ENDBRANCH  25  26
ENDBRANCH  22  25
ENDBRANCH  14  22
ENDBRANCH  12  14
ENDBRANCH   9  10
ENDBRANCH   8   9
TORSDOF 11
ENDMDL
MODEL      317
REMARK 921   NORMALIZED FREE ENERGY PREDICTED BY IDOCK:   -3.47 KCAL/MOL
REMARK 922        TOTAL FREE ENERGY PREDICTED BY IDOCK:   -8.33 KCAL/MOL
REMARK 923 INTER-LIGAND FREE ENERGY PREDICTED BY IDOCK:   -7.89 KCAL/MOL
REMARK 924 INTRA-LIGAND FREE ENERGY PREDICTED BY IDOCK:   -0.44 KCAL/MOL
REMARK 927      BINDING AFFINITY PREDICTED BY RF-SCORE:    0.00 PKD
ROOT
HETATM    1  C   UNL     1     -13.092  15.571  71.869  1.00  0.00    -0.539 C  
HETATM    2  C   UNL     1     -12.076  14.879  72.759  1.00  0.00    -0.368 C  
HETATM    3  C   UNL     1     -12.779  13.626  73.245  1.00  0.00     0.909 C  
HETATM    4  O   UNL     1     -14.050  13.550  72.600  1.00  0.00    -0.762 OA 
HETATM    5  C   UNL     1     -14.050  14.461  71.511  1.00  0.00    -0.373 C  
HETATM    6  O   UNL     1     -13.535  13.861  70.323  1.00  0.00     0.297 OA 
HETATM    7  C   UNL     1     -12.858  14.884  69.587  1.00  0.00     0.188 C  
HETATM    8  C   UNL     1     -12.604  16.068  70.520  1.00  0.00     0.089 C  
ENDROOT
BRANCH   8   9
HETATM    9  O   UNL     1     -11.196  16.355  70.526  1.00  0.00    -0.369 OA 
BRANCH   9  10
HETATM   10  C   UNL     1     -10.447  15.704  69.602  1.00  0.00    -0.283 C  
HETATM   11  O   UNL     1      -9.580  14.885  69.854  1.00  0.00     0.031 OA 
HETATM   12  N   UNL     1     -10.767  16.190  68.367  1.00  0.00    -0.283 N  
HETATM   13  H   UNL     1     -11.581  16.799  68.284  1.00  0.00     0.000 HD 
BRANCH  12  14
HETATM   14  C   UNL     1      -9.999  15.882  67.151  1.00  0.00    -0.240 C  
BRANCH  14  15
HETATM   15  C   UNL     1      -8.476  15.711  67.459  1.00  0.00    -0.182 C  
BRANCH  15  16
HETATM   16  C   UNL     1      -7.548  16.767  66.881  1.00  0.00    -0.252 A  
HETATM   17  C   UNL     1      -8.069  17.927  66.293  1.00  0.00    -0.266 A  
HETATM   18  C   UNL     1      -6.156  16.588  66.888  1.00  0.00    -0.116 A  
HETATM   19  C   UNL     1      -7.220  18.880  65.724  1.00  0.00    -0.246 A  
HETATM   20  C   UNL     1      -5.839  18.692  65.744  1.00  0.00    -0.223 A  
HETATM   21  C   UNL     1      -5.306  17.549  66.334  1.00  0.00    -0.229 A  
ENDBRANCH  15  16
ENDBRANCH  14  15
BRANCH  14  22
HETATM   22  C   UNL     1     -10.533  14.645  66.365  1.00  0.00    -0.295 C  
HETATM   23  O   UNL     1     -11.405  15.055  65.302  1.00  0.00    -0.352 OA 
HETATM   24  H   UNL     1     -11.730  14.302  64.823  1.00  0.00     0.000 HD 
BRANCH  22  25
HETATM   25  C   UNL     1     -11.155  13.489  67.173  1.00  0.00    -0.293 C  
BRANCH  25  26
HETATM   26  N   UNL     1     -10.826  12.047  66.799  1.00  0.00    -0.253 N  
BRANCH  26  27
HETATM   27  C   UNL     1     -10.054  11.984  65.482  1.00  0.00    -0.252 C  
HETATM   28  C   UNL     1     -10.686  11.262  64.273  1.00  0.00    -0.416 C  
HETATM   29  C   UNL     1     -11.986  11.893  63.778  1.00  0.00    -0.547 C  
HETATM   30  C   UNL     1      -9.688  11.276  63.099  1.00  0.00    -0.408 C  
ENDBRANCH  26  27
BRANCH  26  31
HETATM   31  S   UNL     1      -9.937  11.295  68.123  1.00  0.00    -0.187 S  
HETATM   32  O   UNL     1      -8.644  11.923  68.231  1.00  0.00    -0.154 OA 
HETATM   33  O   UNL     1     -10.852  11.243  69.249  1.00  0.00    -0.225 OA 
BRANCH  31  34
HETATM   34  C   UNL     1      -9.662   9.609  67.581  1.00  0.00    -0.149 A  
HETATM   35  C   UNL     1      -8.251   7.944  66.543  1.00  0.00    -0.113 A  
HETATM   36  C   UNL     1      -8.434   9.247  67.029  1.00  0.00    -0.124 A  
HETATM   37  C   UNL     1      -9.294   7.011  66.560  1.00  0.00    -0.159 A  
HETATM   38  N   UNL     1      -9.070   5.689  66.171  1.00  0.00    -0.150 NA 
HETATM   39  C   UNL     1     -10.488   7.365  67.192  1.00  0.00    -0.403 A  
HETATM   40  H1  UNL     1      -9.830   5.009  66.184  1.00  0.00     0.000 HD 
HETATM   41  C   UNL     1     -10.685   8.661  67.689  1.00  0.00    -0.194 A  
HETATM   42  H2  UNL     1      -8.301   5.318  66.729  1.00  0.00     0.000 HD 
ENDBRANCH  31  34
ENDBRANCH  26  31
ENDBRANCH  25  26
ENDBRANCH  22  25
ENDBRANCH  14  22
ENDBRANCH  12  14
ENDBRANCH   9  10
ENDBRANCH   8   9
TORSDOF 11
ENDMDL
MODEL      318
REMARK 921   NORMALIZED FREE ENERGY PREDICTED BY IDOCK:   -3.47 KCAL/MOL
REMARK 922        TOTAL FREE ENERGY PREDICTED BY IDOCK:   -8.32 KCAL/MOL
REMARK 923 INTER-LIGAND FREE ENERGY PREDICTED BY IDOCK:   -8.02 KCAL/MOL
REMARK 924 INTRA-LIGAND FREE ENERGY PREDICTED BY IDOCK:   -0.30 KCAL/MOL
REMARK 927      BINDING AFFINITY PREDICTED BY RF-SCORE:    0.00 PKD
ROOT
HETATM    1  C   UNL     1      -8.407   8.805  71.655  1.00  0.00    -0.190 C  
HETATM    2  C   UNL     1      -7.067   9.208  71.067  1.00  0.00    -0.106 C  
HETATM    3  C   UNL     1      -6.080   9.039  72.206  1.00  0.00    -0.014 C  
HETATM    4  O   UNL     1      -6.776   8.481  73.320  1.00  0.00    -0.173 OA 
HETATM    5  C   UNL     1      -8.022   7.980  72.859  1.00  0.00    -0.151 C  
HETATM    6  O   UNL     1      -7.909   6.635  72.397  1.00  0.00    -0.098 OA 
HETATM    7  C   UNL     1      -8.837   6.473  71.319  1.00  0.00    -0.137 C  
HETATM    8  C   UNL     1      -9.265   7.859  70.835  1.00  0.00    -0.152 C  
ENDROOT
BRANCH   8   9
HETATM    9  O   UNL     1      -8.988   7.959  69.428  1.00  0.00    -0.144 OA 
BRANCH   9  10
HETATM   10  C   UNL     1      -9.556   9.005  68.778  1.00  0.00    -0.152 C  
HETATM   11  O   UNL     1     -10.750   9.251  68.756  1.00  0.00    -0.217 OA 
HETATM   12  N   UNL     1      -8.581   9.665  68.088  1.00  0.00    -0.119 N  
HETATM   13  H   UNL     1      -7.608   9.419  68.272  1.00  0.00     0.000 HD 
BRANCH  12  14
HETATM   14  C   UNL     1      -8.859  10.712  67.093  1.00  0.00    -0.137 C  
BRANCH  14  15
HETATM   15  C   UNL     1      -9.521  10.121  65.805  1.00  0.00    -0.262 C  
BRANCH  15  16
HETATM   16  C   UNL     1      -8.594   9.863  64.628  1.00  0.00    -0.195 A  
HETATM   17  C   UNL     1      -9.101   9.373  63.418  1.00  0.00    -0.056 A  
HETATM   18  C   UNL     1      -7.210  10.071  64.738  1.00  0.00    -0.136 A  
HETATM   19  C   UNL     1      -8.247   9.095  62.348  1.00  0.00    -0.163 A  
HETATM   20  C   UNL     1      -6.875   9.313  62.469  1.00  0.00    -0.091 A  
HETATM   21  C   UNL     1      -6.358   9.809  63.663  1.00  0.00    -0.117 A  
ENDBRANCH  15  16
ENDBRANCH  14  15
BRANCH  14  22
HETATM   22  C   UNL     1      -9.712  11.895  67.644  1.00  0.00    -0.185 C  
HETATM   23  O   UNL     1      -9.444  12.110  69.036  1.00  0.00    -0.398 OA 
HETATM   24  H   UNL     1      -9.964  12.832  69.372  1.00  0.00     0.000 HD 
BRANCH  22  25
HETATM   25  C   UNL     1     -11.230  11.881  67.370  1.00  0.00    -0.305 C  
BRANCH  25  26
HETATM   26  N   UNL     1     -11.987  13.201  67.262  1.00  0.00    -0.362 N  
BRANCH  26  27
HETATM   27  C   UNL     1     -11.617  14.141  68.408  1.00  0.00    -0.318 C  
HETATM   28  C   UNL     1     -12.487  14.151  69.684  1.00  0.00    -0.207 C  
HETATM   29  C   UNL     1     -12.504  12.823  70.437  1.00  0.00    -0.231 C  
HETATM   30  C   UNL     1     -11.952  15.225  70.650  1.00  0.00    -0.386 C  
ENDBRANCH  26  27
BRANCH  26  31
HETATM   31  S   UNL     1     -11.668  13.923  65.685  1.00  0.00    -0.370 S  
HETATM   32  O   UNL     1     -10.911  12.988  64.890  1.00  0.00    -0.297 OA 
HETATM   33  O   UNL     1     -12.933  14.463  65.222  1.00  0.00    -0.608 OA 
BRANCH  31  34
HETATM   34  C   UNL     1     -10.591  15.312  66.035  1.00  0.00    -0.319 A  
HETATM   35  C   UNL     1      -8.370  16.227  66.309  1.00  0.00    -0.343 A  
HETATM   36  C   UNL     1      -9.207  15.154  65.965  1.00  0.00    -0.273 A  
HETATM   37  C   UNL     1      -8.898  17.441  66.764  1.00  0.00    -0.251 A  
HETATM   38  N   UNL     1      -8.062  18.532  67.003  1.00  0.00    -0.243 NA 
HETATM   39  C   UNL     1     -10.285  17.607  66.747  1.00  0.00    -0.335 A  
HETATM   40  H1  UNL     1      -8.447  19.417  67.335  1.00  0.00     0.000 HD 
HETATM   41  C   UNL     1     -11.135  16.548  66.400  1.00  0.00     0.228 A  
HETATM   42  H2  UNL     1      -7.527  18.716  66.154  1.00  0.00     0.000 HD 
ENDBRANCH  31  34
ENDBRANCH  26  31
ENDBRANCH  25  26
ENDBRANCH  22  25
ENDBRANCH  14  22
ENDBRANCH  12  14
ENDBRANCH   9  10
ENDBRANCH   8   9
TORSDOF 11
ENDMDL
MODEL      319
REMARK 921   NORMALIZED FREE ENERGY PREDICTED BY IDOCK:   -3.46 KCAL/MOL
REMARK 922        TOTAL FREE ENERGY PREDICTED BY IDOCK:   -8.31 KCAL/MOL
REMARK 923 INTER-LIGAND FREE ENERGY PREDICTED BY IDOCK:   -6.85 KCAL/MOL
REMARK 924 INTRA-LIGAND FREE ENERGY PREDICTED BY IDOCK:   -1.46 KCAL/MOL
REMARK 927      BINDING AFFINITY PREDICTED BY RF-SCORE:    0.00 PKD
ROOT
HETATM    1  C   UNL     1      -7.689   6.567  66.398  1.00  0.00    -0.099 C  
HETATM    2  C   UNL     1      -6.402   6.743  67.183  1.00  0.00    -0.041 C  
HETATM    3  C   UNL     1      -6.089   5.361  67.724  1.00  0.00    -0.026 C  
HETATM    4  O   UNL     1      -7.054   4.449  67.203  1.00  0.00    -0.065 OA 
HETATM    5  C   UNL     1      -7.728   5.083  66.125  1.00  0.00    -0.091 C  
HETATM    6  O   UNL     1      -7.040   4.890  64.889  1.00  0.00    -0.059 OA 
HETATM    7  C   UNL     1      -7.244   6.066  64.099  1.00  0.00    -0.057 C  
HETATM    8  C   UNL     1      -7.744   7.185  65.013  1.00  0.00    -0.115 C  
ENDROOT
BRANCH   8   9
HETATM    9  O   UNL     1      -6.859   8.311  64.887  1.00  0.00    -0.069 OA 
BRANCH   9  10
HETATM   10  C   UNL     1      -7.439   9.499  64.586  1.00  0.00    -0.113 C  
HETATM   11  O   UNL     1      -7.144  10.201  63.634  1.00  0.00    -0.131 OA 
HETATM   12  N   UNL     1      -8.328   9.808  65.574  1.00  0.00    -0.131 N  
HETATM   13  H   UNL     1      -8.556   9.089  66.261  1.00  0.00     0.000 HD 
BRANCH  12  14
HETATM   14  C   UNL     1      -8.976  11.122  65.701  1.00  0.00    -0.184 C  
BRANCH  14  15
HETATM   15  C   UNL     1     -10.416  11.116  65.094  1.00  0.00    -0.341 C  
BRANCH  15  16
HETATM   16  C   UNL     1     -11.098  12.468  64.957  1.00  0.00    -0.335 A  
HETATM   17  C   UNL     1     -12.425  12.640  65.370  1.00  0.00    -0.421 A  
HETATM   18  C   UNL     1     -10.429  13.560  64.382  1.00  0.00    -0.366 A  
HETATM   19  C   UNL     1     -13.068  13.871  65.207  1.00  0.00    -0.205 A  
HETATM   20  C   UNL     1     -12.389  14.948  64.641  1.00  0.00    -0.290 A  
HETATM   21  C   UNL     1     -11.066  14.795  64.235  1.00  0.00     0.039 A  
ENDBRANCH  15  16
ENDBRANCH  14  15
BRANCH  14  22
HETATM   22  C   UNL     1      -9.007  11.672  67.160  1.00  0.00    -0.173 C  
HETATM   23  O   UNL     1     -10.193  11.240  67.841  1.00  0.00    -0.175 OA 
HETATM   24  H   UNL     1     -10.212  11.574  68.730  1.00  0.00     0.000 HD 
BRANCH  22  25
HETATM   25  C   UNL     1      -8.771  13.182  67.368  1.00  0.00    -0.206 C  
BRANCH  25  26
HETATM   26  N   UNL     1      -8.889  13.775  68.768  1.00  0.00    -0.032 N  
BRANCH  26  27
HETATM   27  C   UNL     1      -7.723  14.718  69.065  1.00  0.00    -0.145 C  
HETATM   28  C   UNL     1      -6.565  14.224  69.958  1.00  0.00    -0.088 C  
HETATM   29  C   UNL     1      -5.795  13.037  69.383  1.00  0.00    -0.096 C  
HETATM   30  C   UNL     1      -5.559  15.374  70.161  1.00  0.00    -0.136 C  
ENDBRANCH  26  27
BRANCH  26  31
HETATM   31  S   UNL     1     -10.449  14.583  68.925  1.00  0.00    -0.239 S  
HETATM   32  O   UNL     1     -11.391  13.951  68.035  1.00  0.00    -0.261 OA 
HETATM   33  O   UNL     1     -10.707  14.695  70.349  1.00  0.00    -0.010 OA 
BRANCH  31  34
HETATM   34  C   UNL     1     -10.163  16.239  68.303  1.00  0.00    -0.253 A  
HETATM   35  C   UNL     1      -9.495  17.721  66.513  1.00  0.00    -0.300 A  
HETATM   36  C   UNL     1      -9.785  16.427  66.973  1.00  0.00    -0.253 A  
HETATM   37  C   UNL     1      -9.534  18.823  67.375  1.00  0.00    -0.297 A  
HETATM   38  N   UNL     1      -9.346  20.115  66.883  1.00  0.00    -0.384 NA 
HETATM   39  C   UNL     1      -9.996  18.627  68.679  1.00  0.00    -0.431 A  
HETATM   40  H1  UNL     1      -9.375  20.918  67.511  1.00  0.00     0.000 HD 
HETATM   41  C   UNL     1     -10.296  17.342  69.153  1.00  0.00    -0.271 A  
HETATM   42  H2  UNL     1     -10.020  20.272  66.133  1.00  0.00     0.000 HD 
ENDBRANCH  31  34
ENDBRANCH  26  31
ENDBRANCH  25  26
ENDBRANCH  22  25
ENDBRANCH  14  22
ENDBRANCH  12  14
ENDBRANCH   9  10
ENDBRANCH   8   9
TORSDOF 11
ENDMDL
MODEL      320
REMARK 921   NORMALIZED FREE ENERGY PREDICTED BY IDOCK:   -3.46 KCAL/MOL
REMARK 922        TOTAL FREE ENERGY PREDICTED BY IDOCK:   -8.30 KCAL/MOL
REMARK 923 INTER-LIGAND FREE ENERGY PREDICTED BY IDOCK:   -7.36 KCAL/MOL
REMARK 924 INTRA-LIGAND FREE ENERGY PREDICTED BY IDOCK:   -0.94 KCAL/MOL
REMARK 927      BINDING AFFINITY PREDICTED BY RF-SCORE:    0.00 PKD
ROOT
HETATM    1  C   UNL     1      -8.758   5.555  66.125  1.00  0.00    -0.133 C  
HETATM    2  C   UNL     1      -7.810   4.809  67.046  1.00  0.00    -0.098 C  
HETATM    3  C   UNL     1      -8.048   3.343  66.740  1.00  0.00    -0.088 C  
HETATM    4  O   UNL     1      -8.975   3.258  65.658  1.00  0.00    -0.132 OA 
HETATM    5  C   UNL     1      -9.067   4.540  65.052  1.00  0.00    -0.152 C  
HETATM    6  O   UNL     1      -8.074   4.716  64.043  1.00  0.00    -0.094 OA 
HETATM    7  C   UNL     1      -7.703   6.098  64.045  1.00  0.00    -0.106 C  
HETATM    8  C   UNL     1      -8.189   6.729  65.350  1.00  0.00    -0.134 C  
ENDROOT
BRANCH   8   9
HETATM    9  O   UNL     1      -7.065   7.325  66.019  1.00  0.00    -0.063 OA 
BRANCH   9  10
HETATM   10  C   UNL     1      -7.353   8.219  66.997  1.00  0.00    -0.084 C  
HETATM   11  O   UNL     1      -6.622   8.492  67.934  1.00  0.00    -0.059 OA 
HETATM   12  N   UNL     1      -8.622   8.680  66.800  1.00  0.00    -0.118 N  
HETATM   13  H   UNL     1      -9.089   8.451  65.922  1.00  0.00     0.000 HD 
BRANCH  12  14
HETATM   14  C   UNL     1      -9.353   9.490  67.786  1.00  0.00    -0.127 C  
BRANCH  14  15
HETATM   15  C   UNL     1      -9.297  11.013  67.436  1.00  0.00    -0.165 C  
BRANCH  15  16
HETATM   16  C   UNL     1      -9.944  11.427  66.124  1.00  0.00    -0.265 A  
HETATM   17  C   UNL     1      -9.569  10.815  64.921  1.00  0.00    -0.307 A  
HETATM   18  C   UNL     1     -10.899  12.455  66.082  1.00  0.00    -0.308 A  
HETATM   19  C   UNL     1     -10.131  11.223  63.708  1.00  0.00    -0.412 A  
HETATM   20  C   UNL     1     -11.084  12.240  63.683  1.00  0.00    -0.537 A  
HETATM   21  C   UNL     1     -11.474  12.852  64.872  1.00  0.00    -0.351 A  
ENDBRANCH  15  16
ENDBRANCH  14  15
BRANCH  14  22
HETATM   22  C   UNL     1     -10.830   9.040  68.003  1.00  0.00    -0.041 C  
HETATM   23  O   UNL     1     -11.711  10.172  68.019  1.00  0.00    -0.685 OA 
HETATM   24  H   UNL     1     -12.611   9.897  68.150  1.00  0.00     0.000 HD 
BRANCH  22  25
HETATM   25  C   UNL     1     -11.131   8.091  69.181  1.00  0.00     0.205 C  
BRANCH  25  26
HETATM   26  N   UNL     1     -10.445   8.318  70.524  1.00  0.00    -0.207 N  
BRANCH  26  27
HETATM   27  C   UNL     1     -11.077   9.492  71.272  1.00  0.00    -0.379 C  
HETATM   28  C   UNL     1     -12.589   9.761  71.109  1.00  0.00    -0.438 C  
HETATM   29  C   UNL     1     -13.482   8.628  71.610  1.00  0.00    -0.392 C  
HETATM   30  C   UNL     1     -12.963  11.029  71.900  1.00  0.00    -0.485 C  
ENDBRANCH  26  27
BRANCH  26  31
HETATM   31  S   UNL     1     -10.503   6.827  71.464  1.00  0.00    -0.214 S  
HETATM   32  O   UNL     1     -10.518   7.161  72.866  1.00  0.00    -0.219 OA 
HETATM   33  O   UNL     1     -11.546   6.012  70.867  1.00  0.00    -0.258 OA 
BRANCH  31  34
HETATM   34  C   UNL     1      -8.938   6.022  71.128  1.00  0.00    -0.139 A  
HETATM   35  C   UNL     1      -7.599   4.014  70.997  1.00  0.00    -0.048 A  
HETATM   36  C   UNL     1      -8.844   4.632  71.192  1.00  0.00    -0.149 A  
HETATM   37  C   UNL     1      -6.440   4.769  70.783  1.00  0.00    -0.030 A  
HETATM   38  N   UNL     1      -5.229   4.142  70.487  1.00  0.00    -0.003 NA 
HETATM   39  C   UNL     1      -6.569   6.152  70.639  1.00  0.00    -0.048 A  
HETATM   40  H1  UNL     1      -4.384   4.692  70.331  1.00  0.00     0.000 HD 
HETATM   41  C   UNL     1      -7.806   6.785  70.824  1.00  0.00    -0.101 A  
HETATM   42  H2  UNL     1      -5.371   3.539  69.676  1.00  0.00     0.000 HD 
ENDBRANCH  31  34
ENDBRANCH  26  31
ENDBRANCH  25  26
ENDBRANCH  22  25
ENDBRANCH  14  22
ENDBRANCH  12  14
ENDBRANCH   9  10
ENDBRANCH   8   9
TORSDOF 11
ENDMDL
MODEL      321
REMARK 921   NORMALIZED FREE ENERGY PREDICTED BY IDOCK:   -3.43 KCAL/MOL
REMARK 922        TOTAL FREE ENERGY PREDICTED BY IDOCK:   -8.26 KCAL/MOL
REMARK 923 INTER-LIGAND FREE ENERGY PREDICTED BY IDOCK:   -5.48 KCAL/MOL
REMARK 924 INTRA-LIGAND FREE ENERGY PREDICTED BY IDOCK:   -2.79 KCAL/MOL
REMARK 927      BINDING AFFINITY PREDICTED BY RF-SCORE:    0.00 PKD
ROOT
HETATM    1  C   UNL     1      -8.463   3.089  63.087  1.00  0.00    -0.085 C  
HETATM    2  C   UNL     1      -9.732   3.911  62.956  1.00  0.00    -0.150 C  
HETATM    3  C   UNL     1     -10.855   2.892  62.971  1.00  0.00    -0.200 C  
HETATM    4  O   UNL     1     -10.285   1.604  63.201  1.00  0.00    -0.107 OA 
HETATM    5  C   UNL     1      -8.954   1.785  63.664  1.00  0.00    -0.090 C  
HETATM    6  O   UNL     1      -8.908   1.937  65.082  1.00  0.00    -0.109 OA 
HETATM    7  C   UNL     1      -7.829   2.829  65.381  1.00  0.00    -0.081 C  
HETATM    8  C   UNL     1      -7.435   3.562  64.098  1.00  0.00    -0.074 C  
ENDROOT
BRANCH   8   9
HETATM    9  O   UNL     1      -7.518   4.977  64.334  1.00  0.00    -0.065 OA 
BRANCH   9  10
HETATM   10  C   UNL     1      -7.157   5.402  65.570  1.00  0.00    -0.067 C  
HETATM   11  O   UNL     1      -6.077   5.190  66.095  1.00  0.00    -0.028 OA 
HETATM   12  N   UNL     1      -8.230   6.017  66.146  1.00  0.00    -0.117 N  
HETATM   13  H   UNL     1      -9.042   6.220  65.562  1.00  0.00     0.000 HD 
BRANCH  12  14
HETATM   14  C   UNL     1      -8.279   6.403  67.564  1.00  0.00    -0.117 C  
BRANCH  14  15
HETATM   15  C   UNL     1      -7.539   7.756  67.819  1.00  0.00    -0.113 C  
BRANCH  15  16
HETATM   16  C   UNL     1      -6.880   7.920  69.179  1.00  0.00    -0.052 A  
HETATM   17  C   UNL     1      -7.101   9.074  69.942  1.00  0.00    -0.053 A  
HETATM   18  C   UNL     1      -6.009   6.941  69.683  1.00  0.00    -0.023 A  
HETATM   19  C   UNL     1      -6.464   9.246  71.174  1.00  0.00    -0.083 A  
HETATM   20  C   UNL     1      -5.608   8.263  71.665  1.00  0.00    -0.036 A  
HETATM   21  C   UNL     1      -5.386   7.106  70.923  1.00  0.00    -0.027 A  
ENDBRANCH  15  16
ENDBRANCH  14  15
BRANCH  14  22
HETATM   22  C   UNL     1      -9.721   6.457  68.154  1.00  0.00    -0.122 C  
HETATM   23  O   UNL     1     -10.515   5.369  67.660  1.00  0.00    -0.196 OA 
HETATM   24  H   UNL     1     -11.393   5.401  68.020  1.00  0.00     0.000 HD 
BRANCH  22  25
HETATM   25  C   UNL     1     -10.492   7.789  68.058  1.00  0.00    -0.185 C  
BRANCH  25  26
HETATM   26  N   UNL     1     -10.583   8.696  69.281  1.00  0.00    -0.218 N  
BRANCH  26  27
HETATM   27  C   UNL     1     -11.278  10.013  68.937  1.00  0.00    -0.131 C  
HETATM   28  C   UNL     1     -10.510  11.340  69.123  1.00  0.00    -0.191 C  
HETATM   29  C   UNL     1      -9.266  11.469  68.247  1.00  0.00    -0.186 C  
HETATM   30  C   UNL     1     -11.444  12.515  68.779  1.00  0.00    -0.353 C  
ENDBRANCH  26  27
BRANCH  26  31
HETATM   31  S   UNL     1     -11.407   7.833  70.580  1.00  0.00    -0.198 S  
HETATM   32  O   UNL     1     -12.298   8.746  71.252  1.00  0.00    -0.295 OA 
HETATM   33  O   UNL     1     -11.888   6.591  70.002  1.00  0.00    -0.404 OA 
BRANCH  31  34
HETATM   34  C   UNL     1     -10.106   7.414  71.738  1.00  0.00    -0.175 A  
HETATM   35  C   UNL     1      -8.462   5.849  72.569  1.00  0.00    -0.116 A  
HETATM   36  C   UNL     1      -9.431   6.200  71.616  1.00  0.00    -0.160 A  
HETATM   37  C   UNL     1      -8.192   6.675  73.667  1.00  0.00    -0.113 A  
HETATM   38  N   UNL     1      -7.155   6.366  74.548  1.00  0.00    -0.089 NA 
HETATM   39  C   UNL     1      -8.816   7.923  73.725  1.00  0.00    -0.332 A  
HETATM   40  H1  UNL     1      -6.958   6.968  75.348  1.00  0.00     0.000 HD 
HETATM   41  C   UNL     1      -9.782   8.292  72.778  1.00  0.00    -0.336 A  
HETATM   42  H2  UNL     1      -6.296   6.262  74.008  1.00  0.00     0.000 HD 
ENDBRANCH  31  34
ENDBRANCH  26  31
ENDBRANCH  25  26
ENDBRANCH  22  25
ENDBRANCH  14  22
ENDBRANCH  12  14
ENDBRANCH   9  10
ENDBRANCH   8   9
TORSDOF 11
ENDMDL
MODEL      322
REMARK 921   NORMALIZED FREE ENERGY PREDICTED BY IDOCK:   -3.38 KCAL/MOL
REMARK 922        TOTAL FREE ENERGY PREDICTED BY IDOCK:   -8.18 KCAL/MOL
REMARK 923 INTER-LIGAND FREE ENERGY PREDICTED BY IDOCK:   -6.16 KCAL/MOL
REMARK 924 INTRA-LIGAND FREE ENERGY PREDICTED BY IDOCK:   -2.02 KCAL/MOL
REMARK 927      BINDING AFFINITY PREDICTED BY RF-SCORE:    0.00 PKD
ROOT
HETATM    1  C   UNL     1      -8.719   5.092  65.955  1.00  0.00    -0.130 C  
HETATM    2  C   UNL     1      -7.654   4.179  66.535  1.00  0.00    -0.089 C  
HETATM    3  C   UNL     1      -7.806   2.877  65.773  1.00  0.00    -0.081 C  
HETATM    4  O   UNL     1      -8.800   3.063  64.766  1.00  0.00    -0.105 OA 
HETATM    5  C   UNL     1      -9.029   4.457  64.622  1.00  0.00    -0.150 C  
HETATM    6  O   UNL     1      -8.128   5.044  63.684  1.00  0.00    -0.092 OA 
HETATM    7  C   UNL     1      -7.859   6.378  64.127  1.00  0.00    -0.116 C  
HETATM    8  C   UNL     1      -8.294   6.503  65.587  1.00  0.00    -0.144 C  
ENDROOT
BRANCH   8   9
HETATM    9  O   UNL     1      -7.172   6.950  66.365  1.00  0.00    -0.072 OA 
BRANCH   9  10
HETATM   10  C   UNL     1      -7.378   8.038  67.147  1.00  0.00    -0.091 C  
HETATM   11  O   UNL     1      -6.667   8.377  68.077  1.00  0.00    -0.063 OA 
HETATM   12  N   UNL     1      -8.554   8.621  66.773  1.00  0.00    -0.118 N  
HETATM   13  H   UNL     1      -9.001   8.300  65.914  1.00  0.00     0.000 HD 
BRANCH  12  14
HETATM   14  C   UNL     1      -9.211   9.688  67.543  1.00  0.00    -0.133 C  
BRANCH  14  15
HETATM   15  C   UNL     1      -8.896  11.101  66.954  1.00  0.00    -0.157 C  
BRANCH  15  16
HETATM   16  C   UNL     1      -7.947  11.973  67.761  1.00  0.00    -0.147 A  
HETATM   17  C   UNL     1      -7.225  11.434  68.834  1.00  0.00    -0.113 A  
HETATM   18  C   UNL     1      -7.802  13.340  67.476  1.00  0.00    -0.173 A  
HETATM   19  C   UNL     1      -6.384  12.242  69.604  1.00  0.00    -0.111 A  
HETATM   20  C   UNL     1      -6.245  13.596  69.305  1.00  0.00    -0.104 A  
HETATM   21  C   UNL     1      -6.948  14.144  68.236  1.00  0.00    -0.106 A  
ENDBRANCH  15  16
ENDBRANCH  14  15
BRANCH  14  22
HETATM   22  C   UNL     1     -10.751   9.499  67.697  1.00  0.00    -0.250 C  
HETATM   23  O   UNL     1     -11.422  10.767  67.704  1.00  0.00    -0.477 OA 
HETATM   24  H   UNL     1     -12.360  10.651  67.797  1.00  0.00     0.000 HD 
BRANCH  22  25
HETATM   25  C   UNL     1     -11.258   8.601  68.844  1.00  0.00     0.417 C  
BRANCH  25  26
HETATM   26  N   UNL     1     -10.624   8.718  70.227  1.00  0.00    -0.210 N  
BRANCH  26  27
HETATM   27  C   UNL     1     -11.122   9.966  70.955  1.00  0.00    -0.331 C  
HETATM   28  C   UNL     1     -12.611  10.357  70.847  1.00  0.00    -0.478 C  
HETATM   29  C   UNL     1     -13.572   9.323  71.427  1.00  0.00    -0.358 C  
HETATM   30  C   UNL     1     -12.841  11.679  71.604  1.00  0.00    -0.454 C  
ENDBRANCH  26  27
BRANCH  26  31
HETATM   31  S   UNL     1     -10.952   7.245  71.139  1.00  0.00    -0.252 S  
HETATM   32  O   UNL     1     -10.889   7.546  72.548  1.00  0.00    -0.251 OA 
HETATM   33  O   UNL     1     -12.136   6.652  70.542  1.00  0.00    -0.390 OA 
BRANCH  31  34
HETATM   34  C   UNL     1      -9.570   6.167  70.766  1.00  0.00    -0.169 A  
HETATM   35  C   UNL     1      -8.677   3.949  70.411  1.00  0.00    -0.126 A  
HETATM   36  C   UNL     1      -9.775   4.794  70.634  1.00  0.00    -0.271 A  
HETATM   37  C   UNL     1      -7.372   4.453  70.364  1.00  0.00    -0.049 A  
HETATM   38  N   UNL     1      -6.301   3.620  70.039  1.00  0.00    -0.027 NA 
HETATM   39  C   UNL     1      -7.196   5.838  70.414  1.00  0.00    -0.071 A  
HETATM   40  H1  UNL     1      -5.350   3.987  70.004  1.00  0.00     0.000 HD 
HETATM   41  C   UNL     1      -8.283   6.696  70.629  1.00  0.00    -0.124 A  
HETATM   42  H2  UNL     1      -6.504   3.174  69.144  1.00  0.00     0.000 HD 
ENDBRANCH  31  34
ENDBRANCH  26  31
ENDBRANCH  25  26
ENDBRANCH  22  25
ENDBRANCH  14  22
ENDBRANCH  12  14
ENDBRANCH   9  10
ENDBRANCH   8   9
TORSDOF 11
ENDMDL
MODEL      323
REMARK 921   NORMALIZED FREE ENERGY PREDICTED BY IDOCK:   -3.38 KCAL/MOL
REMARK 922        TOTAL FREE ENERGY PREDICTED BY IDOCK:   -8.18 KCAL/MOL
REMARK 923 INTER-LIGAND FREE ENERGY PREDICTED BY IDOCK:   -6.00 KCAL/MOL
REMARK 924 INTRA-LIGAND FREE ENERGY PREDICTED BY IDOCK:   -2.18 KCAL/MOL
REMARK 927      BINDING AFFINITY PREDICTED BY RF-SCORE:    0.00 PKD
ROOT
HETATM    1  C   UNL     1      -6.764   8.962  64.929  1.00  0.00    -0.069 C  
HETATM    2  C   UNL     1      -7.820   8.703  63.869  1.00  0.00    -0.147 C  
HETATM    3  C   UNL     1      -7.598   7.262  63.449  1.00  0.00    -0.117 C  
HETATM    4  O   UNL     1      -6.575   6.709  64.275  1.00  0.00    -0.039 OA 
HETATM    5  C   UNL     1      -6.385   7.575  65.385  1.00  0.00    -0.038 C  
HETATM    6  O   UNL     1      -7.270   7.255  66.458  1.00  0.00    -0.075 OA 
HETATM    7  C   UNL     1      -7.597   8.480  67.122  1.00  0.00    -0.096 C  
HETATM    8  C   UNL     1      -7.220   9.645  66.206  1.00  0.00    -0.094 C  
ENDROOT
BRANCH   8   9
HETATM    9  O   UNL     1      -8.384  10.461  65.997  1.00  0.00    -0.137 OA 
BRANCH   9  10
HETATM   10  C   UNL     1      -8.836  11.148  67.076  1.00  0.00    -0.149 C  
HETATM   11  O   UNL     1      -8.162  11.893  67.765  1.00  0.00    -0.132 OA 
HETATM   12  N   UNL     1     -10.133  10.788  67.302  1.00  0.00    -0.190 N  
HETATM   13  H   UNL     1     -10.613  10.234  66.593  1.00  0.00     0.000 HD 
BRANCH  12  14
HETATM   14  C   UNL     1     -10.876  11.159  68.517  1.00  0.00    -0.203 C  
BRANCH  14  15
HETATM   15  C   UNL     1     -11.807  12.390  68.269  1.00  0.00    -0.364 C  
BRANCH  15  16
HETATM   16  C   UNL     1     -11.715  13.520  69.282  1.00  0.00    -0.382 A  
HETATM   17  C   UNL     1     -12.767  13.765  70.173  1.00  0.00    -0.151 A  
HETATM   18  C   UNL     1     -10.595  14.366  69.321  1.00  0.00    -0.190 A  
HETATM   19  C   UNL     1     -12.703  14.830  71.076  1.00  0.00    -0.411 A  
HETATM   20  C   UNL     1     -11.582  15.656  71.108  1.00  0.00    -0.462 A  
HETATM   21  C   UNL     1     -10.524  15.420  70.235  1.00  0.00    -0.264 A  
ENDBRANCH  15  16
ENDBRANCH  14  15
BRANCH  14  22
HETATM   22  C   UNL     1     -11.689   9.984  69.142  1.00  0.00     0.135 C  
HETATM   23  O   UNL     1     -13.085  10.111  68.835  1.00  0.00     0.997 OA 
HETATM   24  H   UNL     1     -13.580   9.395  69.216  1.00  0.00     0.000 HD 
BRANCH  22  25
HETATM   25  C   UNL     1     -11.479   9.675  70.638  1.00  0.00    -0.306 C  
BRANCH  25  26
HETATM   26  N   UNL     1     -10.628   8.477  71.046  1.00  0.00    -0.208 N  
BRANCH  26  27
HETATM   27  C   UNL     1     -10.035   8.674  72.441  1.00  0.00    -0.249 C  
HETATM   28  C   UNL     1      -8.580   8.234  72.710  1.00  0.00    -0.270 C  
HETATM   29  C   UNL     1      -7.539   8.982  71.882  1.00  0.00     0.132 C  
HETATM   30  C   UNL     1      -8.248   8.472  74.196  1.00  0.00    -0.042 C  
ENDBRANCH  26  27
BRANCH  26  31
HETATM   31  S   UNL     1     -11.603   7.012  70.943  1.00  0.00    -0.344 S  
HETATM   32  O   UNL     1     -11.448   6.263  72.165  1.00  0.00    -0.279 OA 
HETATM   33  O   UNL     1     -12.911   7.427  70.468  1.00  0.00     0.063 OA 
BRANCH  31  34
HETATM   34  C   UNL     1     -10.840   6.054  69.635  1.00  0.00    -0.369 A  
HETATM   35  C   UNL     1     -10.451   5.652  67.283  1.00  0.00    -0.322 A  
HETATM   36  C   UNL     1     -10.993   6.446  68.305  1.00  0.00    -0.396 A  
HETATM   37  C   UNL     1      -9.798   4.448  67.569  1.00  0.00    -0.128 A  
HETATM   38  N   UNL     1      -9.174   3.720  66.555  1.00  0.00    -0.156 NA 
HETATM   39  C   UNL     1      -9.582   4.115  68.909  1.00  0.00    -0.222 A  
HETATM   40  H1  UNL     1      -8.698   2.843  66.764  1.00  0.00     0.000 HD 
HETATM   41  C   UNL     1     -10.110   4.901  69.942  1.00  0.00    -0.332 A  
HETATM   42  H2  UNL     1      -8.514   4.336  66.081  1.00  0.00     0.000 HD 
ENDBRANCH  31  34
ENDBRANCH  26  31
ENDBRANCH  25  26
ENDBRANCH  22  25
ENDBRANCH  14  22
ENDBRANCH  12  14
ENDBRANCH   9  10
ENDBRANCH   8   9
TORSDOF 11
ENDMDL
MODEL      324
REMARK 921   NORMALIZED FREE ENERGY PREDICTED BY IDOCK:   -3.38 KCAL/MOL
REMARK 922        TOTAL FREE ENERGY PREDICTED BY IDOCK:   -8.17 KCAL/MOL
REMARK 923 INTER-LIGAND FREE ENERGY PREDICTED BY IDOCK:   -6.56 KCAL/MOL
REMARK 924 INTRA-LIGAND FREE ENERGY PREDICTED BY IDOCK:   -1.61 KCAL/MOL
REMARK 927      BINDING AFFINITY PREDICTED BY RF-SCORE:    0.00 PKD
ROOT
HETATM    1  C   UNL     1      -7.781  13.130  67.915  1.00  0.00    -0.147 C  
HETATM    2  C   UNL     1      -8.310  14.248  67.036  1.00  0.00    -0.156 C  
HETATM    3  C   UNL     1      -7.337  15.394  67.242  1.00  0.00    -0.204 C  
HETATM    4  O   UNL     1      -6.279  14.934  68.082  1.00  0.00    -0.114 OA 
HETATM    5  C   UNL     1      -6.338  13.516  68.135  1.00  0.00    -0.124 C  
HETATM    6  O   UNL     1      -5.602  12.919  67.068  1.00  0.00    -0.335 OA 
HETATM    7  C   UNL     1      -6.278  11.711  66.705  1.00  0.00    -0.123 C  
HETATM    8  C   UNL     1      -7.688  11.748  67.294  1.00  0.00    -0.158 C  
ENDROOT
BRANCH   8   9
HETATM    9  O   UNL     1      -8.636  11.569  66.228  1.00  0.00    -0.180 OA 
BRANCH   9  10
HETATM   10  C   UNL     1      -9.456  10.494  66.329  1.00  0.00    -0.177 C  
HETATM   11  O   UNL     1     -10.444  10.300  65.641  1.00  0.00    -0.200 OA 
HETATM   12  N   UNL     1      -9.039   9.730  67.379  1.00  0.00    -0.134 N  
HETATM   13  H   UNL     1      -8.139   9.947  67.808  1.00  0.00     0.000 HD 
BRANCH  12  14
HETATM   14  C   UNL     1      -9.819   8.608  67.926  1.00  0.00    -0.173 C  
BRANCH  14  15
HETATM   15  C   UNL     1     -11.050   9.110  68.748  1.00  0.00     0.100 C  
BRANCH  15  16
HETATM   16  C   UNL     1     -11.085   8.719  70.217  1.00  0.00    -0.240 A  
HETATM   17  C   UNL     1     -12.218   8.984  70.997  1.00  0.00    -0.275 A  
HETATM   18  C   UNL     1      -9.974   8.122  70.833  1.00  0.00    -0.214 A  
HETATM   19  C   UNL     1     -12.237   8.665  72.358  1.00  0.00    -0.419 A  
HETATM   20  C   UNL     1     -11.129   8.065  72.954  1.00  0.00    -0.399 A  
HETATM   21  C   UNL     1      -9.999   7.787  72.189  1.00  0.00    -0.249 A  
ENDBRANCH  15  16
ENDBRANCH  14  15
BRANCH  14  22
HETATM   22  C   UNL     1     -10.272   7.573  66.852  1.00  0.00    -0.289 C  
HETATM   23  O   UNL     1     -11.292   6.710  67.375  1.00  0.00    -0.694 OA 
HETATM   24  H   UNL     1     -11.568   6.079  66.721  1.00  0.00     0.000 HD 
BRANCH  22  25
HETATM   25  C   UNL     1      -9.181   6.760  66.126  1.00  0.00    -0.084 C  
BRANCH  25  26
HETATM   26  N   UNL     1      -8.192   5.933  66.940  1.00  0.00    -0.105 N  
BRANCH  26  27
HETATM   27  C   UNL     1      -7.943   6.566  68.309  1.00  0.00    -0.110 C  
HETATM   28  C   UNL     1      -6.492   6.849  68.755  1.00  0.00    -0.036 C  
HETATM   29  C   UNL     1      -5.752   7.851  67.871  1.00  0.00    -0.037 C  
HETATM   30  C   UNL     1      -6.507   7.417  70.187  1.00  0.00    -0.035 C  
ENDBRANCH  26  27
BRANCH  26  31
HETATM   31  S   UNL     1      -8.792   4.280  67.075  1.00  0.00    -0.122 S  
HETATM   32  O   UNL     1     -10.187   4.261  66.709  1.00  0.00    -0.167 OA 
HETATM   33  O   UNL     1      -7.820   3.438  66.403  1.00  0.00    -0.083 OA 
BRANCH  31  34
HETATM   34  C   UNL     1      -8.700   3.909  68.826  1.00  0.00    -0.099 A  
HETATM   35  C   UNL     1      -9.664   3.991  71.041  1.00  0.00    -0.252 A  
HETATM   36  C   UNL     1      -9.772   4.221  69.661  1.00  0.00    -0.284 A  
HETATM   37  C   UNL     1      -8.482   3.495  71.603  1.00  0.00    -0.076 A  
HETATM   38  N   UNL     1      -8.422   3.173  72.959  1.00  0.00    -0.080 NA 
HETATM   39  C   UNL     1      -7.452   3.110  70.742  1.00  0.00    -0.037 A  
HETATM   40  H1  UNL     1      -7.561   2.812  73.369  1.00  0.00     0.000 HD 
HETATM   41  C   UNL     1      -7.546   3.327  69.361  1.00  0.00    -0.047 A  
HETATM   42  H2  UNL     1      -9.174   2.515  73.165  1.00  0.00     0.000 HD 
ENDBRANCH  31  34
ENDBRANCH  26  31
ENDBRANCH  25  26
ENDBRANCH  22  25
ENDBRANCH  14  22
ENDBRANCH  12  14
ENDBRANCH   9  10
ENDBRANCH   8   9
TORSDOF 11
ENDMDL
MODEL      325
REMARK 921   NORMALIZED FREE ENERGY PREDICTED BY IDOCK:   -3.37 KCAL/MOL
REMARK 922        TOTAL FREE ENERGY PREDICTED BY IDOCK:   -8.15 KCAL/MOL
REMARK 923 INTER-LIGAND FREE ENERGY PREDICTED BY IDOCK:   -7.32 KCAL/MOL
REMARK 924 INTRA-LIGAND FREE ENERGY PREDICTED BY IDOCK:   -0.83 KCAL/MOL
REMARK 927      BINDING AFFINITY PREDICTED BY RF-SCORE:    0.00 PKD
ROOT
HETATM    1  C   UNL     1     -11.865  13.199  64.029  1.00  0.00    -0.514 C  
HETATM    2  C   UNL     1     -11.941  11.710  64.314  1.00  0.00    -0.182 C  
HETATM    3  C   UNL     1     -10.689  11.132  63.683  1.00  0.00    -0.308 C  
HETATM    4  O   UNL     1      -9.907  12.211  63.174  1.00  0.00    -0.398 OA 
HETATM    5  C   UNL     1     -10.401  13.419  63.734  1.00  0.00     0.643 C  
HETATM    6  O   UNL     1      -9.784  13.708  64.988  1.00  0.00    -0.107 OA 
HETATM    7  C   UNL     1     -10.759  14.368  65.802  1.00  0.00    -0.307 C  
HETATM    8  C   UNL     1     -12.140  14.140  65.187  1.00  0.00    -0.414 C  
ENDROOT
BRANCH   8   9
HETATM    9  O   UNL     1     -12.991  13.542  66.179  1.00  0.00    -0.172 OA 
BRANCH   9  10
HETATM   10  C   UNL     1     -12.405  13.221  67.359  1.00  0.00    -0.030 C  
HETATM   11  O   UNL     1     -12.400  13.925  68.354  1.00  0.00    -0.261 OA 
HETATM   12  N   UNL     1     -11.751  12.033  67.206  1.00  0.00    -0.308 N  
HETATM   13  H   UNL     1     -11.918  11.495  66.355  1.00  0.00     0.000 HD 
BRANCH  12  14
HETATM   14  C   UNL     1     -10.819  11.486  68.204  1.00  0.00    -0.215 C  
BRANCH  14  15
HETATM   15  C   UNL     1      -9.771  12.552  68.658  1.00  0.00    -0.057 C  
BRANCH  15  16
HETATM   16  C   UNL     1      -8.317  12.252  68.332  1.00  0.00    -0.144 A  
HETATM   17  C   UNL     1      -7.751  11.017  68.674  1.00  0.00    -0.132 A  
HETATM   18  C   UNL     1      -7.500  13.215  67.719  1.00  0.00    -0.150 A  
HETATM   19  C   UNL     1      -6.404  10.754  68.414  1.00  0.00    -0.053 A  
HETATM   20  C   UNL     1      -5.607  11.717  67.797  1.00  0.00    -0.053 A  
HETATM   21  C   UNL     1      -6.157  12.945  67.443  1.00  0.00    -0.097 A  
ENDBRANCH  15  16
ENDBRANCH  14  15
BRANCH  14  22
HETATM   22  C   UNL     1     -11.522  10.856  69.445  1.00  0.00    -0.302 C  
HETATM   23  O   UNL     1     -11.873  11.868  70.399  1.00  0.00    -0.453 OA 
HETATM   24  H   UNL     1     -12.301  11.484  71.155  1.00  0.00     0.000 HD 
BRANCH  22  25
HETATM   25  C   UNL     1     -10.835   9.661  70.136  1.00  0.00    -0.280 C  
BRANCH  25  26
HETATM   26  N   UNL     1     -10.871   8.287  69.475  1.00  0.00    -0.171 N  
BRANCH  26  27
HETATM   27  C   UNL     1      -9.510   7.928  68.878  1.00  0.00    -0.150 C  
HETATM   28  C   UNL     1      -9.418   7.560  67.382  1.00  0.00    -0.173 C  
HETATM   29  C   UNL     1      -9.823   8.687  66.435  1.00  0.00    -0.341 C  
HETATM   30  C   UNL     1      -7.965   7.174  67.047  1.00  0.00    -0.113 C  
ENDBRANCH  26  27
BRANCH  26  31
HETATM   31  S   UNL     1     -11.413   7.092  70.653  1.00  0.00    -0.306 S  
HETATM   32  O   UNL     1     -12.551   7.621  71.362  1.00  0.00    -0.329 OA 
HETATM   33  O   UNL     1     -11.479   5.826  69.946  1.00  0.00    -0.181 OA 
BRANCH  31  34
HETATM   34  C   UNL     1     -10.065   6.976  71.828  1.00  0.00    -0.184 A  
HETATM   35  C   UNL     1      -9.152   7.420  74.022  1.00  0.00    -0.289 A  
HETATM   36  C   UNL     1     -10.234   7.451  73.129  1.00  0.00    -0.363 A  
HETATM   37  C   UNL     1      -7.892   6.964  73.619  1.00  0.00    -0.096 A  
HETATM   38  N   UNL     1      -6.853   6.841  74.543  1.00  0.00    -0.094 NA 
HETATM   39  C   UNL     1      -7.765   6.415  72.341  1.00  0.00    -0.101 A  
HETATM   40  H1  UNL     1      -5.934   6.508  74.249  1.00  0.00     0.000 HD 
HETATM   41  C   UNL     1      -8.837   6.431  71.439  1.00  0.00    -0.138 A  
HETATM   42  H2  UNL     1      -7.176   6.250  75.310  1.00  0.00     0.000 HD 
ENDBRANCH  31  34
ENDBRANCH  26  31
ENDBRANCH  25  26
ENDBRANCH  22  25
ENDBRANCH  14  22
ENDBRANCH  12  14
ENDBRANCH   9  10
ENDBRANCH   8   9
TORSDOF 11
ENDMDL
MODEL      326
REMARK 921   NORMALIZED FREE ENERGY PREDICTED BY IDOCK:   -3.32 KCAL/MOL
REMARK 922        TOTAL FREE ENERGY PREDICTED BY IDOCK:   -8.07 KCAL/MOL
REMARK 923 INTER-LIGAND FREE ENERGY PREDICTED BY IDOCK:   -7.43 KCAL/MOL
REMARK 924 INTRA-LIGAND FREE ENERGY PREDICTED BY IDOCK:   -0.64 KCAL/MOL
REMARK 927      BINDING AFFINITY PREDICTED BY RF-SCORE:    0.00 PKD
ROOT
HETATM    1  C   UNL     1      -7.236  17.980  67.802  1.00  0.00    -0.211 C  
HETATM    2  C   UNL     1      -8.258  18.962  68.346  1.00  0.00    -0.377 C  
HETATM    3  C   UNL     1      -8.194  20.147  67.400  1.00  0.00    -0.340 C  
HETATM    4  O   UNL     1      -7.293  19.825  66.342  1.00  0.00    -0.244 OA 
HETATM    5  C   UNL     1      -7.057  18.424  66.371  1.00  0.00    -0.239 C  
HETATM    6  O   UNL     1      -8.031  17.711  65.610  1.00  0.00    -0.529 OA 
HETATM    7  C   UNL     1      -8.238  16.451  66.256  1.00  0.00    -0.308 C  
HETATM    8  C   UNL     1      -7.671  16.531  67.673  1.00  0.00    -0.149 C  
ENDROOT
BRANCH   8   9
HETATM    9  O   UNL     1      -8.712  16.194  68.604  1.00  0.00    -0.192 OA 
BRANCH   9  10
HETATM   10  C   UNL     1      -9.437  15.084  68.318  1.00  0.00    -0.196 C  
HETATM   11  O   UNL     1     -10.655  15.029  68.299  1.00  0.00    -0.239 OA 
HETATM   12  N   UNL     1      -8.577  14.038  68.151  1.00  0.00    -0.173 N  
HETATM   13  H   UNL     1      -7.579  14.238  68.091  1.00  0.00     0.000 HD 
BRANCH  12  14
HETATM   14  C   UNL     1      -9.014  12.637  68.051  1.00  0.00    -0.200 C  
BRANCH  14  15
HETATM   15  C   UNL     1      -8.959  12.120  66.577  1.00  0.00    -0.179 C  
BRANCH  15  16
HETATM   16  C   UNL     1     -10.094  12.556  65.666  1.00  0.00    -0.285 A  
HETATM   17  C   UNL     1     -11.171  13.295  66.173  1.00  0.00    -0.317 A  
HETATM   18  C   UNL     1     -10.110  12.198  64.308  1.00  0.00    -0.317 A  
HETATM   19  C   UNL     1     -12.237  13.662  65.347  1.00  0.00    -0.474 A  
HETATM   20  C   UNL     1     -12.235  13.305  64.000  1.00  0.00    -0.475 A  
HETATM   21  C   UNL     1     -11.168  12.579  63.478  1.00  0.00    -0.525 A  
ENDBRANCH  15  16
ENDBRANCH  14  15
BRANCH  14  22
HETATM   22  C   UNL     1      -8.239  11.667  68.994  1.00  0.00     0.114 C  
HETATM   23  O   UNL     1      -7.266  12.379  69.770  1.00  0.00    -0.262 OA 
HETATM   24  H   UNL     1      -6.793  11.788  70.344  1.00  0.00     0.000 HD 
BRANCH  22  25
HETATM   25  C   UNL     1      -7.626  10.394  68.375  1.00  0.00    -0.093 C  
BRANCH  25  26
HETATM   26  N   UNL     1      -8.045   9.025  68.901  1.00  0.00    -0.103 N  
BRANCH  26  27
HETATM   27  C   UNL     1      -9.235   8.475  68.115  1.00  0.00    -0.137 C  
HETATM   28  C   UNL     1     -10.199   7.485  68.804  1.00  0.00    -0.206 C  
HETATM   29  C   UNL     1     -10.935   8.067  70.008  1.00  0.00    -0.202 C  
HETATM   30  C   UNL     1     -11.263   7.028  67.788  1.00  0.00    -0.044 C  
ENDBRANCH  26  27
BRANCH  26  31
HETATM   31  S   UNL     1      -6.658   7.937  68.850  1.00  0.00    -0.053 S  
HETATM   32  O   UNL     1      -7.038   6.732  68.155  1.00  0.00    -0.080 OA 
HETATM   33  O   UNL     1      -5.528   8.739  68.416  1.00  0.00    -0.037 OA 
BRANCH  31  34
HETATM   34  C   UNL     1      -6.371   7.492  70.562  1.00  0.00    -0.038 A  
HETATM   35  C   UNL     1      -5.176   6.203  72.222  1.00  0.00    -0.023 A  
HETATM   36  C   UNL     1      -5.350   6.600  70.886  1.00  0.00    -0.023 A  
HETATM   37  C   UNL     1      -6.038   6.652  73.229  1.00  0.00    -0.058 A  
HETATM   38  N   UNL     1      -5.793   6.334  74.565  1.00  0.00    -0.062 NA 
HETATM   39  C   UNL     1      -7.000   7.610  72.898  1.00  0.00    -0.079 A  
HETATM   40  H1  UNL     1      -6.421   6.662  75.300  1.00  0.00     0.000 HD 
HETATM   41  C   UNL     1      -7.182   8.022  71.571  1.00  0.00    -0.071 A  
HETATM   42  H2  UNL     1      -4.847   6.636  74.797  1.00  0.00     0.000 HD 
ENDBRANCH  31  34
ENDBRANCH  26  31
ENDBRANCH  25  26
ENDBRANCH  22  25
ENDBRANCH  14  22
ENDBRANCH  12  14
ENDBRANCH   9  10
ENDBRANCH   8   9
TORSDOF 11
ENDMDL
MODEL      327
REMARK 921   NORMALIZED FREE ENERGY PREDICTED BY IDOCK:   -3.31 KCAL/MOL
REMARK 922        TOTAL FREE ENERGY PREDICTED BY IDOCK:   -8.07 KCAL/MOL
REMARK 923 INTER-LIGAND FREE ENERGY PREDICTED BY IDOCK:   -6.36 KCAL/MOL
REMARK 924 INTRA-LIGAND FREE ENERGY PREDICTED BY IDOCK:   -1.71 KCAL/MOL
REMARK 927      BINDING AFFINITY PREDICTED BY RF-SCORE:    0.00 PKD
ROOT
HETATM    1  C   UNL     1     -11.819  13.256  64.363  1.00  0.00    -0.448 C  
HETATM    2  C   UNL     1     -12.000  11.750  64.407  1.00  0.00    -0.240 C  
HETATM    3  C   UNL     1     -10.861  11.200  63.571  1.00  0.00    -0.194 C  
HETATM    4  O   UNL     1     -10.034  12.292  63.172  1.00  0.00    -0.389 OA 
HETATM    5  C   UNL     1     -10.372  13.419  63.967  1.00  0.00     0.118 C  
HETATM    6  O   UNL     1      -9.629  13.444  65.185  1.00  0.00     0.008 OA 
HETATM    7  C   UNL     1     -10.471  14.023  66.188  1.00  0.00    -0.297 C  
HETATM    8  C   UNL     1     -11.914  14.002  65.682  1.00  0.00    -0.397 C  
ENDROOT
BRANCH   8   9
HETATM    9  O   UNL     1     -12.727  13.306  66.641  1.00  0.00    -0.163 OA 
BRANCH   9  10
HETATM   10  C   UNL     1     -12.084  12.815  67.729  1.00  0.00    -0.133 C  
HETATM   11  O   UNL     1     -12.019  13.368  68.813  1.00  0.00    -0.335 OA 
HETATM   12  N   UNL     1     -11.455  11.658  67.372  1.00  0.00    -0.300 N  
HETATM   13  H   UNL     1     -11.673  11.250  66.462  1.00  0.00     0.000 HD 
BRANCH  12  14
HETATM   14  C   UNL     1     -10.479  10.967  68.229  1.00  0.00    -0.186 C  
BRANCH  14  15
HETATM   15  C   UNL     1      -9.379  11.946  68.754  1.00  0.00     0.013 C  
BRANCH  15  16
HETATM   16  C   UNL     1      -7.940  11.474  68.627  1.00  0.00    -0.135 A  
HETATM   17  C   UNL     1      -7.214  11.710  67.453  1.00  0.00    -0.128 A  
HETATM   18  C   UNL     1      -7.319  10.761  69.665  1.00  0.00    -0.107 A  
HETATM   19  C   UNL     1      -5.905  11.241  67.317  1.00  0.00    -0.071 A  
HETATM   20  C   UNL     1      -5.299  10.540  68.358  1.00  0.00    -0.033 A  
HETATM   21  C   UNL     1      -6.004  10.306  69.536  1.00  0.00    -0.043 A  
ENDBRANCH  15  16
ENDBRANCH  14  15
BRANCH  14  22
HETATM   22  C   UNL     1     -11.123  10.191  69.419  1.00  0.00    -0.243 C  
HETATM   23  O   UNL     1     -11.191  11.018  70.589  1.00  0.00    -0.404 OA 
HETATM   24  H   UNL     1     -11.583  10.545  71.314  1.00  0.00     0.000 HD 
BRANCH  22  25
HETATM   25  C   UNL     1     -10.561   8.797  69.761  1.00  0.00    -0.224 C  
BRANCH  25  26
HETATM   26  N   UNL     1     -10.131   7.862  68.634  1.00  0.00    -0.192 N  
BRANCH  26  27
HETATM   27  C   UNL     1      -8.609   7.830  68.498  1.00  0.00    -0.128 C  
HETATM   28  C   UNL     1      -7.983   7.591  67.107  1.00  0.00    -0.117 C  
HETATM   29  C   UNL     1      -8.309   8.674  66.082  1.00  0.00    -0.127 C  
HETATM   30  C   UNL     1      -6.450   7.534  67.248  1.00  0.00    -0.061 C  
ENDBRANCH  26  27
BRANCH  26  31
HETATM   31  S   UNL     1     -10.803   6.258  68.926  1.00  0.00    -0.358 S  
HETATM   32  O   UNL     1     -11.700   6.327  70.052  1.00  0.00    -0.408 OA 
HETATM   33  O   UNL     1     -11.242   5.761  67.635  1.00  0.00    -0.037 OA 
BRANCH  31  34
HETATM   34  C   UNL     1      -9.398   5.266  69.429  1.00  0.00    -0.126 A  
HETATM   35  C   UNL     1      -7.681   4.728  71.044  1.00  0.00    -0.081 A  
HETATM   36  C   UNL     1      -8.824   5.459  70.685  1.00  0.00    -0.145 A  
HETATM   37  C   UNL     1      -7.078   3.839  70.147  1.00  0.00    -0.041 A  
HETATM   38  N   UNL     1      -6.007   3.041  70.550  1.00  0.00    -0.018 NA 
HETATM   39  C   UNL     1      -7.715   3.596  68.927  1.00  0.00    -0.052 A  
HETATM   40  H1  UNL     1      -5.567   2.393  69.896  1.00  0.00     0.000 HD 
HETATM   41  C   UNL     1      -8.861   4.313  68.556  1.00  0.00    -0.134 A  
HETATM   42  H2  UNL     1      -6.293   2.515  71.376  1.00  0.00     0.000 HD 
ENDBRANCH  31  34
ENDBRANCH  26  31
ENDBRANCH  25  26
ENDBRANCH  22  25
ENDBRANCH  14  22
ENDBRANCH  12  14
ENDBRANCH   9  10
ENDBRANCH   8   9
TORSDOF 11
ENDMDL
MODEL      328
REMARK 921   NORMALIZED FREE ENERGY PREDICTED BY IDOCK:   -3.31 KCAL/MOL
REMARK 922        TOTAL FREE ENERGY PREDICTED BY IDOCK:   -8.06 KCAL/MOL
REMARK 923 INTER-LIGAND FREE ENERGY PREDICTED BY IDOCK:   -7.21 KCAL/MOL
REMARK 924 INTRA-LIGAND FREE ENERGY PREDICTED BY IDOCK:   -0.85 KCAL/MOL
REMARK 927      BINDING AFFINITY PREDICTED BY RF-SCORE:    0.00 PKD
ROOT
HETATM    1  C   UNL     1      -9.160   5.168  68.094  1.00  0.00    -0.125 C  
HETATM    2  C   UNL     1     -10.573   5.644  67.812  1.00  0.00    -0.274 C  
HETATM    3  C   UNL     1     -10.792   5.348  66.341  1.00  0.00    -0.131 C  
HETATM    4  O   UNL     1      -9.644   4.660  65.848  1.00  0.00    -0.157 OA 
HETATM    5  C   UNL     1      -8.885   4.210  66.961  1.00  0.00    -0.119 C  
HETATM    6  O   UNL     1      -9.323   2.928  67.412  1.00  0.00    -0.192 OA 
HETATM    7  C   UNL     1      -9.142   2.889  68.831  1.00  0.00    -0.147 C  
HETATM    8  C   UNL     1      -8.952   4.320  69.336  1.00  0.00    -0.101 C  
ENDROOT
BRANCH   8   9
HETATM    9  O   UNL     1      -9.940   4.586  70.345  1.00  0.00    -0.222 OA 
BRANCH   9  10
HETATM   10  C   UNL     1      -9.541   5.357  71.387  1.00  0.00    -0.156 C  
HETATM   11  O   UNL     1     -10.048   5.353  72.495  1.00  0.00    -0.168 OA 
HETATM   12  N   UNL     1      -8.551   6.190  70.953  1.00  0.00    -0.131 N  
HETATM   13  H   UNL     1      -8.147   6.022  70.031  1.00  0.00     0.000 HD 
BRANCH  12  14
HETATM   14  C   UNL     1      -8.035   7.317  71.745  1.00  0.00    -0.095 C  
BRANCH  14  15
HETATM   15  C   UNL     1      -6.542   7.627  71.401  1.00  0.00    -0.041 C  
BRANCH  15  16
HETATM   16  C   UNL     1      -6.150   7.520  69.936  1.00  0.00    -0.027 A  
HETATM   17  C   UNL     1      -5.966   6.266  69.339  1.00  0.00    -0.021 A  
HETATM   18  C   UNL     1      -5.929   8.669  69.161  1.00  0.00    -0.042 A  
HETATM   19  C   UNL     1      -5.564   6.164  68.004  1.00  0.00    -0.008 A  
HETATM   20  C   UNL     1      -5.355   7.314  67.245  1.00  0.00    -0.028 A  
HETATM   21  C   UNL     1      -5.544   8.567  67.821  1.00  0.00    -0.035 A  
ENDBRANCH  15  16
ENDBRANCH  14  15
BRANCH  14  22
HETATM   22  C   UNL     1      -8.895   8.613  71.633  1.00  0.00    -0.223 C  
HETATM   23  O   UNL     1     -10.057   8.527  72.469  1.00  0.00    -0.298 OA 
HETATM   24  H   UNL     1     -10.581   9.316  72.401  1.00  0.00     0.000 HD 
BRANCH  22  25
HETATM   25  C   UNL     1      -9.266   9.114  70.222  1.00  0.00    -0.218 C  
BRANCH  25  26
HETATM   26  N   UNL     1     -10.732   9.335  69.864  1.00  0.00    -0.227 N  
BRANCH  26  27
HETATM   27  C   UNL     1     -11.585   9.506  71.121  1.00  0.00    -0.367 C  
HETATM   28  C   UNL     1     -12.938   8.769  71.219  1.00  0.00    -0.229 C  
HETATM   29  C   UNL     1     -12.822   7.247  71.193  1.00  0.00    -0.334 C  
HETATM   30  C   UNL     1     -13.629   9.158  72.539  1.00  0.00    -0.497 C  
ENDBRANCH  26  27
BRANCH  26  31
HETATM   31  S   UNL     1     -10.861  10.723  68.784  1.00  0.00    -0.241 S  
HETATM   32  O   UNL     1     -12.256  11.030  68.585  1.00  0.00    -0.571 OA 
HETATM   33  O   UNL     1      -9.929  11.716  69.286  1.00  0.00     0.037 OA 
BRANCH  31  34
HETATM   34  C   UNL     1     -10.221  10.135  67.217  1.00  0.00    -0.222 A  
HETATM   35  C   UNL     1      -8.837   8.603  65.959  1.00  0.00    -0.213 A  
HETATM   36  C   UNL     1      -9.391   9.015  67.181  1.00  0.00    -0.184 A  
HETATM   37  C   UNL     1      -9.067   9.321  64.780  1.00  0.00    -0.144 A  
HETATM   38  N   UNL     1      -8.599   8.844  63.555  1.00  0.00    -0.381 NA 
HETATM   39  C   UNL     1      -9.968  10.388  64.821  1.00  0.00    -0.409 A  
HETATM   40  H1  UNL     1      -8.766   9.367  62.696  1.00  0.00     0.000 HD 
HETATM   41  C   UNL     1     -10.534  10.809  66.032  1.00  0.00    -0.273 A  
HETATM   42  H2  UNL     1      -8.953   7.896  63.425  1.00  0.00     0.000 HD 
ENDBRANCH  31  34
ENDBRANCH  26  31
ENDBRANCH  25  26
ENDBRANCH  22  25
ENDBRANCH  14  22
ENDBRANCH  12  14
ENDBRANCH   9  10
ENDBRANCH   8   9
TORSDOF 11
ENDMDL
MODEL      329
REMARK 921   NORMALIZED FREE ENERGY PREDICTED BY IDOCK:   -3.31 KCAL/MOL
REMARK 922        TOTAL FREE ENERGY PREDICTED BY IDOCK:   -8.06 KCAL/MOL
REMARK 923 INTER-LIGAND FREE ENERGY PREDICTED BY IDOCK:   -6.68 KCAL/MOL
REMARK 924 INTRA-LIGAND FREE ENERGY PREDICTED BY IDOCK:   -1.38 KCAL/MOL
REMARK 927      BINDING AFFINITY PREDICTED BY RF-SCORE:    0.00 PKD
ROOT
HETATM    1  C   UNL     1     -10.607   6.151  71.968  1.00  0.00    -0.259 C  
HETATM    2  C   UNL     1      -9.458   6.786  72.731  1.00  0.00    -0.157 C  
HETATM    3  C   UNL     1      -9.748   6.481  74.188  1.00  0.00    -0.270 C  
HETATM    4  O   UNL     1     -10.906   5.649  74.248  1.00  0.00    -0.167 OA 
HETATM    5  C   UNL     1     -11.153   5.139  72.945  1.00  0.00    -0.295 C  
HETATM    6  O   UNL     1     -10.432   3.931  72.708  1.00  0.00    -0.169 OA 
HETATM    7  C   UNL     1     -10.085   3.906  71.320  1.00  0.00    -0.028 C  
HETATM    8  C   UNL     1     -10.251   5.315  70.752  1.00  0.00    -0.246 C  
ENDROOT
BRANCH   8   9
HETATM    9  O   UNL     1      -9.006   5.723  70.161  1.00  0.00    -0.137 OA 
BRANCH   9  10
HETATM   10  C   UNL     1      -9.073   6.213  68.899  1.00  0.00    -0.123 C  
HETATM   11  O   UNL     1     -10.009   6.848  68.443  1.00  0.00    -0.140 OA 
HETATM   12  N   UNL     1      -7.968   5.797  68.215  1.00  0.00    -0.103 N  
HETATM   13  H   UNL     1      -7.212   5.358  68.740  1.00  0.00     0.000 HD 
BRANCH  12  14
HETATM   14  C   UNL     1      -7.811   5.948  66.760  1.00  0.00    -0.101 C  
BRANCH  14  15
HETATM   15  C   UNL     1      -9.172   5.772  66.012  1.00  0.00    -0.155 C  
BRANCH  15  16
HETATM   16  C   UNL     1      -9.230   4.673  64.964  1.00  0.00    -0.152 A  
HETATM   17  C   UNL     1     -10.460   4.135  64.564  1.00  0.00    -0.178 A  
HETATM   18  C   UNL     1      -8.055   4.146  64.404  1.00  0.00    -0.091 A  
HETATM   19  C   UNL     1     -10.514   3.095  63.632  1.00  0.00    -0.231 A  
HETATM   20  C   UNL     1      -9.340   2.587  63.079  1.00  0.00    -0.090 A  
HETATM   21  C   UNL     1      -8.110   3.118  63.459  1.00  0.00    -0.085 A  
ENDBRANCH  15  16
ENDBRANCH  14  15
BRANCH  14  22
HETATM   22  C   UNL     1      -7.129   7.284  66.335  1.00  0.00    -0.077 C  
HETATM   23  O   UNL     1      -6.194   7.719  67.332  1.00  0.00    -0.050 OA 
HETATM   24  H   UNL     1      -5.779   8.533  67.073  1.00  0.00     0.000 HD 
BRANCH  22  25
HETATM   25  C   UNL     1      -8.037   8.447  65.886  1.00  0.00    -0.110 C  
BRANCH  25  26
HETATM   26  N   UNL     1      -7.754   9.859  66.388  1.00  0.00    -0.102 N  
BRANCH  26  27
HETATM   27  C   UNL     1      -6.646  10.521  65.570  1.00  0.00    -0.097 C  
HETATM   28  C   UNL     1      -6.325   9.980  64.160  1.00  0.00    -0.132 C  
HETATM   29  C   UNL     1      -7.481  10.098  63.169  1.00  0.00    -0.141 C  
HETATM   30  C   UNL     1      -5.134  10.764  63.578  1.00  0.00    -0.161 C  
ENDBRANCH  26  27
BRANCH  26  31
HETATM   31  S   UNL     1      -9.248  10.795  66.357  1.00  0.00    -0.175 S  
HETATM   32  O   UNL     1      -8.918  12.198  66.331  1.00  0.00    -0.200 OA 
HETATM   33  O   UNL     1     -10.083  10.192  65.333  1.00  0.00    -0.303 OA 
BRANCH  31  34
HETATM   34  C   UNL     1     -10.022  10.462  67.938  1.00  0.00    -0.167 A  
HETATM   35  C   UNL     1     -11.964  10.517  69.376  1.00  0.00    -0.230 A  
HETATM   36  C   UNL     1     -11.382  10.714  68.115  1.00  0.00    -0.354 A  
HETATM   37  C   UNL     1     -11.196  10.114  70.475  1.00  0.00    -0.336 A  
HETATM   38  N   UNL     1     -11.803   9.821  71.696  1.00  0.00    -0.390 NA 
HETATM   39  C   UNL     1      -9.855   9.785  70.259  1.00  0.00    -0.296 A  
HETATM   40  H1  UNL     1     -11.243   9.527  72.496  1.00  0.00     0.000 HD 
HETATM   41  C   UNL     1      -9.260   9.970  69.004  1.00  0.00    -0.180 A  
HETATM   42  H2  UNL     1     -12.523   9.116  71.534  1.00  0.00     0.000 HD 
ENDBRANCH  31  34
ENDBRANCH  26  31
ENDBRANCH  25  26
ENDBRANCH  22  25
ENDBRANCH  14  22
ENDBRANCH  12  14
ENDBRANCH   9  10
ENDBRANCH   8   9
TORSDOF 11
ENDMDL
MODEL      330
REMARK 921   NORMALIZED FREE ENERGY PREDICTED BY IDOCK:   -3.29 KCAL/MOL
REMARK 922        TOTAL FREE ENERGY PREDICTED BY IDOCK:   -8.02 KCAL/MOL
REMARK 923 INTER-LIGAND FREE ENERGY PREDICTED BY IDOCK:   -7.01 KCAL/MOL
REMARK 924 INTRA-LIGAND FREE ENERGY PREDICTED BY IDOCK:   -1.01 KCAL/MOL
REMARK 927      BINDING AFFINITY PREDICTED BY RF-SCORE:    0.00 PKD
ROOT
HETATM    1  C   UNL     1      -8.696   3.450  63.430  1.00  0.00    -0.093 C  
HETATM    2  C   UNL     1     -10.037   3.844  62.837  1.00  0.00    -0.171 C  
HETATM    3  C   UNL     1     -10.772   2.532  62.643  1.00  0.00    -0.167 C  
HETATM    4  O   UNL     1      -9.966   1.485  63.181  1.00  0.00    -0.100 OA 
HETATM    5  C   UNL     1      -8.957   2.073  63.989  1.00  0.00    -0.097 C  
HETATM    6  O   UNL     1      -9.404   2.268  65.329  1.00  0.00    -0.119 OA 
HETATM    7  C   UNL     1      -8.771   3.453  65.823  1.00  0.00    -0.123 C  
HETATM    8  C   UNL     1      -8.216   4.238  64.635  1.00  0.00    -0.104 C  
ENDROOT
BRANCH   8   9
HETATM    9  O   UNL     1      -8.763   5.567  64.667  1.00  0.00    -0.117 OA 
BRANCH   9  10
HETATM   10  C   UNL     1      -8.072   6.484  65.388  1.00  0.00    -0.129 C  
HETATM   11  O   UNL     1      -6.858   6.527  65.485  1.00  0.00    -0.046 OA 
HETATM   12  N   UNL     1      -8.966   7.275  66.048  1.00  0.00    -0.280 N  
HETATM   13  H   UNL     1      -9.953   7.201  65.801  1.00  0.00     0.000 HD 
BRANCH  12  14
HETATM   14  C   UNL     1      -8.581   8.232  67.098  1.00  0.00    -0.123 C  
BRANCH  14  15
HETATM   15  C   UNL     1      -8.899   9.704  66.681  1.00  0.00    -0.153 C  
BRANCH  15  16
HETATM   16  C   UNL     1      -8.847  10.010  65.192  1.00  0.00    -0.207 A  
HETATM   17  C   UNL     1      -7.627   9.988  64.504  1.00  0.00    -0.142 A  
HETATM   18  C   UNL     1     -10.008  10.358  64.485  1.00  0.00    -0.401 A  
HETATM   19  C   UNL     1      -7.569  10.310  63.145  1.00  0.00    -0.132 A  
HETATM   20  C   UNL     1      -8.732  10.647  62.454  1.00  0.00    -0.307 A  
HETATM   21  C   UNL     1      -9.953  10.664  63.122  1.00  0.00    -0.286 A  
ENDBRANCH  15  16
ENDBRANCH  14  15
BRANCH  14  22
HETATM   22  C   UNL     1      -9.202   7.920  68.494  1.00  0.00    -0.138 C  
HETATM   23  O   UNL     1      -9.302   6.504  68.702  1.00  0.00    -0.127 OA 
HETATM   24  H   UNL     1      -9.680   6.314  69.552  1.00  0.00     0.000 HD 
BRANCH  22  25
HETATM   25  C   UNL     1     -10.518   8.627  68.873  1.00  0.00    -0.192 C  
BRANCH  25  26
HETATM   26  N   UNL     1     -10.684   9.208  70.274  1.00  0.00    -0.220 N  
BRANCH  26  27
HETATM   27  C   UNL     1     -11.597  10.433  70.255  1.00  0.00    -0.327 C  
HETATM   28  C   UNL     1     -11.355  11.537  69.204  1.00  0.00    -0.351 C  
HETATM   29  C   UNL     1     -11.523  11.071  67.759  1.00  0.00    -0.339 C  
HETATM   30  C   UNL     1     -12.355  12.686  69.439  1.00  0.00     0.046 C  
ENDBRANCH  26  27
BRANCH  26  31
HETATM   31  S   UNL     1     -11.285   7.951  71.355  1.00  0.00    -0.253 S  
HETATM   32  O   UNL     1     -12.062   8.569  72.400  1.00  0.00    -0.377 OA 
HETATM   33  O   UNL     1     -11.843   6.916  70.503  1.00  0.00    -0.352 OA 
BRANCH  31  34
HETATM   34  C   UNL     1      -9.813   7.274  72.121  1.00  0.00    -0.160 A  
HETATM   35  C   UNL     1      -8.343   5.404  72.549  1.00  0.00    -0.114 A  
HETATM   36  C   UNL     1      -9.457   5.946  71.890  1.00  0.00    -0.166 A  
HETATM   37  C   UNL     1      -7.606   6.159  73.469  1.00  0.00    -0.095 A  
HETATM   38  N   UNL     1      -6.441   5.644  74.038  1.00  0.00    -0.072 NA 
HETATM   39  C   UNL     1      -7.926   7.510  73.622  1.00  0.00    -0.163 A  
HETATM   40  H1  UNL     1      -5.904   6.195  74.708  1.00  0.00     0.000 HD 
HETATM   41  C   UNL     1      -9.032   8.069  72.966  1.00  0.00    -0.313 A  
HETATM   42  H2  UNL     1      -5.815   5.361  73.283  1.00  0.00     0.000 HD 
ENDBRANCH  31  34
ENDBRANCH  26  31
ENDBRANCH  25  26
ENDBRANCH  22  25
ENDBRANCH  14  22
ENDBRANCH  12  14
ENDBRANCH   9  10
ENDBRANCH   8   9
TORSDOF 11
ENDMDL
MODEL      331
REMARK 921   NORMALIZED FREE ENERGY PREDICTED BY IDOCK:   -3.26 KCAL/MOL
REMARK 922        TOTAL FREE ENERGY PREDICTED BY IDOCK:   -7.98 KCAL/MOL
REMARK 923 INTER-LIGAND FREE ENERGY PREDICTED BY IDOCK:   -7.50 KCAL/MOL
REMARK 924 INTRA-LIGAND FREE ENERGY PREDICTED BY IDOCK:   -0.48 KCAL/MOL
REMARK 927      BINDING AFFINITY PREDICTED BY RF-SCORE:    0.00 PKD
ROOT
HETATM    1  C   UNL     1     -10.134   6.048  70.529  1.00  0.00    -0.244 C  
HETATM    2  C   UNL     1     -11.625   6.246  70.738  1.00  0.00    -0.347 C  
HETATM    3  C   UNL     1     -11.802   6.282  72.244  1.00  0.00    -0.278 C  
HETATM    4  O   UNL     1     -10.510   6.221  72.846  1.00  0.00    -0.198 OA 
HETATM    5  C   UNL     1      -9.540   6.490  71.844  1.00  0.00    -0.150 C  
HETATM    6  O   UNL     1      -9.293   7.890  71.716  1.00  0.00    -0.139 OA 
HETATM    7  C   UNL     1      -8.998   8.148  70.339  1.00  0.00    -0.146 C  
HETATM    8  C   UNL     1      -9.454   6.946  69.512  1.00  0.00    -0.146 C  
ENDROOT
BRANCH   8   9
HETATM    9  O   UNL     1     -10.366   7.404  68.500  1.00  0.00    -0.190 OA 
BRANCH   9  10
HETATM   10  C   UNL     1      -9.972   8.485  67.782  1.00  0.00    -0.190 C  
HETATM   11  O   UNL     1      -8.924   8.571  67.164  1.00  0.00    -0.127 OA 
HETATM   12  N   UNL     1     -10.896   9.475  67.949  1.00  0.00    -0.444 N  
HETATM   13  H   UNL     1     -11.778   9.240  68.406  1.00  0.00     0.000 HD 
BRANCH  12  14
HETATM   14  C   UNL     1     -10.689  10.861  67.504  1.00  0.00    -0.252 C  
BRANCH  14  15
HETATM   15  C   UNL     1     -11.856  11.352  66.587  1.00  0.00     0.401 C  
BRANCH  15  16
HETATM   16  C   UNL     1     -11.628  12.660  65.847  1.00  0.00    -0.443 A  
HETATM   17  C   UNL     1     -12.648  13.617  65.762  1.00  0.00    -0.511 A  
HETATM   18  C   UNL     1     -10.410  12.923  65.201  1.00  0.00    -0.320 A  
HETATM   19  C   UNL     1     -12.456  14.802  65.047  1.00  0.00    -0.150 A  
HETATM   20  C   UNL     1     -11.238  15.052  64.417  1.00  0.00    -0.173 A  
HETATM   21  C   UNL     1     -10.212  14.116  64.500  1.00  0.00     0.002 A  
ENDBRANCH  15  16
ENDBRANCH  14  15
BRANCH  14  22
HETATM   22  C   UNL     1     -10.459  11.870  68.671  1.00  0.00    -0.212 C  
HETATM   23  O   UNL     1     -10.136  11.179  69.885  1.00  0.00    -0.317 OA 
HETATM   24  H   UNL     1      -9.995  11.794  70.596  1.00  0.00     0.000 HD 
BRANCH  22  25
HETATM   25  C   UNL     1     -11.536  12.946  68.919  1.00  0.00    -0.304 C  
BRANCH  25  26
HETATM   26  N   UNL     1     -11.131  14.295  69.503  1.00  0.00    -0.233 N  
BRANCH  26  27
HETATM   27  C   UNL     1     -11.264  14.296  71.026  1.00  0.00     0.483 C  
HETATM   28  C   UNL     1     -11.939  15.498  71.722  1.00  0.00    -0.494 C  
HETATM   29  C   UNL     1     -13.402  15.701  71.336  1.00  0.00    -0.512 C  
HETATM   30  C   UNL     1     -11.886  15.292  73.247  1.00  0.00    -0.476 C  
ENDBRANCH  26  27
BRANCH  26  31
HETATM   31  S   UNL     1      -9.491  14.682  68.982  1.00  0.00    -0.068 S  
HETATM   32  O   UNL     1      -8.723  15.095  70.131  1.00  0.00     0.171 OA 
HETATM   33  O   UNL     1      -9.062  13.582  68.138  1.00  0.00    -0.189 OA 
BRANCH  31  34
HETATM   34  C   UNL     1      -9.680  16.119  67.929  1.00  0.00    -0.225 A  
HETATM   35  C   UNL     1      -8.706  17.893  66.606  1.00  0.00    -0.280 A  
HETATM   36  C   UNL     1      -8.555  16.726  67.372  1.00  0.00    -0.206 A  
HETATM   37  C   UNL     1      -9.962  18.484  66.426  1.00  0.00    -0.379 A  
HETATM   38  N   UNL     1     -10.114  19.582  65.578  1.00  0.00    -0.339 NA 
HETATM   39  C   UNL     1     -11.085  17.816  66.920  1.00  0.00     0.320 A  
HETATM   40  H1  UNL     1     -11.029  20.013  65.447  1.00  0.00     0.000 HD 
HETATM   41  C   UNL     1     -10.952  16.647  67.682  1.00  0.00    -0.193 A  
HETATM   42  H2  UNL     1      -9.746  19.330  64.660  1.00  0.00     0.000 HD 
ENDBRANCH  31  34
ENDBRANCH  26  31
ENDBRANCH  25  26
ENDBRANCH  22  25
ENDBRANCH  14  22
ENDBRANCH  12  14
ENDBRANCH   9  10
ENDBRANCH   8   9
TORSDOF 11
ENDMDL
MODEL      332
REMARK 921   NORMALIZED FREE ENERGY PREDICTED BY IDOCK:   -3.25 KCAL/MOL
REMARK 922        TOTAL FREE ENERGY PREDICTED BY IDOCK:   -7.97 KCAL/MOL
REMARK 923 INTER-LIGAND FREE ENERGY PREDICTED BY IDOCK:   -7.67 KCAL/MOL
REMARK 924 INTRA-LIGAND FREE ENERGY PREDICTED BY IDOCK:   -0.30 KCAL/MOL
REMARK 927      BINDING AFFINITY PREDICTED BY RF-SCORE:    0.00 PKD
ROOT
HETATM    1  C   UNL     1      -8.682   7.761  73.509  1.00  0.00    -0.296 C  
HETATM    2  C   UNL     1      -7.337   8.361  73.141  1.00  0.00    -0.108 C  
HETATM    3  C   UNL     1      -6.360   7.204  73.232  1.00  0.00    -0.064 C  
HETATM    4  O   UNL     1      -7.099   6.019  73.520  1.00  0.00    -0.083 OA 
HETATM    5  C   UNL     1      -8.474   6.283  73.281  1.00  0.00    -0.119 C  
HETATM    6  O   UNL     1      -8.827   6.040  71.920  1.00  0.00    -0.137 OA 
HETATM    7  C   UNL     1      -9.846   6.981  71.568  1.00  0.00    -0.172 C  
HETATM    8  C   UNL     1      -9.858   8.098  72.612  1.00  0.00    -0.294 C  
ENDROOT
BRANCH   8   9
HETATM    9  O   UNL     1      -9.684   9.356  71.940  1.00  0.00    -0.171 OA 
BRANCH   9  10
HETATM   10  C   UNL     1     -10.076   9.404  70.643  1.00  0.00    -0.291 C  
HETATM   11  O   UNL     1     -11.230   9.319  70.257  1.00  0.00    -0.245 OA 
HETATM   12  N   UNL     1      -8.963   9.466  69.857  1.00  0.00    -0.182 N  
HETATM   13  H   UNL     1      -8.062   9.635  70.307  1.00  0.00     0.000 HD 
BRANCH  12  14
HETATM   14  C   UNL     1      -8.992   9.305  68.395  1.00  0.00    -0.129 C  
BRANCH  14  15
HETATM   15  C   UNL     1      -9.700   7.976  67.976  1.00  0.00    -0.184 C  
BRANCH  15  16
HETATM   16  C   UNL     1      -8.810   6.891  67.392  1.00  0.00    -0.118 A  
HETATM   17  C   UNL     1      -8.291   5.879  68.210  1.00  0.00    -0.112 A  
HETATM   18  C   UNL     1      -8.457   6.900  66.033  1.00  0.00    -0.140 A  
HETATM   19  C   UNL     1      -7.437   4.905  67.685  1.00  0.00    -0.079 A  
HETATM   20  C   UNL     1      -7.102   4.922  66.332  1.00  0.00    -0.072 A  
HETATM   21  C   UNL     1      -7.617   5.916  65.504  1.00  0.00    -0.084 A  
ENDBRANCH  15  16
ENDBRANCH  14  15
BRANCH  14  22
HETATM   22  C   UNL     1      -9.622  10.514  67.639  1.00  0.00    -0.157 C  
HETATM   23  O   UNL     1      -9.395  10.407  66.227  1.00  0.00    -0.159 OA 
HETATM   24  H   UNL     1      -9.779  11.144  65.767  1.00  0.00     0.000 HD 
BRANCH  22  25
HETATM   25  C   UNL     1      -9.293  11.933  68.145  1.00  0.00    -0.191 C  
BRANCH  25  26
HETATM   26  N   UNL     1      -8.793  12.986  67.161  1.00  0.00    -0.211 N  
BRANCH  26  27
HETATM   27  C   UNL     1      -9.960  13.711  66.492  1.00  0.00    -0.288 C  
HETATM   28  C   UNL     1     -11.405  13.338  66.889  1.00  0.00    -0.351 C  
HETATM   29  C   UNL     1     -11.739  13.610  68.354  1.00  0.00    -0.393 C  
HETATM   30  C   UNL     1     -12.390  14.154  66.030  1.00  0.00    -0.470 C  
ENDBRANCH  26  27
BRANCH  26  31
HETATM   31  S   UNL     1      -7.716  14.100  68.003  1.00  0.00    -0.166 S  
HETATM   32  O   UNL     1      -7.723  13.780  69.409  1.00  0.00     0.155 OA 
HETATM   33  O   UNL     1      -6.483  14.130  67.237  1.00  0.00    -0.288 OA 
BRANCH  31  34
HETATM   34  C   UNL     1      -8.496  15.703  67.821  1.00  0.00    -0.151 A  
HETATM   35  C   UNL     1      -9.998  17.410  68.644  1.00  0.00    -0.340 A  
HETATM   36  C   UNL     1      -9.336  16.185  68.825  1.00  0.00    -0.229 A  
HETATM   37  C   UNL     1      -9.865  18.136  67.455  1.00  0.00    -0.313 A  
HETATM   38  N   UNL     1     -10.443  19.400  67.328  1.00  0.00    -0.437 NA 
HETATM   39  C   UNL     1      -8.955  17.680  66.499  1.00  0.00    -0.283 A  
HETATM   40  H1  UNL     1     -10.347  19.930  66.461  1.00  0.00     0.000 HD 
HETATM   41  C   UNL     1      -8.281  16.463  66.667  1.00  0.00    -0.314 A  
HETATM   42  H2  UNL     1     -10.110  19.982  68.096  1.00  0.00     0.000 HD 
ENDBRANCH  31  34
ENDBRANCH  26  31
ENDBRANCH  25  26
ENDBRANCH  22  25
ENDBRANCH  14  22
ENDBRANCH  12  14
ENDBRANCH   9  10
ENDBRANCH   8   9
TORSDOF 11
ENDMDL
MODEL      333
REMARK 921   NORMALIZED FREE ENERGY PREDICTED BY IDOCK:   -3.21 KCAL/MOL
REMARK 922        TOTAL FREE ENERGY PREDICTED BY IDOCK:   -7.89 KCAL/MOL
REMARK 923 INTER-LIGAND FREE ENERGY PREDICTED BY IDOCK:   -6.85 KCAL/MOL
REMARK 924 INTRA-LIGAND FREE ENERGY PREDICTED BY IDOCK:   -1.04 KCAL/MOL
REMARK 927      BINDING AFFINITY PREDICTED BY RF-SCORE:    0.00 PKD
ROOT
HETATM    1  C   UNL     1      -9.005   4.693  67.294  1.00  0.00    -0.120 C  
HETATM    2  C   UNL     1     -10.304   4.920  66.542  1.00  0.00    -0.311 C  
HETATM    3  C   UNL     1     -10.135   4.156  65.242  1.00  0.00    -0.202 C  
HETATM    4  O   UNL     1      -8.890   3.461  65.292  1.00  0.00    -0.117 OA 
HETATM    5  C   UNL     1      -8.437   3.458  66.638  1.00  0.00    -0.109 C  
HETATM    6  O   UNL     1      -8.961   2.348  67.366  1.00  0.00    -0.129 OA 
HETATM    7  C   UNL     1      -9.150   2.774  68.719  1.00  0.00    -0.151 C  
HETATM    8  C   UNL     1      -9.113   4.302  68.757  1.00  0.00    -0.128 C  
ENDROOT
BRANCH   8   9
HETATM    9  O   UNL     1     -10.330   4.776  69.355  1.00  0.00    -0.177 OA 
BRANCH   9  10
HETATM   10  C   UNL     1     -10.204   5.428  70.538  1.00  0.00    -0.256 C  
HETATM   11  O   UNL     1     -11.107   5.616  71.334  1.00  0.00    -0.239 OA 
HETATM   12  N   UNL     1      -8.930   5.909  70.631  1.00  0.00    -0.144 N  
HETATM   13  H   UNL     1      -8.243   5.595  69.945  1.00  0.00     0.000 HD 
BRANCH  12  14
HETATM   14  C   UNL     1      -8.495   6.855  71.669  1.00  0.00    -0.117 C  
BRANCH  14  15
HETATM   15  C   UNL     1      -6.938   6.880  71.811  1.00  0.00    -0.070 C  
BRANCH  15  16
HETATM   16  C   UNL     1      -6.279   8.249  71.780  1.00  0.00    -0.050 A  
HETATM   17  C   UNL     1      -5.962   8.914  72.971  1.00  0.00    -0.048 A  
HETATM   18  C   UNL     1      -6.007   8.893  70.562  1.00  0.00    -0.033 A  
HETATM   19  C   UNL     1      -5.395  10.191  72.946  1.00  0.00     0.252 A  
HETATM   20  C   UNL     1      -5.125  10.815  71.730  1.00  0.00     0.001 A  
HETATM   21  C   UNL     1      -5.424  10.163  70.537  1.00  0.00    -0.060 A  
ENDBRANCH  15  16
ENDBRANCH  14  15
BRANCH  14  22
HETATM   22  C   UNL     1      -9.042   8.302  71.473  1.00  0.00    -0.177 C  
HETATM   23  O   UNL     1     -10.178   8.536  72.317  1.00  0.00    -0.304 OA 
HETATM   24  H   UNL     1     -10.511   9.418  72.197  1.00  0.00     0.000 HD 
BRANCH  22  25
HETATM   25  C   UNL     1      -9.317   8.781  70.033  1.00  0.00    -0.168 C  
BRANCH  25  26
HETATM   26  N   UNL     1     -10.715   9.258  69.653  1.00  0.00    -0.230 N  
BRANCH  26  27
HETATM   27  C   UNL     1     -11.172  10.399  70.561  1.00  0.00    -0.314 C  
HETATM   28  C   UNL     1     -12.679  10.581  70.841  1.00  0.00    -0.495 C  
HETATM   29  C   UNL     1     -13.326   9.402  71.565  1.00  0.00    -0.458 C  
HETATM   30  C   UNL     1     -12.882  11.831  71.718  1.00  0.00    -0.403 C  
ENDBRANCH  26  27
BRANCH  26  31
HETATM   31  S   UNL     1     -10.725   9.722  67.952  1.00  0.00    -0.237 S  
HETATM   32  O   UNL     1     -10.639   8.530  67.144  1.00  0.00    -0.303 OA 
HETATM   33  O   UNL     1     -11.816  10.668  67.795  1.00  0.00    -0.460 OA 
BRANCH  31  34
HETATM   34  C   UNL     1      -9.197  10.628  67.723  1.00  0.00    -0.146 A  
HETATM   35  C   UNL     1      -7.069  10.904  66.608  1.00  0.00    -0.135 A  
HETATM   36  C   UNL     1      -8.295  10.232  66.735  1.00  0.00    -0.124 A  
HETATM   37  C   UNL     1      -6.713  11.935  67.485  1.00  0.00    -0.111 A  
HETATM   38  N   UNL     1      -5.540  12.663  67.284  1.00  0.00    -0.316 NA 
HETATM   39  C   UNL     1      -7.663  12.372  68.411  1.00  0.00    -0.144 A  
HETATM   40  H1  UNL     1      -5.281  13.415  67.923  1.00  0.00     0.000 HD 
HETATM   41  C   UNL     1      -8.895  11.717  68.546  1.00  0.00    -0.122 A  
HETATM   42  H2  UNL     1      -5.556  13.041  66.337  1.00  0.00     0.000 HD 
ENDBRANCH  31  34
ENDBRANCH  26  31
ENDBRANCH  25  26
ENDBRANCH  22  25
ENDBRANCH  14  22
ENDBRANCH  12  14
ENDBRANCH   9  10
ENDBRANCH   8   9
TORSDOF 11
ENDMDL
MODEL      334
REMARK 921   NORMALIZED FREE ENERGY PREDICTED BY IDOCK:   -3.19 KCAL/MOL
REMARK 922        TOTAL FREE ENERGY PREDICTED BY IDOCK:   -7.87 KCAL/MOL
REMARK 923 INTER-LIGAND FREE ENERGY PREDICTED BY IDOCK:   -7.70 KCAL/MOL
REMARK 924 INTRA-LIGAND FREE ENERGY PREDICTED BY IDOCK:   -0.17 KCAL/MOL
REMARK 927      BINDING AFFINITY PREDICTED BY RF-SCORE:    0.00 PKD
ROOT
HETATM    1  C   UNL     1      -9.287   7.276  72.344  1.00  0.00    -0.166 C  
HETATM    2  C   UNL     1      -7.981   6.502  72.357  1.00  0.00    -0.101 C  
HETATM    3  C   UNL     1      -7.501   6.581  73.794  1.00  0.00    -0.084 C  
HETATM    4  O   UNL     1      -8.500   7.250  74.562  1.00  0.00    -0.182 OA 
HETATM    5  C   UNL     1      -9.696   7.288  73.797  1.00  0.00    -0.298 C  
HETATM    6  O   UNL     1     -10.484   6.116  73.996  1.00  0.00    -0.279 OA 
HETATM    7  C   UNL     1     -11.155   5.837  72.762  1.00  0.00    -0.284 C  
HETATM    8  C   UNL     1     -10.468   6.626  71.647  1.00  0.00    -0.207 C  
ENDROOT
BRANCH   8   9
HETATM    9  O   UNL     1     -10.054   5.708  70.622  1.00  0.00    -0.188 OA 
BRANCH   9  10
HETATM   10  C   UNL     1     -10.171   6.144  69.344  1.00  0.00    -0.197 C  
HETATM   11  O   UNL     1     -11.165   6.019  68.649  1.00  0.00    -0.307 OA 
HETATM   12  N   UNL     1      -8.967   6.653  68.950  1.00  0.00    -0.130 N  
HETATM   13  H   UNL     1      -8.247   6.793  69.658  1.00  0.00     0.000 HD 
BRANCH  12  14
HETATM   14  C   UNL     1      -8.655   7.011  67.558  1.00  0.00    -0.121 C  
BRANCH  14  15
HETATM   15  C   UNL     1      -8.994   5.845  66.573  1.00  0.00    -0.133 C  
BRANCH  15  16
HETATM   16  C   UNL     1      -7.998   4.698  66.518  1.00  0.00    -0.103 A  
HETATM   17  C   UNL     1      -8.346   3.483  65.913  1.00  0.00    -0.106 A  
HETATM   18  C   UNL     1      -6.727   4.814  67.102  1.00  0.00    -0.055 A  
HETATM   19  C   UNL     1      -7.448   2.412  65.898  1.00  0.00    -0.067 A  
HETATM   20  C   UNL     1      -6.187   2.545  66.476  1.00  0.00    -0.024 A  
HETATM   21  C   UNL     1      -5.823   3.749  67.072  1.00  0.00    -0.023 A  
ENDBRANCH  15  16
ENDBRANCH  14  15
BRANCH  14  22
HETATM   22  C   UNL     1      -9.328   8.334  67.080  1.00  0.00    -0.151 C  
HETATM   23  O   UNL     1     -10.539   8.058  66.362  1.00  0.00    -0.373 OA 
HETATM   24  H   UNL     1     -10.950   8.864  66.071  1.00  0.00     0.000 HD 
BRANCH  22  25
HETATM   25  C   UNL     1      -8.457   9.355  66.321  1.00  0.00    -0.126 C  
BRANCH  25  26
HETATM   26  N   UNL     1      -8.847  10.830  66.329  1.00  0.00    -0.167 N  
BRANCH  26  27
HETATM   27  C   UNL     1     -10.290  11.018  65.861  1.00  0.00    -0.257 C  
HETATM   28  C   UNL     1     -10.787  12.437  65.508  1.00  0.00    -0.316 C  
HETATM   29  C   UNL     1     -10.051  13.082  64.336  1.00  0.00    -0.245 C  
HETATM   30  C   UNL     1     -12.281  12.369  65.136  1.00  0.00    -0.449 C  
ENDBRANCH  26  27
BRANCH  26  31
HETATM   31  S   UNL     1      -8.584  11.489  67.943  1.00  0.00    -0.150 S  
HETATM   32  O   UNL     1      -7.403  10.883  68.506  1.00  0.00    -0.087 OA 
HETATM   33  O   UNL     1      -8.713  12.930  67.819  1.00  0.00    -0.166 OA 
BRANCH  31  34
HETATM   34  C   UNL     1      -9.983  10.909  68.900  1.00  0.00    -0.196 A  
HETATM   35  C   UNL     1     -12.333  11.018  69.457  1.00  0.00    -0.266 A  
HETATM   36  C   UNL     1     -11.255  11.426  68.656  1.00  0.00    -0.303 A  
HETATM   37  C   UNL     1     -12.148  10.134  70.526  1.00  0.00    -0.291 A  
HETATM   38  N   UNL     1     -13.242   9.655  71.249  1.00  0.00    -0.449 NA 
HETATM   39  C   UNL     1     -10.885   9.562  70.701  1.00  0.00    -0.371 A  
HETATM   40  H1  UNL     1     -13.107   9.011  72.028  1.00  0.00     0.000 HD 
HETATM   41  C   UNL     1      -9.799   9.954  69.906  1.00  0.00    -0.285 A  
HETATM   42  H2  UNL     1     -13.896   9.229  70.592  1.00  0.00     0.000 HD 
ENDBRANCH  31  34
ENDBRANCH  26  31
ENDBRANCH  25  26
ENDBRANCH  22  25
ENDBRANCH  14  22
ENDBRANCH  12  14
ENDBRANCH   9  10
ENDBRANCH   8   9
TORSDOF 11
ENDMDL
MODEL      335
REMARK 921   NORMALIZED FREE ENERGY PREDICTED BY IDOCK:   -3.18 KCAL/MOL
REMARK 922        TOTAL FREE ENERGY PREDICTED BY IDOCK:   -7.84 KCAL/MOL
REMARK 923 INTER-LIGAND FREE ENERGY PREDICTED BY IDOCK:   -6.23 KCAL/MOL
REMARK 924 INTRA-LIGAND FREE ENERGY PREDICTED BY IDOCK:   -1.61 KCAL/MOL
REMARK 927      BINDING AFFINITY PREDICTED BY RF-SCORE:    0.00 PKD
ROOT
HETATM    1  C   UNL     1      -9.486   4.328  64.575  1.00  0.00    -0.156 C  
HETATM    2  C   UNL     1      -9.254   3.046  65.353  1.00  0.00    -0.141 C  
HETATM    3  C   UNL     1      -8.839   2.029  64.306  1.00  0.00    -0.103 C  
HETATM    4  O   UNL     1      -8.737   2.699  63.051  1.00  0.00    -0.085 OA 
HETATM    5  C   UNL     1      -8.722   4.098  63.294  1.00  0.00    -0.112 C  
HETATM    6  O   UNL     1      -7.398   4.576  63.532  1.00  0.00    -0.052 OA 
HETATM    7  C   UNL     1      -7.495   5.654  64.469  1.00  0.00    -0.072 C  
HETATM    8  C   UNL     1      -8.871   5.597  65.134  1.00  0.00    -0.048 C  
ENDROOT
BRANCH   8   9
HETATM    9  O   UNL     1      -8.690   5.529  66.558  1.00  0.00    -0.116 OA 
BRANCH   9  10
HETATM   10  C   UNL     1      -9.349   6.459  67.292  1.00  0.00    -0.119 C  
HETATM   11  O   UNL     1     -10.487   6.341  67.713  1.00  0.00    -0.175 OA 
HETATM   12  N   UNL     1      -8.561   7.568  67.392  1.00  0.00    -0.118 N  
HETATM   13  H   UNL     1      -7.591   7.501  67.083  1.00  0.00     0.000 HD 
BRANCH  12  14
HETATM   14  C   UNL     1      -9.036   8.856  67.922  1.00  0.00    -0.139 C  
BRANCH  14  15
HETATM   15  C   UNL     1     -10.517   9.138  67.509  1.00  0.00    -0.335 C  
BRANCH  15  16
HETATM   16  C   UNL     1     -10.768  10.419  66.731  1.00  0.00    -0.235 A  
HETATM   17  C   UNL     1     -11.455  11.487  67.322  1.00  0.00    -0.338 A  
HETATM   18  C   UNL     1     -10.354  10.547  65.396  1.00  0.00    -0.292 A  
HETATM   19  C   UNL     1     -11.726  12.650  66.595  1.00  0.00    -0.464 A  
HETATM   20  C   UNL     1     -11.302  12.765  65.272  1.00  0.00    -0.338 A  
HETATM   21  C   UNL     1     -10.609  11.716  64.674  1.00  0.00    -0.366 A  
ENDBRANCH  15  16
ENDBRANCH  14  15
BRANCH  14  22
HETATM   22  C   UNL     1      -8.868   9.002  69.466  1.00  0.00    -0.146 C  
HETATM   23  O   UNL     1      -9.339  10.282  69.910  1.00  0.00    -0.389 OA 
HETATM   24  H   UNL     1      -9.237  10.372  70.850  1.00  0.00     0.000 HD 
BRANCH  22  25
HETATM   25  C   UNL     1      -7.490   8.679  70.077  1.00  0.00    -0.056 C  
BRANCH  25  26
HETATM   26  N   UNL     1      -7.379   7.613  71.162  1.00  0.00    -0.072 N  
BRANCH  26  27
HETATM   27  C   UNL     1      -8.758   7.239  71.706  1.00  0.00    -0.116 C  
HETATM   28  C   UNL     1      -8.898   6.844  73.192  1.00  0.00    -0.142 C  
HETATM   29  C   UNL     1      -8.530   7.957  74.171  1.00  0.00    -0.312 C  
HETATM   30  C   UNL     1     -10.360   6.446  73.472  1.00  0.00    -0.281 C  
ENDBRANCH  26  27
BRANCH  26  31
HETATM   31  S   UNL     1      -6.522   6.215  70.514  1.00  0.00    -0.045 S  
HETATM   32  O   UNL     1      -6.453   6.336  69.079  1.00  0.00    -0.039 OA 
HETATM   33  O   UNL     1      -5.325   6.062  71.321  1.00  0.00    -0.016 OA 
BRANCH  31  34
HETATM   34  C   UNL     1      -7.591   4.823  70.876  1.00  0.00    -0.069 A  
HETATM   35  C   UNL     1      -9.553   3.501  70.379  1.00  0.00    -0.241 A  
HETATM   36  C   UNL     1      -8.680   4.549  70.049  1.00  0.00    -0.115 A  
HETATM   37  C   UNL     1      -9.377   2.752  71.548  1.00  0.00    -0.129 A  
HETATM   38  N   UNL     1     -10.187   1.647  71.812  1.00  0.00    -0.136 NA 
HETATM   39  C   UNL     1      -8.235   2.985  72.318  1.00  0.00    -0.063 A  
HETATM   40  H1  UNL     1     -10.059   1.101  72.664  1.00  0.00     0.000 HD 
HETATM   41  C   UNL     1      -7.349   4.024  71.998  1.00  0.00    -0.060 A  
HETATM   42  H2  UNL     1     -10.131   1.012  71.015  1.00  0.00     0.000 HD 
ENDBRANCH  31  34
ENDBRANCH  26  31
ENDBRANCH  25  26
ENDBRANCH  22  25
ENDBRANCH  14  22
ENDBRANCH  12  14
ENDBRANCH   9  10
ENDBRANCH   8   9
TORSDOF 11
ENDMDL
MODEL      336
REMARK 921   NORMALIZED FREE ENERGY PREDICTED BY IDOCK:   -3.15 KCAL/MOL
REMARK 922        TOTAL FREE ENERGY PREDICTED BY IDOCK:   -7.79 KCAL/MOL
REMARK 923 INTER-LIGAND FREE ENERGY PREDICTED BY IDOCK:   -6.45 KCAL/MOL
REMARK 924 INTRA-LIGAND FREE ENERGY PREDICTED BY IDOCK:   -1.35 KCAL/MOL
REMARK 927      BINDING AFFINITY PREDICTED BY RF-SCORE:    0.00 PKD
ROOT
HETATM    1  C   UNL     1      -8.605   9.058  65.737  1.00  0.00    -0.180 C  
HETATM    2  C   UNL     1     -10.055   9.430  65.990  1.00  0.00    -0.302 C  
HETATM    3  C   UNL     1     -10.184  10.850  65.474  1.00  0.00    -0.271 C  
HETATM    4  O   UNL     1      -8.943  11.222  64.877  1.00  0.00    -0.108 OA 
HETATM    5  C   UNL     1      -8.175  10.044  64.678  1.00  0.00    -0.163 C  
HETATM    6  O   UNL     1      -8.469   9.430  63.424  1.00  0.00    -0.177 OA 
HETATM    7  C   UNL     1      -8.336   8.016  63.598  1.00  0.00     0.048 C  
HETATM    8  C   UNL     1      -8.340   7.708  65.095  1.00  0.00    -0.093 C  
ENDROOT
BRANCH   8   9
HETATM    9  O   UNL     1      -9.388   6.764  65.367  1.00  0.00     0.279 OA 
BRANCH   9  10
HETATM   10  C   UNL     1      -9.003   5.574  65.891  1.00  0.00    -0.154 C  
HETATM   11  O   UNL     1      -9.297   4.481  65.437  1.00  0.00    -0.148 OA 
HETATM   12  N   UNL     1      -8.321   5.813  67.048  1.00  0.00    -0.108 N  
HETATM   13  H   UNL     1      -8.055   6.774  67.263  1.00  0.00     0.000 HD 
BRANCH  12  14
HETATM   14  C   UNL     1      -7.948   4.757  68.002  1.00  0.00    -0.085 C  
BRANCH  14  15
HETATM   15  C   UNL     1      -6.438   4.375  67.878  1.00  0.00    -0.038 C  
BRANCH  15  16
HETATM   16  C   UNL     1      -6.010   3.731  66.569  1.00  0.00    -0.024 A  
HETATM   17  C   UNL     1      -5.793   2.349  66.494  1.00  0.00    -0.022 A  
HETATM   18  C   UNL     1      -5.786   4.507  65.421  1.00  0.00    -0.022 A  
HETATM   19  C   UNL     1      -5.358   1.760  65.303  1.00  0.00    -0.005 A  
HETATM   20  C   UNL     1      -5.147   2.542  64.169  1.00  0.00    -0.008 A  
HETATM   21  C   UNL     1      -5.369   3.915  64.225  1.00  0.00    -0.009 A  
ENDBRANCH  15  16
ENDBRANCH  14  15
BRANCH  14  22
HETATM   22  C   UNL     1      -8.300   5.092  69.484  1.00  0.00    -0.093 C  
HETATM   23  O   UNL     1      -9.671   5.498  69.602  1.00  0.00    -0.150 OA 
HETATM   24  H   UNL     1      -9.885   5.703  70.505  1.00  0.00     0.000 HD 
BRANCH  22  25
HETATM   25  C   UNL     1      -7.371   6.059  70.246  1.00  0.00    -0.088 C  
BRANCH  25  26
HETATM   26  N   UNL     1      -7.945   6.940  71.351  1.00  0.00    -0.107 N  
BRANCH  26  27
HETATM   27  C   UNL     1      -6.915   7.177  72.455  1.00  0.00    -0.064 C  
HETATM   28  C   UNL     1      -7.242   8.172  73.589  1.00  0.00    -0.182 C  
HETATM   29  C   UNL     1      -8.444   7.772  74.442  1.00  0.00    -0.251 C  
HETATM   30  C   UNL     1      -6.025   8.285  74.527  1.00  0.00    -0.117 C  
ENDBRANCH  26  27
BRANCH  26  31
HETATM   31  S   UNL     1      -8.520   8.451  70.647  1.00  0.00    -0.145 S  
HETATM   32  O   UNL     1      -7.718   9.535  71.156  1.00  0.00    -0.325 OA 
HETATM   33  O   UNL     1      -8.654   8.209  69.222  1.00  0.00    -0.133 OA 
BRANCH  31  34
HETATM   34  C   UNL     1     -10.171   8.657  71.310  1.00  0.00    -0.239 A  
HETATM   35  C   UNL     1     -11.986   7.872  72.701  1.00  0.00    -0.299 A  
HETATM   36  C   UNL     1     -10.667   7.743  72.239  1.00  0.00    -0.325 A  
HETATM   37  C   UNL     1     -12.830   8.877  72.213  1.00  0.00    -0.411 A  
HETATM   38  N   UNL     1     -14.103   9.059  72.755  1.00  0.00    -1.035 NA 
HETATM   39  C   UNL     1     -12.290   9.832  71.349  1.00  0.00    -0.480 A  
HETATM   40  H1  UNL     1     -14.718   9.791  72.399  1.00  0.00     0.000 HD 
HETATM   41  C   UNL     1     -10.973   9.721  70.883  1.00  0.00    -0.411 A  
HETATM   42  H2  UNL     1     -14.006   9.186  73.763  1.00  0.00     0.000 HD 
ENDBRANCH  31  34
ENDBRANCH  26  31
ENDBRANCH  25  26
ENDBRANCH  22  25
ENDBRANCH  14  22
ENDBRANCH  12  14
ENDBRANCH   9  10
ENDBRANCH   8   9
TORSDOF 11
ENDMDL
MODEL      337
REMARK 921   NORMALIZED FREE ENERGY PREDICTED BY IDOCK:   -3.13 KCAL/MOL
REMARK 922        TOTAL FREE ENERGY PREDICTED BY IDOCK:   -7.76 KCAL/MOL
REMARK 923 INTER-LIGAND FREE ENERGY PREDICTED BY IDOCK:   -6.99 KCAL/MOL
REMARK 924 INTRA-LIGAND FREE ENERGY PREDICTED BY IDOCK:   -0.77 KCAL/MOL
REMARK 927      BINDING AFFINITY PREDICTED BY RF-SCORE:    0.00 PKD
ROOT
HETATM    1  C   UNL     1     -12.492  10.234  69.957  1.00  0.00    -0.112 C  
HETATM    2  C   UNL     1     -12.924  11.506  70.663  1.00  0.00    -0.025 C  
HETATM    3  C   UNL     1     -13.310  11.059  72.060  1.00  0.00    -0.288 C  
HETATM    4  O   UNL     1     -13.020   9.667  72.179  1.00  0.00    -0.403 OA 
HETATM    5  C   UNL     1     -12.179   9.295  71.097  1.00  0.00    -0.301 C  
HETATM    6  O   UNL     1     -10.801   9.497  71.409  1.00  0.00    -0.347 OA 
HETATM    7  C   UNL     1     -10.138   9.865  70.195  1.00  0.00    -0.255 C  
HETATM    8  C   UNL     1     -11.193  10.286  69.172  1.00  0.00    -0.215 C  
ENDROOT
BRANCH   8   9
HETATM    9  O   UNL     1     -10.889  11.615  68.718  1.00  0.00    -0.202 OA 
BRANCH   9  10
HETATM   10  C   UNL     1      -9.819  11.737  67.894  1.00  0.00    -0.183 C  
HETATM   11  O   UNL     1      -9.746  11.276  66.768  1.00  0.00    -0.189 OA 
HETATM   12  N   UNL     1      -8.822  12.375  68.573  1.00  0.00    -0.349 N  
HETATM   13  H   UNL     1      -9.045  12.800  69.473  1.00  0.00     0.000 HD 
BRANCH  12  14
HETATM   14  C   UNL     1      -7.442  12.482  68.076  1.00  0.00    -0.117 C  
BRANCH  14  15
HETATM   15  C   UNL     1      -7.129  13.921  67.551  1.00  0.00    -0.175 C  
BRANCH  15  16
HETATM   16  C   UNL     1      -8.263  14.930  67.632  1.00  0.00    -0.184 A  
HETATM   17  C   UNL     1      -8.675  15.630  66.490  1.00  0.00    -0.342 A  
HETATM   18  C   UNL     1      -8.894  15.212  68.853  1.00  0.00    -0.205 A  
HETATM   19  C   UNL     1      -9.689  16.589  66.569  1.00  0.00    -0.290 A  
HETATM   20  C   UNL     1     -10.311  16.853  67.788  1.00  0.00    -0.327 A  
HETATM   21  C   UNL     1      -9.919  16.159  68.929  1.00  0.00    -0.233 A  
ENDBRANCH  15  16
ENDBRANCH  14  15
BRANCH  14  22
HETATM   22  C   UNL     1      -6.362  12.038  69.109  1.00  0.00    -0.093 C  
HETATM   23  O   UNL     1      -5.165  11.612  68.444  1.00  0.00    -0.040 OA 
HETATM   24  H   UNL     1      -4.507  11.342  69.074  1.00  0.00     0.000 HD 
BRANCH  22  25
HETATM   25  C   UNL     1      -6.777  11.027  70.198  1.00  0.00    -0.025 C  
BRANCH  25  26
HETATM   26  N   UNL     1      -6.817   9.539  69.867  1.00  0.00    -0.058 N  
BRANCH  26  27
HETATM   27  C   UNL     1      -6.084   9.248  68.557  1.00  0.00    -0.045 C  
HETATM   28  C   UNL     1      -6.616   8.136  67.628  1.00  0.00    -0.058 C  
HETATM   29  C   UNL     1      -8.019   8.396  67.084  1.00  0.00    -0.104 C  
HETATM   30  C   UNL     1      -5.670   7.993  66.420  1.00  0.00    -0.040 C  
ENDBRANCH  26  27
BRANCH  26  31
HETATM   31  S   UNL     1      -6.144   8.627  71.218  1.00  0.00    -0.052 S  
HETATM   32  O   UNL     1      -5.287   7.591  70.699  1.00  0.00    -0.023 OA 
HETATM   33  O   UNL     1      -5.658   9.610  72.169  1.00  0.00    -0.196 OA 
BRANCH  31  34
HETATM   34  C   UNL     1      -7.559   7.818  71.964  1.00  0.00    -0.081 A  
HETATM   35  C   UNL     1      -9.345   6.193  71.852  1.00  0.00    -0.157 A  
HETATM   36  C   UNL     1      -8.196   6.775  71.294  1.00  0.00    -0.119 A  
HETATM   37  C   UNL     1      -9.890   6.671  73.049  1.00  0.00    -0.168 A  
HETATM   38  N   UNL     1     -10.969   6.019  73.648  1.00  0.00    -0.435 NA 
HETATM   39  C   UNL     1      -9.191   7.659  73.747  1.00  0.00    -0.333 A  
HETATM   40  H1  UNL     1     -11.367   6.367  74.520  1.00  0.00     0.000 HD 
HETATM   41  C   UNL     1      -8.038   8.245  73.207  1.00  0.00    -0.223 A  
HETATM   42  H2  UNL     1     -10.717   5.040  73.781  1.00  0.00     0.000 HD 
ENDBRANCH  31  34
ENDBRANCH  26  31
ENDBRANCH  25  26
ENDBRANCH  22  25
ENDBRANCH  14  22
ENDBRANCH  12  14
ENDBRANCH   9  10
ENDBRANCH   8   9
TORSDOF 11
ENDMDL
MODEL      338
REMARK 921   NORMALIZED FREE ENERGY PREDICTED BY IDOCK:   -3.10 KCAL/MOL
REMARK 922        TOTAL FREE ENERGY PREDICTED BY IDOCK:   -7.71 KCAL/MOL
REMARK 923 INTER-LIGAND FREE ENERGY PREDICTED BY IDOCK:   -6.22 KCAL/MOL
REMARK 924 INTRA-LIGAND FREE ENERGY PREDICTED BY IDOCK:   -1.49 KCAL/MOL
REMARK 927      BINDING AFFINITY PREDICTED BY RF-SCORE:    0.00 PKD
ROOT
HETATM    1  C   UNL     1      -8.655   4.204  65.184  1.00  0.00    -0.116 C  
HETATM    2  C   UNL     1      -7.526   3.478  65.893  1.00  0.00    -0.077 C  
HETATM    3  C   UNL     1      -7.616   2.048  65.397  1.00  0.00    -0.071 C  
HETATM    4  O   UNL     1      -8.639   1.984  64.404  1.00  0.00    -0.088 OA 
HETATM    5  C   UNL     1      -8.953   3.310  64.005  1.00  0.00    -0.097 C  
HETATM    6  O   UNL     1      -8.107   3.755  62.946  1.00  0.00    -0.074 OA 
HETATM    7  C   UNL     1      -7.909   5.162  63.119  1.00  0.00    -0.078 C  
HETATM    8  C   UNL     1      -8.322   5.539  64.542  1.00  0.00    -0.127 C  
ENDROOT
BRANCH   8   9
HETATM    9  O   UNL     1      -7.213   6.188  65.186  1.00  0.00    -0.065 OA 
BRANCH   9  10
HETATM   10  C   UNL     1      -7.453   7.419  65.700  1.00  0.00    -0.084 C  
HETATM   11  O   UNL     1      -6.613   8.287  65.862  1.00  0.00    -0.052 OA 
HETATM   12  N   UNL     1      -8.761   7.478  66.085  1.00  0.00    -0.151 N  
HETATM   13  H   UNL     1      -9.383   6.720  65.801  1.00  0.00     0.000 HD 
BRANCH  12  14
HETATM   14  C   UNL     1      -9.322   8.576  66.888  1.00  0.00    -0.172 C  
BRANCH  14  15
HETATM   15  C   UNL     1      -9.541   9.863  66.028  1.00  0.00    -0.284 C  
BRANCH  15  16
HETATM   16  C   UNL     1      -8.895  11.138  66.545  1.00  0.00    -0.174 A  
HETATM   17  C   UNL     1      -9.681  12.246  66.889  1.00  0.00    -0.217 A  
HETATM   18  C   UNL     1      -7.500  11.249  66.654  1.00  0.00    -0.133 A  
HETATM   19  C   UNL     1      -9.088  13.434  67.324  1.00  0.00    -0.222 A  
HETATM   20  C   UNL     1      -7.701  13.526  67.433  1.00  0.00    -0.149 A  
HETATM   21  C   UNL     1      -6.907  12.431  67.106  1.00  0.00    -0.077 A  
ENDBRANCH  15  16
ENDBRANCH  14  15
BRANCH  14  22
HETATM   22  C   UNL     1     -10.633   8.200  67.642  1.00  0.00    -0.188 C  
HETATM   23  O   UNL     1     -11.336   9.378  68.060  1.00  0.00    -0.494 OA 
HETATM   24  H   UNL     1     -12.136   9.149  68.519  1.00  0.00     0.000 HD 
BRANCH  22  25
HETATM   25  C   UNL     1     -10.537   7.178  68.793  1.00  0.00    -0.196 C  
BRANCH  25  26
HETATM   26  N   UNL     1      -9.711   7.515  70.030  1.00  0.00    -0.172 N  
BRANCH  26  27
HETATM   27  C   UNL     1      -9.027   8.873  69.881  1.00  0.00    -0.156 C  
HETATM   28  C   UNL     1      -7.526   9.002  70.222  1.00  0.00    -0.083 C  
HETATM   29  C   UNL     1      -6.611   8.156  69.339  1.00  0.00    -0.035 C  
HETATM   30  C   UNL     1      -7.097  10.473  70.058  1.00  0.00    -0.133 C  
ENDBRANCH  26  27
BRANCH  26  31
HETATM   31  S   UNL     1     -10.748   7.450  71.455  1.00  0.00    -0.220 S  
HETATM   32  O   UNL     1     -10.259   8.393  72.430  1.00  0.00    -0.302 OA 
HETATM   33  O   UNL     1     -12.114   7.503  70.965  1.00  0.00    -0.308 OA 
BRANCH  31  34
HETATM   34  C   UNL     1     -10.487   5.810  72.128  1.00  0.00    -0.212 A  
HETATM   35  C   UNL     1      -9.161   3.794  72.286  1.00  0.00    -0.163 A  
HETATM   36  C   UNL     1      -9.326   5.105  71.812  1.00  0.00    -0.179 A  
HETATM   37  C   UNL     1     -10.161   3.163  73.035  1.00  0.00    -0.153 A  
HETATM   38  N   UNL     1      -9.943   1.901  73.588  1.00  0.00    -0.085 NA 
HETATM   39  C   UNL     1     -11.278   3.913  73.411  1.00  0.00    -0.297 A  
HETATM   40  H1  UNL     1     -10.672   1.441  74.133  1.00  0.00     0.000 HD 
HETATM   41  C   UNL     1     -11.455   5.226  72.952  1.00  0.00    -0.339 A  
HETATM   42  H2  UNL     1      -9.098   1.944  74.157  1.00  0.00     0.000 HD 
ENDBRANCH  31  34
ENDBRANCH  26  31
ENDBRANCH  25  26
ENDBRANCH  22  25
ENDBRANCH  14  22
ENDBRANCH  12  14
ENDBRANCH   9  10
ENDBRANCH   8   9
TORSDOF 11
ENDMDL
MODEL      339
REMARK 921   NORMALIZED FREE ENERGY PREDICTED BY IDOCK:   -3.08 KCAL/MOL
REMARK 922        TOTAL FREE ENERGY PREDICTED BY IDOCK:   -7.68 KCAL/MOL
REMARK 923 INTER-LIGAND FREE ENERGY PREDICTED BY IDOCK:   -5.96 KCAL/MOL
REMARK 924 INTRA-LIGAND FREE ENERGY PREDICTED BY IDOCK:   -1.72 KCAL/MOL
REMARK 927      BINDING AFFINITY PREDICTED BY RF-SCORE:    0.00 PKD
ROOT
HETATM    1  C   UNL     1     -11.455   7.046  71.460  1.00  0.00    -0.306 C  
HETATM    2  C   UNL     1     -12.741   7.026  70.653  1.00  0.00    -0.032 C  
HETATM    3  C   UNL     1     -13.785   7.622  71.577  1.00  0.00    -0.361 C  
HETATM    4  O   UNL     1     -13.133   8.049  72.772  1.00  0.00     0.088 OA 
HETATM    5  C   UNL     1     -11.734   8.076  72.527  1.00  0.00    -0.387 C  
HETATM    6  O   UNL     1     -11.320   9.330  71.985  1.00  0.00    -0.349 OA 
HETATM    7  C   UNL     1     -10.230   9.071  71.093  1.00  0.00    -0.293 C  
HETATM    8  C   UNL     1     -10.213   7.577  70.768  1.00  0.00    -0.194 C  
ENDROOT
BRANCH   8   9
HETATM    9  O   UNL     1     -10.278   7.417  69.342  1.00  0.00    -0.190 OA 
BRANCH   9  10
HETATM   10  C   UNL     1      -9.151   7.721  68.652  1.00  0.00    -0.136 C  
HETATM   11  O   UNL     1      -8.080   7.151  68.774  1.00  0.00    -0.118 OA 
HETATM   12  N   UNL     1      -9.400   8.819  67.881  1.00  0.00    -0.141 N  
HETATM   13  H   UNL     1     -10.365   9.138  67.791  1.00  0.00     0.000 HD 
BRANCH  12  14
HETATM   14  C   UNL     1      -8.351   9.566  67.171  1.00  0.00    -0.131 C  
BRANCH  14  15
HETATM   15  C   UNL     1      -8.673   9.705  65.647  1.00  0.00    -0.163 C  
BRANCH  15  16
HETATM   16  C   UNL     1      -8.074   8.649  64.732  1.00  0.00    -0.149 A  
HETATM   17  C   UNL     1      -7.346   9.023  63.596  1.00  0.00    -0.100 A  
HETATM   18  C   UNL     1      -8.270   7.282  64.982  1.00  0.00    -0.100 A  
HETATM   19  C   UNL     1      -6.830   8.055  62.729  1.00  0.00    -0.085 A  
HETATM   20  C   UNL     1      -7.027   6.701  62.994  1.00  0.00    -0.048 A  
HETATM   21  C   UNL     1      -7.740   6.313  64.124  1.00  0.00    -0.104 A  
ENDBRANCH  15  16
ENDBRANCH  14  15
BRANCH  14  22
HETATM   22  C   UNL     1      -8.046  10.965  67.788  1.00  0.00    -0.115 C  
HETATM   23  O   UNL     1      -8.848  11.193  68.955  1.00  0.00    -0.327 OA 
HETATM   24  H   UNL     1      -8.662  12.045  69.332  1.00  0.00     0.000 HD 
BRANCH  22  25
HETATM   25  C   UNL     1      -8.076  12.190  66.852  1.00  0.00    -0.112 C  
BRANCH  25  26
HETATM   26  N   UNL     1      -8.582  13.529  67.380  1.00  0.00    -0.197 N  
BRANCH  26  27
HETATM   27  C   UNL     1      -7.671  14.674  66.938  1.00  0.00     0.213 C  
HETATM   28  C   UNL     1      -6.525  15.125  67.868  1.00  0.00    -0.176 C  
HETATM   29  C   UNL     1      -5.474  14.049  68.132  1.00  0.00    -0.121 C  
HETATM   30  C   UNL     1      -5.804  16.329  67.233  1.00  0.00    -0.157 C  
ENDBRANCH  26  27
BRANCH  26  31
HETATM   31  S   UNL     1     -10.247  13.767  66.850  1.00  0.00    -0.264 S  
HETATM   32  O   UNL     1     -10.280  14.836  65.884  1.00  0.00    -0.279 OA 
HETATM   33  O   UNL     1     -10.767  12.447  66.539  1.00  0.00    -0.230 OA 
BRANCH  31  34
HETATM   34  C   UNL     1     -11.106  14.347  68.311  1.00  0.00    -0.259 A  
HETATM   35  C   UNL     1     -13.143  14.584  69.592  1.00  0.00     0.680 A  
HETATM   36  C   UNL     1     -12.462  14.066  68.479  1.00  0.00     0.212 A  
HETATM   37  C   UNL     1     -12.498  15.416  70.514  1.00  0.00    -0.422 A  
HETATM   38  N   UNL     1     -13.157  15.839  71.669  1.00  0.00    -0.475 NA 
HETATM   39  C   UNL     1     -11.123  15.617  70.375  1.00  0.00    -0.369 A  
HETATM   40  H1  UNL     1     -12.687  16.445  72.341  1.00  0.00     0.000 HD 
HETATM   41  C   UNL     1     -10.426  15.101  69.273  1.00  0.00    -0.261 A  
HETATM   42  H2  UNL     1     -13.493  15.013  72.165  1.00  0.00     0.000 HD 
ENDBRANCH  31  34
ENDBRANCH  26  31
ENDBRANCH  25  26
ENDBRANCH  22  25
ENDBRANCH  14  22
ENDBRANCH  12  14
ENDBRANCH   9  10
ENDBRANCH   8   9
TORSDOF 11
ENDMDL
MODEL      340
REMARK 921   NORMALIZED FREE ENERGY PREDICTED BY IDOCK:   -2.94 KCAL/MOL
REMARK 922        TOTAL FREE ENERGY PREDICTED BY IDOCK:   -7.45 KCAL/MOL
REMARK 923 INTER-LIGAND FREE ENERGY PREDICTED BY IDOCK:   -7.49 KCAL/MOL
REMARK 924 INTRA-LIGAND FREE ENERGY PREDICTED BY IDOCK:    0.04 KCAL/MOL
REMARK 927      BINDING AFFINITY PREDICTED BY RF-SCORE:    0.00 PKD
ROOT
HETATM    1  C   UNL     1      -5.310  11.228  70.395  1.00  0.00    -0.109 C  
HETATM    2  C   UNL     1      -6.032  12.306  71.183  1.00  0.00     0.575 C  
HETATM    3  C   UNL     1      -5.825  13.575  70.379  1.00  0.00    -0.164 C  
HETATM    4  O   UNL     1      -5.136  13.234  69.177  1.00  0.00    -0.073 OA 
HETATM    5  C   UNL     1      -5.201  11.825  69.013  1.00  0.00    -0.050 C  
HETATM    6  O   UNL     1      -6.383  11.430  68.318  1.00  0.00    -0.046 OA 
HETATM    7  C   UNL     1      -6.780  10.157  68.838  1.00  0.00    -0.053 C  
HETATM    8  C   UNL     1      -6.054   9.926  70.163  1.00  0.00    -0.063 C  
ENDROOT
BRANCH   8   9
HETATM    9  O   UNL     1      -7.032   9.672  71.184  1.00  0.00    -0.304 OA 
BRANCH   9  10
HETATM   10  C   UNL     1      -8.262   9.294  70.757  1.00  0.00    -0.169 C  
HETATM   11  O   UNL     1      -9.310   9.828  71.079  1.00  0.00    -0.090 OA 
HETATM   12  N   UNL     1      -8.127   8.173  69.991  1.00  0.00    -0.112 N  
HETATM   13  H   UNL     1      -7.188   7.888  69.713  1.00  0.00     0.000 HD 
BRANCH  12  14
HETATM   14  C   UNL     1      -9.265   7.355  69.543  1.00  0.00    -0.146 C  
BRANCH  14  15
HETATM   15  C   UNL     1     -10.026   6.718  70.751  1.00  0.00    -0.201 C  
BRANCH  15  16
HETATM   16  C   UNL     1      -9.702   5.266  71.063  1.00  0.00    -0.242 A  
HETATM   17  C   UNL     1      -9.905   4.269  70.099  1.00  0.00    -0.271 A  
HETATM   18  C   UNL     1      -9.231   4.886  72.329  1.00  0.00    -0.151 A  
HETATM   19  C   UNL     1      -9.648   2.928  70.397  1.00  0.00    -0.156 A  
HETATM   20  C   UNL     1      -9.174   2.566  71.656  1.00  0.00    -0.173 A  
HETATM   21  C   UNL     1      -8.958   3.547  72.621  1.00  0.00    -0.110 A  
ENDBRANCH  15  16
ENDBRANCH  14  15
BRANCH  14  22
HETATM   22  C   UNL     1     -10.263   8.115  68.617  1.00  0.00    -0.207 C  
HETATM   23  O   UNL     1     -11.003   7.195  67.803  1.00  0.00    -0.450 OA 
HETATM   24  H   UNL     1     -11.611   7.658  67.238  1.00  0.00     0.000 HD 
BRANCH  22  25
HETATM   25  C   UNL     1      -9.717   9.284  67.772  1.00  0.00    -0.150 C  
BRANCH  25  26
HETATM   26  N   UNL     1     -10.624   9.960  66.749  1.00  0.00    -0.181 N  
BRANCH  26  27
HETATM   27  C   UNL     1     -11.490  11.034  67.407  1.00  0.00    -0.135 C  
HETATM   28  C   UNL     1     -11.024  11.665  68.737  1.00  0.00    -0.274 C  
HETATM   29  C   UNL     1      -9.704  12.426  68.637  1.00  0.00    -0.064 C  
HETATM   30  C   UNL     1     -12.096  12.659  69.225  1.00  0.00    -0.218 C  
ENDBRANCH  26  27
BRANCH  26  31
HETATM   31  S   UNL     1      -9.636  10.616  65.444  1.00  0.00    -0.252 S  
HETATM   32  O   UNL     1      -8.352  10.998  65.979  1.00  0.00    -0.168 OA 
HETATM   33  O   UNL     1      -9.749   9.681  64.339  1.00  0.00    -0.128 OA 
BRANCH  31  34
HETATM   34  C   UNL     1     -10.475  12.122  64.957  1.00  0.00    -0.290 A  
HETATM   35  C   UNL     1     -10.742  14.520  65.116  1.00  0.00    -0.422 A  
HETATM   36  C   UNL     1     -10.036  13.352  65.447  1.00  0.00    -0.270 A  
HETATM   37  C   UNL     1     -11.905  14.468  64.339  1.00  0.00    -0.403 A  
HETATM   38  N   UNL     1     -12.537  15.643  63.931  1.00  0.00    -0.807 NA 
HETATM   39  C   UNL     1     -12.279  13.240  63.789  1.00  0.00    -0.508 A  
HETATM   40  H1  UNL     1     -13.385  15.606  63.364  1.00  0.00     0.000 HD 
HETATM   41  C   UNL     1     -11.582  12.066  64.103  1.00  0.00    -0.460 A  
HETATM   42  H2  UNL     1     -11.853  16.221  63.443  1.00  0.00     0.000 HD 
ENDBRANCH  31  34
ENDBRANCH  26  31
ENDBRANCH  25  26
ENDBRANCH  22  25
ENDBRANCH  14  22
ENDBRANCH  12  14
ENDBRANCH   9  10
ENDBRANCH   8   9
TORSDOF 11
ENDMDL
MODEL      341
REMARK 921   NORMALIZED FREE ENERGY PREDICTED BY IDOCK:   -2.85 KCAL/MOL
REMARK 922        TOTAL FREE ENERGY PREDICTED BY IDOCK:   -7.31 KCAL/MOL
REMARK 923 INTER-LIGAND FREE ENERGY PREDICTED BY IDOCK:   -5.48 KCAL/MOL
REMARK 924 INTRA-LIGAND FREE ENERGY PREDICTED BY IDOCK:   -1.82 KCAL/MOL
REMARK 927      BINDING AFFINITY PREDICTED BY RF-SCORE:    0.00 PKD
ROOT
HETATM    1  C   UNL     1     -11.332  10.483  67.785  1.00  0.00    -0.267 C  
HETATM    2  C   UNL     1     -10.264  11.447  67.300  1.00  0.00    -0.229 C  
HETATM    3  C   UNL     1     -10.152  12.484  68.401  1.00  0.00    -0.216 C  
HETATM    4  O   UNL     1     -11.004  12.088  69.475  1.00  0.00    -0.135 OA 
HETATM    5  C   UNL     1     -11.370  10.731  69.273  1.00  0.00    -0.286 C  
HETATM    6  O   UNL     1     -10.416   9.838  69.847  1.00  0.00    -0.224 OA 
HETATM    7  C   UNL     1     -10.371   8.671  69.021  1.00  0.00    -0.213 C  
HETATM    8  C   UNL     1     -11.025   9.000  67.678  1.00  0.00     0.078 C  
ENDROOT
BRANCH   8   9
HETATM    9  O   UNL     1     -10.086   8.716  66.628  1.00  0.00    -0.263 OA 
BRANCH   9  10
HETATM   10  C   UNL     1      -9.413   7.543  66.726  1.00  0.00    -0.179 C  
HETATM   11  O   UNL     1      -9.926   6.437  66.697  1.00  0.00    -0.171 OA 
HETATM   12  N   UNL     1      -8.096   7.818  66.952  1.00  0.00    -0.114 N  
HETATM   13  H   UNL     1      -7.779   8.782  66.851  1.00  0.00     0.000 HD 
BRANCH  12  14
HETATM   14  C   UNL     1      -7.108   6.796  67.333  1.00  0.00    -0.084 C  
BRANCH  14  15
HETATM   15  C   UNL     1      -5.659   7.216  66.924  1.00  0.00    -0.022 C  
BRANCH  15  16
HETATM   16  C   UNL     1      -5.533   8.473  66.078  1.00  0.00    -0.034 A  
HETATM   17  C   UNL     1      -5.638   8.404  64.683  1.00  0.00    -0.048 A  
HETATM   18  C   UNL     1      -5.272   9.719  66.668  1.00  0.00    -0.040 A  
HETATM   19  C   UNL     1      -5.481   9.550  63.899  1.00  0.00    -0.067 A  
HETATM   20  C   UNL     1      -5.229  10.782  64.500  1.00  0.00    -0.100 A  
HETATM   21  C   UNL     1      -5.132  10.869  65.886  1.00  0.00    -0.124 A  
ENDBRANCH  15  16
ENDBRANCH  14  15
BRANCH  14  22
HETATM   22  C   UNL     1      -7.153   6.408  68.842  1.00  0.00    -0.082 C  
HETATM   23  O   UNL     1      -8.265   5.544  69.113  1.00  0.00    -0.094 OA 
HETATM   24  H   UNL     1      -8.292   5.308  70.033  1.00  0.00     0.000 HD 
BRANCH  22  25
HETATM   25  C   UNL     1      -7.069   7.543  69.883  1.00  0.00    -0.064 C  
BRANCH  25  26
HETATM   26  N   UNL     1      -5.987   7.501  70.957  1.00  0.00    -0.035 N  
BRANCH  26  27
HETATM   27  C   UNL     1      -5.599   8.912  71.400  1.00  0.00    -0.046 C  
HETATM   28  C   UNL     1      -5.734  10.079  70.399  1.00  0.00    -0.064 C  
HETATM   29  C   UNL     1      -7.165  10.341  69.936  1.00  0.00    -0.162 C  
HETATM   30  C   UNL     1      -5.217  11.372  71.059  1.00  0.00    -0.116 C  
ENDBRANCH  26  27
BRANCH  26  31
HETATM   31  S   UNL     1      -6.548   6.514  72.306  1.00  0.00    -0.060 S  
HETATM   32  O   UNL     1      -6.425   5.123  71.947  1.00  0.00    -0.033 OA 
HETATM   33  O   UNL     1      -5.909   7.051  73.494  1.00  0.00    -0.053 OA 
BRANCH  31  34
HETATM   34  C   UNL     1      -8.298   6.876  72.431  1.00  0.00    -0.111 A  
HETATM   35  C   UNL     1     -10.604   6.183  72.214  1.00  0.00    -0.251 A  
HETATM   36  C   UNL     1      -9.235   5.874  72.182  1.00  0.00    -0.151 A  
HETATM   37  C   UNL     1     -11.047   7.490  72.447  1.00  0.00    -0.301 A  
HETATM   38  N   UNL     1     -12.408   7.765  72.580  1.00  0.00    -0.575 NA 
HETATM   39  C   UNL     1     -10.098   8.461  72.778  1.00  0.00    -0.268 A  
HETATM   40  H1  UNL     1     -12.731   8.717  72.750  1.00  0.00     0.000 HD 
HETATM   41  C   UNL     1      -8.727   8.167  72.757  1.00  0.00    -0.281 A  
HETATM   42  H2  UNL     1     -12.785   7.164  73.314  1.00  0.00     0.000 HD 
ENDBRANCH  31  34
ENDBRANCH  26  31
ENDBRANCH  25  26
ENDBRANCH  22  25
ENDBRANCH  14  22
ENDBRANCH  12  14
ENDBRANCH   9  10
ENDBRANCH   8   9
TORSDOF 11
ENDMDL
MODEL      342
REMARK 921   NORMALIZED FREE ENERGY PREDICTED BY IDOCK:   -2.81 KCAL/MOL
REMARK 922        TOTAL FREE ENERGY PREDICTED BY IDOCK:   -7.25 KCAL/MOL
REMARK 923 INTER-LIGAND FREE ENERGY PREDICTED BY IDOCK:   -7.02 KCAL/MOL
REMARK 924 INTRA-LIGAND FREE ENERGY PREDICTED BY IDOCK:   -0.22 KCAL/MOL
REMARK 927      BINDING AFFINITY PREDICTED BY RF-SCORE:    0.00 PKD
ROOT
HETATM    1  C   UNL     1     -11.931  11.902  64.483  1.00  0.00    -0.281 C  
HETATM    2  C   UNL     1     -11.240  11.380  65.729  1.00  0.00    -0.157 C  
HETATM    3  C   UNL     1     -10.047  10.600  65.211  1.00  0.00    -0.297 C  
HETATM    4  O   UNL     1      -9.996  10.753  63.793  1.00  0.00    -0.308 OA 
HETATM    5  C   UNL     1     -10.850  11.830  63.433  1.00  0.00    -0.388 C  
HETATM    6  O   UNL     1     -10.166  13.082  63.482  1.00  0.00    -0.207 OA 
HETATM    7  C   UNL     1     -11.117  14.073  63.883  1.00  0.00     0.347 C  
HETATM    8  C   UNL     1     -12.335  13.366  64.478  1.00  0.00    -0.360 C  
ENDROOT
BRANCH   8   9
HETATM    9  O   UNL     1     -12.556  13.870  65.806  1.00  0.00    -0.491 OA 
BRANCH   9  10
HETATM   10  C   UNL     1     -11.632  14.743  66.278  1.00  0.00    -0.298 C  
HETATM   11  O   UNL     1     -11.268  15.756  65.705  1.00  0.00    -0.186 OA 
HETATM   12  N   UNL     1     -11.122  14.244  67.441  1.00  0.00    -0.295 N  
HETATM   13  H   UNL     1     -11.584  13.439  67.865  1.00  0.00     0.000 HD 
BRANCH  12  14
HETATM   14  C   UNL     1      -9.942  14.806  68.116  1.00  0.00    -0.221 C  
BRANCH  14  15
HETATM   15  C   UNL     1     -10.295  16.112  68.900  1.00  0.00    -0.250 C  
BRANCH  15  16
HETATM   16  C   UNL     1      -9.810  17.417  68.290  1.00  0.00    -0.310 A  
HETATM   17  C   UNL     1     -10.550  18.596  68.451  1.00  0.00    -0.132 A  
HETATM   18  C   UNL     1      -8.636  17.464  67.522  1.00  0.00    -0.221 A  
HETATM   19  C   UNL     1     -10.130  19.788  67.855  1.00  0.00    -0.558 A  
HETATM   20  C   UNL     1      -8.958  19.821  67.102  1.00  0.00    -0.405 A  
HETATM   21  C   UNL     1      -8.206  18.660  66.941  1.00  0.00    -0.268 A  
ENDBRANCH  15  16
ENDBRANCH  14  15
BRANCH  14  22
HETATM   22  C   UNL     1      -9.210  13.796  69.051  1.00  0.00     0.259 C  
HETATM   23  O   UNL     1      -8.144  14.441  69.763  1.00  0.00    -0.330 OA 
HETATM   24  H   UNL     1      -7.698  13.826  70.333  1.00  0.00     0.000 HD 
BRANCH  22  25
HETATM   25  C   UNL     1      -8.737  12.460  68.443  1.00  0.00    -0.132 C  
BRANCH  25  26
HETATM   26  N   UNL     1      -9.041  11.153  69.169  1.00  0.00    -0.017 N  
BRANCH  26  27
HETATM   27  C   UNL     1     -10.525  11.053  69.521  1.00  0.00    -0.092 C  
HETATM   28  C   UNL     1     -11.067   9.742  70.129  1.00  0.00    -0.335 C  
HETATM   29  C   UNL     1     -10.458   9.384  71.483  1.00  0.00    -0.299 C  
HETATM   30  C   UNL     1     -12.590   9.870  70.326  1.00  0.00     0.026 C  
ENDBRANCH  26  27
BRANCH  26  31
HETATM   31  S   UNL     1      -8.504   9.800  68.173  1.00  0.00    -0.114 S  
HETATM   32  O   UNL     1      -9.662   9.080  67.705  1.00  0.00    -0.147 OA 
HETATM   33  O   UNL     1      -7.522  10.339  67.251  1.00  0.00    -0.093 OA 
BRANCH  31  34
HETATM   34  C   UNL     1      -7.634   8.722  69.309  1.00  0.00    -0.093 A  
HETATM   35  C   UNL     1      -7.355   6.558  70.349  1.00  0.00    -0.085 A  
HETATM   36  C   UNL     1      -7.994   7.379  69.407  1.00  0.00    -0.124 A  
HETATM   37  C   UNL     1      -6.392   7.073  71.225  1.00  0.00    -0.041 A  
HETATM   38  N   UNL     1      -5.690   6.228  72.085  1.00  0.00    -0.035 NA 
HETATM   39  C   UNL     1      -5.986   8.399  71.055  1.00  0.00    -0.034 A  
HETATM   40  H1  UNL     1      -4.989   6.603  72.723  1.00  0.00     0.000 HD 
HETATM   41  C   UNL     1      -6.609   9.230  70.115  1.00  0.00    -0.052 A  
HETATM   42  H2  UNL     1      -5.252   5.495  71.525  1.00  0.00     0.000 HD 
ENDBRANCH  31  34
ENDBRANCH  26  31
ENDBRANCH  25  26
ENDBRANCH  22  25
ENDBRANCH  14  22
ENDBRANCH  12  14
ENDBRANCH   9  10
ENDBRANCH   8   9
TORSDOF 11
ENDMDL
MODEL      343
REMARK 921   NORMALIZED FREE ENERGY PREDICTED BY IDOCK:   -2.74 KCAL/MOL
REMARK 922        TOTAL FREE ENERGY PREDICTED BY IDOCK:   -7.13 KCAL/MOL
REMARK 923 INTER-LIGAND FREE ENERGY PREDICTED BY IDOCK:   -6.56 KCAL/MOL
REMARK 924 INTRA-LIGAND FREE ENERGY PREDICTED BY IDOCK:   -0.57 KCAL/MOL
REMARK 927      BINDING AFFINITY PREDICTED BY RF-SCORE:    0.00 PKD
ROOT
HETATM    1  C   UNL     1     -10.927  12.018  64.907  1.00  0.00    -0.356 C  
HETATM    2  C   UNL     1     -10.023  13.066  64.283  1.00  0.00    -0.085 C  
HETATM    3  C   UNL     1      -9.307  12.340  63.161  1.00  0.00     0.881 C  
HETATM    4  O   UNL     1      -9.835  11.017  63.078  1.00  0.00    -0.324 OA 
HETATM    5  C   UNL     1     -11.044  10.974  63.823  1.00  0.00     0.122 C  
HETATM    6  O   UNL     1     -12.166  11.354  63.027  1.00  0.00    -0.066 OA 
HETATM    7  C   UNL     1     -13.094  12.022  63.888  1.00  0.00    -0.041 C  
HETATM    8  C   UNL     1     -12.367  12.417  65.174  1.00  0.00    -0.332 C  
ENDROOT
BRANCH   8   9
HETATM    9  O   UNL     1     -12.509  13.834  65.364  1.00  0.00    -0.443 OA 
BRANCH   9  10
HETATM   10  C   UNL     1     -12.033  14.334  66.532  1.00  0.00    -0.427 C  
HETATM   11  O   UNL     1     -12.154  15.489  66.900  1.00  0.00     0.320 OA 
HETATM   12  N   UNL     1     -11.326  13.353  67.164  1.00  0.00    -0.302 N  
HETATM   13  H   UNL     1     -11.388  12.401  66.800  1.00  0.00     0.000 HD 
BRANCH  12  14
HETATM   14  C   UNL     1     -10.481  13.594  68.343  1.00  0.00    -0.246 C  
BRANCH  14  15
HETATM   15  C   UNL     1     -10.425  12.343  69.279  1.00  0.00     0.176 C  
BRANCH  15  16
HETATM   16  C   UNL     1     -11.560  12.198  70.280  1.00  0.00    -0.105 A  
HETATM   17  C   UNL     1     -12.007  10.929  70.670  1.00  0.00    -0.467 A  
HETATM   18  C   UNL     1     -12.208  13.327  70.806  1.00  0.00    -0.390 A  
HETATM   19  C   UNL     1     -13.077  10.793  71.559  1.00  0.00    -0.517 A  
HETATM   20  C   UNL     1     -13.707  11.923  72.078  1.00  0.00    -0.010 A  
HETATM   21  C   UNL     1     -13.267  13.191  71.708  1.00  0.00    -0.494 A  
ENDBRANCH  15  16
ENDBRANCH  14  15
BRANCH  14  22
HETATM   22  C   UNL     1      -9.038  14.074  67.997  1.00  0.00    -0.190 C  
HETATM   23  O   UNL     1      -8.163  12.955  67.799  1.00  0.00    -0.147 OA 
HETATM   24  H   UNL     1      -7.284  13.247  67.587  1.00  0.00     0.000 HD 
BRANCH  22  25
HETATM   25  C   UNL     1      -8.386  15.127  68.917  1.00  0.00    -0.190 C  
BRANCH  25  26
HETATM   26  N   UNL     1      -8.213  16.557  68.417  1.00  0.00    -0.186 N  
BRANCH  26  27
HETATM   27  C   UNL     1      -9.054  17.532  69.242  1.00  0.00     0.212 C  
HETATM   28  C   UNL     1      -9.203  18.991  68.760  1.00  0.00    -0.388 C  
HETATM   29  C   UNL     1      -9.898  19.134  67.408  1.00  0.00    -0.404 C  
HETATM   30  C   UNL     1     -10.031  19.780  69.791  1.00  0.00     0.120 C  
ENDBRANCH  26  27
BRANCH  26  31
HETATM   31  S   UNL     1      -6.500  16.975  68.444  1.00  0.00    -0.160 S  
HETATM   32  O   UNL     1      -6.192  17.595  69.708  1.00  0.00    -0.244 OA 
HETATM   33  O   UNL     1      -5.787  15.798  67.982  1.00  0.00    -0.115 OA 
BRANCH  31  34
HETATM   34  C   UNL     1      -6.324  18.235  67.181  1.00  0.00    -0.173 A  
HETATM   35  C   UNL     1      -6.168  20.563  66.548  1.00  0.00    -0.253 A  
HETATM   36  C   UNL     1      -6.234  19.578  67.546  1.00  0.00    -0.211 A  
HETATM   37  C   UNL     1      -6.234  20.226  65.191  1.00  0.00    -0.263 A  
HETATM   38  N   UNL     1      -6.062  21.201  64.209  1.00  0.00    -0.341 NA 
HETATM   39  C   UNL     1      -6.239  18.872  64.845  1.00  0.00    -0.261 A  
HETATM   40  H1  UNL     1      -6.111  20.956  63.220  1.00  0.00     0.000 HD 
HETATM   41  C   UNL     1      -6.299  17.876  65.829  1.00  0.00    -0.258 A  
HETATM   42  H2  UNL     1      -5.172  21.671  64.377  1.00  0.00     0.000 HD 
ENDBRANCH  31  34
ENDBRANCH  26  31
ENDBRANCH  25  26
ENDBRANCH  22  25
ENDBRANCH  14  22
ENDBRANCH  12  14
ENDBRANCH   9  10
ENDBRANCH   8   9
TORSDOF 11
ENDMDL
MODEL      344
REMARK 921   NORMALIZED FREE ENERGY PREDICTED BY IDOCK:   -2.74 KCAL/MOL
REMARK 922        TOTAL FREE ENERGY PREDICTED BY IDOCK:   -7.13 KCAL/MOL
REMARK 923 INTER-LIGAND FREE ENERGY PREDICTED BY IDOCK:   -6.14 KCAL/MOL
REMARK 924 INTRA-LIGAND FREE ENERGY PREDICTED BY IDOCK:   -0.99 KCAL/MOL
REMARK 927      BINDING AFFINITY PREDICTED BY RF-SCORE:    0.00 PKD
ROOT
HETATM    1  C   UNL     1     -11.865  11.212  68.100  1.00  0.00    -0.238 C  
HETATM    2  C   UNL     1     -11.001  12.261  67.424  1.00  0.00    -0.298 C  
HETATM    3  C   UNL     1     -10.961  13.418  68.404  1.00  0.00    -0.267 C  
HETATM    4  O   UNL     1     -11.653  13.023  69.588  1.00  0.00    -0.286 OA 
HETATM    5  C   UNL     1     -11.821  11.613  69.554  1.00  0.00    -0.348 C  
HETATM    6  O   UNL     1     -10.698  10.936  70.117  1.00  0.00    -0.126 OA 
HETATM    7  C   UNL     1     -10.541   9.704  69.406  1.00  0.00    -0.225 C  
HETATM    8  C   UNL     1     -11.344   9.787  68.107  1.00  0.00     0.129 C  
ENDROOT
BRANCH   8   9
HETATM    9  O   UNL     1     -10.461   9.528  67.003  1.00  0.00    -0.249 OA 
BRANCH   9  10
HETATM   10  C   UNL     1     -10.190   8.225  66.745  1.00  0.00    -0.304 C  
HETATM   11  O   UNL     1     -11.028   7.350  66.602  1.00  0.00    -0.119 OA 
HETATM   12  N   UNL     1      -8.837   8.053  66.765  1.00  0.00    -0.134 N  
HETATM   13  H   UNL     1      -8.244   8.883  66.793  1.00  0.00     0.000 HD 
BRANCH  12  14
HETATM   14  C   UNL     1      -8.186   6.733  66.749  1.00  0.00    -0.114 C  
BRANCH  14  15
HETATM   15  C   UNL     1      -6.653   6.850  66.468  1.00  0.00    -0.052 C  
BRANCH  15  16
HETATM   16  C   UNL     1      -6.153   6.216  65.180  1.00  0.00    -0.030 A  
HETATM   17  C   UNL     1      -6.155   4.824  65.025  1.00  0.00    -0.030 A  
HETATM   18  C   UNL     1      -5.643   7.004  64.136  1.00  0.00    -0.032 A  
HETATM   19  C   UNL     1      -5.657   4.236  63.859  1.00  0.00    -0.013 A  
HETATM   20  C   UNL     1      -5.160   5.032  62.828  1.00  0.00    -0.009 A  
HETATM   21  C   UNL     1      -5.161   6.417  62.963  1.00  0.00    -0.018 A  
ENDBRANCH  15  16
ENDBRANCH  14  15
BRANCH  14  22
HETATM   22  C   UNL     1      -8.436   5.891  68.037  1.00  0.00    -0.110 C  
HETATM   23  O   UNL     1      -9.715   5.244  67.982  1.00  0.00    -0.129 OA 
HETATM   24  H   UNL     1      -9.867   4.730  68.767  1.00  0.00     0.000 HD 
BRANCH  22  25
HETATM   25  C   UNL     1      -8.224   6.578  69.402  1.00  0.00    -0.119 C  
BRANCH  25  26
HETATM   26  N   UNL     1      -7.322   5.921  70.442  1.00  0.00    -0.085 N  
BRANCH  26  27
HETATM   27  C   UNL     1      -6.456   6.961  71.153  1.00  0.00    -0.041 C  
HETATM   28  C   UNL     1      -6.601   8.449  70.770  1.00  0.00    -0.039 C  
HETATM   29  C   UNL     1      -7.984   9.034  71.049  1.00  0.00    -0.186 C  
HETATM   30  C   UNL     1      -5.578   9.277  71.571  1.00  0.00    -0.066 C  
ENDBRANCH  26  27
BRANCH  26  31
HETATM   31  S   UNL     1      -8.317   5.003  71.573  1.00  0.00    -0.120 S  
HETATM   32  O   UNL     1      -8.853   3.851  70.892  1.00  0.00    -0.075 OA 
HETATM   33  O   UNL     1      -7.533   4.871  72.788  1.00  0.00    -0.087 OA 
BRANCH  31  34
HETATM   34  C   UNL     1      -9.694   6.088  71.943  1.00  0.00    -0.153 A  
HETATM   35  C   UNL     1     -10.634   7.934  73.189  1.00  0.00    -0.342 A  
HETATM   36  C   UNL     1      -9.532   7.133  72.851  1.00  0.00    -0.183 A  
HETATM   37  C   UNL     1     -11.906   7.676  72.664  1.00  0.00    -0.218 A  
HETATM   38  N   UNL     1     -12.969   8.540  72.924  1.00  0.00    -0.694 NA 
HETATM   39  C   UNL     1     -12.030   6.679  71.693  1.00  0.00    -0.395 A  
HETATM   40  H1  UNL     1     -13.896   8.352  72.542  1.00  0.00     0.000 HD 
HETATM   41  C   UNL     1     -10.938   5.875  71.340  1.00  0.00    -0.327 A  
HETATM   42  H2  UNL     1     -12.693   9.481  72.642  1.00  0.00     0.000 HD 
ENDBRANCH  31  34
ENDBRANCH  26  31
ENDBRANCH  25  26
ENDBRANCH  22  25
ENDBRANCH  14  22
ENDBRANCH  12  14
ENDBRANCH   9  10
ENDBRANCH   8   9
TORSDOF 11
ENDMDL
MODEL      345
REMARK 921   NORMALIZED FREE ENERGY PREDICTED BY IDOCK:   -2.73 KCAL/MOL
REMARK 922        TOTAL FREE ENERGY PREDICTED BY IDOCK:   -7.11 KCAL/MOL
REMARK 923 INTER-LIGAND FREE ENERGY PREDICTED BY IDOCK:   -6.79 KCAL/MOL
REMARK 924 INTRA-LIGAND FREE ENERGY PREDICTED BY IDOCK:   -0.32 KCAL/MOL
REMARK 927      BINDING AFFINITY PREDICTED BY RF-SCORE:    0.00 PKD
ROOT
HETATM    1  C   UNL     1      -7.574   6.621  71.308  1.00  0.00    -0.093 C  
HETATM    2  C   UNL     1      -6.664   7.823  71.485  1.00  0.00    -0.046 C  
HETATM    3  C   UNL     1      -5.428   7.495  70.668  1.00  0.00    -0.023 C  
HETATM    4  O   UNL     1      -5.656   6.260  69.992  1.00  0.00    -0.013 OA 
HETATM    5  C   UNL     1      -7.046   5.970  70.053  1.00  0.00    -0.071 C  
HETATM    6  O   UNL     1      -7.755   6.568  68.969  1.00  0.00    -0.104 OA 
HETATM    7  C   UNL     1      -9.056   6.920  69.451  1.00  0.00    -0.141 C  
HETATM    8  C   UNL     1      -9.029   6.899  70.980  1.00  0.00    -0.151 C  
ENDROOT
BRANCH   8   9
HETATM    9  O   UNL     1      -9.458   8.182  71.464  1.00  0.00    -0.152 OA 
BRANCH   9  10
HETATM   10  C   UNL     1      -9.621   9.152  70.531  1.00  0.00    -0.243 C  
HETATM   11  O   UNL     1      -8.723   9.833  70.065  1.00  0.00    -0.201 OA 
HETATM   12  N   UNL     1     -10.955   9.292  70.283  1.00  0.00    -0.238 N  
HETATM   13  H   UNL     1     -11.593   8.592  70.662  1.00  0.00     0.000 HD 
BRANCH  12  14
HETATM   14  C   UNL     1     -11.522  10.398  69.496  1.00  0.00    -0.246 C  
BRANCH  14  15
HETATM   15  C   UNL     1     -11.055  11.788  70.038  1.00  0.00     0.154 C  
BRANCH  15  16
HETATM   16  C   UNL     1     -12.103  12.617  70.763  1.00  0.00    -0.239 A  
HETATM   17  C   UNL     1     -12.404  13.917  70.336  1.00  0.00    -0.433 A  
HETATM   18  C   UNL     1     -12.764  12.115  71.896  1.00  0.00    -0.202 A  
HETATM   19  C   UNL     1     -13.336  14.696  71.026  1.00  0.00    -0.410 A  
HETATM   20  C   UNL     1     -13.989  14.182  72.145  1.00  0.00    -0.626 A  
HETATM   21  C   UNL     1     -13.709  12.888  72.576  1.00  0.00    -0.418 A  
ENDBRANCH  15  16
ENDBRANCH  14  15
BRANCH  14  22
HETATM   22  C   UNL     1     -11.240  10.293  67.966  1.00  0.00    -0.235 C  
HETATM   23  O   UNL     1     -11.157   8.921  67.557  1.00  0.00    -0.461 OA 
HETATM   24  H   UNL     1     -10.986   8.857  66.624  1.00  0.00     0.000 HD 
BRANCH  22  25
HETATM   25  C   UNL     1     -10.068  11.112  67.389  1.00  0.00    -0.185 C  
BRANCH  25  26
HETATM   26  N   UNL     1      -9.697  10.961  65.917  1.00  0.00    -0.213 N  
BRANCH  26  27
HETATM   27  C   UNL     1      -9.884  12.279  65.166  1.00  0.00    -0.158 C  
HETATM   28  C   UNL     1     -10.977  13.264  65.633  1.00  0.00    -0.292 C  
HETATM   29  C   UNL     1     -10.769  13.802  67.047  1.00  0.00    -0.283 C  
HETATM   30  C   UNL     1     -11.009  14.472  64.678  1.00  0.00    -0.351 C  
ENDBRANCH  26  27
BRANCH  26  31
HETATM   31  S   UNL     1      -8.045  10.358  65.796  1.00  0.00    -0.157 S  
HETATM   32  O   UNL     1      -8.028   8.967  66.175  1.00  0.00    -0.100 OA 
HETATM   33  O   UNL     1      -7.545  10.800  64.507  1.00  0.00     0.088 OA 
BRANCH  31  34
HETATM   34  C   UNL     1      -7.143  11.260  67.055  1.00  0.00    -0.129 A  
HETATM   35  C   UNL     1      -5.712  11.277  69.003  1.00  0.00    -0.040 A  
HETATM   36  C   UNL     1      -6.359  10.569  67.978  1.00  0.00    -0.058 A  
HETATM   37  C   UNL     1      -5.875  12.660  69.144  1.00  0.00    -0.080 A  
HETATM   38  N   UNL     1      -5.146  13.367  70.101  1.00  0.00    -0.085 NA 
HETATM   39  C   UNL     1      -6.595  13.345  68.162  1.00  0.00    -0.118 A  
HETATM   40  H1  UNL     1      -5.265  14.375  70.204  1.00  0.00     0.000 HD 
HETATM   41  C   UNL     1      -7.241  12.654  67.127  1.00  0.00    -0.040 A  
HETATM   42  H2  UNL     1      -4.155  13.176  69.953  1.00  0.00     0.000 HD 
ENDBRANCH  31  34
ENDBRANCH  26  31
ENDBRANCH  25  26
ENDBRANCH  22  25
ENDBRANCH  14  22
ENDBRANCH  12  14
ENDBRANCH   9  10
ENDBRANCH   8   9
TORSDOF 11
ENDMDL
MODEL      346
REMARK 921   NORMALIZED FREE ENERGY PREDICTED BY IDOCK:   -2.67 KCAL/MOL
REMARK 922        TOTAL FREE ENERGY PREDICTED BY IDOCK:   -7.00 KCAL/MOL
REMARK 923 INTER-LIGAND FREE ENERGY PREDICTED BY IDOCK:   -7.01 KCAL/MOL
REMARK 924 INTRA-LIGAND FREE ENERGY PREDICTED BY IDOCK:    0.01 KCAL/MOL
REMARK 927      BINDING AFFINITY PREDICTED BY RF-SCORE:    0.00 PKD
ROOT
HETATM    1  C   UNL     1     -12.707  13.408  72.639  1.00  0.00     0.048 C  
HETATM    2  C   UNL     1     -11.859  12.751  71.565  1.00  0.00     1.317 C  
HETATM    3  C   UNL     1     -12.812  11.824  70.834  1.00  0.00    -0.152 C  
HETATM    4  O   UNL     1     -14.120  12.016  71.372  1.00  0.00     1.184 OA 
HETATM    5  C   UNL     1     -14.115  13.216  72.132  1.00  0.00    -0.188 C  
HETATM    6  O   UNL     1     -14.403  14.353  71.320  1.00  0.00    -0.313 OA 
HETATM    7  C   UNL     1     -13.666  15.458  71.855  1.00  0.00    -0.501 C  
HETATM    8  C   UNL     1     -12.585  14.914  72.790  1.00  0.00    -0.385 C  
ENDROOT
BRANCH   8   9
HETATM    9  O   UNL     1     -11.308  15.401  72.348  1.00  0.00    -0.438 OA 
BRANCH   9  10
HETATM   10  C   UNL     1     -11.187  15.650  71.021  1.00  0.00    -0.364 C  
HETATM   11  O   UNL     1     -12.104  15.965  70.281  1.00  0.00    -0.353 OA 
HETATM   12  N   UNL     1      -9.898  15.399  70.650  1.00  0.00    -0.041 N  
HETATM   13  H   UNL     1      -9.206  15.241  71.383  1.00  0.00     0.000 HD 
BRANCH  12  14
HETATM   14  C   UNL     1      -9.454  15.344  69.248  1.00  0.00    -0.261 C  
BRANCH  14  15
HETATM   15  C   UNL     1      -7.906  15.529  69.127  1.00  0.00    -0.215 C  
BRANCH  15  16
HETATM   16  C   UNL     1      -7.427  16.862  68.574  1.00  0.00    -0.217 A  
HETATM   17  C   UNL     1      -7.263  17.966  69.421  1.00  0.00     0.029 A  
HETATM   18  C   UNL     1      -7.177  17.027  67.203  1.00  0.00    -0.206 A  
HETATM   19  C   UNL     1      -6.864  19.203  68.909  1.00  0.00    -0.357 A  
HETATM   20  C   UNL     1      -6.612  19.351  67.546  1.00  0.00    -0.228 A  
HETATM   21  C   UNL     1      -6.761  18.260  66.693  1.00  0.00    -0.227 A  
ENDBRANCH  15  16
ENDBRANCH  14  15
BRANCH  14  22
HETATM   22  C   UNL     1      -9.904  14.056  68.494  1.00  0.00    -0.225 C  
HETATM   23  O   UNL     1      -9.045  12.952  68.813  1.00  0.00    -0.388 OA 
HETATM   24  H   UNL     1      -9.319  12.167  68.354  1.00  0.00     0.000 HD 
BRANCH  22  25
HETATM   25  C   UNL     1     -10.134  14.153  66.972  1.00  0.00    -0.261 C  
BRANCH  25  26
HETATM   26  N   UNL     1     -11.172  15.130  66.429  1.00  0.00    -0.317 N  
BRANCH  26  27
HETATM   27  C   UNL     1     -10.510  16.416  65.937  1.00  0.00    -0.337 C  
HETATM   28  C   UNL     1     -11.005  17.774  66.480  1.00  0.00     0.237 C  
HETATM   29  C   UNL     1     -10.817  17.949  67.985  1.00  0.00    -0.206 C  
HETATM   30  C   UNL     1     -10.233  18.909  65.782  1.00  0.00    -0.191 C  
ENDBRANCH  26  27
BRANCH  26  31
HETATM   31  S   UNL     1     -12.104  14.337  65.159  1.00  0.00    -0.415 S  
HETATM   32  O   UNL     1     -13.362  13.899  65.710  1.00  0.00    -0.534 OA 
HETATM   33  O   UNL     1     -12.045  15.215  64.005  1.00  0.00    -0.546 OA 
BRANCH  31  34
HETATM   34  C   UNL     1     -11.161  12.867  64.760  1.00  0.00    -0.306 A  
HETATM   35  C   UNL     1     -10.321  10.684  65.371  1.00  0.00    -0.303 A  
HETATM   36  C   UNL     1     -11.118  11.802  65.660  1.00  0.00    -0.340 A  
HETATM   37  C   UNL     1      -9.532  10.635  64.216  1.00  0.00    -0.274 A  
HETATM   38  N   UNL     1      -8.827   9.477  63.887  1.00  0.00    -0.289 NA 
HETATM   39  C   UNL     1      -9.654  11.671  63.287  1.00  0.00    -0.334 A  
HETATM   40  H1  UNL     1      -8.251   9.441  63.045  1.00  0.00     0.000 HD 
HETATM   41  C   UNL     1     -10.450  12.793  63.557  1.00  0.00    -0.114 A  
HETATM   42  H2  UNL     1      -9.486   8.699  63.856  1.00  0.00     0.000 HD 
ENDBRANCH  31  34
ENDBRANCH  26  31
ENDBRANCH  25  26
ENDBRANCH  22  25
ENDBRANCH  14  22
ENDBRANCH  12  14
ENDBRANCH   9  10
ENDBRANCH   8   9
TORSDOF 11
ENDMDL
MODEL      347
REMARK 921   NORMALIZED FREE ENERGY PREDICTED BY IDOCK:   -2.55 KCAL/MOL
REMARK 922        TOTAL FREE ENERGY PREDICTED BY IDOCK:   -6.81 KCAL/MOL
REMARK 923 INTER-LIGAND FREE ENERGY PREDICTED BY IDOCK:   -5.13 KCAL/MOL
REMARK 924 INTRA-LIGAND FREE ENERGY PREDICTED BY IDOCK:   -1.67 KCAL/MOL
REMARK 927      BINDING AFFINITY PREDICTED BY RF-SCORE:    0.00 PKD
ROOT
HETATM    1  C   UNL     1      -8.631   2.822  63.388  1.00  0.00    -0.086 C  
HETATM    2  C   UNL     1      -9.759   3.780  63.053  1.00  0.00    -0.142 C  
HETATM    3  C   UNL     1     -10.962   2.889  62.809  1.00  0.00    -0.146 C  
HETATM    4  O   UNL     1     -10.583   1.542  63.088  1.00  0.00    -0.122 OA 
HETATM    5  C   UNL     1      -9.357   1.566  63.804  1.00  0.00    -0.109 C  
HETATM    6  O   UNL     1      -9.572   1.680  65.210  1.00  0.00     0.020 OA 
HETATM    7  C   UNL     1      -8.486   2.442  65.748  1.00  0.00    -0.099 C  
HETATM    8  C   UNL     1      -7.777   3.156  64.598  1.00  0.00    -0.077 C  
ENDROOT
BRANCH   8   9
HETATM    9  O   UNL     1      -7.758   4.566  64.874  1.00  0.00    -0.079 OA 
BRANCH   9  10
HETATM   10  C   UNL     1      -6.924   4.973  65.863  1.00  0.00    -0.066 C  
HETATM   11  O   UNL     1      -5.733   4.720  65.924  1.00  0.00    -0.017 OA 
HETATM   12  N   UNL     1      -7.662   5.623  66.809  1.00  0.00    -0.099 N  
HETATM   13  H   UNL     1      -8.631   5.857  66.590  1.00  0.00     0.000 HD 
BRANCH  12  14
HETATM   14  C   UNL     1      -7.135   6.005  68.128  1.00  0.00    -0.078 C  
BRANCH  14  15
HETATM   15  C   UNL     1      -6.731   7.514  68.172  1.00  0.00    -0.058 C  
BRANCH  15  16
HETATM   16  C   UNL     1      -7.163   8.363  66.987  1.00  0.00    -0.080 A  
HETATM   17  C   UNL     1      -6.271   9.270  66.400  1.00  0.00    -0.065 A  
HETATM   18  C   UNL     1      -8.469   8.286  66.481  1.00  0.00    -0.121 A  
HETATM   19  C   UNL     1      -6.678  10.082  65.338  1.00  0.00    -0.115 A  
HETATM   20  C   UNL     1      -7.976   9.990  64.841  1.00  0.00    -0.140 A  
HETATM   21  C   UNL     1      -8.871   9.086  65.407  1.00  0.00    -0.237 A  
ENDBRANCH  15  16
ENDBRANCH  14  15
BRANCH  14  22
HETATM   22  C   UNL     1      -8.091   5.666  69.312  1.00  0.00    -0.096 C  
HETATM   23  O   UNL     1      -8.161   4.249  69.521  1.00  0.00    -0.059 OA 
HETATM   24  H   UNL     1      -8.744   4.043  70.243  1.00  0.00     0.000 HD 
BRANCH  22  25
HETATM   25  C   UNL     1      -9.501   6.293  69.304  1.00  0.00    -0.134 C  
BRANCH  25  26
HETATM   26  N   UNL     1      -9.765   7.561  70.108  1.00  0.00    -0.172 N  
BRANCH  26  27
HETATM   27  C   UNL     1     -10.242   8.696  69.203  1.00  0.00    -0.208 C  
HETATM   28  C   UNL     1      -9.801  10.143  69.513  1.00  0.00    -0.255 C  
HETATM   29  C   UNL     1      -8.293  10.367  69.432  1.00  0.00    -0.152 C  
HETATM   30  C   UNL     1     -10.467  11.100  68.506  1.00  0.00    -0.212 C  
ENDBRANCH  26  27
BRANCH  26  31
HETATM   31  S   UNL     1     -10.925   7.204  71.388  1.00  0.00    -0.238 S  
HETATM   32  O   UNL     1     -11.052   8.362  72.237  1.00  0.00    -0.324 OA 
HETATM   33  O   UNL     1     -12.078   6.610  70.736  1.00  0.00    -0.385 OA 
BRANCH  31  34
HETATM   34  C   UNL     1     -10.141   5.919  72.360  1.00  0.00    -0.177 A  
HETATM   35  C   UNL     1      -8.375   5.193  73.843  1.00  0.00    -0.111 A  
HETATM   36  C   UNL     1      -9.024   6.220  73.139  1.00  0.00    -0.130 A  
HETATM   37  C   UNL     1      -8.799   3.863  73.741  1.00  0.00    -0.092 A  
HETATM   38  N   UNL     1      -8.212   2.869  74.524  1.00  0.00    -0.067 NA 
HETATM   39  C   UNL     1      -9.968   3.595  73.024  1.00  0.00    -0.204 A  
HETATM   40  H1  UNL     1      -8.522   1.900  74.451  1.00  0.00     0.000 HD 
HETATM   41  C   UNL     1     -10.633   4.610  72.322  1.00  0.00    -0.203 A  
HETATM   42  H2  UNL     1      -8.280   3.152  75.502  1.00  0.00     0.000 HD 
ENDBRANCH  31  34
ENDBRANCH  26  31
ENDBRANCH  25  26
ENDBRANCH  22  25
ENDBRANCH  14  22
ENDBRANCH  12  14
ENDBRANCH   9  10
ENDBRANCH   8   9
TORSDOF 11
ENDMDL
MODEL      348
REMARK 921   NORMALIZED FREE ENERGY PREDICTED BY IDOCK:   -2.51 KCAL/MOL
REMARK 922        TOTAL FREE ENERGY PREDICTED BY IDOCK:   -6.75 KCAL/MOL
REMARK 923 INTER-LIGAND FREE ENERGY PREDICTED BY IDOCK:   -6.22 KCAL/MOL
REMARK 924 INTRA-LIGAND FREE ENERGY PREDICTED BY IDOCK:   -0.53 KCAL/MOL
REMARK 927      BINDING AFFINITY PREDICTED BY RF-SCORE:    0.00 PKD
ROOT
HETATM    1  C   UNL     1     -10.330   5.764  72.227  1.00  0.00    -0.244 C  
HETATM    2  C   UNL     1      -9.139   6.350  72.963  1.00  0.00    -0.133 C  
HETATM    3  C   UNL     1      -9.456   6.150  74.432  1.00  0.00    -0.197 C  
HETATM    4  O   UNL     1     -10.674   5.413  74.529  1.00  0.00    -0.293 OA 
HETATM    5  C   UNL     1     -10.955   4.852  73.254  1.00  0.00    -0.320 C  
HETATM    6  O   UNL     1     -10.328   3.581  73.089  1.00  0.00    -0.146 OA 
HETATM    7  C   UNL     1      -9.979   3.453  71.707  1.00  0.00    -0.124 C  
HETATM    8  C   UNL     1     -10.035   4.838  71.062  1.00  0.00    -0.209 C  
ENDROOT
BRANCH   8   9
HETATM    9  O   UNL     1      -8.761   5.116  70.459  1.00  0.00    -0.114 OA 
BRANCH   9  10
HETATM   10  C   UNL     1      -8.786   5.813  69.296  1.00  0.00    -0.116 C  
HETATM   11  O   UNL     1      -9.548   6.731  69.047  1.00  0.00    -0.136 OA 
HETATM   12  N   UNL     1      -7.888   5.250  68.436  1.00  0.00    -0.087 N  
HETATM   13  H   UNL     1      -7.240   4.552  68.802  1.00  0.00     0.000 HD 
BRANCH  12  14
HETATM   14  C   UNL     1      -7.803   5.599  67.010  1.00  0.00    -0.101 C  
BRANCH  14  15
HETATM   15  C   UNL     1      -9.170   5.384  66.282  1.00  0.00    -0.157 C  
BRANCH  15  16
HETATM   16  C   UNL     1      -9.129   4.578  64.993  1.00  0.00    -0.152 A  
HETATM   17  C   UNL     1      -8.373   5.022  63.900  1.00  0.00    -0.132 A  
HETATM   18  C   UNL     1      -9.874   3.397  64.855  1.00  0.00    -0.097 A  
HETATM   19  C   UNL     1      -8.367   4.306  62.700  1.00  0.00    -0.086 A  
HETATM   20  C   UNL     1      -9.107   3.131  62.580  1.00  0.00    -0.091 A  
HETATM   21  C   UNL     1      -9.855   2.671  63.661  1.00  0.00    -0.136 A  
ENDBRANCH  15  16
ENDBRANCH  14  15
BRANCH  14  22
HETATM   22  C   UNL     1      -7.271   7.040  66.743  1.00  0.00    -0.076 C  
HETATM   23  O   UNL     1      -6.830   7.654  67.962  1.00  0.00    -0.063 OA 
HETATM   24  H   UNL     1      -6.505   8.532  67.800  1.00  0.00     0.000 HD 
BRANCH  22  25
HETATM   25  C   UNL     1      -8.164   8.002  65.934  1.00  0.00    -0.127 C  
BRANCH  25  26
HETATM   26  N   UNL     1      -8.223   9.477  66.318  1.00  0.00    -0.114 N  
BRANCH  26  27
HETATM   27  C   UNL     1      -7.148  10.279  65.585  1.00  0.00    -0.137 C  
HETATM   28  C   UNL     1      -6.211   9.553  64.596  1.00  0.00    -0.082 C  
HETATM   29  C   UNL     1      -6.927   8.932  63.399  1.00  0.00    -0.089 C  
HETATM   30  C   UNL     1      -5.181  10.559  64.048  1.00  0.00    -0.160 C  
ENDBRANCH  26  27
BRANCH  26  31
HETATM   31  S   UNL     1      -9.843  10.094  65.997  1.00  0.00    -0.260 S  
HETATM   32  O   UNL     1      -9.979  10.328  64.581  1.00  0.00    -0.336 OA 
HETATM   33  O   UNL     1     -10.759   9.225  66.714  1.00  0.00    -0.176 OA 
BRANCH  31  34
HETATM   34  C   UNL     1      -9.885  11.693  66.804  1.00  0.00    -0.200 A  
HETATM   35  C   UNL     1     -10.867  13.887  67.063  1.00  0.00    -0.288 A  
HETATM   36  C   UNL     1     -10.883  12.611  66.478  1.00  0.00    -0.285 A  
HETATM   37  C   UNL     1      -9.842  14.272  67.934  1.00  0.00    -0.226 A  
HETATM   38  N   UNL     1      -9.893  15.503  68.589  1.00  0.00    -0.201 NA 
HETATM   39  C   UNL     1      -8.900  13.313  68.312  1.00  0.00    -0.168 A  
HETATM   40  H1  UNL     1      -9.145  15.785  69.224  1.00  0.00     0.000 HD 
HETATM   41  C   UNL     1      -8.905  12.032  67.743  1.00  0.00    -0.165 A  
HETATM   42  H2  UNL     1     -10.778  15.560  69.093  1.00  0.00     0.000 HD 
ENDBRANCH  31  34
ENDBRANCH  26  31
ENDBRANCH  25  26
ENDBRANCH  22  25
ENDBRANCH  14  22
ENDBRANCH  12  14
ENDBRANCH   9  10
ENDBRANCH   8   9
TORSDOF 11
ENDMDL
MODEL      349
REMARK 921   NORMALIZED FREE ENERGY PREDICTED BY IDOCK:   -2.49 KCAL/MOL
REMARK 922        TOTAL FREE ENERGY PREDICTED BY IDOCK:   -6.71 KCAL/MOL
REMARK 923 INTER-LIGAND FREE ENERGY PREDICTED BY IDOCK:   -5.86 KCAL/MOL
REMARK 924 INTRA-LIGAND FREE ENERGY PREDICTED BY IDOCK:   -0.85 KCAL/MOL
REMARK 927      BINDING AFFINITY PREDICTED BY RF-SCORE:    0.00 PKD
ROOT
HETATM    1  C   UNL     1     -10.642   5.917  66.843  1.00  0.00    -0.384 C  
HETATM    2  C   UNL     1      -9.487   6.695  66.239  1.00  0.00    -0.120 C  
HETATM    3  C   UNL     1      -9.704   8.125  66.696  1.00  0.00    -0.248 C  
HETATM    4  O   UNL     1     -10.826   8.145  67.577  1.00  0.00    -0.194 OA 
HETATM    5  C   UNL     1     -11.109   6.809  67.967  1.00  0.00    -0.158 C  
HETATM    6  O   UNL     1     -10.354   6.426  69.115  1.00  0.00    -0.179 OA 
HETATM    7  C   UNL     1     -10.064   5.030  68.991  1.00  0.00    -0.168 C  
HETATM    8  C   UNL     1     -10.306   4.611  67.540  1.00  0.00     0.069 C  
ENDROOT
BRANCH   8   9
HETATM    9  O   UNL     1      -9.103   4.017  67.027  1.00  0.00    -0.127 OA 
BRANCH   9  10
HETATM   10  C   UNL     1      -8.120   3.775  67.930  1.00  0.00    -0.084 C  
HETATM   11  O   UNL     1      -7.955   2.721  68.518  1.00  0.00    -0.054 OA 
HETATM   12  N   UNL     1      -7.422   4.931  68.127  1.00  0.00    -0.074 N  
HETATM   13  H   UNL     1      -7.596   5.714  67.497  1.00  0.00     0.000 HD 
BRANCH  12  14
HETATM   14  C   UNL     1      -6.431   5.106  69.200  1.00  0.00    -0.039 C  
BRANCH  14  15
HETATM   15  C   UNL     1      -5.456   6.290  68.897  1.00  0.00    -0.015 C  
BRANCH  15  16
HETATM   16  C   UNL     1      -5.545   6.897  67.506  1.00  0.00    -0.020 A  
HETATM   17  C   UNL     1      -5.133   6.167  66.383  1.00  0.00    -0.009 A  
HETATM   18  C   UNL     1      -6.003   8.211  67.318  1.00  0.00    -0.050 A  
HETATM   19  C   UNL     1      -5.173   6.738  65.108  1.00  0.00    -0.026 A  
HETATM   20  C   UNL     1      -5.637   8.041  64.937  1.00  0.00    -0.044 A  
HETATM   21  C   UNL     1      -6.059   8.775  66.041  1.00  0.00    -0.052 A  
ENDBRANCH  15  16
ENDBRANCH  14  15
BRANCH  14  22
HETATM   22  C   UNL     1      -7.060   5.274  70.617  1.00  0.00    -0.060 C  
HETATM   23  O   UNL     1      -8.010   4.232  70.880  1.00  0.00    -0.065 OA 
HETATM   24  H   UNL     1      -8.393   4.335  71.744  1.00  0.00     0.000 HD 
BRANCH  22  25
HETATM   25  C   UNL     1      -7.637   6.654  70.993  1.00  0.00    -0.085 C  
BRANCH  25  26
HETATM   26  N   UNL     1      -7.044   7.423  72.169  1.00  0.00    -0.066 N  
BRANCH  26  27
HETATM   27  C   UNL     1      -6.685   8.853  71.765  1.00  0.00    -0.041 C  
HETATM   28  C   UNL     1      -7.028   9.342  70.341  1.00  0.00    -0.085 C  
HETATM   29  C   UNL     1      -8.523   9.355  70.030  1.00  0.00    -0.202 C  
HETATM   30  C   UNL     1      -6.504  10.779  70.162  1.00  0.00    -0.155 C  
ENDBRANCH  26  27
BRANCH  26  31
HETATM   31  S   UNL     1      -8.178   7.382  73.518  1.00  0.00    -0.144 S  
HETATM   32  O   UNL     1      -8.018   6.135  74.223  1.00  0.00    -0.102 OA 
HETATM   33  O   UNL     1      -8.049   8.659  74.197  1.00  0.00    -0.373 OA 
BRANCH  31  34
HETATM   34  C   UNL     1      -9.795   7.349  72.747  1.00  0.00    -0.189 A  
HETATM   35  C   UNL     1     -11.667   8.510  71.750  1.00  0.00    -0.392 A  
HETATM   36  C   UNL     1     -10.371   8.534  72.289  1.00  0.00    -0.402 A  
HETATM   37  C   UNL     1     -12.410   7.325  71.702  1.00  0.00    -0.352 A  
HETATM   38  N   UNL     1     -13.654   7.293  71.070  1.00  0.00    -0.574 NA 
HETATM   39  C   UNL     1     -11.785   6.136  72.086  1.00  0.00    -0.361 A  
HETATM   40  H1  UNL     1     -14.195   6.429  71.035  1.00  0.00     0.000 HD 
HETATM   41  C   UNL     1     -10.490   6.142  72.621  1.00  0.00    -0.233 A  
HETATM   42  H2  UNL     1     -13.536   7.634  70.116  1.00  0.00     0.000 HD 
ENDBRANCH  31  34
ENDBRANCH  26  31
ENDBRANCH  25  26
ENDBRANCH  22  25
ENDBRANCH  14  22
ENDBRANCH  12  14
ENDBRANCH   9  10
ENDBRANCH   8   9
TORSDOF 11
ENDMDL
MODEL      350
REMARK 921   NORMALIZED FREE ENERGY PREDICTED BY IDOCK:   -2.47 KCAL/MOL
REMARK 922        TOTAL FREE ENERGY PREDICTED BY IDOCK:   -6.68 KCAL/MOL
REMARK 923 INTER-LIGAND FREE ENERGY PREDICTED BY IDOCK:   -7.55 KCAL/MOL
REMARK 924 INTRA-LIGAND FREE ENERGY PREDICTED BY IDOCK:    0.87 KCAL/MOL
REMARK 927      BINDING AFFINITY PREDICTED BY RF-SCORE:    0.00 PKD
ROOT
HETATM    1  C   UNL     1      -6.516   9.384  63.026  1.00  0.00    -0.095 C  
HETATM    2  C   UNL     1      -7.570  10.466  62.875  1.00  0.00    -0.120 C  
HETATM    3  C   UNL     1      -8.801   9.737  62.371  1.00  0.00    -0.249 C  
HETATM    4  O   UNL     1      -8.511   8.340  62.340  1.00  0.00    -0.186 OA 
HETATM    5  C   UNL     1      -7.331   8.116  63.098  1.00  0.00    -0.103 C  
HETATM    6  O   UNL     1      -7.625   7.913  64.480  1.00  0.00    -0.095 OA 
HETATM    7  C   UNL     1      -6.535   8.455  65.233  1.00  0.00    -0.055 C  
HETATM    8  C   UNL     1      -5.721   9.370  64.318  1.00  0.00    -0.071 C  
ENDROOT
BRANCH   8   9
HETATM    9  O   UNL     1      -5.645  10.673  64.921  1.00  0.00    -0.141 OA 
BRANCH   9  10
HETATM   10  C   UNL     1      -5.897  10.734  66.252  1.00  0.00    -0.122 C  
HETATM   11  O   UNL     1      -5.348  10.051  67.100  1.00  0.00    -0.041 OA 
HETATM   12  N   UNL     1      -6.921  11.611  66.458  1.00  0.00    -0.363 N  
HETATM   13  H   UNL     1      -7.223  12.194  65.676  1.00  0.00     0.000 HD 
BRANCH  12  14
HETATM   14  C   UNL     1      -7.612  11.763  67.748  1.00  0.00    -0.127 C  
BRANCH  14  15
HETATM   15  C   UNL     1      -6.644  12.277  68.863  1.00  0.00    -0.094 C  
BRANCH  15  16
HETATM   16  C   UNL     1      -6.232  13.738  68.778  1.00  0.00    -0.089 A  
HETATM   17  C   UNL     1      -5.683  14.255  67.597  1.00  0.00     0.014 A  
HETATM   18  C   UNL     1      -6.355  14.590  69.887  1.00  0.00    -0.157 A  
HETATM   19  C   UNL     1      -5.264  15.587  67.529  1.00  0.00     0.012 A  
HETATM   20  C   UNL     1      -5.399  16.422  68.637  1.00  0.00    -0.105 A  
HETATM   21  C   UNL     1      -5.952  15.926  69.814  1.00  0.00    -0.163 A  
ENDBRANCH  15  16
ENDBRANCH  14  15
BRANCH  14  22
HETATM   22  C   UNL     1      -8.884  12.663  67.680  1.00  0.00    -0.184 C  
HETATM   23  O   UNL     1      -8.805  13.572  66.573  1.00  0.00    -0.436 OA 
HETATM   24  H   UNL     1      -9.580  14.120  66.532  1.00  0.00     0.000 HD 
BRANCH  22  25
HETATM   25  C   UNL     1      -9.321  13.394  68.965  1.00  0.00     0.378 C  
BRANCH  25  26
HETATM   26  N   UNL     1      -9.830  14.829  68.878  1.00  0.00    -0.224 N  
BRANCH  26  27
HETATM   27  C   UNL     1      -9.122  15.596  67.760  1.00  0.00    -0.181 C  
HETATM   28  C   UNL     1      -9.324  17.122  67.650  1.00  0.00    -0.239 C  
HETATM   29  C   UNL     1      -8.818  17.907  68.858  1.00  0.00    -0.127 C  
HETATM   30  C   UNL     1      -8.569  17.642  66.411  1.00  0.00    -0.269 C  
ENDBRANCH  26  27
BRANCH  26  31
HETATM   31  S   UNL     1     -11.580  14.811  68.662  1.00  0.00    -0.326 S  
HETATM   32  O   UNL     1     -12.127  16.031  69.200  1.00  0.00    -0.293 OA 
HETATM   33  O   UNL     1     -11.815  14.415  67.286  1.00  0.00    -0.384 OA 
BRANCH  31  34
HETATM   34  C   UNL     1     -12.148  13.471  69.707  1.00  0.00    -0.318 A  
HETATM   35  C   UNL     1     -13.202  12.699  71.742  1.00  0.00    -0.457 A  
HETATM   36  C   UNL     1     -12.822  13.753  70.895  1.00  0.00    -0.341 A  
HETATM   37  C   UNL     1     -12.877  11.372  71.439  1.00  0.00    -0.397 A  
HETATM   38  N   UNL     1     -13.349  10.327  72.233  1.00  0.00    -0.590 NA 
HETATM   39  C   UNL     1     -12.277  11.103  70.206  1.00  0.00    -0.436 A  
HETATM   40  H1  UNL     1     -13.112   9.360  72.012  1.00  0.00     0.000 HD 
HETATM   41  C   UNL     1     -11.897  12.143  69.346  1.00  0.00    -0.370 A  
HETATM   42  H2  UNL     1     -14.365  10.402  72.288  1.00  0.00     0.000 HD 
ENDBRANCH  31  34
ENDBRANCH  26  31
ENDBRANCH  25  26
ENDBRANCH  22  25
ENDBRANCH  14  22
ENDBRANCH  12  14
ENDBRANCH   9  10
ENDBRANCH   8   9
TORSDOF 11
ENDMDL
MODEL      351
REMARK 921   NORMALIZED FREE ENERGY PREDICTED BY IDOCK:   -2.45 KCAL/MOL
REMARK 922        TOTAL FREE ENERGY PREDICTED BY IDOCK:   -6.65 KCAL/MOL
REMARK 923 INTER-LIGAND FREE ENERGY PREDICTED BY IDOCK:   -6.81 KCAL/MOL
REMARK 924 INTRA-LIGAND FREE ENERGY PREDICTED BY IDOCK:    0.15 KCAL/MOL
REMARK 927      BINDING AFFINITY PREDICTED BY RF-SCORE:    0.00 PKD
ROOT
HETATM    1  C   UNL     1      -7.573   7.372  72.517  1.00  0.00    -0.092 C  
HETATM    2  C   UNL     1      -6.283   7.917  73.101  1.00  0.00    -0.069 C  
HETATM    3  C   UNL     1      -5.592   6.709  73.706  1.00  0.00    -0.050 C  
HETATM    4  O   UNL     1      -6.369   5.552  73.399  1.00  0.00    -0.061 OA 
HETATM    5  C   UNL     1      -7.291   5.896  72.376  1.00  0.00    -0.091 C  
HETATM    6  O   UNL     1      -6.724   5.724  71.078  1.00  0.00    -0.049 OA 
HETATM    7  C   UNL     1      -7.288   6.729  70.228  1.00  0.00    -0.085 C  
HETATM    8  C   UNL     1      -7.930   7.803  71.107  1.00  0.00    -0.090 C  
ENDROOT
BRANCH   8   9
HETATM    9  O   UNL     1      -7.356   9.076  70.769  1.00  0.00    -0.081 OA 
BRANCH   9  10
HETATM   10  C   UNL     1      -7.975   9.771  69.782  1.00  0.00    -0.164 C  
HETATM   11  O   UNL     1      -9.109   9.565  69.387  1.00  0.00    -0.148 OA 
HETATM   12  N   UNL     1      -7.084  10.662  69.258  1.00  0.00    -0.094 N  
HETATM   13  H   UNL     1      -6.200  10.806  69.746  1.00  0.00     0.000 HD 
BRANCH  12  14
HETATM   14  C   UNL     1      -7.333  11.427  68.026  1.00  0.00    -0.090 C  
BRANCH  14  15
HETATM   15  C   UNL     1      -8.101  10.574  66.964  1.00  0.00    -0.118 C  
BRANCH  15  16
HETATM   16  C   UNL     1      -7.278   9.554  66.194  1.00  0.00    -0.093 A  
HETATM   17  C   UNL     1      -6.098   9.937  65.543  1.00  0.00    -0.078 A  
HETATM   18  C   UNL     1      -7.698   8.219  66.085  1.00  0.00    -0.097 A  
HETATM   19  C   UNL     1      -5.362   9.011  64.798  1.00  0.00    -0.046 A  
HETATM   20  C   UNL     1      -5.788   7.688  64.705  1.00  0.00    -0.038 A  
HETATM   21  C   UNL     1      -6.953   7.289  65.355  1.00  0.00    -0.060 A  
ENDBRANCH  15  16
ENDBRANCH  14  15
BRANCH  14  22
HETATM   22  C   UNL     1      -8.065  12.783  68.261  1.00  0.00    -0.154 C  
HETATM   23  O   UNL     1      -7.386  13.562  69.256  1.00  0.00    -0.300 OA 
HETATM   24  H   UNL     1      -7.832  14.388  69.399  1.00  0.00     0.000 HD 
BRANCH  22  25
HETATM   25  C   UNL     1      -9.583  12.747  68.531  1.00  0.00    -0.110 C  
BRANCH  25  26
HETATM   26  N   UNL     1     -10.495  11.961  67.594  1.00  0.00    -0.204 N  
BRANCH  26  27
HETATM   27  C   UNL     1     -11.625  11.284  68.369  1.00  0.00    -0.308 C  
HETATM   28  C   UNL     1     -11.741  11.519  69.891  1.00  0.00    -0.420 C  
HETATM   29  C   UNL     1     -11.999  12.972  70.279  1.00  0.00    -0.360 C  
HETATM   30  C   UNL     1     -12.906  10.677  70.443  1.00  0.00    -0.277 C  
ENDBRANCH  26  27
BRANCH  26  31
HETATM   31  S   UNL     1     -11.107  13.041  66.342  1.00  0.00    -0.295 S  
HETATM   32  O   UNL     1     -10.254  12.940  65.184  1.00  0.00    -0.288 OA 
HETATM   33  O   UNL     1     -12.535  12.797  66.257  1.00  0.00    -0.477 OA 
BRANCH  31  34
HETATM   34  C   UNL     1     -10.886  14.686  67.019  1.00  0.00    -0.304 A  
HETATM   35  C   UNL     1      -9.562  16.694  67.262  1.00  0.00    -0.243 A  
HETATM   36  C   UNL     1      -9.762  15.435  66.673  1.00  0.00    -0.269 A  
HETATM   37  C   UNL     1     -10.447  17.193  68.224  1.00  0.00    -0.373 A  
HETATM   38  N   UNL     1     -10.295  18.487  68.724  1.00  0.00    -0.440 NA 
HETATM   39  C   UNL     1     -11.610  16.467  68.493  1.00  0.00    -0.100 A  
HETATM   40  H1  UNL     1     -10.941  18.851  69.425  1.00  0.00     0.000 HD 
HETATM   41  C   UNL     1     -11.828  15.212  67.909  1.00  0.00    -0.192 A  
HETATM   42  H2  UNL     1     -10.282  19.134  67.936  1.00  0.00     0.000 HD 
ENDBRANCH  31  34
ENDBRANCH  26  31
ENDBRANCH  25  26
ENDBRANCH  22  25
ENDBRANCH  14  22
ENDBRANCH  12  14
ENDBRANCH   9  10
ENDBRANCH   8   9
TORSDOF 11
ENDMDL
MODEL      352
REMARK 921   NORMALIZED FREE ENERGY PREDICTED BY IDOCK:   -2.43 KCAL/MOL
REMARK 922        TOTAL FREE ENERGY PREDICTED BY IDOCK:   -6.62 KCAL/MOL
REMARK 923 INTER-LIGAND FREE ENERGY PREDICTED BY IDOCK:   -6.87 KCAL/MOL
REMARK 924 INTRA-LIGAND FREE ENERGY PREDICTED BY IDOCK:    0.26 KCAL/MOL
REMARK 927      BINDING AFFINITY PREDICTED BY RF-SCORE:    0.00 PKD
ROOT
HETATM    1  C   UNL     1     -12.165  14.438  70.851  1.00  0.00    -0.413 C  
HETATM    2  C   UNL     1     -13.209  14.981  69.892  1.00  0.00     0.391 C  
HETATM    3  C   UNL     1     -14.410  15.293  70.765  1.00  0.00     0.269 C  
HETATM    4  O   UNL     1     -14.047  15.052  72.124  1.00  0.00    -0.442 OA 
HETATM    5  C   UNL     1     -12.632  14.945  72.193  1.00  0.00    -0.327 C  
HETATM    6  O   UNL     1     -12.017  16.221  72.370  1.00  0.00    -0.516 OA 
HETATM    7  C   UNL     1     -10.760  16.187  71.688  1.00  0.00     1.092 C  
HETATM    8  C   UNL     1     -10.759  14.995  70.730  1.00  0.00     0.014 C  
ENDROOT
BRANCH   8   9
HETATM    9  O   UNL     1     -10.478  15.472  69.404  1.00  0.00    -0.220 OA 
BRANCH   9  10
HETATM   10  C   UNL     1      -9.731  14.657  68.618  1.00  0.00    -0.220 C  
HETATM   11  O   UNL     1      -8.947  15.034  67.764  1.00  0.00    -0.174 OA 
HETATM   12  N   UNL     1     -10.077  13.365  68.886  1.00  0.00    -0.431 N  
HETATM   13  H   UNL     1     -10.671  13.180  69.694  1.00  0.00     0.000 HD 
BRANCH  12  14
HETATM   14  C   UNL     1      -9.638  12.222  68.069  1.00  0.00    -0.206 C  
BRANCH  14  15
HETATM   15  C   UNL     1      -9.213  12.670  66.633  1.00  0.00    -0.218 C  
BRANCH  15  16
HETATM   16  C   UNL     1     -10.287  12.600  65.559  1.00  0.00    -0.305 A  
HETATM   17  C   UNL     1     -11.552  13.160  65.780  1.00  0.00    -0.383 A  
HETATM   18  C   UNL     1     -10.050  11.942  64.342  1.00  0.00    -0.310 A  
HETATM   19  C   UNL     1     -12.554  13.060  64.811  1.00  0.00    -0.460 A  
HETATM   20  C   UNL     1     -12.302  12.410  63.604  1.00  0.00    -0.647 A  
HETATM   21  C   UNL     1     -11.047  11.857  63.366  1.00  0.00    -0.463 A  
ENDBRANCH  15  16
ENDBRANCH  14  15
BRANCH  14  22
HETATM   22  C   UNL     1      -8.506  11.375  68.727  1.00  0.00    -0.089 C  
HETATM   23  O   UNL     1      -7.314  12.156  68.889  1.00  0.00    -0.166 OA 
HETATM   24  H   UNL     1      -6.624  11.640  69.290  1.00  0.00     0.000 HD 
BRANCH  22  25
HETATM   25  C   UNL     1      -8.184   9.998  68.112  1.00  0.00    -0.109 C  
BRANCH  25  26
HETATM   26  N   UNL     1      -8.793   8.740  68.723  1.00  0.00    -0.134 N  
BRANCH  26  27
HETATM   27  C   UNL     1      -7.814   7.568  68.655  1.00  0.00    -0.121 C  
HETATM   28  C   UNL     1      -8.366   6.134  68.508  1.00  0.00    -0.114 C  
HETATM   29  C   UNL     1      -9.142   5.894  67.215  1.00  0.00    -0.111 C  
HETATM   30  C   UNL     1      -7.192   5.137  68.535  1.00  0.00    -0.062 C  
ENDBRANCH  26  27
BRANCH  26  31
HETATM   31  S   UNL     1      -9.297   9.086  70.377  1.00  0.00    -0.228 S  
HETATM   32  O   UNL     1      -8.196   9.695  71.081  1.00  0.00    -0.239 OA 
HETATM   33  O   UNL     1     -10.590   9.740  70.279  1.00  0.00    -0.251 OA 
BRANCH  31  34
HETATM   34  C   UNL     1      -9.569   7.475  71.111  1.00  0.00    -0.158 A  
HETATM   35  C   UNL     1     -11.057   5.665  71.707  1.00  0.00    -0.265 A  
HETATM   36  C   UNL     1     -10.837   6.895  71.068  1.00  0.00    -0.272 A  
HETATM   37  C   UNL     1     -10.039   5.028  72.425  1.00  0.00    -0.187 A  
HETATM   38  N   UNL     1     -10.240   3.758  72.967  1.00  0.00    -0.151 NA 
HETATM   39  C   UNL     1      -8.757   5.581  72.386  1.00  0.00    -0.128 A  
HETATM   40  H1  UNL     1      -9.498   3.294  73.490  1.00  0.00     0.000 HD 
HETATM   41  C   UNL     1      -8.518   6.806  71.747  1.00  0.00    -0.120 A  
HETATM   42  H2  UNL     1     -10.538   3.135  72.216  1.00  0.00     0.000 HD 
ENDBRANCH  31  34
ENDBRANCH  26  31
ENDBRANCH  25  26
ENDBRANCH  22  25
ENDBRANCH  14  22
ENDBRANCH  12  14
ENDBRANCH   9  10
ENDBRANCH   8   9
TORSDOF 11
ENDMDL
MODEL      353
REMARK 921   NORMALIZED FREE ENERGY PREDICTED BY IDOCK:   -2.40 KCAL/MOL
REMARK 922        TOTAL FREE ENERGY PREDICTED BY IDOCK:   -6.56 KCAL/MOL
REMARK 923 INTER-LIGAND FREE ENERGY PREDICTED BY IDOCK:   -7.94 KCAL/MOL
REMARK 924 INTRA-LIGAND FREE ENERGY PREDICTED BY IDOCK:    1.38 KCAL/MOL
REMARK 927      BINDING AFFINITY PREDICTED BY RF-SCORE:    0.00 PKD
ROOT
HETATM    1  C   UNL     1     -12.129  13.886  65.696  1.00  0.00    -0.442 C  
HETATM    2  C   UNL     1     -12.506  12.729  64.789  1.00  0.00    -0.539 C  
HETATM    3  C   UNL     1     -11.781  13.008  63.486  1.00  0.00    -0.471 C  
HETATM    4  O   UNL     1     -10.971  14.169  63.667  1.00  0.00     0.548 OA 
HETATM    5  C   UNL     1     -10.873  14.429  65.059  1.00  0.00    -0.407 C  
HETATM    6  O   UNL     1      -9.789  13.715  65.652  1.00  0.00    -0.256 OA 
HETATM    7  C   UNL     1     -10.178  13.379  66.988  1.00  0.00    -0.249 C  
HETATM    8  C   UNL     1     -11.693  13.544  67.109  1.00  0.00    -0.379 C  
ENDROOT
BRANCH   8   9
HETATM    9  O   UNL     1     -12.255  12.302  67.563  1.00  0.00    -0.457 OA 
BRANCH   9  10
HETATM   10  C   UNL     1     -12.031  11.981  68.861  1.00  0.00    -0.246 C  
HETATM   11  O   UNL     1     -11.996  12.777  69.783  1.00  0.00    -0.314 OA 
HETATM   12  N   UNL     1     -11.764  10.645  68.935  1.00  0.00    -0.474 N  
HETATM   13  H   UNL     1     -11.926  10.073  68.106  1.00  0.00     0.000 HD 
BRANCH  12  14
HETATM   14  C   UNL     1     -11.254   9.986  70.147  1.00  0.00    -0.304 C  
BRANCH  14  15
HETATM   15  C   UNL     1     -12.118   8.741  70.533  1.00  0.00     0.094 C  
BRANCH  15  16
HETATM   16  C   UNL     1     -11.358   7.512  71.004  1.00  0.00    -0.292 A  
HETATM   17  C   UNL     1     -11.102   6.453  70.124  1.00  0.00    -0.428 A  
HETATM   18  C   UNL     1     -10.932   7.393  72.336  1.00  0.00    -0.319 A  
HETATM   19  C   UNL     1     -10.441   5.303  70.566  1.00  0.00    -0.312 A  
HETATM   20  C   UNL     1     -10.017   5.202  71.889  1.00  0.00    -0.239 A  
HETATM   21  C   UNL     1     -10.256   6.250  72.774  1.00  0.00    -0.202 A  
ENDBRANCH  15  16
ENDBRANCH  14  15
BRANCH  14  22
HETATM   22  C   UNL     1      -9.748   9.593  70.066  1.00  0.00    -0.241 C  
HETATM   23  O   UNL     1      -9.197   9.410  71.378  1.00  0.00    -0.277 OA 
HETATM   24  H   UNL     1      -8.279   9.170  71.328  1.00  0.00     0.000 HD 
BRANCH  22  25
HETATM   25  C   UNL     1      -8.820  10.464  69.195  1.00  0.00    -0.172 C  
BRANCH  25  26
HETATM   26  N   UNL     1      -7.697   9.805  68.400  1.00  0.00    -0.081 N  
BRANCH  26  27
HETATM   27  C   UNL     1      -6.577  10.801  68.102  1.00  0.00    -0.062 C  
HETATM   28  C   UNL     1      -6.292  11.936  69.109  1.00  0.00    -0.092 C  
HETATM   29  C   UNL     1      -5.843  11.450  70.485  1.00  0.00    -0.131 C  
HETATM   30  C   UNL     1      -5.175  12.838  68.550  1.00  0.00    -0.060 C  
ENDBRANCH  26  27
BRANCH  26  31
HETATM   31  S   UNL     1      -7.111   8.396  69.284  1.00  0.00    -0.063 S  
HETATM   32  O   UNL     1      -5.688   8.281  69.085  1.00  0.00    -0.033 OA 
HETATM   33  O   UNL     1      -7.687   8.483  70.614  1.00  0.00    -0.068 OA 
BRANCH  31  34
HETATM   34  C   UNL     1      -7.875   6.999  68.462  1.00  0.00    -0.122 A  
HETATM   35  C   UNL     1      -8.047   4.614  68.103  1.00  0.00    -0.088 A  
HETATM   36  C   UNL     1      -7.495   5.700  68.800  1.00  0.00    -0.084 A  
HETATM   37  C   UNL     1      -8.939   4.811  67.042  1.00  0.00    -0.111 A  
HETATM   38  N   UNL     1      -9.560   3.724  66.427  1.00  0.00    -0.295 NA 
HETATM   39  C   UNL     1      -9.371   6.113  66.775  1.00  0.00    -0.152 A  
HETATM   40  H1  UNL     1     -10.210   3.868  65.654  1.00  0.00     0.000 HD 
HETATM   41  C   UNL     1      -8.835   7.208  67.466  1.00  0.00    -0.119 A  
HETATM   42  H2  UNL     1     -10.035   3.178  67.146  1.00  0.00     0.000 HD 
ENDBRANCH  31  34
ENDBRANCH  26  31
ENDBRANCH  25  26
ENDBRANCH  22  25
ENDBRANCH  14  22
ENDBRANCH  12  14
ENDBRANCH   9  10
ENDBRANCH   8   9
TORSDOF 11
ENDMDL
MODEL      354
REMARK 921   NORMALIZED FREE ENERGY PREDICTED BY IDOCK:   -2.39 KCAL/MOL
REMARK 922        TOTAL FREE ENERGY PREDICTED BY IDOCK:   -6.55 KCAL/MOL
REMARK 923 INTER-LIGAND FREE ENERGY PREDICTED BY IDOCK:   -7.21 KCAL/MOL
REMARK 924 INTRA-LIGAND FREE ENERGY PREDICTED BY IDOCK:    0.66 KCAL/MOL
REMARK 927      BINDING AFFINITY PREDICTED BY RF-SCORE:    0.00 PKD
ROOT
HETATM    1  C   UNL     1     -13.300  14.276  73.133  1.00  0.00    -0.252 C  
HETATM    2  C   UNL     1     -12.048  13.511  72.746  1.00  0.00     1.276 C  
HETATM    3  C   UNL     1     -12.559  12.218  72.139  1.00  0.00     0.340 C  
HETATM    4  O   UNL     1     -13.983  12.284  72.084  1.00  0.00    -0.138 OA 
HETATM    5  C   UNL     1     -14.373  13.634  72.288  1.00  0.00    -0.317 C  
HETATM    6  O   UNL     1     -14.401  14.364  71.062  1.00  0.00    -0.114 OA 
HETATM    7  C   UNL     1     -14.024  15.713  71.359  1.00  0.00    -0.184 C  
HETATM    8  C   UNL     1     -13.365  15.740  72.739  1.00  0.00    -0.547 C  
ENDROOT
BRANCH   8   9
HETATM    9  O   UNL     1     -12.058  16.325  72.611  1.00  0.00    -0.509 OA 
BRANCH   9  10
HETATM   10  C   UNL     1     -11.324  15.926  71.544  1.00  0.00    -0.309 C  
HETATM   11  O   UNL     1     -10.313  15.247  71.604  1.00  0.00     0.485 OA 
HETATM   12  N   UNL     1     -11.855  16.489  70.420  1.00  0.00    -0.272 N  
HETATM   13  H   UNL     1     -12.761  16.952  70.493  1.00  0.00     0.000 HD 
BRANCH  12  14
HETATM   14  C   UNL     1     -11.191  16.462  69.108  1.00  0.00    -0.275 C  
BRANCH  14  15
HETATM   15  C   UNL     1      -9.707  16.944  69.204  1.00  0.00    -0.177 C  
BRANCH  15  16
HETATM   16  C   UNL     1      -9.257  17.955  68.161  1.00  0.00    -0.278 A  
HETATM   17  C   UNL     1     -10.085  19.028  67.806  1.00  0.00    -0.453 A  
HETATM   18  C   UNL     1      -8.024  17.815  67.504  1.00  0.00    -0.217 A  
HETATM   19  C   UNL     1      -9.692  19.934  66.817  1.00  0.00    -0.538 A  
HETATM   20  C   UNL     1      -8.462  19.787  66.178  1.00  0.00    -0.367 A  
HETATM   21  C   UNL     1      -7.624  18.731  66.527  1.00  0.00    -0.267 A  
ENDBRANCH  15  16
ENDBRANCH  14  15
BRANCH  14  22
HETATM   22  C   UNL     1     -11.263  15.078  68.392  1.00  0.00    -0.293 C  
HETATM   23  O   UNL     1     -12.585  14.528  68.482  1.00  0.00    -0.517 OA 
HETATM   24  H   UNL     1     -12.629  13.685  68.046  1.00  0.00     0.000 HD 
BRANCH  22  25
HETATM   25  C   UNL     1     -10.200  14.022  68.753  1.00  0.00    -0.197 C  
BRANCH  25  26
HETATM   26  N   UNL     1      -9.636  13.119  67.661  1.00  0.00    -0.204 N  
BRANCH  26  27
HETATM   27  C   UNL     1      -8.368  12.409  68.136  1.00  0.00    -0.178 C  
HETATM   28  C   UNL     1      -7.011  12.789  67.506  1.00  0.00    -0.149 C  
HETATM   29  C   UNL     1      -6.597  14.240  67.745  1.00  0.00    -0.189 C  
HETATM   30  C   UNL     1      -5.910  11.890  68.100  1.00  0.00    -0.051 C  
ENDBRANCH  26  27
BRANCH  26  31
HETATM   31  S   UNL     1     -10.881  11.979  67.152  1.00  0.00    -0.267 S  
HETATM   32  O   UNL     1     -11.577  11.498  68.320  1.00  0.00    -0.279 OA 
HETATM   33  O   UNL     1     -11.588  12.613  66.054  1.00  0.00    -0.349 OA 
BRANCH  31  34
HETATM   34  C   UNL     1      -9.972  10.593  66.470  1.00  0.00    -0.215 A  
HETATM   35  C   UNL     1      -9.369   8.253  66.518  1.00  0.00    -0.263 A  
HETATM   36  C   UNL     1     -10.137   9.319  67.012  1.00  0.00    -0.313 A  
HETATM   37  C   UNL     1      -8.407   8.453  65.521  1.00  0.00    -0.154 A  
HETATM   38  N   UNL     1      -7.725   7.369  64.966  1.00  0.00    -0.107 NA 
HETATM   39  C   UNL     1      -8.316   9.717  64.934  1.00  0.00    -0.152 A  
HETATM   40  H1  UNL     1      -7.024   7.515  64.240  1.00  0.00     0.000 HD 
HETATM   41  C   UNL     1      -9.080  10.791  65.410  1.00  0.00    -0.216 A  
HETATM   42  H2  UNL     1      -8.414   6.704  64.616  1.00  0.00     0.000 HD 
ENDBRANCH  31  34
ENDBRANCH  26  31
ENDBRANCH  25  26
ENDBRANCH  22  25
ENDBRANCH  14  22
ENDBRANCH  12  14
ENDBRANCH   9  10
ENDBRANCH   8   9
TORSDOF 11
ENDMDL
MODEL      355
REMARK 921   NORMALIZED FREE ENERGY PREDICTED BY IDOCK:   -2.34 KCAL/MOL
REMARK 922        TOTAL FREE ENERGY PREDICTED BY IDOCK:   -6.47 KCAL/MOL
REMARK 923 INTER-LIGAND FREE ENERGY PREDICTED BY IDOCK:   -6.58 KCAL/MOL
REMARK 924 INTRA-LIGAND FREE ENERGY PREDICTED BY IDOCK:    0.11 KCAL/MOL
REMARK 927      BINDING AFFINITY PREDICTED BY RF-SCORE:    0.00 PKD
ROOT
HETATM    1  C   UNL     1      -8.527  16.298  68.553  1.00  0.00    -0.206 C  
HETATM    2  C   UNL     1      -9.904  16.259  67.916  1.00  0.00    -0.237 C  
HETATM    3  C   UNL     1     -10.312  17.714  67.789  1.00  0.00    -0.365 C  
HETATM    4  O   UNL     1      -9.217  18.523  68.216  1.00  0.00    -0.302 OA 
HETATM    5  C   UNL     1      -8.057  17.704  68.273  1.00  0.00    -0.278 C  
HETATM    6  O   UNL     1      -7.387  17.654  67.014  1.00  0.00    -0.177 OA 
HETATM    7  C   UNL     1      -6.803  16.354  66.892  1.00  0.00    -0.196 C  
HETATM    8  C   UNL     1      -7.450  15.431  67.925  1.00  0.00    -0.140 C  
ENDROOT
BRANCH   8   9
HETATM    9  O   UNL     1      -8.001  14.293  67.244  1.00  0.00    -0.192 OA 
BRANCH   9  10
HETATM   10  C   UNL     1      -8.400  13.259  68.026  1.00  0.00    -0.162 C  
HETATM   11  O   UNL     1      -7.894  12.953  69.092  1.00  0.00     0.171 OA 
HETATM   12  N   UNL     1      -9.387  12.580  67.374  1.00  0.00    -0.181 N  
HETATM   13  H   UNL     1      -9.790  13.000  66.536  1.00  0.00     0.000 HD 
BRANCH  12  14
HETATM   14  C   UNL     1      -9.902  11.275  67.816  1.00  0.00    -0.173 C  
BRANCH  14  15
HETATM   15  C   UNL     1     -10.813  10.617  66.730  1.00  0.00    -0.233 C  
BRANCH  15  16
HETATM   16  C   UNL     1     -10.299  10.662  65.300  1.00  0.00    -0.321 A  
HETATM   17  C   UNL     1     -10.814  11.591  64.387  1.00  0.00    -0.405 A  
HETATM   18  C   UNL     1      -9.328   9.751  64.852  1.00  0.00    -0.327 A  
HETATM   19  C   UNL     1     -10.374  11.606  63.061  1.00  0.00    -0.284 A  
HETATM   20  C   UNL     1      -9.404  10.701  62.632  1.00  0.00    -0.332 A  
HETATM   21  C   UNL     1      -8.875   9.778  63.530  1.00  0.00    -0.260 A  
ENDBRANCH  15  16
ENDBRANCH  14  15
BRANCH  14  22
HETATM   22  C   UNL     1      -8.790  10.278  68.264  1.00  0.00    -0.126 C  
HETATM   23  O   UNL     1      -7.716  10.252  67.314  1.00  0.00    -0.095 OA 
HETATM   24  H   UNL     1      -7.038   9.645  67.587  1.00  0.00     0.000 HD 
BRANCH  22  25
HETATM   25  C   UNL     1      -9.217   8.848  68.653  1.00  0.00    -0.137 C  
BRANCH  25  26
HETATM   26  N   UNL     1      -8.150   7.804  68.968  1.00  0.00    -0.123 N  
BRANCH  26  27
HETATM   27  C   UNL     1      -7.118   7.717  67.843  1.00  0.00    -0.085 C  
HETATM   28  C   UNL     1      -7.192   6.542  66.844  1.00  0.00    -0.078 C  
HETATM   29  C   UNL     1      -8.476   6.505  66.018  1.00  0.00    -0.145 C  
HETATM   30  C   UNL     1      -6.011   6.642  65.860  1.00  0.00    -0.030 C  
ENDBRANCH  26  27
BRANCH  26  31
HETATM   31  S   UNL     1      -7.405   8.188  70.519  1.00  0.00    -0.058 S  
HETATM   32  O   UNL     1      -5.973   8.095  70.384  1.00  0.00    -0.029 OA 
HETATM   33  O   UNL     1      -8.046   9.404  70.988  1.00  0.00    -0.300 OA 
BRANCH  31  34
HETATM   34  C   UNL     1      -7.920   6.861  71.607  1.00  0.00    -0.101 A  
HETATM   35  C   UNL     1      -8.869   4.660  71.927  1.00  0.00    -0.139 A  
HETATM   36  C   UNL     1      -8.402   5.668  71.068  1.00  0.00    -0.122 A  
HETATM   37  C   UNL     1      -8.902   4.847  73.313  1.00  0.00    -0.107 A  
HETATM   38  N   UNL     1      -9.270   3.801  74.161  1.00  0.00    -0.089 NA 
HETATM   39  C   UNL     1      -8.338   6.012  73.838  1.00  0.00    -0.113 A  
HETATM   40  H1  UNL     1      -9.294   3.937  75.172  1.00  0.00     0.000 HD 
HETATM   41  C   UNL     1      -7.861   7.026  72.995  1.00  0.00    -0.102 A  
HETATM   42  H2  UNL     1      -8.669   3.002  73.962  1.00  0.00     0.000 HD 
ENDBRANCH  31  34
ENDBRANCH  26  31
ENDBRANCH  25  26
ENDBRANCH  22  25
ENDBRANCH  14  22
ENDBRANCH  12  14
ENDBRANCH   9  10
ENDBRANCH   8   9
TORSDOF 11
ENDMDL
MODEL      356
REMARK 921   NORMALIZED FREE ENERGY PREDICTED BY IDOCK:   -2.33 KCAL/MOL
REMARK 922        TOTAL FREE ENERGY PREDICTED BY IDOCK:   -6.44 KCAL/MOL
REMARK 923 INTER-LIGAND FREE ENERGY PREDICTED BY IDOCK:   -5.96 KCAL/MOL
REMARK 924 INTRA-LIGAND FREE ENERGY PREDICTED BY IDOCK:   -0.49 KCAL/MOL
REMARK 927      BINDING AFFINITY PREDICTED BY RF-SCORE:    0.00 PKD
ROOT
HETATM    1  C   UNL     1     -12.124  14.473  70.788  1.00  0.00    -0.398 C  
HETATM    2  C   UNL     1     -13.159  15.050  69.838  1.00  0.00     0.217 C  
HETATM    3  C   UNL     1     -14.394  15.258  70.694  1.00  0.00     0.539 C  
HETATM    4  O   UNL     1     -14.061  14.932  72.043  1.00  0.00    -0.420 OA 
HETATM    5  C   UNL     1     -12.646  14.867  72.148  1.00  0.00    -0.327 C  
HETATM    6  O   UNL     1     -12.081  16.145  72.434  1.00  0.00    -0.481 OA 
HETATM    7  C   UNL     1     -10.804  16.202  71.789  1.00  0.00     0.909 C  
HETATM    8  C   UNL     1     -10.735  15.083  70.750  1.00  0.00     0.014 C  
ENDROOT
BRANCH   8   9
HETATM    9  O   UNL     1     -10.434  15.663  69.470  1.00  0.00    -0.229 OA 
BRANCH   9  10
HETATM   10  C   UNL     1      -9.807  14.857  68.578  1.00  0.00    -0.217 C  
HETATM   11  O   UNL     1      -9.061  15.239  67.693  1.00  0.00    -0.180 OA 
HETATM   12  N   UNL     1     -10.227  13.576  68.786  1.00  0.00    -0.383 N  
HETATM   13  H   UNL     1     -10.773  13.376  69.624  1.00  0.00     0.000 HD 
BRANCH  12  14
HETATM   14  C   UNL     1      -9.932  12.467  67.865  1.00  0.00    -0.204 C  
BRANCH  14  15
HETATM   15  C   UNL     1      -9.660  12.980  66.414  1.00  0.00    -0.258 C  
BRANCH  15  16
HETATM   16  C   UNL     1     -10.692  12.610  65.361  1.00  0.00    -0.308 A  
HETATM   17  C   UNL     1     -10.395  11.660  64.376  1.00  0.00    -0.362 A  
HETATM   18  C   UNL     1     -11.948  13.237  65.329  1.00  0.00    -0.422 A  
HETATM   19  C   UNL     1     -11.327  11.349  63.382  1.00  0.00    -0.190 A  
HETATM   20  C   UNL     1     -12.573  11.974  63.367  1.00  0.00    -0.592 A  
HETATM   21  C   UNL     1     -12.887  12.913  64.346  1.00  0.00    -0.235 A  
ENDBRANCH  15  16
ENDBRANCH  14  15
BRANCH  14  22
HETATM   22  C   UNL     1      -8.767  11.545  68.339  1.00  0.00    -0.160 C  
HETATM   23  O   UNL     1      -7.943  12.220  69.300  1.00  0.00    -0.309 OA 
HETATM   24  H   UNL     1      -7.234  11.659  69.589  1.00  0.00     0.000 HD 
BRANCH  22  25
HETATM   25  C   UNL     1      -7.906  10.856  67.261  1.00  0.00    -0.116 C  
BRANCH  25  26
HETATM   26  N   UNL     1      -8.258   9.443  66.807  1.00  0.00    -0.112 N  
BRANCH  26  27
HETATM   27  C   UNL     1      -7.134   8.842  65.963  1.00  0.00    -0.084 C  
HETATM   28  C   UNL     1      -7.436   8.396  64.516  1.00  0.00    -0.099 C  
HETATM   29  C   UNL     1      -7.872   9.530  63.591  1.00  0.00    -0.132 C  
HETATM   30  C   UNL     1      -6.168   7.764  63.909  1.00  0.00    -0.057 C  
ENDBRANCH  26  27
BRANCH  26  31
HETATM   31  S   UNL     1      -8.625   8.455  68.221  1.00  0.00    -0.140 S  
HETATM   32  O   UNL     1      -7.506   8.509  69.128  1.00  0.00    -0.084 OA 
HETATM   33  O   UNL     1      -9.962   8.830  68.642  1.00  0.00    -0.171 OA 
BRANCH  31  34
HETATM   34  C   UNL     1      -8.714   6.781  67.590  1.00  0.00    -0.119 A  
HETATM   35  C   UNL     1      -7.692   4.621  67.223  1.00  0.00    -0.090 A  
HETATM   36  C   UNL     1      -7.644   5.908  67.781  1.00  0.00    -0.089 A  
HETATM   37  C   UNL     1      -8.777   4.211  66.439  1.00  0.00    -0.115 A  
HETATM   38  N   UNL     1      -8.863   2.897  65.978  1.00  0.00    -0.137 NA 
HETATM   39  C   UNL     1      -9.875   5.068  66.330  1.00  0.00    -0.217 A  
HETATM   40  H1  UNL     1      -9.653   2.599  65.406  1.00  0.00     0.000 HD 
HETATM   41  C   UNL     1      -9.845   6.354  66.886  1.00  0.00    -0.202 A  
HETATM   42  H2  UNL     1      -8.796   2.271  66.781  1.00  0.00     0.000 HD 
ENDBRANCH  31  34
ENDBRANCH  26  31
ENDBRANCH  25  26
ENDBRANCH  22  25
ENDBRANCH  14  22
ENDBRANCH  12  14
ENDBRANCH   9  10
ENDBRANCH   8   9
TORSDOF 11
ENDMDL
MODEL      357
REMARK 921   NORMALIZED FREE ENERGY PREDICTED BY IDOCK:   -2.24 KCAL/MOL
REMARK 922        TOTAL FREE ENERGY PREDICTED BY IDOCK:   -6.30 KCAL/MOL
REMARK 923 INTER-LIGAND FREE ENERGY PREDICTED BY IDOCK:   -6.18 KCAL/MOL
REMARK 924 INTRA-LIGAND FREE ENERGY PREDICTED BY IDOCK:   -0.12 KCAL/MOL
REMARK 927      BINDING AFFINITY PREDICTED BY RF-SCORE:    0.00 PKD
ROOT
HETATM    1  C   UNL     1      -8.886   4.999  68.926  1.00  0.00    -0.111 C  
HETATM    2  C   UNL     1     -10.147   5.676  68.422  1.00  0.00    -0.224 C  
HETATM    3  C   UNL     1     -10.186   5.364  66.938  1.00  0.00    -0.240 C  
HETATM    4  O   UNL     1      -9.098   4.490  66.638  1.00  0.00    -0.115 OA 
HETATM    5  C   UNL     1      -8.597   3.970  67.861  1.00  0.00    -0.097 C  
HETATM    6  O   UNL     1      -9.294   2.788  68.254  1.00  0.00    -0.188 OA 
HETATM    7  C   UNL     1      -9.338   2.773  69.684  1.00  0.00    -0.128 C  
HETATM    8  C   UNL     1      -9.004   4.175  70.195  1.00  0.00    -0.090 C  
ENDROOT
BRANCH   8   9
HETATM    9  O   UNL     1     -10.079   4.626  71.036  1.00  0.00    -0.203 OA 
BRANCH   9  10
HETATM   10  C   UNL     1      -9.762   5.557  71.969  1.00  0.00    -0.160 C  
HETATM   11  O   UNL     1     -10.483   5.898  72.891  1.00  0.00    -0.201 OA 
HETATM   12  N   UNL     1      -8.553   6.100  71.642  1.00  0.00    -0.134 N  
HETATM   13  H   UNL     1      -8.006   5.655  70.905  1.00  0.00     0.000 HD 
BRANCH  12  14
HETATM   14  C   UNL     1      -7.998   7.294  72.298  1.00  0.00    -0.096 C  
BRANCH  14  15
HETATM   15  C   UNL     1      -6.453   7.404  72.081  1.00  0.00    -0.050 C  
BRANCH  15  16
HETATM   16  C   UNL     1      -5.980   8.503  71.143  1.00  0.00    -0.037 A  
HETATM   17  C   UNL     1      -5.667   9.775  71.638  1.00  0.00     0.004 A  
HETATM   18  C   UNL     1      -5.883   8.281  69.760  1.00  0.00    -0.026 A  
HETATM   19  C   UNL     1      -5.272  10.800  70.773  1.00  0.00    -0.091 A  
HETATM   20  C   UNL     1      -5.173  10.562  69.403  1.00  0.00    -0.038 A  
HETATM   21  C   UNL     1      -5.471   9.300  68.897  1.00  0.00    -0.037 A  
ENDBRANCH  15  16
ENDBRANCH  14  15
BRANCH  14  22
HETATM   22  C   UNL     1      -8.697   8.625  71.883  1.00  0.00    -0.185 C  
HETATM   23  O   UNL     1      -9.919   8.806  72.612  1.00  0.00    -0.199 OA 
HETATM   24  H   UNL     1     -10.345   9.617  72.359  1.00  0.00     0.000 HD 
BRANCH  22  25
HETATM   25  C   UNL     1      -8.908   8.892  70.378  1.00  0.00    -0.181 C  
BRANCH  25  26
HETATM   26  N   UNL     1     -10.320   9.096  69.841  1.00  0.00    -0.202 N  
BRANCH  26  27
HETATM   27  C   UNL     1     -11.080  10.128  70.674  1.00  0.00    -0.322 C  
HETATM   28  C   UNL     1     -12.615  10.011  70.800  1.00  0.00    -0.372 C  
HETATM   29  C   UNL     1     -13.088   8.731  71.485  1.00  0.00    -0.358 C  
HETATM   30  C   UNL     1     -13.145  11.200  71.624  1.00  0.00    -0.529 C  
ENDBRANCH  26  27
BRANCH  26  31
HETATM   31  S   UNL     1     -10.232   9.553  68.140  1.00  0.00    -0.203 S  
HETATM   32  O   UNL     1      -8.857   9.484  67.711  1.00  0.00    -0.120 OA 
HETATM   33  O   UNL     1     -11.277   8.806  67.464  1.00  0.00     0.182 OA 
BRANCH  31  34
HETATM   34  C   UNL     1     -10.708  11.280  68.113  1.00  0.00    -0.204 A  
HETATM   35  C   UNL     1     -12.383  12.989  67.766  1.00  0.00     0.131 A  
HETATM   36  C   UNL     1     -12.032  11.633  67.855  1.00  0.00    -0.159 A  
HETATM   37  C   UNL     1     -11.418  13.996  67.887  1.00  0.00    -0.316 A  
HETATM   38  N   UNL     1     -11.794  15.340  67.901  1.00  0.00    -0.419 NA 
HETATM   39  C   UNL     1     -10.115  13.627  68.229  1.00  0.00    -0.240 A  
HETATM   40  H1  UNL     1     -11.091  16.074  67.989  1.00  0.00     0.000 HD 
HETATM   41  C   UNL     1      -9.750  12.277  68.328  1.00  0.00    -0.219 A  
HETATM   42  H2  UNL     1     -12.486  15.471  68.640  1.00  0.00     0.000 HD 
ENDBRANCH  31  34
ENDBRANCH  26  31
ENDBRANCH  25  26
ENDBRANCH  22  25
ENDBRANCH  14  22
ENDBRANCH  12  14
ENDBRANCH   9  10
ENDBRANCH   8   9
TORSDOF 11
ENDMDL
MODEL      358
REMARK 921   NORMALIZED FREE ENERGY PREDICTED BY IDOCK:   -2.17 KCAL/MOL
REMARK 922        TOTAL FREE ENERGY PREDICTED BY IDOCK:   -6.19 KCAL/MOL
REMARK 923 INTER-LIGAND FREE ENERGY PREDICTED BY IDOCK:   -7.61 KCAL/MOL
REMARK 924 INTRA-LIGAND FREE ENERGY PREDICTED BY IDOCK:    1.42 KCAL/MOL
REMARK 927      BINDING AFFINITY PREDICTED BY RF-SCORE:    0.00 PKD
ROOT
HETATM    1  C   UNL     1      -6.942   9.353  64.400  1.00  0.00    -0.101 C  
HETATM    2  C   UNL     1      -8.006  10.434  64.459  1.00  0.00    -0.093 C  
HETATM    3  C   UNL     1      -9.321   9.679  64.491  1.00  0.00    -0.182 C  
HETATM    4  O   UNL     1      -9.032   8.283  64.556  1.00  0.00     0.175 OA 
HETATM    5  C   UNL     1      -7.664   8.129  64.907  1.00  0.00    -0.116 C  
HETATM    6  O   UNL     1      -7.482   8.121  66.322  1.00  0.00    -0.080 OA 
HETATM    7  C   UNL     1      -6.215   8.728  66.594  1.00  0.00    -0.058 C  
HETATM    8  C   UNL     1      -5.764   9.490  65.348  1.00  0.00    -0.058 C  
ENDROOT
BRANCH   8   9
HETATM    9  O   UNL     1      -5.518  10.859  65.710  1.00  0.00    -0.122 OA 
BRANCH   9  10
HETATM   10  C   UNL     1      -5.772  11.194  66.999  1.00  0.00    -0.078 C  
HETATM   11  O   UNL     1      -5.314  10.623  67.974  1.00  0.00    -0.037 OA 
HETATM   12  N   UNL     1      -6.689  12.204  67.010  1.00  0.00    -0.310 N  
HETATM   13  H   UNL     1      -6.915  12.661  66.126  1.00  0.00     0.000 HD 
BRANCH  12  14
HETATM   14  C   UNL     1      -7.369  12.669  68.228  1.00  0.00    -0.116 C  
BRANCH  14  15
HETATM   15  C   UNL     1      -6.374  13.364  69.214  1.00  0.00    -0.110 C  
BRANCH  15  16
HETATM   16  C   UNL     1      -6.042  14.818  68.924  1.00  0.00    -0.082 A  
HETATM   17  C   UNL     1      -5.603  15.208  67.652  1.00  0.00    -0.035 A  
HETATM   18  C   UNL     1      -6.129  15.794  69.929  1.00  0.00    -0.166 A  
HETATM   19  C   UNL     1      -5.257  16.537  67.393  1.00  0.00    -0.163 A  
HETATM   20  C   UNL     1      -5.355  17.496  68.400  1.00  0.00    -0.144 A  
HETATM   21  C   UNL     1      -5.799  17.126  69.666  1.00  0.00    -0.229 A  
ENDBRANCH  15  16
ENDBRANCH  14  15
BRANCH  14  22
HETATM   22  C   UNL     1      -8.592  13.596  67.953  1.00  0.00    -0.181 C  
HETATM   23  O   UNL     1      -8.461  14.249  66.683  1.00  0.00    -0.424 OA 
HETATM   24  H   UNL     1      -9.206  14.814  66.515  1.00  0.00     0.000 HD 
BRANCH  22  25
HETATM   25  C   UNL     1      -8.998  14.602  69.050  1.00  0.00    -0.093 C  
BRANCH  25  26
HETATM   26  N   UNL     1     -10.236  15.470  68.854  1.00  0.00    -0.202 N  
BRANCH  26  27
HETATM   27  C   UNL     1     -10.150  16.263  67.550  1.00  0.00    -0.258 C  
HETATM   28  C   UNL     1     -10.384  17.789  67.579  1.00  0.00    -0.371 C  
HETATM   29  C   UNL     1      -9.366  18.560  68.416  1.00  0.00    -0.359 C  
HETATM   30  C   UNL     1     -10.313  18.338  66.142  1.00  0.00    -0.414 C  
ENDBRANCH  26  27
BRANCH  26  31
HETATM   31  S   UNL     1     -11.674  14.450  68.913  1.00  0.00    -0.332 S  
HETATM   32  O   UNL     1     -11.425  13.349  69.810  1.00  0.00    -0.245 OA 
HETATM   33  O   UNL     1     -12.800  15.346  69.106  1.00  0.00     0.267 OA 
BRANCH  31  34
HETATM   34  C   UNL     1     -11.811  13.768  67.262  1.00  0.00    -0.401 A  
HETATM   35  C   UNL     1     -12.418  14.014  64.935  1.00  0.00    -0.419 A  
HETATM   36  C   UNL     1     -12.246  14.574  66.211  1.00  0.00    -0.270 A  
HETATM   37  C   UNL     1     -12.203  12.650  64.707  1.00  0.00    -0.465 A  
HETATM   38  N   UNL     1     -12.275  12.127  63.416  1.00  0.00    -0.705 NA 
HETATM   39  C   UNL     1     -11.686  11.879  65.751  1.00  0.00    -0.210 A  
HETATM   40  H1  UNL     1     -12.118  11.133  63.249  1.00  0.00     0.000 HD 
HETATM   41  C   UNL     1     -11.503  12.424  67.029  1.00  0.00    -0.423 A  
HETATM   42  H2  UNL     1     -11.636  12.655  62.821  1.00  0.00     0.000 HD 
ENDBRANCH  31  34
ENDBRANCH  26  31
ENDBRANCH  25  26
ENDBRANCH  22  25
ENDBRANCH  14  22
ENDBRANCH  12  14
ENDBRANCH   9  10
ENDBRANCH   8   9
TORSDOF 11
ENDMDL
MODEL      359
REMARK 921   NORMALIZED FREE ENERGY PREDICTED BY IDOCK:   -2.13 KCAL/MOL
REMARK 922        TOTAL FREE ENERGY PREDICTED BY IDOCK:   -6.12 KCAL/MOL
REMARK 923 INTER-LIGAND FREE ENERGY PREDICTED BY IDOCK:   -6.66 KCAL/MOL
REMARK 924 INTRA-LIGAND FREE ENERGY PREDICTED BY IDOCK:    0.55 KCAL/MOL
REMARK 927      BINDING AFFINITY PREDICTED BY RF-SCORE:    0.00 PKD
ROOT
HETATM    1  C   UNL     1     -12.438   9.903  70.781  1.00  0.00    -0.344 C  
HETATM    2  C   UNL     1     -12.234  11.365  71.135  1.00  0.00    -0.330 C  
HETATM    3  C   UNL     1     -13.444  11.731  71.972  1.00  0.00    -0.214 C  
HETATM    4  O   UNL     1     -14.220  10.551  72.173  1.00  0.00     0.342 OA 
HETATM    5  C   UNL     1     -13.423   9.430  71.821  1.00  0.00    -0.412 C  
HETATM    6  O   UNL     1     -12.643   8.972  72.925  1.00  0.00    -0.234 OA 
HETATM    7  C   UNL     1     -11.413   8.465  72.399  1.00  0.00    -0.380 C  
HETATM    8  C   UNL     1     -11.251   8.975  70.966  1.00  0.00    -0.295 C  
ENDROOT
BRANCH   8   9
HETATM    9  O   UNL     1      -9.998   9.671  70.865  1.00  0.00    -0.262 OA 
BRANCH   9  10
HETATM   10  C   UNL     1      -9.188   9.303  69.842  1.00  0.00    -0.195 C  
HETATM   11  O   UNL     1      -8.265   8.511  69.930  1.00  0.00    -0.115 OA 
HETATM   12  N   UNL     1      -9.524  10.035  68.740  1.00  0.00    -0.155 N  
HETATM   13  H   UNL     1     -10.381  10.588  68.770  1.00  0.00     0.000 HD 
BRANCH  12  14
HETATM   14  C   UNL     1      -8.717  10.067  67.511  1.00  0.00    -0.125 C  
BRANCH  14  15
HETATM   15  C   UNL     1      -8.636  11.509  66.913  1.00  0.00    -0.163 C  
BRANCH  15  16
HETATM   16  C   UNL     1      -9.956  12.153  66.522  1.00  0.00    -0.230 A  
HETATM   17  C   UNL     1     -10.497  11.949  65.246  1.00  0.00    -0.317 A  
HETATM   18  C   UNL     1     -10.641  12.994  67.413  1.00  0.00    -0.239 A  
HETATM   19  C   UNL     1     -11.689  12.574  64.870  1.00  0.00    -0.409 A  
HETATM   20  C   UNL     1     -12.362  13.401  65.767  1.00  0.00    -0.513 A  
HETATM   21  C   UNL     1     -11.842  13.605  67.042  1.00  0.00    -0.448 A  
ENDBRANCH  15  16
ENDBRANCH  14  15
BRANCH  14  22
HETATM   22  C   UNL     1      -7.286   9.471  67.680  1.00  0.00    -0.082 C  
HETATM   23  O   UNL     1      -6.305  10.515  67.754  1.00  0.00    -0.059 OA 
HETATM   24  H   UNL     1      -5.433  10.152  67.858  1.00  0.00     0.000 HD 
BRANCH  22  25
HETATM   25  C   UNL     1      -6.842   8.367  66.700  1.00  0.00    -0.068 C  
BRANCH  25  26
HETATM   26  N   UNL     1      -7.194   6.912  66.995  1.00  0.00    -0.082 N  
BRANCH  26  27
HETATM   27  C   UNL     1      -8.695   6.669  66.847  1.00  0.00    -0.116 C  
HETATM   28  C   UNL     1      -9.285   5.311  67.283  1.00  0.00    -0.114 C  
HETATM   29  C   UNL     1      -9.122   5.008  68.771  1.00  0.00    -0.140 C  
HETATM   30  C   UNL     1     -10.793   5.291  66.969  1.00  0.00    -0.038 C  
ENDBRANCH  26  27
BRANCH  26  31
HETATM   31  S   UNL     1      -6.247   5.863  65.942  1.00  0.00    -0.038 S  
HETATM   32  O   UNL     1      -5.692   6.655  64.873  1.00  0.00    -0.029 OA 
HETATM   33  O   UNL     1      -5.402   5.067  66.814  1.00  0.00    -0.008 OA 
BRANCH  31  34
HETATM   34  C   UNL     1      -7.450   4.756  65.209  1.00  0.00    -0.077 A  
HETATM   35  C   UNL     1      -9.391   4.394  63.813  1.00  0.00    -0.098 A  
HETATM   36  C   UNL     1      -8.409   5.255  64.328  1.00  0.00    -0.134 A  
HETATM   37  C   UNL     1      -9.454   3.052  64.203  1.00  0.00    -0.139 A  
HETATM   38  N   UNL     1     -10.368   2.182  63.606  1.00  0.00    -0.231 NA 
HETATM   39  C   UNL     1      -8.437   2.551  65.019  1.00  0.00    -0.097 A  
HETATM   40  H1  UNL     1     -10.414   1.203  63.890  1.00  0.00     0.000 HD 
HETATM   41  C   UNL     1      -7.445   3.395  65.536  1.00  0.00    -0.077 A  
HETATM   42  H2  UNL     1     -10.228   2.215  62.596  1.00  0.00     0.000 HD 
ENDBRANCH  31  34
ENDBRANCH  26  31
ENDBRANCH  25  26
ENDBRANCH  22  25
ENDBRANCH  14  22
ENDBRANCH  12  14
ENDBRANCH   9  10
ENDBRANCH   8   9
TORSDOF 11
ENDMDL
MODEL      360
REMARK 921   NORMALIZED FREE ENERGY PREDICTED BY IDOCK:   -2.11 KCAL/MOL
REMARK 922        TOTAL FREE ENERGY PREDICTED BY IDOCK:   -6.08 KCAL/MOL
REMARK 923 INTER-LIGAND FREE ENERGY PREDICTED BY IDOCK:   -8.02 KCAL/MOL
REMARK 924 INTRA-LIGAND FREE ENERGY PREDICTED BY IDOCK:    1.93 KCAL/MOL
REMARK 927      BINDING AFFINITY PREDICTED BY RF-SCORE:    0.00 PKD
ROOT
HETATM    1  C   UNL     1      -9.830   9.920  64.617  1.00  0.00    -0.185 C  
HETATM    2  C   UNL     1      -9.622  10.593  65.961  1.00  0.00    -0.244 C  
HETATM    3  C   UNL     1      -8.159  10.360  66.286  1.00  0.00    -0.136 C  
HETATM    4  O   UNL     1      -7.554   9.704  65.173  1.00  0.00    -0.106 OA 
HETATM    5  C   UNL     1      -8.431   9.817  64.062  1.00  0.00    -0.182 C  
HETATM    6  O   UNL     1      -8.205  11.023  63.334  1.00  0.00     0.063 OA 
HETATM    7  C   UNL     1      -9.467  11.451  62.812  1.00  0.00    -0.281 C  
HETATM    8  C   UNL     1     -10.577  10.709  63.557  1.00  0.00     0.225 C  
ENDROOT
BRANCH   8   9
HETATM    9  O   UNL     1     -11.471  11.676  64.132  1.00  0.00    -0.339 OA 
BRANCH   9  10
HETATM   10  C   UNL     1     -10.896  12.786  64.657  1.00  0.00    -0.335 C  
HETATM   11  O   UNL     1     -10.140  13.533  64.060  1.00  0.00    -0.204 OA 
HETATM   12  N   UNL     1     -11.234  12.863  65.977  1.00  0.00    -0.285 N  
HETATM   13  H   UNL     1     -11.955  12.234  66.329  1.00  0.00     0.000 HD 
BRANCH  12  14
HETATM   14  C   UNL     1     -10.614  13.808  66.919  1.00  0.00    -0.276 C  
BRANCH  14  15
HETATM   15  C   UNL     1     -11.388  15.165  66.968  1.00  0.00    -0.277 C  
BRANCH  15  16
HETATM   16  C   UNL     1     -10.566  16.400  67.299  1.00  0.00    -0.293 A  
HETATM   17  C   UNL     1      -9.992  17.167  66.277  1.00  0.00    -0.316 A  
HETATM   18  C   UNL     1     -10.332  16.777  68.631  1.00  0.00    -0.318 A  
HETATM   19  C   UNL     1      -9.200  18.278  66.580  1.00  0.00    -0.298 A  
HETATM   20  C   UNL     1      -8.982  18.645  67.907  1.00  0.00    -0.308 A  
HETATM   21  C   UNL     1      -9.555  17.899  68.933  1.00  0.00    -0.222 A  
ENDBRANCH  15  16
ENDBRANCH  14  15
BRANCH  14  22
HETATM   22  C   UNL     1     -10.434  13.236  68.359  1.00  0.00    -0.253 C  
HETATM   23  O   UNL     1      -9.045  13.165  68.709  1.00  0.00    -0.386 OA 
HETATM   24  H   UNL     1      -8.936  12.817  69.586  1.00  0.00     0.000 HD 
BRANCH  22  25
HETATM   25  C   UNL     1     -11.159  11.921  68.710  1.00  0.00    -0.245 C  
BRANCH  25  26
HETATM   26  N   UNL     1     -11.083  11.377  70.132  1.00  0.00    -0.002 N  
BRANCH  26  27
HETATM   27  C   UNL     1     -12.209  11.942  70.998  1.00  0.00    -0.169 C  
HETATM   28  C   UNL     1     -12.296  13.468  71.217  1.00  0.00    -0.325 C  
HETATM   29  C   UNL     1     -12.528  14.270  69.939  1.00  0.00    -0.315 C  
HETATM   30  C   UNL     1     -13.464  13.774  72.174  1.00  0.00    -0.596 C  
ENDBRANCH  26  27
BRANCH  26  31
HETATM   31  S   UNL     1     -11.111   9.614  70.080  1.00  0.00    -0.247 S  
HETATM   32  O   UNL     1     -11.950   9.130  71.148  1.00  0.00    -0.288 OA 
HETATM   33  O   UNL     1     -11.359   9.253  68.696  1.00  0.00     0.146 OA 
BRANCH  31  34
HETATM   34  C   UNL     1      -9.430   9.126  70.465  1.00  0.00    -0.242 A  
HETATM   35  C   UNL     1      -7.796   8.298  72.042  1.00  0.00    -0.168 A  
HETATM   36  C   UNL     1      -9.127   8.612  71.725  1.00  0.00    -0.317 A  
HETATM   37  C   UNL     1      -6.759   8.532  71.132  1.00  0.00    -0.061 A  
HETATM   38  N   UNL     1      -5.457   8.119  71.417  1.00  0.00    -0.033 NA 
HETATM   39  C   UNL     1      -7.093   8.967  69.847  1.00  0.00    -0.053 A  
HETATM   40  H1  UNL     1      -4.702   8.290  70.754  1.00  0.00     0.000 HD 
HETATM   41  C   UNL     1      -8.418   9.279  69.512  1.00  0.00    -0.144 A  
HETATM   42  H2  UNL     1      -5.477   7.121  71.628  1.00  0.00     0.000 HD 
ENDBRANCH  31  34
ENDBRANCH  26  31
ENDBRANCH  25  26
ENDBRANCH  22  25
ENDBRANCH  14  22
ENDBRANCH  12  14
ENDBRANCH   9  10
ENDBRANCH   8   9
TORSDOF 11
ENDMDL
MODEL      361
REMARK 921   NORMALIZED FREE ENERGY PREDICTED BY IDOCK:   -2.09 KCAL/MOL
REMARK 922        TOTAL FREE ENERGY PREDICTED BY IDOCK:   -6.05 KCAL/MOL
REMARK 923 INTER-LIGAND FREE ENERGY PREDICTED BY IDOCK:   -6.38 KCAL/MOL
REMARK 924 INTRA-LIGAND FREE ENERGY PREDICTED BY IDOCK:    0.32 KCAL/MOL
REMARK 927      BINDING AFFINITY PREDICTED BY RF-SCORE:    0.00 PKD
ROOT
HETATM    1  C   UNL     1      -7.258  18.369  68.788  1.00  0.00    -0.300 C  
HETATM    2  C   UNL     1      -6.917  18.528  67.317  1.00  0.00    -0.210 C  
HETATM    3  C   UNL     1      -7.214  19.982  67.007  1.00  0.00    -0.241 C  
HETATM    4  O   UNL     1      -7.588  20.630  68.222  1.00  0.00    -0.042 OA 
HETATM    5  C   UNL     1      -7.222  19.787  69.305  1.00  0.00    -0.258 C  
HETATM    6  O   UNL     1      -5.878  20.022  69.722  1.00  0.00    -0.263 OA 
HETATM    7  C   UNL     1      -5.345  18.772  70.171  1.00  0.00    -0.220 C  
HETATM    8  C   UNL     1      -6.245  17.648  69.658  1.00  0.00    -0.220 C  
ENDROOT
BRANCH   8   9
HETATM    9  O   UNL     1      -5.442  16.725  68.903  1.00  0.00    -0.125 OA 
BRANCH   9  10
HETATM   10  C   UNL     1      -6.113  15.878  68.083  1.00  0.00    -0.122 C  
HETATM   11  O   UNL     1      -5.800  15.623  66.933  1.00  0.00    -0.216 OA 
HETATM   12  N   UNL     1      -7.231  15.444  68.733  1.00  0.00    -0.121 N  
HETATM   13  H   UNL     1      -7.323  15.651  69.728  1.00  0.00     0.000 HD 
BRANCH  12  14
HETATM   14  C   UNL     1      -8.311  14.692  68.075  1.00  0.00    -0.146 C  
BRANCH  14  15
HETATM   15  C   UNL     1      -8.800  15.408  66.774  1.00  0.00    -0.300 C  
BRANCH  15  16
HETATM   16  C   UNL     1     -10.135  14.946  66.210  1.00  0.00    -0.298 A  
HETATM   17  C   UNL     1     -10.222  14.454  64.902  1.00  0.00    -0.357 A  
HETATM   18  C   UNL     1     -11.311  15.039  66.971  1.00  0.00    -0.319 A  
HETATM   19  C   UNL     1     -11.455  14.068  64.367  1.00  0.00    -0.357 A  
HETATM   20  C   UNL     1     -12.613  14.159  65.136  1.00  0.00    -0.426 A  
HETATM   21  C   UNL     1     -12.541  14.637  66.442  1.00  0.00     0.212 A  
ENDBRANCH  15  16
ENDBRANCH  14  15
BRANCH  14  22
HETATM   22  C   UNL     1      -7.951  13.206  67.771  1.00  0.00    -0.162 C  
HETATM   23  O   UNL     1      -6.926  13.125  66.771  1.00  0.00    -0.333 OA 
HETATM   24  H   UNL     1      -6.706  12.220  66.586  1.00  0.00     0.000 HD 
BRANCH  22  25
HETATM   25  C   UNL     1      -9.105  12.232  67.457  1.00  0.00    -0.182 C  
BRANCH  25  26
HETATM   26  N   UNL     1      -9.863  11.571  68.604  1.00  0.00    -0.197 N  
BRANCH  26  27
HETATM   27  C   UNL     1     -11.208  12.258  68.841  1.00  0.00    -0.273 C  
HETATM   28  C   UNL     1     -11.415  13.084  70.129  1.00  0.00    -0.009 C  
HETATM   29  C   UNL     1     -10.486  14.290  70.252  1.00  0.00     0.702 C  
HETATM   30  C   UNL     1     -12.863  13.609  70.164  1.00  0.00     0.026 C  
ENDBRANCH  26  27
BRANCH  26  31
HETATM   31  S   UNL     1     -10.050   9.852  68.258  1.00  0.00    -0.169 S  
HETATM   32  O   UNL     1      -9.148   9.107  69.101  1.00  0.00    -0.140 OA 
HETATM   33  O   UNL     1     -11.478   9.591  68.257  1.00  0.00     0.139 OA 
BRANCH  31  34
HETATM   34  C   UNL     1      -9.473   9.667  66.572  1.00  0.00    -0.181 A  
HETATM   35  C   UNL     1      -9.690  10.158  64.215  1.00  0.00    -0.326 A  
HETATM   36  C   UNL     1     -10.103  10.363  65.541  1.00  0.00    -0.352 A  
HETATM   37  C   UNL     1      -8.686   9.234  63.902  1.00  0.00    -0.168 A  
HETATM   38  N   UNL     1      -8.213   9.115  62.595  1.00  0.00    -0.161 NA 
HETATM   39  C   UNL     1      -8.011   8.610  64.954  1.00  0.00    -0.138 A  
HETATM   40  H1  UNL     1      -7.482   8.442  62.368  1.00  0.00     0.000 HD 
HETATM   41  C   UNL     1      -8.406   8.808  66.284  1.00  0.00    -0.120 A  
HETATM   42  H2  UNL     1      -7.907  10.037  62.282  1.00  0.00     0.000 HD 
ENDBRANCH  31  34
ENDBRANCH  26  31
ENDBRANCH  25  26
ENDBRANCH  22  25
ENDBRANCH  14  22
ENDBRANCH  12  14
ENDBRANCH   9  10
ENDBRANCH   8   9
TORSDOF 11
ENDMDL
MODEL      362
REMARK 921   NORMALIZED FREE ENERGY PREDICTED BY IDOCK:   -1.95 KCAL/MOL
REMARK 922        TOTAL FREE ENERGY PREDICTED BY IDOCK:   -5.83 KCAL/MOL
REMARK 923 INTER-LIGAND FREE ENERGY PREDICTED BY IDOCK:   -6.43 KCAL/MOL
REMARK 924 INTRA-LIGAND FREE ENERGY PREDICTED BY IDOCK:    0.60 KCAL/MOL
REMARK 927      BINDING AFFINITY PREDICTED BY RF-SCORE:    0.00 PKD
ROOT
HETATM    1  C   UNL     1      -5.797   2.978  68.659  1.00  0.00    -0.023 C  
HETATM    2  C   UNL     1      -5.175   3.537  67.392  1.00  0.00    -0.008 C  
HETATM    3  C   UNL     1      -5.709   2.656  66.279  1.00  0.00    -0.022 C  
HETATM    4  O   UNL     1      -6.643   1.739  66.846  1.00  0.00    -0.033 OA 
HETATM    5  C   UNL     1      -6.983   2.198  68.146  1.00  0.00    -0.040 C  
HETATM    6  O   UNL     1      -8.074   3.117  68.110  1.00  0.00    -0.072 OA 
HETATM    7  C   UNL     1      -7.870   4.065  69.162  1.00  0.00    -0.056 C  
HETATM    8  C   UNL     1      -6.415   3.973  69.623  1.00  0.00    -0.033 C  
ENDROOT
BRANCH   8   9
HETATM    9  O   UNL     1      -5.817   5.275  69.515  1.00  0.00    -0.015 OA 
BRANCH   9  10
HETATM   10  C   UNL     1      -6.013   5.931  68.344  1.00  0.00    -0.020 C  
HETATM   11  O   UNL     1      -5.129   6.290  67.586  1.00  0.00    -0.004 OA 
HETATM   12  N   UNL     1      -7.346   6.194  68.215  1.00  0.00    -0.084 N  
HETATM   13  H   UNL     1      -7.991   5.750  68.868  1.00  0.00     0.000 HD 
BRANCH  12  14
HETATM   14  C   UNL     1      -7.900   7.085  67.184  1.00  0.00    -0.109 C  
BRANCH  14  15
HETATM   15  C   UNL     1      -9.207   6.498  66.559  1.00  0.00    -0.179 C  
BRANCH  15  16
HETATM   16  C   UNL     1      -9.026   5.399  65.524  1.00  0.00    -0.149 A  
HETATM   17  C   UNL     1      -9.864   4.276  65.524  1.00  0.00    -0.221 A  
HETATM   18  C   UNL     1      -7.996   5.464  64.573  1.00  0.00    -0.116 A  
HETATM   19  C   UNL     1      -9.673   3.244  64.601  1.00  0.00    -0.149 A  
HETATM   20  C   UNL     1      -8.650   3.326  63.658  1.00  0.00    -0.090 A  
HETATM   21  C   UNL     1      -7.816   4.440  63.639  1.00  0.00    -0.080 A  
ENDBRANCH  15  16
ENDBRANCH  14  15
BRANCH  14  22
HETATM   22  C   UNL     1      -8.145   8.544  67.676  1.00  0.00    -0.107 C  
HETATM   23  O   UNL     1      -6.913   9.277  67.728  1.00  0.00    -0.079 OA 
HETATM   24  H   UNL     1      -7.062  10.166  68.027  1.00  0.00     0.000 HD 
BRANCH  22  25
HETATM   25  C   UNL     1      -8.960   8.743  68.970  1.00  0.00    -0.137 C  
BRANCH  25  26
HETATM   26  N   UNL     1     -10.378   9.299  68.888  1.00  0.00    -0.210 N  
BRANCH  26  27
HETATM   27  C   UNL     1     -11.209   8.863  70.094  1.00  0.00    -0.160 C  
HETATM   28  C   UNL     1     -11.687   7.398  70.189  1.00  0.00    -0.028 C  
HETATM   29  C   UNL     1     -10.555   6.377  70.276  1.00  0.00    -0.290 C  
HETATM   30  C   UNL     1     -12.557   7.233  71.450  1.00  0.00    -0.423 C  
ENDBRANCH  26  27
BRANCH  26  31
HETATM   31  S   UNL     1     -10.303  11.054  68.736  1.00  0.00    -0.206 S  
HETATM   32  O   UNL     1     -11.356  11.635  69.530  1.00  0.00    -0.258 OA 
HETATM   33  O   UNL     1      -8.912  11.420  68.934  1.00  0.00    -0.122 OA 
BRANCH  31  34
HETATM   34  C   UNL     1     -10.699  11.374  67.018  1.00  0.00    -0.261 A  
HETATM   35  C   UNL     1     -10.346  10.933  64.667  1.00  0.00    -0.407 A  
HETATM   36  C   UNL     1     -10.083  10.629  66.012  1.00  0.00    -0.308 A  
HETATM   37  C   UNL     1     -11.180  12.001  64.314  1.00  0.00    -0.357 A  
HETATM   38  N   UNL     1     -11.516  12.227  62.979  1.00  0.00    -0.657 NA 
HETATM   39  C   UNL     1     -11.852  12.680  65.333  1.00  0.00    -0.473 A  
HETATM   40  H1  UNL     1     -12.123  13.005  62.722  1.00  0.00     0.000 HD 
HETATM   41  C   UNL     1     -11.606  12.384  66.681  1.00  0.00    -0.447 A  
HETATM   42  H2  UNL     1     -11.918  11.370  62.601  1.00  0.00     0.000 HD 
ENDBRANCH  31  34
ENDBRANCH  26  31
ENDBRANCH  25  26
ENDBRANCH  22  25
ENDBRANCH  14  22
ENDBRANCH  12  14
ENDBRANCH   9  10
ENDBRANCH   8   9
TORSDOF 11
ENDMDL
MODEL      363
REMARK 921   NORMALIZED FREE ENERGY PREDICTED BY IDOCK:   -1.84 KCAL/MOL
REMARK 922        TOTAL FREE ENERGY PREDICTED BY IDOCK:   -5.65 KCAL/MOL
REMARK 923 INTER-LIGAND FREE ENERGY PREDICTED BY IDOCK:   -3.72 KCAL/MOL
REMARK 924 INTRA-LIGAND FREE ENERGY PREDICTED BY IDOCK:   -1.92 KCAL/MOL
REMARK 927      BINDING AFFINITY PREDICTED BY RF-SCORE:    0.00 PKD
ROOT
HETATM    1  C   UNL     1      -8.180   8.793  66.058  1.00  0.00    -0.118 C  
HETATM    2  C   UNL     1      -9.563   9.276  66.455  1.00  0.00    -0.285 C  
HETATM    3  C   UNL     1      -9.425  10.781  66.579  1.00  0.00    -0.169 C  
HETATM    4  O   UNL     1      -8.104  11.142  66.180  1.00  0.00    -0.165 OA 
HETATM    5  C   UNL     1      -7.527  10.035  65.503  1.00  0.00    -0.137 C  
HETATM    6  O   UNL     1      -7.834  10.054  64.109  1.00  0.00    -0.138 OA 
HETATM    7  C   UNL     1      -7.944   8.694  63.677  1.00  0.00    -0.160 C  
HETATM    8  C   UNL     1      -8.096   7.803  64.911  1.00  0.00    -0.136 C  
ENDROOT
BRANCH   8   9
HETATM    9  O   UNL     1      -9.300   7.030  64.773  1.00  0.00     0.962 OA 
BRANCH   9  10
HETATM   10  C   UNL     1      -9.182   5.695  64.975  1.00  0.00     0.240 C  
HETATM   11  O   UNL     1      -9.626   4.833  64.236  1.00  0.00    -0.003 OA 
HETATM   12  N   UNL     1      -8.572   5.492  66.179  1.00  0.00    -0.125 N  
HETATM   13  H   UNL     1      -8.158   6.296  66.652  1.00  0.00     0.000 HD 
BRANCH  12  14
HETATM   14  C   UNL     1      -8.480   4.176  66.830  1.00  0.00    -0.104 C  
BRANCH  14  15
HETATM   15  C   UNL     1      -7.131   3.462  66.496  1.00  0.00    -0.062 C  
BRANCH  15  16
HETATM   16  C   UNL     1      -6.496   3.810  65.159  1.00  0.00    -0.035 A  
HETATM   17  C   UNL     1      -5.708   4.960  65.024  1.00  0.00    -0.014 A  
HETATM   18  C   UNL     1      -6.714   3.011  64.025  1.00  0.00    -0.035 A  
HETATM   19  C   UNL     1      -5.158   5.306  63.786  1.00  0.00    -0.009 A  
HETATM   20  C   UNL     1      -5.377   4.499  62.671  1.00  0.00    -0.009 A  
HETATM   21  C   UNL     1      -6.150   3.347  62.792  1.00  0.00    -0.014 A  
ENDBRANCH  15  16
ENDBRANCH  14  15
BRANCH  14  22
HETATM   22  C   UNL     1      -8.701   4.219  68.373  1.00  0.00    -0.098 C  
HETATM   23  O   UNL     1      -9.998   4.743  68.687  1.00  0.00    -0.155 OA 
HETATM   24  H   UNL     1     -10.133   4.769  69.628  1.00  0.00     0.000 HD 
BRANCH  22  25
HETATM   25  C   UNL     1      -7.613   4.884  69.240  1.00  0.00    -0.060 C  
BRANCH  25  26
HETATM   26  N   UNL     1      -8.016   5.660  70.490  1.00  0.00    -0.102 N  
BRANCH  26  27
HETATM   27  C   UNL     1      -7.243   5.170  71.714  1.00  0.00    -0.079 C  
HETATM   28  C   UNL     1      -7.998   4.943  73.041  1.00  0.00    -0.101 C  
HETATM   29  C   UNL     1      -9.075   3.863  72.969  1.00  0.00    -0.120 C  
HETATM   30  C   UNL     1      -6.992   4.522  74.128  1.00  0.00    -0.071 C  
ENDBRANCH  26  27
BRANCH  26  31
HETATM   31  S   UNL     1      -7.778   7.383  70.203  1.00  0.00    -0.092 S  
HETATM   32  O   UNL     1      -6.782   7.874  71.123  1.00  0.00    -0.041 OA 
HETATM   33  O   UNL     1      -7.629   7.540  68.768  1.00  0.00    -0.101 OA 
BRANCH  31  34
HETATM   34  C   UNL     1      -9.338   8.136  70.662  1.00  0.00    -0.154 A  
HETATM   35  C   UNL     1     -10.845  10.026  70.629  1.00  0.00    -0.367 A  
HETATM   36  C   UNL     1      -9.653   9.417  70.208  1.00  0.00    -0.294 A  
HETATM   37  C   UNL     1     -11.705   9.391  71.533  1.00  0.00    -0.394 A  
HETATM   38  N   UNL     1     -12.935   9.961  71.862  1.00  0.00    -0.430 NA 
HETATM   39  C   UNL     1     -11.415   8.077  71.908  1.00  0.00    -0.341 A  
HETATM   40  H1  UNL     1     -13.562   9.497  72.520  1.00  0.00     0.000 HD 
HETATM   41  C   UNL     1     -10.232   7.451  71.492  1.00  0.00    -0.205 A  
HETATM   42  H2  UNL     1     -13.450  10.131  70.998  1.00  0.00     0.000 HD 
ENDBRANCH  31  34
ENDBRANCH  26  31
ENDBRANCH  25  26
ENDBRANCH  22  25
ENDBRANCH  14  22
ENDBRANCH  12  14
ENDBRANCH   9  10
ENDBRANCH   8   9
TORSDOF 11
ENDMDL
MODEL      364
REMARK 921   NORMALIZED FREE ENERGY PREDICTED BY IDOCK:   -1.76 KCAL/MOL
REMARK 922        TOTAL FREE ENERGY PREDICTED BY IDOCK:   -5.51 KCAL/MOL
REMARK 923 INTER-LIGAND FREE ENERGY PREDICTED BY IDOCK:   -3.83 KCAL/MOL
REMARK 924 INTRA-LIGAND FREE ENERGY PREDICTED BY IDOCK:   -1.69 KCAL/MOL
REMARK 927      BINDING AFFINITY PREDICTED BY RF-SCORE:    0.00 PKD
ROOT
HETATM    1  C   UNL     1      -7.886   7.967  65.850  1.00  0.00    -0.101 C  
HETATM    2  C   UNL     1      -9.178   8.592  66.343  1.00  0.00    -0.245 C  
HETATM    3  C   UNL     1      -8.876  10.075  66.440  1.00  0.00    -0.143 C  
HETATM    4  O   UNL     1      -7.558  10.296  65.940  1.00  0.00    -0.122 OA 
HETATM    5  C   UNL     1      -7.151   9.132  65.234  1.00  0.00    -0.088 C  
HETATM    6  O   UNL     1      -7.559   9.179  63.867  1.00  0.00    -0.107 OA 
HETATM    7  C   UNL     1      -7.841   7.836  63.459  1.00  0.00    -0.129 C  
HETATM    8  C   UNL     1      -7.991   6.970  64.710  1.00  0.00    -0.122 C  
ENDROOT
BRANCH   8   9
HETATM    9  O   UNL     1      -9.276   6.326  64.672  1.00  0.00     0.553 OA 
BRANCH   9  10
HETATM   10  C   UNL     1      -9.343   5.089  65.221  1.00  0.00    -0.084 C  
HETATM   11  O   UNL     1      -9.557   4.059  64.604  1.00  0.00    -0.156 OA 
HETATM   12  N   UNL     1      -9.226   5.211  66.575  1.00  0.00    -0.131 N  
HETATM   13  H   UNL     1      -8.949   6.115  66.957  1.00  0.00     0.000 HD 
BRANCH  12  14
HETATM   14  C   UNL     1      -9.478   4.106  67.514  1.00  0.00    -0.184 C  
BRANCH  14  15
HETATM   15  C   UNL     1      -8.164   3.334  67.861  1.00  0.00    -0.087 C  
BRANCH  15  16
HETATM   16  C   UNL     1      -7.091   3.310  66.784  1.00  0.00    -0.055 A  
HETATM   17  C   UNL     1      -6.228   4.400  66.615  1.00  0.00    -0.032 A  
HETATM   18  C   UNL     1      -6.966   2.215  65.914  1.00  0.00    -0.043 A  
HETATM   19  C   UNL     1      -5.269   4.398  65.598  1.00  0.00    -0.009 A  
HETATM   20  C   UNL     1      -5.151   3.301  64.746  1.00  0.00    -0.008 A  
HETATM   21  C   UNL     1      -5.995   2.206  64.908  1.00  0.00    -0.018 A  
ENDBRANCH  15  16
ENDBRANCH  14  15
BRANCH  14  22
HETATM   22  C   UNL     1     -10.209   4.543  68.820  1.00  0.00     0.159 C  
HETATM   23  O   UNL     1     -10.304   5.972  68.897  1.00  0.00    -0.176 OA 
HETATM   24  H   UNL     1     -10.749   6.238  69.693  1.00  0.00     0.000 HD 
BRANCH  22  25
HETATM   25  C   UNL     1      -9.717   3.950  70.156  1.00  0.00    -0.172 C  
BRANCH  25  26
HETATM   26  N   UNL     1      -9.737   4.812  71.414  1.00  0.00    -0.166 N  
BRANCH  26  27
HETATM   27  C   UNL     1     -10.412   4.078  72.572  1.00  0.00    -0.117 C  
HETATM   28  C   UNL     1     -10.389   2.535  72.600  1.00  0.00    -0.228 C  
HETATM   29  C   UNL     1      -8.989   1.933  72.697  1.00  0.00    -0.082 C  
HETATM   30  C   UNL     1     -11.191   2.041  73.820  1.00  0.00    -0.291 C  
ENDBRANCH  26  27
BRANCH  26  31
HETATM   31  S   UNL     1      -8.088   5.297  71.810  1.00  0.00    -0.118 S  
HETATM   32  O   UNL     1      -7.955   5.366  73.244  1.00  0.00    -0.109 OA 
HETATM   33  O   UNL     1      -7.215   4.460  71.006  1.00  0.00    -0.042 OA 
BRANCH  31  34
HETATM   34  C   UNL     1      -7.947   6.969  71.184  1.00  0.00    -0.104 A  
HETATM   35  C   UNL     1      -8.894   9.168  70.842  1.00  0.00    -0.292 A  
HETATM   36  C   UNL     1      -8.981   7.881  71.396  1.00  0.00    -0.161 A  
HETATM   37  C   UNL     1      -7.808   9.540  70.042  1.00  0.00    -0.151 A  
HETATM   38  N   UNL     1      -7.681  10.852  69.584  1.00  0.00    -0.372 NA 
HETATM   39  C   UNL     1      -6.744   8.644  69.911  1.00  0.00    -0.042 A  
HETATM   40  H1  UNL     1      -6.890  11.124  69.001  1.00  0.00     0.000 HD 
HETATM   41  C   UNL     1      -6.812   7.358  70.463  1.00  0.00    -0.052 A  
HETATM   42  H2  UNL     1      -7.713  11.476  70.391  1.00  0.00     0.000 HD 
ENDBRANCH  31  34
ENDBRANCH  26  31
ENDBRANCH  25  26
ENDBRANCH  22  25
ENDBRANCH  14  22
ENDBRANCH  12  14
ENDBRANCH   9  10
ENDBRANCH   8   9
TORSDOF 11
ENDMDL
MODEL      365
REMARK 921   NORMALIZED FREE ENERGY PREDICTED BY IDOCK:   -1.73 KCAL/MOL
REMARK 922        TOTAL FREE ENERGY PREDICTED BY IDOCK:   -5.46 KCAL/MOL
REMARK 923 INTER-LIGAND FREE ENERGY PREDICTED BY IDOCK:   -6.12 KCAL/MOL
REMARK 924 INTRA-LIGAND FREE ENERGY PREDICTED BY IDOCK:    0.66 KCAL/MOL
REMARK 927      BINDING AFFINITY PREDICTED BY RF-SCORE:    0.00 PKD
ROOT
HETATM    1  C   UNL     1      -8.515  19.591  68.208  1.00  0.00    -0.376 C  
HETATM    2  C   UNL     1      -9.892  19.660  68.842  1.00  0.00    -0.498 C  
HETATM    3  C   UNL     1     -10.780  20.261  67.770  1.00  0.00     0.033 C  
HETATM    4  O   UNL     1     -10.002  20.421  66.584  1.00  0.00    -0.444 OA 
HETATM    5  C   UNL     1      -8.811  19.661  66.730  1.00  0.00    -0.343 C  
HETATM    6  O   UNL     1      -8.991  18.313  66.298  1.00  0.00    -0.405 OA 
HETATM    7  C   UNL     1      -8.163  17.486  67.122  1.00  0.00    -0.212 C  
HETATM    8  C   UNL     1      -7.751  18.288  68.356  1.00  0.00    -0.299 C  
ENDROOT
BRANCH   8   9
HETATM    9  O   UNL     1      -8.146  17.559  69.530  1.00  0.00     0.237 OA 
BRANCH   9  10
HETATM   10  C   UNL     1      -8.260  16.215  69.392  1.00  0.00    -0.091 C  
HETATM   11  O   UNL     1      -7.337  15.455  69.152  1.00  0.00    -0.144 OA 
HETATM   12  N   UNL     1      -9.581  15.883  69.475  1.00  0.00    -0.262 N  
HETATM   13  H   UNL     1     -10.240  16.598  69.781  1.00  0.00     0.000 HD 
BRANCH  12  14
HETATM   14  C   UNL     1     -10.103  14.547  69.148  1.00  0.00    -0.137 C  
BRANCH  14  15
HETATM   15  C   UNL     1     -10.561  13.778  70.429  1.00  0.00     1.421 C  
BRANCH  15  16
HETATM   16  C   UNL     1     -11.636  14.448  71.270  1.00  0.00    -0.061 A  
HETATM   17  C   UNL     1     -12.936  13.927  71.311  1.00  0.00    -0.414 A  
HETATM   18  C   UNL     1     -11.363  15.621  71.992  1.00  0.00    -0.404 A  
HETATM   19  C   UNL     1     -13.937  14.565  72.049  1.00  0.00    -0.587 A  
HETATM   20  C   UNL     1     -13.649  15.724  72.767  1.00  0.00    -0.662 A  
HETATM   21  C   UNL     1     -12.359  16.249  72.745  1.00  0.00    -0.543 A  
ENDBRANCH  15  16
ENDBRANCH  14  15
BRANCH  14  22
HETATM   22  C   UNL     1     -11.246  14.560  68.088  1.00  0.00    -0.284 C  
HETATM   23  O   UNL     1     -12.013  15.769  68.180  1.00  0.00    -0.357 OA 
HETATM   24  H   UNL     1     -12.709  15.777  67.534  1.00  0.00     0.000 HD 
BRANCH  22  25
HETATM   25  C   UNL     1     -12.169  13.327  68.006  1.00  0.00    -0.077 C  
BRANCH  25  26
HETATM   26  N   UNL     1     -11.820  12.188  67.052  1.00  0.00    -0.291 N  
BRANCH  26  27
HETATM   27  C   UNL     1     -10.969  12.690  65.886  1.00  0.00    -0.278 C  
HETATM   28  C   UNL     1     -11.670  13.230  64.621  1.00  0.00    -0.403 C  
HETATM   29  C   UNL     1     -12.528  14.469  64.863  1.00  0.00    -0.321 C  
HETATM   30  C   UNL     1     -10.602  13.603  63.574  1.00  0.00     1.391 C  
ENDBRANCH  26  27
BRANCH  26  31
HETATM   31  S   UNL     1     -11.016  10.905  67.955  1.00  0.00    -0.293 S  
HETATM   32  O   UNL     1     -11.290  11.081  69.359  1.00  0.00    -0.235 OA 
HETATM   33  O   UNL     1     -11.333   9.665  67.269  1.00  0.00     0.095 OA 
BRANCH  31  34
HETATM   34  C   UNL     1      -9.267  11.214  67.715  1.00  0.00    -0.153 A  
HETATM   35  C   UNL     1      -6.981  10.427  67.699  1.00  0.00    -0.083 A  
HETATM   36  C   UNL     1      -8.355  10.164  67.819  1.00  0.00    -0.114 A  
HETATM   37  C   UNL     1      -6.505  11.732  67.521  1.00  0.00    -0.095 A  
HETATM   38  N   UNL     1      -5.148  11.968  67.299  1.00  0.00    -0.100 NA 
HETATM   39  C   UNL     1      -7.437  12.756  67.335  1.00  0.00    -0.145 A  
HETATM   40  H1  UNL     1      -4.802  12.918  67.169  1.00  0.00     0.000 HD 
HETATM   41  C   UNL     1      -8.813  12.509  67.444  1.00  0.00    -0.187 A  
HETATM   42  H2  UNL     1      -4.854  11.409  66.498  1.00  0.00     0.000 HD 
ENDBRANCH  31  34
ENDBRANCH  26  31
ENDBRANCH  25  26
ENDBRANCH  22  25
ENDBRANCH  14  22
ENDBRANCH  12  14
ENDBRANCH   9  10
ENDBRANCH   8   9
TORSDOF 11
ENDMDL
MODEL      366
REMARK 921   NORMALIZED FREE ENERGY PREDICTED BY IDOCK:   -1.72 KCAL/MOL
REMARK 922        TOTAL FREE ENERGY PREDICTED BY IDOCK:   -5.45 KCAL/MOL
REMARK 923 INTER-LIGAND FREE ENERGY PREDICTED BY IDOCK:   -5.12 KCAL/MOL
REMARK 924 INTRA-LIGAND FREE ENERGY PREDICTED BY IDOCK:   -0.33 KCAL/MOL
REMARK 927      BINDING AFFINITY PREDICTED BY RF-SCORE:    0.00 PKD
ROOT
HETATM    1  C   UNL     1      -5.545  16.363  69.139  1.00  0.00    -0.124 C  
HETATM    2  C   UNL     1      -6.512  17.286  69.859  1.00  0.00     0.049 C  
HETATM    3  C   UNL     1      -6.424  18.599  69.105  1.00  0.00    -0.269 C  
HETATM    4  O   UNL     1      -5.563  18.413  67.983  1.00  0.00    -0.163 OA 
HETATM    5  C   UNL     1      -5.384  17.017  67.789  1.00  0.00    -0.119 C  
HETATM    6  O   UNL     1      -6.405  16.466  66.958  1.00  0.00    -0.173 OA 
HETATM    7  C   UNL     1      -6.647  15.129  67.408  1.00  0.00    -0.056 C  
HETATM    8  C   UNL     1      -6.041  14.969  68.803  1.00  0.00    -0.083 C  
ENDROOT
BRANCH   8   9
HETATM    9  O   UNL     1      -7.071  14.529  69.703  1.00  0.00    -0.145 OA 
BRANCH   9  10
HETATM   10  C   UNL     1      -8.325  14.455  69.191  1.00  0.00     0.056 C  
HETATM   11  O   UNL     1      -9.223  15.247  69.419  1.00  0.00    -0.246 OA 
HETATM   12  N   UNL     1      -8.426  13.304  68.463  1.00  0.00    -0.312 N  
HETATM   13  H   UNL     1      -7.572  12.781  68.265  1.00  0.00     0.000 HD 
BRANCH  12  14
HETATM   14  C   UNL     1      -9.700  12.780  67.948  1.00  0.00    -0.217 C  
BRANCH  14  15
HETATM   15  C   UNL     1      -9.810  12.953  66.399  1.00  0.00    -0.268 C  
BRANCH  15  16
HETATM   16  C   UNL     1     -10.313  14.300  65.904  1.00  0.00    -0.325 A  
HETATM   17  C   UNL     1     -11.681  14.514  65.692  1.00  0.00    -0.335 A  
HETATM   18  C   UNL     1      -9.420  15.343  65.614  1.00  0.00    -0.255 A  
HETATM   19  C   UNL     1     -12.143  15.737  65.197  1.00  0.00     0.612 A  
HETATM   20  C   UNL     1     -11.244  16.766  64.919  1.00  0.00     0.019 A  
HETATM   21  C   UNL     1      -9.883  16.571  65.135  1.00  0.00     0.576 A  
ENDBRANCH  15  16
ENDBRANCH  14  15
BRANCH  14  22
HETATM   22  C   UNL     1      -9.979  11.299  68.347  1.00  0.00    -0.197 C  
HETATM   23  O   UNL     1     -10.476  11.218  69.691  1.00  0.00    -0.445 OA 
HETATM   24  H   UNL     1     -10.647  10.316  69.934  1.00  0.00     0.000 HD 
BRANCH  22  25
HETATM   25  C   UNL     1      -8.862  10.263  68.110  1.00  0.00    -0.123 C  
BRANCH  25  26
HETATM   26  N   UNL     1      -9.140   8.785  68.362  1.00  0.00    -0.141 N  
BRANCH  26  27
HETATM   27  C   UNL     1     -10.331   8.603  69.303  1.00  0.00    -0.221 C  
HETATM   28  C   UNL     1     -10.203   7.638  70.501  1.00  0.00    -0.201 C  
HETATM   29  C   UNL     1      -9.135   8.042  71.515  1.00  0.00    -0.182 C  
HETATM   30  C   UNL     1     -11.550   7.579  71.246  1.00  0.00    -0.305 C  
ENDBRANCH  26  27
BRANCH  26  31
HETATM   31  S   UNL     1      -9.386   7.971  66.817  1.00  0.00    -0.194 S  
HETATM   32  O   UNL     1      -8.807   6.653  66.888  1.00  0.00    -0.113 OA 
HETATM   33  O   UNL     1     -10.783   8.169  66.472  1.00  0.00    -0.081 OA 
BRANCH  31  34
HETATM   34  C   UNL     1      -8.409   8.915  65.650  1.00  0.00    -0.139 A  
HETATM   35  C   UNL     1      -8.272  10.396  63.743  1.00  0.00    -0.122 A  
HETATM   36  C   UNL     1      -9.043   9.715  64.698  1.00  0.00    -0.286 A  
HETATM   37  C   UNL     1      -6.881  10.254  63.699  1.00  0.00    -0.075 A  
HETATM   38  N   UNL     1      -6.117  11.015  62.814  1.00  0.00    -0.357 NA 
HETATM   39  C   UNL     1      -6.259   9.518  64.710  1.00  0.00    -0.081 A  
HETATM   40  H1  UNL     1      -5.103  10.912  62.781  1.00  0.00     0.000 HD 
HETATM   41  C   UNL     1      -7.013   8.836  65.676  1.00  0.00    -0.079 A  
HETATM   42  H2  UNL     1      -6.332  12.000  62.972  1.00  0.00     0.000 HD 
ENDBRANCH  31  34
ENDBRANCH  26  31
ENDBRANCH  25  26
ENDBRANCH  22  25
ENDBRANCH  14  22
ENDBRANCH  12  14
ENDBRANCH   9  10
ENDBRANCH   8   9
TORSDOF 11
ENDMDL
MODEL      367
REMARK 921   NORMALIZED FREE ENERGY PREDICTED BY IDOCK:   -1.42 KCAL/MOL
REMARK 922        TOTAL FREE ENERGY PREDICTED BY IDOCK:   -4.95 KCAL/MOL
REMARK 923 INTER-LIGAND FREE ENERGY PREDICTED BY IDOCK:   -6.83 KCAL/MOL
REMARK 924 INTRA-LIGAND FREE ENERGY PREDICTED BY IDOCK:    1.88 KCAL/MOL
REMARK 927      BINDING AFFINITY PREDICTED BY RF-SCORE:    0.00 PKD
ROOT
HETATM    1  C   UNL     1      -7.697   8.892  72.169  1.00  0.00     0.118 C  
HETATM    2  C   UNL     1      -6.183   8.796  72.125  1.00  0.00    -0.069 C  
HETATM    3  C   UNL     1      -5.854   7.537  72.905  1.00  0.00    -0.044 C  
HETATM    4  O   UNL     1      -7.080   6.906  73.271  1.00  0.00    -0.075 OA 
HETATM    5  C   UNL     1      -8.124   7.483  72.499  1.00  0.00    -0.104 C  
HETATM    6  O   UNL     1      -8.282   6.814  71.248  1.00  0.00    -0.117 OA 
HETATM    7  C   UNL     1      -8.694   7.794  70.289  1.00  0.00    -0.143 C  
HETATM    8  C   UNL     1      -8.410   9.183  70.861  1.00  0.00    -0.185 C  
ENDROOT
BRANCH   8   9
HETATM    9  O   UNL     1      -7.574   9.899  69.937  1.00  0.00    -0.127 OA 
BRANCH   9  10
HETATM   10  C   UNL     1      -8.153  10.936  69.283  1.00  0.00    -0.055 C  
HETATM   11  O   UNL     1      -9.309  11.296  69.426  1.00  0.00     0.122 OA 
HETATM   12  N   UNL     1      -7.255  11.434  68.385  1.00  0.00    -0.081 N  
HETATM   13  H   UNL     1      -6.289  11.111  68.436  1.00  0.00     0.000 HD 
BRANCH  12  14
HETATM   14  C   UNL     1      -7.607  12.415  67.346  1.00  0.00    -0.160 C  
BRANCH  14  15
HETATM   15  C   UNL     1      -8.873  11.973  66.542  1.00  0.00    -0.172 C  
BRANCH  15  16
HETATM   16  C   UNL     1      -9.022  10.482  66.284  1.00  0.00    -0.174 A  
HETATM   17  C   UNL     1      -8.164   9.825  65.393  1.00  0.00    -0.131 A  
HETATM   18  C   UNL     1     -10.042   9.741  66.900  1.00  0.00    -0.287 A  
HETATM   19  C   UNL     1      -8.326   8.463  65.121  1.00  0.00    -0.177 A  
HETATM   20  C   UNL     1      -9.339   7.739  65.746  1.00  0.00     0.068 A  
HETATM   21  C   UNL     1     -10.193   8.376  66.642  1.00  0.00    -0.335 A  
ENDBRANCH  15  16
ENDBRANCH  14  15
BRANCH  14  22
HETATM   22  C   UNL     1      -7.788  13.867  67.884  1.00  0.00    -0.161 C  
HETATM   23  O   UNL     1      -6.796  14.171  68.874  1.00  0.00    -0.095 OA 
HETATM   24  H   UNL     1      -6.906  15.055  69.202  1.00  0.00     0.000 HD 
BRANCH  22  25
HETATM   25  C   UNL     1      -9.192  14.289  68.363  1.00  0.00    -0.196 C  
BRANCH  25  26
HETATM   26  N   UNL     1     -10.425  13.760  67.638  1.00  0.00    -0.240 N  
BRANCH  26  27
HETATM   27  C   UNL     1     -11.653  13.793  68.548  1.00  0.00    -0.338 C  
HETATM   28  C   UNL     1     -11.469  14.105  70.049  1.00  0.00    -0.258 C  
HETATM   29  C   UNL     1     -10.902  15.493  70.333  1.00  0.00    -0.356 C  
HETATM   30  C   UNL     1     -12.835  14.009  70.755  1.00  0.00    -0.355 C  
ENDBRANCH  26  27
BRANCH  26  31
HETATM   31  S   UNL     1     -10.672  14.689  66.160  1.00  0.00    -0.324 S  
HETATM   32  O   UNL     1      -9.760  14.209  65.152  1.00  0.00    -0.182 OA 
HETATM   33  O   UNL     1     -12.105  14.721  65.935  1.00  0.00    -0.246 OA 
BRANCH  31  34
HETATM   34  C   UNL     1     -10.162  16.353  66.585  1.00  0.00    -0.294 A  
HETATM   35  C   UNL     1     -10.633  18.498  67.596  1.00  0.00    -0.450 A  
HETATM   36  C   UNL     1     -11.011  17.173  67.328  1.00  0.00    -0.006 A  
HETATM   37  C   UNL     1      -9.440  19.028  67.093  1.00  0.00    -0.307 A  
HETATM   38  N   UNL     1      -9.026  20.311  67.453  1.00  0.00    -0.348 NA 
HETATM   39  C   UNL     1      -8.565  18.168  66.424  1.00  0.00    -0.251 A  
HETATM   40  H1  UNL     1      -8.156  20.697  67.086  1.00  0.00     0.000 HD 
HETATM   41  C   UNL     1      -8.923  16.840  66.154  1.00  0.00    -0.295 A  
HETATM   42  H2  UNL     1      -8.994  20.363  68.471  1.00  0.00     0.000 HD 
ENDBRANCH  31  34
ENDBRANCH  26  31
ENDBRANCH  25  26
ENDBRANCH  22  25
ENDBRANCH  14  22
ENDBRANCH  12  14
ENDBRANCH   9  10
ENDBRANCH   8   9
TORSDOF 11
ENDMDL
MODEL      368
REMARK 921   NORMALIZED FREE ENERGY PREDICTED BY IDOCK:   -1.19 KCAL/MOL
REMARK 922        TOTAL FREE ENERGY PREDICTED BY IDOCK:   -4.58 KCAL/MOL
REMARK 923 INTER-LIGAND FREE ENERGY PREDICTED BY IDOCK:   -5.23 KCAL/MOL
REMARK 924 INTRA-LIGAND FREE ENERGY PREDICTED BY IDOCK:    0.65 KCAL/MOL
REMARK 927      BINDING AFFINITY PREDICTED BY RF-SCORE:    0.00 PKD
ROOT
HETATM    1  C   UNL     1     -11.282  13.392  65.861  1.00  0.00    -0.314 C  
HETATM    2  C   UNL     1     -12.441  12.419  65.748  1.00  0.00     0.114 C  
HETATM    3  C   UNL     1     -13.255  12.924  64.572  1.00  0.00     0.329 C  
HETATM    4  O   UNL     1     -12.562  14.028  63.992  1.00  0.00    -0.689 OA 
HETATM    5  C   UNL     1     -11.234  14.032  64.496  1.00  0.00    -0.350 C  
HETATM    6  O   UNL     1     -10.370  13.217  63.706  1.00  0.00    -0.311 OA 
HETATM    7  C   UNL     1      -9.396  12.648  64.587  1.00  0.00     0.597 C  
HETATM    8  C   UNL     1      -9.895  12.797  66.024  1.00  0.00    -0.255 C  
ENDROOT
BRANCH   8   9
HETATM    9  O   UNL     1      -9.931  11.497  66.635  1.00  0.00    -0.201 OA 
BRANCH   9  10
HETATM   10  C   UNL     1     -10.138  11.470  67.975  1.00  0.00    -0.186 C  
HETATM   11  O   UNL     1     -10.886  12.216  68.584  1.00  0.00    -0.219 OA 
HETATM   12  N   UNL     1      -9.305  10.537  68.521  1.00  0.00    -0.160 N  
HETATM   13  H   UNL     1      -8.804   9.909  67.892  1.00  0.00     0.000 HD 
BRANCH  12  14
HETATM   14  C   UNL     1      -9.091  10.390  69.969  1.00  0.00     0.301 C  
BRANCH  14  15
HETATM   15  C   UNL     1     -10.399   9.945  70.702  1.00  0.00    -0.258 C  
BRANCH  15  16
HETATM   16  C   UNL     1     -10.303   8.686  71.548  1.00  0.00    -0.341 A  
HETATM   17  C   UNL     1     -11.368   7.776  71.593  1.00  0.00    -0.291 A  
HETATM   18  C   UNL     1      -9.167   8.425  72.330  1.00  0.00    -0.345 A  
HETATM   19  C   UNL     1     -11.300   6.639  72.403  1.00  0.00    -0.309 A  
HETATM   20  C   UNL     1     -10.163   6.390  73.169  1.00  0.00    -0.222 A  
HETATM   21  C   UNL     1      -9.092   7.279  73.127  1.00  0.00    -0.193 A  
ENDBRANCH  15  16
ENDBRANCH  14  15
BRANCH  14  22
HETATM   22  C   UNL     1      -7.914   9.437  70.339  1.00  0.00    -0.172 C  
HETATM   23  O   UNL     1      -6.953  10.110  71.164  1.00  0.00    -0.289 OA 
HETATM   24  H   UNL     1      -6.236   9.530  71.390  1.00  0.00     0.000 HD 
BRANCH  22  25
HETATM   25  C   UNL     1      -7.218   8.670  69.196  1.00  0.00    -0.064 C  
BRANCH  25  26
HETATM   26  N   UNL     1      -7.559   7.203  68.957  1.00  0.00    -0.098 N  
BRANCH  26  27
HETATM   27  C   UNL     1      -9.070   7.003  68.834  1.00  0.00    -0.134 C  
HETATM   28  C   UNL     1      -9.627   5.577  68.640  1.00  0.00    -0.172 C  
HETATM   29  C   UNL     1      -9.338   4.631  69.804  1.00  0.00    -0.215 C  
HETATM   30  C   UNL     1     -11.157   5.652  68.473  1.00  0.00     0.122 C  
ENDBRANCH  26  27
BRANCH  26  31
HETATM   31  S   UNL     1      -6.698   6.634  67.528  1.00  0.00    -0.069 S  
HETATM   32  O   UNL     1      -5.284   6.843  67.723  1.00  0.00    -0.010 OA 
HETATM   33  O   UNL     1      -7.236   5.320  67.225  1.00  0.00    -0.072 OA 
BRANCH  31  34
HETATM   34  C   UNL     1      -7.220   7.739  66.218  1.00  0.00    -0.074 A  
HETATM   35  C   UNL     1      -8.978   8.729  64.885  1.00  0.00    -0.065 A  
HETATM   36  C   UNL     1      -8.579   7.917  65.958  1.00  0.00    -0.166 A  
HETATM   37  C   UNL     1      -8.036   9.330  64.042  1.00  0.00    -0.150 A  
HETATM   38  N   UNL     1      -8.442  10.218  63.045  1.00  0.00    -0.167 NA 
HETATM   39  C   UNL     1      -6.684   9.210  64.369  1.00  0.00    -0.083 A  
HETATM   40  H1  UNL     1      -7.756  10.656  62.430  1.00  0.00     0.000 HD 
HETATM   41  C   UNL     1      -6.268   8.407  65.440  1.00  0.00    -0.045 A  
HETATM   42  H2  UNL     1      -8.997  10.955  63.480  1.00  0.00     0.000 HD 
ENDBRANCH  31  34
ENDBRANCH  26  31
ENDBRANCH  25  26
ENDBRANCH  22  25
ENDBRANCH  14  22
ENDBRANCH  12  14
ENDBRANCH   9  10
ENDBRANCH   8   9
TORSDOF 11
ENDMDL
MODEL      369
REMARK 921   NORMALIZED FREE ENERGY PREDICTED BY IDOCK:   -1.14 KCAL/MOL
REMARK 922        TOTAL FREE ENERGY PREDICTED BY IDOCK:   -4.50 KCAL/MOL
REMARK 923 INTER-LIGAND FREE ENERGY PREDICTED BY IDOCK:   -8.69 KCAL/MOL
REMARK 924 INTRA-LIGAND FREE ENERGY PREDICTED BY IDOCK:    4.19 KCAL/MOL
REMARK 927      BINDING AFFINITY PREDICTED BY RF-SCORE:    0.00 PKD
ROOT
HETATM    1  C   UNL     1     -11.045   6.053  70.169  1.00  0.00    -0.432 C  
HETATM    2  C   UNL     1     -12.139   7.089  70.351  1.00  0.00    -0.204 C  
HETATM    3  C   UNL     1     -12.518   6.996  71.816  1.00  0.00    -0.356 C  
HETATM    4  O   UNL     1     -11.641   6.063  72.445  1.00  0.00    -0.301 OA 
HETATM    5  C   UNL     1     -10.544   5.829  71.574  1.00  0.00    -0.246 C  
HETATM    6  O   UNL     1      -9.500   6.780  71.778  1.00  0.00    -0.152 OA 
HETATM    7  C   UNL     1      -8.876   7.008  70.510  1.00  0.00    -0.154 C  
HETATM    8  C   UNL     1      -9.802   6.485  69.412  1.00  0.00    -0.146 C  
ENDROOT
BRANCH   8   9
HETATM    9  O   UNL     1     -10.074   7.554  68.491  1.00  0.00    -0.173 OA 
BRANCH   9  10
HETATM   10  C   UNL     1      -9.947   8.813  68.978  1.00  0.00    -0.191 C  
HETATM   11  O   UNL     1      -9.060   9.188  69.726  1.00  0.00    -0.148 OA 
HETATM   12  N   UNL     1     -11.021   9.546  68.565  1.00  0.00    -0.441 N  
HETATM   13  H   UNL     1     -11.638   9.144  67.859  1.00  0.00     0.000 HD 
BRANCH  12  14
HETATM   14  C   UNL     1     -11.336  10.886  69.084  1.00  0.00    -0.283 C  
BRANCH  14  15
HETATM   15  C   UNL     1     -11.633  10.854  70.619  1.00  0.00    -0.341 C  
BRANCH  15  16
HETATM   16  C   UNL     1     -12.505  11.975  71.161  1.00  0.00    -0.353 A  
HETATM   17  C   UNL     1     -12.323  13.293  70.723  1.00  0.00    -0.425 A  
HETATM   18  C   UNL     1     -13.482  11.723  72.137  1.00  0.00    -0.273 A  
HETATM   19  C   UNL     1     -13.094  14.332  71.251  1.00  0.00    -0.425 A  
HETATM   20  C   UNL     1     -14.066  14.066  72.214  1.00  0.00    -0.633 A  
HETATM   21  C   UNL     1     -14.265  12.760  72.652  1.00  0.00     0.369 A  
ENDBRANCH  15  16
ENDBRANCH  14  15
BRANCH  14  22
HETATM   22  C   UNL     1     -10.247  11.957  68.767  1.00  0.00    -0.143 C  
HETATM   23  O   UNL     1      -9.049  11.700  69.512  1.00  0.00    -0.000 OA 
HETATM   24  H   UNL     1      -8.385  12.352  69.319  1.00  0.00     0.000 HD 
BRANCH  22  25
HETATM   25  C   UNL     1     -10.647  13.443  68.861  1.00  0.00    -0.155 C  
BRANCH  25  26
HETATM   26  N   UNL     1     -10.375  14.371  67.681  1.00  0.00    -0.237 N  
BRANCH  26  27
HETATM   27  C   UNL     1     -10.603  15.832  68.068  1.00  0.00    -0.279 C  
HETATM   28  C   UNL     1     -10.050  16.948  67.156  1.00  0.00    -0.287 C  
HETATM   29  C   UNL     1     -10.648  16.958  65.751  1.00  0.00    -0.238 C  
HETATM   30  C   UNL     1     -10.347  18.317  67.796  1.00  0.00    -0.419 C  
ENDBRANCH  26  27
BRANCH  26  31
HETATM   31  S   UNL     1      -8.736  14.091  67.092  1.00  0.00    -0.204 S  
HETATM   32  O   UNL     1      -8.415  15.100  66.113  1.00  0.00    -0.023 OA 
HETATM   33  O   UNL     1      -7.911  13.885  68.268  1.00  0.00    -0.131 OA 
BRANCH  31  34
HETATM   34  C   UNL     1      -8.831  12.526  66.225  1.00  0.00     0.067 A  
HETATM   35  C   UNL     1     -10.014  11.005  64.765  1.00  0.00    -0.350 A  
HETATM   36  C   UNL     1      -9.912  12.260  65.385  1.00  0.00    -0.264 A  
HETATM   37  C   UNL     1      -9.074   9.997  65.009  1.00  0.00    -0.211 A  
HETATM   38  N   UNL     1      -9.128   8.792  64.308  1.00  0.00    -0.346 NA 
HETATM   39  C   UNL     1      -7.956  10.310  65.786  1.00  0.00    -0.144 A  
HETATM   40  H1  UNL     1      -8.443   8.057  64.486  1.00  0.00     0.000 HD 
HETATM   41  C   UNL     1      -7.835  11.560  66.407  1.00  0.00    -0.020 A  
HETATM   42  H2  UNL     1      -9.118   9.002  63.310  1.00  0.00     0.000 HD 
ENDBRANCH  31  34
ENDBRANCH  26  31
ENDBRANCH  25  26
ENDBRANCH  22  25
ENDBRANCH  14  22
ENDBRANCH  12  14
ENDBRANCH   9  10
ENDBRANCH   8   9
TORSDOF 11
ENDMDL
MODEL      370
REMARK 921   NORMALIZED FREE ENERGY PREDICTED BY IDOCK:   -1.09 KCAL/MOL
REMARK 922        TOTAL FREE ENERGY PREDICTED BY IDOCK:   -4.41 KCAL/MOL
REMARK 923 INTER-LIGAND FREE ENERGY PREDICTED BY IDOCK:   -5.43 KCAL/MOL
REMARK 924 INTRA-LIGAND FREE ENERGY PREDICTED BY IDOCK:    1.02 KCAL/MOL
REMARK 927      BINDING AFFINITY PREDICTED BY RF-SCORE:    0.00 PKD
ROOT
HETATM    1  C   UNL     1     -13.072  13.742  72.719  1.00  0.00    -0.432 C  
HETATM    2  C   UNL     1     -11.782  13.304  72.050  1.00  0.00     2.187 C  
HETATM    3  C   UNL     1     -12.183  12.138  71.167  1.00  0.00    -0.014 C  
HETATM    4  O   UNL     1     -13.600  11.991  71.239  1.00  0.00     0.241 OA 
HETATM    5  C   UNL     1     -14.139  13.169  71.820  1.00  0.00     0.298 C  
HETATM    6  O   UNL     1     -14.404  14.167  70.835  1.00  0.00     0.180 OA 
HETATM    7  C   UNL     1     -14.178  15.442  71.446  1.00  0.00    -0.410 C  
HETATM    8  C   UNL     1     -13.374  15.229  72.729  1.00  0.00    -0.502 C  
ENDROOT
BRANCH   8   9
HETATM    9  O   UNL     1     -12.180  16.025  72.660  1.00  0.00    -0.438 OA 
BRANCH   9  10
HETATM   10  C   UNL     1     -11.390  15.830  71.576  1.00  0.00    -0.348 C  
HETATM   11  O   UNL     1     -10.219  15.495  71.614  1.00  0.00     0.819 OA 
HETATM   12  N   UNL     1     -12.101  16.161  70.459  1.00  0.00    -0.433 N  
HETATM   13  H   UNL     1     -13.103  16.328  70.556  1.00  0.00     0.000 HD 
BRANCH  12  14
HETATM   14  C   UNL     1     -11.499  16.289  69.123  1.00  0.00    -0.257 C  
BRANCH  14  15
HETATM   15  C   UNL     1     -10.131  17.043  69.178  1.00  0.00    -0.259 C  
BRANCH  15  16
HETATM   16  C   UNL     1      -9.943  18.175  68.180  1.00  0.00    -0.368 A  
HETATM   17  C   UNL     1      -9.006  19.188  68.421  1.00  0.00    -0.392 A  
HETATM   18  C   UNL     1     -10.727  18.251  67.018  1.00  0.00    -0.305 A  
HETATM   19  C   UNL     1      -8.861  20.252  67.527  1.00  0.00    -0.415 A  
HETATM   20  C   UNL     1      -9.642  20.311  66.374  1.00  0.00    -0.461 A  
HETATM   21  C   UNL     1     -10.570  19.306  66.115  1.00  0.00    -0.549 A  
ENDBRANCH  15  16
ENDBRANCH  14  15
BRANCH  14  22
HETATM   22  C   UNL     1     -11.338  14.933  68.371  1.00  0.00    -0.303 C  
HETATM   23  O   UNL     1     -12.533  14.146  68.480  1.00  0.00    -0.533 OA 
HETATM   24  H   UNL     1     -12.435  13.319  68.021  1.00  0.00     0.000 HD 
BRANCH  22  25
HETATM   25  C   UNL     1     -10.088  14.082  68.674  1.00  0.00    -0.217 C  
BRANCH  25  26
HETATM   26  N   UNL     1      -9.661  12.996  67.692  1.00  0.00    -0.200 N  
BRANCH  26  27
HETATM   27  C   UNL     1      -9.819  13.469  66.247  1.00  0.00    -0.299 C  
HETATM   28  C   UNL     1     -10.666  12.628  65.269  1.00  0.00    -0.318 C  
HETATM   29  C   UNL     1     -12.137  12.508  65.661  1.00  0.00    -0.464 C  
HETATM   30  C   UNL     1     -10.611  13.275  63.871  1.00  0.00    -0.075 C  
ENDBRANCH  26  27
BRANCH  26  31
HETATM   31  S   UNL     1      -8.004  12.510  68.052  1.00  0.00    -0.165 S  
HETATM   32  O   UNL     1      -7.995  11.769  69.288  1.00  0.00     0.123 OA 
HETATM   33  O   UNL     1      -7.471  11.946  66.825  1.00  0.00    -0.113 OA 
BRANCH  31  34
HETATM   34  C   UNL     1      -7.138  14.050  68.352  1.00  0.00    -0.102 A  
HETATM   35  C   UNL     1      -5.593  15.366  69.665  1.00  0.00    -0.108 A  
HETATM   36  C   UNL     1      -6.214  14.137  69.393  1.00  0.00    -0.109 A  
HETATM   37  C   UNL     1      -5.916  16.518  68.939  1.00  0.00    -0.143 A  
HETATM   38  N   UNL     1      -5.217  17.707  69.149  1.00  0.00    -0.172 NA 
HETATM   39  C   UNL     1      -6.779  16.392  67.848  1.00  0.00    -0.150 A  
HETATM   40  H1  UNL     1      -5.452  18.547  68.620  1.00  0.00     0.000 HD 
HETATM   41  C   UNL     1      -7.403  15.171  67.558  1.00  0.00    -0.222 A  
HETATM   42  H2  UNL     1      -4.222  17.520  69.023  1.00  0.00     0.000 HD 
ENDBRANCH  31  34
ENDBRANCH  26  31
ENDBRANCH  25  26
ENDBRANCH  22  25
ENDBRANCH  14  22
ENDBRANCH  12  14
ENDBRANCH   9  10
ENDBRANCH   8   9
TORSDOF 11
ENDMDL
MODEL      371
REMARK 921   NORMALIZED FREE ENERGY PREDICTED BY IDOCK:   -1.04 KCAL/MOL
REMARK 922        TOTAL FREE ENERGY PREDICTED BY IDOCK:   -4.33 KCAL/MOL
REMARK 923 INTER-LIGAND FREE ENERGY PREDICTED BY IDOCK:   -5.06 KCAL/MOL
REMARK 924 INTRA-LIGAND FREE ENERGY PREDICTED BY IDOCK:    0.73 KCAL/MOL
REMARK 927      BINDING AFFINITY PREDICTED BY RF-SCORE:    0.00 PKD
ROOT
HETATM    1  C   UNL     1     -11.110  13.454  66.511  1.00  0.00    -0.312 C  
HETATM    2  C   UNL     1     -11.479  13.162  67.954  1.00  0.00    -0.346 C  
HETATM    3  C   UNL     1     -12.176  14.420  68.436  1.00  0.00    -0.143 C  
HETATM    4  O   UNL     1     -12.294  15.315  67.331  1.00  0.00     0.321 OA 
HETATM    5  C   UNL     1     -12.036  14.586  66.140  1.00  0.00    -0.286 C  
HETATM    6  O   UNL     1     -13.221  13.976  65.631  1.00  0.00    -0.634 OA 
HETATM    7  C   UNL     1     -12.836  12.744  65.011  1.00  0.00    -0.233 C  
HETATM    8  C   UNL     1     -11.428  12.382  65.485  1.00  0.00    -0.361 C  
ENDROOT
BRANCH   8   9
HETATM    9  O   UNL     1     -11.464  11.069  66.068  1.00  0.00    -0.027 OA 
BRANCH   9  10
HETATM   10  C   UNL     1     -10.387  10.279  65.834  1.00  0.00    -0.171 C  
HETATM   11  O   UNL     1      -9.479  10.543  65.064  1.00  0.00    -0.203 OA 
HETATM   12  N   UNL     1     -10.546   9.116  66.529  1.00  0.00    -0.114 N  
HETATM   13  H   UNL     1     -11.298   9.062  67.216  1.00  0.00     0.000 HD 
BRANCH  12  14
HETATM   14  C   UNL     1      -9.688   7.935  66.341  1.00  0.00    -0.165 C  
BRANCH  14  15
HETATM   15  C   UNL     1      -8.232   8.194  66.849  1.00  0.00    -0.111 C  
BRANCH  15  16
HETATM   16  C   UNL     1      -7.127   8.091  65.810  1.00  0.00    -0.063 A  
HETATM   17  C   UNL     1      -6.422   9.232  65.407  1.00  0.00    -0.069 A  
HETATM   18  C   UNL     1      -6.815   6.863  65.206  1.00  0.00    -0.051 A  
HETATM   19  C   UNL     1      -5.434   9.149  64.422  1.00  0.00    -0.055 A  
HETATM   20  C   UNL     1      -5.130   7.921  63.836  1.00  0.00    -0.040 A  
HETATM   21  C   UNL     1      -5.815   6.776  64.233  1.00  0.00    -0.032 A  
ENDBRANCH  15  16
ENDBRANCH  14  15
BRANCH  14  22
HETATM   22  C   UNL     1     -10.259   6.632  66.980  1.00  0.00    -0.223 C  
HETATM   23  O   UNL     1     -11.690   6.601  66.880  1.00  0.00    -0.580 OA 
HETATM   24  H   UNL     1     -12.038   5.807  67.269  1.00  0.00     0.000 HD 
BRANCH  22  25
HETATM   25  C   UNL     1      -9.798   6.264  68.405  1.00  0.00    -0.130 C  
BRANCH  25  26
HETATM   26  N   UNL     1      -8.347   6.501  68.811  1.00  0.00    -0.121 N  
BRANCH  26  27
HETATM   27  C   UNL     1      -8.253   7.531  69.936  1.00  0.00    -0.131 C  
HETATM   28  C   UNL     1      -6.896   8.210  70.223  1.00  0.00    -0.037 C  
HETATM   29  C   UNL     1      -6.360   9.047  69.064  1.00  0.00    -0.043 C  
HETATM   30  C   UNL     1      -7.048   9.145  71.438  1.00  0.00    -0.025 C  
ENDBRANCH  26  27
BRANCH  26  31
HETATM   31  S   UNL     1      -7.614   4.961  69.260  1.00  0.00    -0.060 S  
HETATM   32  O   UNL     1      -6.206   5.166  69.490  1.00  0.00    -0.024 OA 
HETATM   33  O   UNL     1      -8.473   4.384  70.278  1.00  0.00    -0.072 OA 
BRANCH  31  34
HETATM   34  C   UNL     1      -7.767   3.944  67.793  1.00  0.00    -0.071 A  
HETATM   35  C   UNL     1      -8.169   1.793  66.765  1.00  0.00    -0.079 A  
HETATM   36  C   UNL     1      -8.120   2.600  67.912  1.00  0.00    -0.069 A  
HETATM   37  C   UNL     1      -7.828   2.301  65.506  1.00  0.00    -0.077 A  
HETATM   38  N   UNL     1      -7.981   1.520  64.360  1.00  0.00    -0.064 NA 
HETATM   39  C   UNL     1      -7.560   3.668  65.395  1.00  0.00    -0.078 A  
HETATM   40  H1  UNL     1      -7.733   1.891  63.443  1.00  0.00     0.000 HD 
HETATM   41  C   UNL     1      -7.513   4.489  66.530  1.00  0.00    -0.082 A  
HETATM   42  H2  UNL     1      -8.948   1.196  64.322  1.00  0.00     0.000 HD 
ENDBRANCH  31  34
ENDBRANCH  26  31
ENDBRANCH  25  26
ENDBRANCH  22  25
ENDBRANCH  14  22
ENDBRANCH  12  14
ENDBRANCH   9  10
ENDBRANCH   8   9
TORSDOF 11
ENDMDL
MODEL      372
REMARK 921   NORMALIZED FREE ENERGY PREDICTED BY IDOCK:   -0.95 KCAL/MOL
REMARK 922        TOTAL FREE ENERGY PREDICTED BY IDOCK:   -4.18 KCAL/MOL
REMARK 923 INTER-LIGAND FREE ENERGY PREDICTED BY IDOCK:   -4.52 KCAL/MOL
REMARK 924 INTRA-LIGAND FREE ENERGY PREDICTED BY IDOCK:    0.34 KCAL/MOL
REMARK 927      BINDING AFFINITY PREDICTED BY RF-SCORE:    0.00 PKD
ROOT
HETATM    1  C   UNL     1     -10.922  12.012  64.914  1.00  0.00    -0.356 C  
HETATM    2  C   UNL     1      -9.984  13.063  64.347  1.00  0.00    -0.131 C  
HETATM    3  C   UNL     1      -9.314  12.385  63.167  1.00  0.00     1.227 C  
HETATM    4  O   UNL     1      -9.898  11.094  63.004  1.00  0.00    -0.327 OA 
HETATM    5  C   UNL     1     -11.097  11.050  63.765  1.00  0.00     0.122 C  
HETATM    6  O   UNL     1     -12.212  11.529  63.015  1.00  0.00    -0.184 OA 
HETATM    7  C   UNL     1     -13.100  12.174  63.933  1.00  0.00    -0.068 C  
HETATM    8  C   UNL     1     -12.340  12.451  65.230  1.00  0.00    -0.287 C  
ENDROOT
BRANCH   8   9
HETATM    9  O   UNL     1     -12.420  13.856  65.519  1.00  0.00    -0.452 OA 
BRANCH   9  10
HETATM   10  C   UNL     1     -11.920  14.253  66.715  1.00  0.00    -0.436 C  
HETATM   11  O   UNL     1     -11.956  15.393  67.145  1.00  0.00     0.014 OA 
HETATM   12  N   UNL     1     -11.298  13.188  67.297  1.00  0.00    -0.291 N  
HETATM   13  H   UNL     1     -11.428  12.265  66.882  1.00  0.00     0.000 HD 
BRANCH  12  14
HETATM   14  C   UNL     1     -10.449  13.299  68.494  1.00  0.00    -0.250 C  
BRANCH  14  15
HETATM   15  C   UNL     1     -10.533  12.014  69.381  1.00  0.00     0.203 C  
BRANCH  15  16
HETATM   16  C   UNL     1     -11.693  11.945  70.361  1.00  0.00    -0.213 A  
HETATM   17  C   UNL     1     -12.272  10.714  70.693  1.00  0.00    -0.459 A  
HETATM   18  C   UNL     1     -12.234  13.112  70.924  1.00  0.00    -0.330 A  
HETATM   19  C   UNL     1     -13.365  10.651  71.561  1.00  0.00    -0.359 A  
HETATM   20  C   UNL     1     -13.887  11.817  72.118  1.00  0.00     0.204 A  
HETATM   21  C   UNL     1     -13.316  13.048  71.806  1.00  0.00    -0.468 A  
ENDBRANCH  15  16
ENDBRANCH  14  15
BRANCH  14  22
HETATM   22  C   UNL     1      -8.961  13.644  68.182  1.00  0.00    -0.191 C  
HETATM   23  O   UNL     1      -8.210  12.453  67.906  1.00  0.00    -0.141 OA 
HETATM   24  H   UNL     1      -7.303  12.663  67.715  1.00  0.00     0.000 HD 
BRANCH  22  25
HETATM   25  C   UNL     1      -8.207  14.554  69.172  1.00  0.00    -0.017 C  
BRANCH  25  26
HETATM   26  N   UNL     1      -7.881  15.990  68.774  1.00  0.00    -0.177 N  
BRANCH  26  27
HETATM   27  C   UNL     1      -6.727  16.543  69.611  1.00  0.00    -0.126 C  
HETATM   28  C   UNL     1      -6.386  18.046  69.523  1.00  0.00    -0.215 C  
HETATM   29  C   UNL     1      -7.508  18.969  69.991  1.00  0.00     0.679 C  
HETATM   30  C   UNL     1      -5.152  18.335  70.399  1.00  0.00    -0.240 C  
ENDBRANCH  26  27
BRANCH  26  31
HETATM   31  S   UNL     1      -7.531  16.047  67.047  1.00  0.00    -0.219 S  
HETATM   32  O   UNL     1      -6.116  16.257  66.866  1.00  0.00    -0.313 OA 
HETATM   33  O   UNL     1      -8.211  14.908  66.457  1.00  0.00    -0.051 OA 
BRANCH  31  34
HETATM   34  C   UNL     1      -8.363  17.524  66.467  1.00  0.00    -0.270 A  
HETATM   35  C   UNL     1      -8.301  19.860  65.848  1.00  0.00    -0.208 A  
HETATM   36  C   UNL     1      -7.632  18.688  66.234  1.00  0.00    -0.291 A  
HETATM   37  C   UNL     1      -9.695  19.894  65.734  1.00  0.00    -0.178 A  
HETATM   38  N   UNL     1     -10.340  21.033  65.249  1.00  0.00     0.906 NA 
HETATM   39  C   UNL     1     -10.401  18.699  65.889  1.00  0.00    -0.358 A  
HETATM   40  H1  UNL     1     -11.356  21.058  65.166  1.00  0.00     0.000 HD 
HETATM   41  C   UNL     1      -9.748  17.518  66.268  1.00  0.00    -0.271 A  
HETATM   42  H2  UNL     1      -9.940  21.263  64.339  1.00  0.00     0.000 HD 
ENDBRANCH  31  34
ENDBRANCH  26  31
ENDBRANCH  25  26
ENDBRANCH  22  25
ENDBRANCH  14  22
ENDBRANCH  12  14
ENDBRANCH   9  10
ENDBRANCH   8   9
TORSDOF 11
ENDMDL
MODEL      373
REMARK 921   NORMALIZED FREE ENERGY PREDICTED BY IDOCK:   -0.25 KCAL/MOL
REMARK 922        TOTAL FREE ENERGY PREDICTED BY IDOCK:   -3.03 KCAL/MOL
REMARK 923 INTER-LIGAND FREE ENERGY PREDICTED BY IDOCK:   -3.50 KCAL/MOL
REMARK 924 INTRA-LIGAND FREE ENERGY PREDICTED BY IDOCK:    0.47 KCAL/MOL
REMARK 927      BINDING AFFINITY PREDICTED BY RF-SCORE:    0.00 PKD
ROOT
HETATM    1  C   UNL     1     -10.630   4.056  63.850  1.00  0.00    -0.163 C  
HETATM    2  C   UNL     1     -10.954   2.701  64.451  1.00  0.00     0.769 C  
HETATM    3  C   UNL     1     -10.521   1.699  63.398  1.00  0.00    -0.140 C  
HETATM    4  O   UNL     1      -9.901   2.414  62.331  1.00  0.00    -0.089 OA 
HETATM    5  C   UNL     1      -9.612   3.728  62.786  1.00  0.00    -0.119 C  
HETATM    6  O   UNL     1      -8.337   3.794  63.424  1.00  0.00    -0.088 OA 
HETATM    7  C   UNL     1      -8.429   4.775  64.462  1.00  0.00    -0.140 C  
HETATM    8  C   UNL     1      -9.907   5.052  64.739  1.00  0.00     0.354 C  
ENDROOT
BRANCH   8   9
HETATM    9  O   UNL     1     -10.164   4.818  66.134  1.00  0.00    -0.235 OA 
BRANCH   9  10
HETATM   10  C   UNL     1     -10.153   5.910  66.937  1.00  0.00    -0.188 C  
HETATM   11  O   UNL     1     -11.107   6.641  67.139  1.00  0.00    -0.392 OA 
HETATM   12  N   UNL     1      -8.881   6.095  67.396  1.00  0.00    -0.108 N  
HETATM   13  H   UNL     1      -8.197   5.355  67.236  1.00  0.00     0.000 HD 
BRANCH  12  14
HETATM   14  C   UNL     1      -8.444   7.305  68.109  1.00  0.00    -0.123 C  
BRANCH  14  15
HETATM   15  C   UNL     1      -9.562   8.398  68.128  1.00  0.00    -0.158 C  
BRANCH  15  16
HETATM   16  C   UNL     1      -9.124   9.818  67.810  1.00  0.00    -0.138 A  
HETATM   17  C   UNL     1      -7.827  10.076  67.346  1.00  0.00    -0.099 A  
HETATM   18  C   UNL     1      -9.991  10.904  68.008  1.00  0.00    -0.188 A  
HETATM   19  C   UNL     1      -7.408  11.384  67.092  1.00  0.00    -0.138 A  
HETATM   20  C   UNL     1      -8.282  12.452  67.287  1.00  0.00    -0.184 A  
HETATM   21  C   UNL     1      -9.577  12.211  67.738  1.00  0.00    -0.195 A  
ENDBRANCH  15  16
ENDBRANCH  14  15
BRANCH  14  22
HETATM   22  C   UNL     1      -7.929   7.034  69.556  1.00  0.00    -0.125 C  
HETATM   23  O   UNL     1      -8.366   8.064  70.453  1.00  0.00    -0.116 OA 
HETATM   24  H   UNL     1      -8.053   7.898  71.335  1.00  0.00     0.000 HD 
BRANCH  22  25
HETATM   25  C   UNL     1      -6.428   6.738  69.745  1.00  0.00    -0.044 C  
BRANCH  25  26
HETATM   26  N   UNL     1      -5.930   6.196  71.081  1.00  0.00    -0.030 N  
BRANCH  26  27
HETATM   27  C   UNL     1      -6.495   7.007  72.247  1.00  0.00    -0.052 C  
HETATM   28  C   UNL     1      -5.701   8.222  72.773  1.00  0.00    -0.056 C  
HETATM   29  C   UNL     1      -5.519   9.340  71.748  1.00  0.00    -0.071 C  
HETATM   30  C   UNL     1      -6.440   8.821  73.985  1.00  0.00    -0.060 C  
ENDBRANCH  26  27
BRANCH  26  31
HETATM   31  S   UNL     1      -6.345   4.487  71.202  1.00  0.00    -0.019 S  
HETATM   32  O   UNL     1      -6.469   3.943  69.873  1.00  0.00    -0.031 OA 
HETATM   33  O   UNL     1      -5.431   3.915  72.174  1.00  0.00     0.000 OA 
BRANCH  31  34
HETATM   34  C   UNL     1      -7.980   4.471  71.934  1.00  0.00    -0.098 A  
HETATM   35  C   UNL     1     -10.385   4.562  71.699  1.00  0.00    -0.160 A  
HETATM   36  C   UNL     1      -9.109   4.504  71.116  1.00  0.00    -0.183 A  
HETATM   37  C   UNL     1     -10.545   4.633  73.087  1.00  0.00    -0.218 A  
HETATM   38  N   UNL     1     -11.817   4.584  73.658  1.00  0.00    -0.260 NA 
HETATM   39  C   UNL     1      -9.408   4.513  73.891  1.00  0.00    -0.117 A  
HETATM   40  H1  UNL     1     -11.934   4.636  74.670  1.00  0.00     0.000 HD 
HETATM   41  C   UNL     1      -8.128   4.447  73.325  1.00  0.00    -0.095 A  
HETATM   42  H2  UNL     1     -12.285   3.741  73.325  1.00  0.00     0.000 HD 
ENDBRANCH  31  34
ENDBRANCH  26  31
ENDBRANCH  25  26
ENDBRANCH  22  25
ENDBRANCH  14  22
ENDBRANCH  12  14
ENDBRANCH   9  10
ENDBRANCH   8   9
TORSDOF 11
ENDMDL
MODEL      374
REMARK 921   NORMALIZED FREE ENERGY PREDICTED BY IDOCK:    0.59 KCAL/MOL
REMARK 922        TOTAL FREE ENERGY PREDICTED BY IDOCK:   -1.64 KCAL/MOL
REMARK 923 INTER-LIGAND FREE ENERGY PREDICTED BY IDOCK:   -2.99 KCAL/MOL
REMARK 924 INTRA-LIGAND FREE ENERGY PREDICTED BY IDOCK:    1.35 KCAL/MOL
REMARK 927      BINDING AFFINITY PREDICTED BY RF-SCORE:    0.00 PKD
ROOT
HETATM    1  C   UNL     1     -12.944  13.252  72.715  1.00  0.00     0.045 C  
HETATM    2  C   UNL     1     -12.066  12.413  71.804  1.00  0.00     1.001 C  
HETATM    3  C   UNL     1     -13.031  11.500  71.072  1.00  0.00    -0.159 C  
HETATM    4  O   UNL     1     -14.359  11.860  71.450  1.00  0.00     1.988 OA 
HETATM    5  C   UNL     1     -14.311  13.129  72.086  1.00  0.00     0.098 C  
HETATM    6  O   UNL     1     -14.409  14.194  71.141  1.00  0.00    -0.097 OA 
HETATM    7  C   UNL     1     -13.623  15.281  71.640  1.00  0.00    -0.491 C  
HETATM    8  C   UNL     1     -12.693  14.748  72.730  1.00  0.00    -0.399 C  
ENDROOT
BRANCH   8   9
HETATM    9  O   UNL     1     -11.338  15.074  72.378  1.00  0.00    -0.344 OA 
BRANCH   9  10
HETATM   10  C   UNL     1     -11.081  15.221  71.055  1.00  0.00    -0.291 C  
HETATM   11  O   UNL     1     -11.910  15.126  70.166  1.00  0.00    -0.270 OA 
HETATM   12  N   UNL     1      -9.737  15.396  70.894  1.00  0.00     0.413 N  
HETATM   13  H   UNL     1      -9.168  15.558  71.724  1.00  0.00     0.000 HD 
BRANCH  12  14
HETATM   14  C   UNL     1      -9.067  15.363  69.585  1.00  0.00    -0.170 C  
BRANCH  14  15
HETATM   15  C   UNL     1      -9.237  13.976  68.885  1.00  0.00     0.039 C  
BRANCH  15  16
HETATM   16  C   UNL     1      -7.962  13.190  68.626  1.00  0.00    -0.033 A  
HETATM   17  C   UNL     1      -7.693  12.015  69.339  1.00  0.00     0.459 A  
HETATM   18  C   UNL     1      -7.010  13.641  67.698  1.00  0.00    -0.183 A  
HETATM   19  C   UNL     1      -6.502  11.313  69.134  1.00  0.00    -0.081 A  
HETATM   20  C   UNL     1      -5.570  11.769  68.204  1.00  0.00    -0.044 A  
HETATM   21  C   UNL     1      -5.827  12.930  67.479  1.00  0.00    -0.115 A  
ENDBRANCH  15  16
ENDBRANCH  14  15
BRANCH  14  22
HETATM   22  C   UNL     1      -9.505  16.510  68.623  1.00  0.00    -0.243 C  
HETATM   23  O   UNL     1      -9.654  17.745  69.338  1.00  0.00     0.001 OA 
HETATM   24  H   UNL     1      -9.921  18.444  68.753  1.00  0.00     0.000 HD 
BRANCH  22  25
HETATM   25  C   UNL     1     -10.714  16.257  67.701  1.00  0.00    -0.311 C  
BRANCH  25  26
HETATM   26  N   UNL     1     -10.829  17.020  66.385  1.00  0.00    -0.050 N  
BRANCH  26  27
HETATM   27  C   UNL     1      -9.681  18.017  66.226  1.00  0.00    -0.270 C  
HETATM   28  C   UNL     1      -9.992  19.529  66.228  1.00  0.00    -0.538 C  
HETATM   29  C   UNL     1     -10.597  20.041  67.533  1.00  0.00    -0.429 C  
HETATM   30  C   UNL     1      -8.688  20.312  65.984  1.00  0.00    -0.097 C  
ENDBRANCH  26  27
BRANCH  26  31
HETATM   31  S   UNL     1     -10.893  15.868  65.052  1.00  0.00    -0.342 S  
HETATM   32  O   UNL     1     -12.055  16.151  64.247  1.00  0.00    -0.551 OA 
HETATM   33  O   UNL     1      -9.560  15.838  64.476  1.00  0.00     0.618 OA 
BRANCH  31  34
HETATM   34  C   UNL     1     -11.169  14.283  65.840  1.00  0.00    -0.319 A  
HETATM   35  C   UNL     1     -12.326  12.925  67.473  1.00  0.00     0.177 A  
HETATM   36  C   UNL     1     -12.162  14.152  66.810  1.00  0.00    -0.429 A  
HETATM   37  C   UNL     1     -11.481  11.841  67.209  1.00  0.00    -0.303 A  
HETATM   38  N   UNL     1     -11.718  10.598  67.796  1.00  0.00    -0.682 NA 
HETATM   39  C   UNL     1     -10.549  11.965  66.176  1.00  0.00    -0.295 A  
HETATM   40  H1  UNL     1     -11.102   9.808  67.604  1.00  0.00     0.000 HD 
HETATM   41  C   UNL     1     -10.378  13.181  65.500  1.00  0.00    -0.299 A  
HETATM   42  H2  UNL     1     -12.674  10.318  67.576  1.00  0.00     0.000 HD 
ENDBRANCH  31  34
ENDBRANCH  26  31
ENDBRANCH  25  26
ENDBRANCH  22  25
ENDBRANCH  14  22
ENDBRANCH  12  14
ENDBRANCH   9  10
ENDBRANCH   8   9
TORSDOF 11
ENDMDL
MODEL      375
REMARK 921   NORMALIZED FREE ENERGY PREDICTED BY IDOCK:    0.83 KCAL/MOL
REMARK 922        TOTAL FREE ENERGY PREDICTED BY IDOCK:   -1.26 KCAL/MOL
REMARK 923 INTER-LIGAND FREE ENERGY PREDICTED BY IDOCK:   -1.81 KCAL/MOL
REMARK 924 INTRA-LIGAND FREE ENERGY PREDICTED BY IDOCK:    0.55 KCAL/MOL
REMARK 927      BINDING AFFINITY PREDICTED BY RF-SCORE:    0.00 PKD
ROOT
HETATM    1  C   UNL     1      -5.125  11.480  71.547  1.00  0.00    -0.023 C  
HETATM    2  C   UNL     1      -5.657  11.721  72.948  1.00  0.00     1.456 C  
HETATM    3  C   UNL     1      -5.649  13.229  73.109  1.00  0.00     0.551 C  
HETATM    4  O   UNL     1      -5.251  13.808  71.867  1.00  0.00    -0.164 OA 
HETATM    5  C   UNL     1      -5.340  12.808  70.863  1.00  0.00    -0.173 C  
HETATM    6  O   UNL     1      -6.647  12.752  70.292  1.00  0.00     0.142 OA 
HETATM    7  C   UNL     1      -6.904  11.387  69.946  1.00  0.00     0.043 C  
HETATM    8  C   UNL     1      -5.893  10.502  70.675  1.00  0.00    -0.107 C  
ENDROOT
BRANCH   8   9
HETATM    9  O   UNL     1      -6.610   9.530  71.454  1.00  0.00    -0.266 OA 
BRANCH   9  10
HETATM   10  C   UNL     1      -7.667   8.937  70.847  1.00  0.00    -0.122 C  
HETATM   11  O   UNL     1      -8.831   9.271  70.985  1.00  0.00    -0.218 OA 
HETATM   12  N   UNL     1      -7.212   7.860  70.144  1.00  0.00    -0.057 N  
HETATM   13  H   UNL     1      -6.205   7.749  70.027  1.00  0.00     0.000 HD 
BRANCH  12  14
HETATM   14  C   UNL     1      -8.098   6.849  69.545  1.00  0.00    -0.130 C  
BRANCH  14  15
HETATM   15  C   UNL     1      -8.582   5.807  70.604  1.00  0.00    -0.132 C  
BRANCH  15  16
HETATM   16  C   UNL     1      -7.691   5.619  71.822  1.00  0.00    -0.101 A  
HETATM   17  C   UNL     1      -6.549   4.811  71.750  1.00  0.00    -0.031 A  
HETATM   18  C   UNL     1      -8.012   6.216  73.051  1.00  0.00    -0.108 A  
HETATM   19  C   UNL     1      -5.751   4.602  72.879  1.00  0.00    -0.009 A  
HETATM   20  C   UNL     1      -6.079   5.207  74.091  1.00  0.00    -0.056 A  
HETATM   21  C   UNL     1      -7.205   6.021  74.176  1.00  0.00    -0.088 A  
ENDBRANCH  15  16
ENDBRANCH  14  15
BRANCH  14  22
HETATM   22  C   UNL     1      -9.318   7.452  68.784  1.00  0.00    -0.144 C  
HETATM   23  O   UNL     1      -9.886   6.488  67.887  1.00  0.00    -0.121 OA 
HETATM   24  H   UNL     1     -10.629   6.855  67.423  1.00  0.00     0.000 HD 
BRANCH  22  25
HETATM   25  C   UNL     1      -9.133   8.814  68.085  1.00  0.00    -0.140 C  
BRANCH  25  26
HETATM   26  N   UNL     1      -9.886   9.104  66.790  1.00  0.00    -0.205 N  
BRANCH  26  27
HETATM   27  C   UNL     1     -10.924  10.208  66.995  1.00  0.00    -0.092 C  
HETATM   28  C   UNL     1     -10.493  11.531  67.663  1.00  0.00    -0.218 C  
HETATM   29  C   UNL     1      -9.439  12.311  66.880  1.00  0.00    -0.217 C  
HETATM   30  C   UNL     1     -11.725  12.442  67.816  1.00  0.00    -0.413 C  
ENDBRANCH  26  27
BRANCH  26  31
HETATM   31  S   UNL     1      -8.727   9.511  65.525  1.00  0.00    -0.166 S  
HETATM   32  O   UNL     1      -9.447   9.996  64.374  1.00  0.00    -0.277 OA 
HETATM   33  O   UNL     1      -7.692  10.304  66.163  1.00  0.00    -0.112 OA 
BRANCH  31  34
HETATM   34  C   UNL     1      -7.991   7.943  65.067  1.00  0.00    -0.137 A  
HETATM   35  C   UNL     1      -7.982   5.951  63.697  1.00  0.00    -0.114 A  
HETATM   36  C   UNL     1      -8.520   7.210  64.004  1.00  0.00     0.309 A  
HETATM   37  C   UNL     1      -6.953   5.395  64.465  1.00  0.00    -0.049 A  
HETATM   38  N   UNL     1      -6.356   4.192  64.088  1.00  0.00    -0.032 NA 
HETATM   39  C   UNL     1      -6.381   6.179  65.471  1.00  0.00    -0.038 A  
HETATM   40  H1  UNL     1      -5.606   3.786  64.648  1.00  0.00     0.000 HD 
HETATM   41  C   UNL     1      -6.901   7.441  65.786  1.00  0.00    -0.056 A  
HETATM   42  H2  UNL     1      -6.022   4.288  63.129  1.00  0.00     0.000 HD 
ENDBRANCH  31  34
ENDBRANCH  26  31
ENDBRANCH  25  26
ENDBRANCH  22  25
ENDBRANCH  14  22
ENDBRANCH  12  14
ENDBRANCH   9  10
ENDBRANCH   8   9
TORSDOF 11
ENDMDL
MODEL      376
REMARK 921   NORMALIZED FREE ENERGY PREDICTED BY IDOCK:    0.84 KCAL/MOL
REMARK 922        TOTAL FREE ENERGY PREDICTED BY IDOCK:   -1.24 KCAL/MOL
REMARK 923 INTER-LIGAND FREE ENERGY PREDICTED BY IDOCK:   -1.20 KCAL/MOL
REMARK 924 INTRA-LIGAND FREE ENERGY PREDICTED BY IDOCK:   -0.04 KCAL/MOL
REMARK 927      BINDING AFFINITY PREDICTED BY RF-SCORE:    0.00 PKD
ROOT
HETATM    1  C   UNL     1      -5.128  11.675  71.733  1.00  0.00     0.064 C  
HETATM    2  C   UNL     1      -5.691  11.883  73.127  1.00  0.00     1.899 C  
HETATM    3  C   UNL     1      -5.688  13.387  73.324  1.00  0.00     0.620 C  
HETATM    4  O   UNL     1      -5.263  13.995  72.105  1.00  0.00    -0.170 OA 
HETATM    5  C   UNL     1      -5.330  13.019  71.075  1.00  0.00    -0.182 C  
HETATM    6  O   UNL     1      -6.623  12.976  70.475  1.00  0.00     0.191 OA 
HETATM    7  C   UNL     1      -6.872  11.619  70.092  1.00  0.00     0.462 C  
HETATM    8  C   UNL     1      -5.875  10.718  70.822  1.00  0.00    -0.081 C  
ENDROOT
BRANCH   8   9
HETATM    9  O   UNL     1      -6.608   9.728  71.562  1.00  0.00    -0.312 OA 
BRANCH   9  10
HETATM   10  C   UNL     1      -7.633   9.127  70.908  1.00  0.00    -0.124 C  
HETATM   11  O   UNL     1      -8.808   9.430  71.021  1.00  0.00    -0.250 OA 
HETATM   12  N   UNL     1      -7.132   8.081  70.189  1.00  0.00    -0.048 N  
HETATM   13  H   UNL     1      -6.120   7.997  70.098  1.00  0.00     0.000 HD 
BRANCH  12  14
HETATM   14  C   UNL     1      -7.977   7.068  69.537  1.00  0.00    -0.125 C  
BRANCH  14  15
HETATM   15  C   UNL     1      -8.463   5.983  70.552  1.00  0.00    -0.132 C  
BRANCH  15  16
HETATM   16  C   UNL     1      -8.446   4.544  70.062  1.00  0.00    -0.088 A  
HETATM   17  C   UNL     1      -9.503   3.677  70.366  1.00  0.00    -0.255 A  
HETATM   18  C   UNL     1      -7.359   4.043  69.329  1.00  0.00    -0.054 A  
HETATM   19  C   UNL     1      -9.471   2.342  69.953  1.00  0.00    -0.121 A  
HETATM   20  C   UNL     1      -8.388   1.860  69.220  1.00  0.00    -0.073 A  
HETATM   21  C   UNL     1      -7.334   2.712  68.901  1.00  0.00    -0.047 A  
ENDBRANCH  15  16
ENDBRANCH  14  15
BRANCH  14  22
HETATM   22  C   UNL     1      -9.191   7.663  68.761  1.00  0.00    -0.142 C  
HETATM   23  O   UNL     1      -9.708   6.714  67.819  1.00  0.00    -0.122 OA 
HETATM   24  H   UNL     1     -10.448   7.076  67.346  1.00  0.00     0.000 HD 
BRANCH  22  25
HETATM   25  C   UNL     1      -9.022   9.050  68.109  1.00  0.00    -0.133 C  
BRANCH  25  26
HETATM   26  N   UNL     1      -9.714   9.348  66.782  1.00  0.00    -0.183 N  
BRANCH  26  27
HETATM   27  C   UNL     1     -10.812  10.397  66.959  1.00  0.00    -0.203 C  
HETATM   28  C   UNL     1     -10.713  11.400  68.128  1.00  0.00    -0.241 C  
HETATM   29  C   UNL     1      -9.492  12.315  68.063  1.00  0.00    -0.206 C  
HETATM   30  C   UNL     1     -11.965  12.297  68.130  1.00  0.00    -0.256 C  
ENDBRANCH  26  27
BRANCH  26  31
HETATM   31  S   UNL     1      -8.506   9.848  65.599  1.00  0.00    -0.151 S  
HETATM   32  O   UNL     1      -9.182  10.343  64.425  1.00  0.00    -0.207 OA 
HETATM   33  O   UNL     1      -7.543  10.660  66.319  1.00  0.00    -0.126 OA 
BRANCH  31  34
HETATM   34  C   UNL     1      -7.678   8.329  65.131  1.00  0.00    -0.102 A  
HETATM   35  C   UNL     1      -6.058   6.596  65.593  1.00  0.00    -0.038 A  
HETATM   36  C   UNL     1      -6.753   7.746  65.997  1.00  0.00    -0.049 A  
HETATM   37  C   UNL     1      -6.243   6.046  64.319  1.00  0.00    -0.029 A  
HETATM   38  N   UNL     1      -5.626   4.845  63.969  1.00  0.00    -0.016 NA 
HETATM   39  C   UNL     1      -7.233   6.593  63.501  1.00  0.00    -0.065 A  
HETATM   40  H1  UNL     1      -5.760   4.444  63.040  1.00  0.00     0.000 HD 
HETATM   41  C   UNL     1      -7.942   7.738  63.891  1.00  0.00    -0.103 A  
HETATM   42  H2  UNL     1      -5.882   4.140  64.660  1.00  0.00     0.000 HD 
ENDBRANCH  31  34
ENDBRANCH  26  31
ENDBRANCH  25  26
ENDBRANCH  22  25
ENDBRANCH  14  22
ENDBRANCH  12  14
ENDBRANCH   9  10
ENDBRANCH   8   9
TORSDOF 11
ENDMDL
MODEL      377
REMARK 921   NORMALIZED FREE ENERGY PREDICTED BY IDOCK:    1.01 KCAL/MOL
REMARK 922        TOTAL FREE ENERGY PREDICTED BY IDOCK:   -0.96 KCAL/MOL
REMARK 923 INTER-LIGAND FREE ENERGY PREDICTED BY IDOCK:   -3.23 KCAL/MOL
REMARK 924 INTRA-LIGAND FREE ENERGY PREDICTED BY IDOCK:    2.27 KCAL/MOL
REMARK 927      BINDING AFFINITY PREDICTED BY RF-SCORE:    0.00 PKD
ROOT
HETATM    1  C   UNL     1     -12.394  10.023  70.993  1.00  0.00    -0.458 C  
HETATM    2  C   UNL     1     -12.067  11.417  71.495  1.00  0.00     0.205 C  
HETATM    3  C   UNL     1     -13.263  11.813  72.341  1.00  0.00     0.245 C  
HETATM    4  O   UNL     1     -14.150  10.697  72.407  1.00  0.00     0.288 OA 
HETATM    5  C   UNL     1     -13.449   9.545  71.961  1.00  0.00    -0.443 C  
HETATM    6  O   UNL     1     -12.747   8.911  73.029  1.00  0.00    -0.239 OA 
HETATM    7  C   UNL     1     -11.553   8.344  72.480  1.00  0.00    -0.356 C  
HETATM    8  C   UNL     1     -11.303   8.973  71.109  1.00  0.00    -0.307 C  
ENDROOT
BRANCH   8   9
HETATM    9  O   UNL     1      -9.989   9.555  71.103  1.00  0.00    -0.269 OA 
BRANCH   9  10
HETATM   10  C   UNL     1      -9.271   9.403  69.963  1.00  0.00    -0.220 C  
HETATM   11  O   UNL     1      -8.443   8.530  69.768  1.00  0.00    -0.124 OA 
HETATM   12  N   UNL     1      -9.567  10.439  69.126  1.00  0.00    -0.206 N  
HETATM   13  H   UNL     1     -10.352  11.046  69.365  1.00  0.00     0.000 HD 
BRANCH  12  14
HETATM   14  C   UNL     1      -8.814  10.728  67.895  1.00  0.00    -0.132 C  
BRANCH  14  15
HETATM   15  C   UNL     1      -8.592  12.263  67.702  1.00  0.00    -0.169 C  
BRANCH  15  16
HETATM   16  C   UNL     1      -9.798  13.155  67.947  1.00  0.00    -0.231 A  
HETATM   17  C   UNL     1      -9.700  14.267  68.794  1.00  0.00    -0.173 A  
HETATM   18  C   UNL     1     -11.042  12.866  67.365  1.00  0.00    -0.307 A  
HETATM   19  C   UNL     1     -10.817  15.065  69.055  1.00  0.00    -0.242 A  
HETATM   20  C   UNL     1     -12.044  14.769  68.464  1.00  0.00    -0.210 A  
HETATM   21  C   UNL     1     -12.155  13.673  67.612  1.00  0.00    -0.328 A  
ENDBRANCH  15  16
ENDBRANCH  14  15
BRANCH  14  22
HETATM   22  C   UNL     1      -7.455   9.969  67.795  1.00  0.00    -0.089 C  
HETATM   23  O   UNL     1      -6.377  10.790  68.265  1.00  0.00    -0.056 OA 
HETATM   24  H   UNL     1      -5.550  10.328  68.204  1.00  0.00     0.000 HD 
BRANCH  22  25
HETATM   25  C   UNL     1      -7.096   9.305  66.450  1.00  0.00    -0.088 C  
BRANCH  25  26
HETATM   26  N   UNL     1      -7.490   7.853  66.200  1.00  0.00    -0.077 N  
BRANCH  26  27
HETATM   27  C   UNL     1      -8.969   7.623  66.511  1.00  0.00    -0.158 C  
HETATM   28  C   UNL     1      -9.914   8.840  66.613  1.00  0.00    -0.355 C  
HETATM   29  C   UNL     1     -10.045   9.638  65.318  1.00  0.00    -0.007 C  
HETATM   30  C   UNL     1     -11.322   8.352  67.002  1.00  0.00     1.401 C  
ENDBRANCH  26  27
BRANCH  26  31
HETATM   31  S   UNL     1      -7.089   7.423  64.537  1.00  0.00    -0.065 S  
HETATM   32  O   UNL     1      -7.406   8.538  63.680  1.00  0.00    -0.098 OA 
HETATM   33  O   UNL     1      -5.756   6.850  64.575  1.00  0.00    -0.031 OA 
BRANCH  31  34
HETATM   34  C   UNL     1      -8.227   6.101  64.127  1.00  0.00    -0.031 A  
HETATM   35  C   UNL     1      -9.732   5.040  62.561  1.00  0.00     0.301 A  
HETATM   36  C   UNL     1      -8.789   6.037  62.852  1.00  0.00     0.400 A  
HETATM   37  C   UNL     1     -10.154   4.133  63.540  1.00  0.00    -0.067 A  
HETATM   38  N   UNL     1     -11.012   3.083  63.211  1.00  0.00    -0.213 NA 
HETATM   39  C   UNL     1      -9.519   4.160  64.783  1.00  0.00    -0.170 A  
HETATM   40  H1  UNL     1     -11.320   2.422  63.925  1.00  0.00     0.000 HD 
HETATM   41  C   UNL     1      -8.570   5.145  65.089  1.00  0.00    -0.150 A  
HETATM   42  H2  UNL     1     -10.592   2.554  62.447  1.00  0.00     0.000 HD 
ENDBRANCH  31  34
ENDBRANCH  26  31
ENDBRANCH  25  26
ENDBRANCH  22  25
ENDBRANCH  14  22
ENDBRANCH  12  14
ENDBRANCH   9  10
ENDBRANCH   8   9
TORSDOF 11
ENDMDL
MODEL      378
REMARK 921   NORMALIZED FREE ENERGY PREDICTED BY IDOCK:    1.15 KCAL/MOL
REMARK 922        TOTAL FREE ENERGY PREDICTED BY IDOCK:   -0.73 KCAL/MOL
REMARK 923 INTER-LIGAND FREE ENERGY PREDICTED BY IDOCK:   -4.24 KCAL/MOL
REMARK 924 INTRA-LIGAND FREE ENERGY PREDICTED BY IDOCK:    3.51 KCAL/MOL
REMARK 927      BINDING AFFINITY PREDICTED BY RF-SCORE:    0.00 PKD
ROOT
HETATM    1  C   UNL     1      -8.756   9.073  64.920  1.00  0.00    -0.200 C  
HETATM    2  C   UNL     1      -8.239   9.658  66.222  1.00  0.00    -0.116 C  
HETATM    3  C   UNL     1      -6.732   9.510  66.140  1.00  0.00    -0.082 C  
HETATM    4  O   UNL     1      -6.405   8.985  64.854  1.00  0.00    -0.065 OA 
HETATM    5  C   UNL     1      -7.547   9.115  64.019  1.00  0.00    -0.113 C  
HETATM    6  O   UNL     1      -7.581  10.386  63.370  1.00  0.00    -0.136 OA 
HETATM    7  C   UNL     1      -8.956  10.758  63.230  1.00  0.00    -0.220 C  
HETATM    8  C   UNL     1      -9.793   9.882  64.163  1.00  0.00     0.149 C  
ENDROOT
BRANCH   8   9
HETATM    9  O   UNL     1     -10.555  10.736  65.033  1.00  0.00    -0.268 OA 
BRANCH   9  10
HETATM   10  C   UNL     1     -10.310  12.066  64.934  1.00  0.00    -0.278 C  
HETATM   11  O   UNL     1     -10.457  12.732  63.924  1.00  0.00    -0.418 OA 
HETATM   12  N   UNL     1      -9.788  12.497  66.119  1.00  0.00    -0.255 N  
HETATM   13  H   UNL     1      -9.811  11.862  66.917  1.00  0.00     0.000 HD 
BRANCH  12  14
HETATM   14  C   UNL     1      -9.194  13.830  66.306  1.00  0.00    -0.071 C  
BRANCH  14  15
HETATM   15  C   UNL     1     -10.058  14.945  65.632  1.00  0.00    -0.387 C  
BRANCH  15  16
HETATM   16  C   UNL     1      -9.647  16.381  65.916  1.00  0.00    -0.309 A  
HETATM   17  C   UNL     1     -10.573  17.424  65.788  1.00  0.00    -0.185 A  
HETATM   18  C   UNL     1      -8.327  16.698  66.273  1.00  0.00    -0.360 A  
HETATM   19  C   UNL     1     -10.188  18.750  66.007  1.00  0.00    -0.413 A  
HETATM   20  C   UNL     1      -8.876  19.049  66.368  1.00  0.00    -0.326 A  
HETATM   21  C   UNL     1      -7.946  18.022  66.509  1.00  0.00    -0.294 A  
ENDBRANCH  15  16
ENDBRANCH  14  15
BRANCH  14  22
HETATM   22  C   UNL     1      -8.912  14.192  67.796  1.00  0.00    -0.187 C  
HETATM   23  O   UNL     1      -9.146  13.061  68.648  1.00  0.00    -0.368 OA 
HETATM   24  H   UNL     1      -8.974  13.281  69.556  1.00  0.00     0.000 HD 
BRANCH  22  25
HETATM   25  C   UNL     1      -9.575  15.460  68.370  1.00  0.00    -0.200 C  
BRANCH  25  26
HETATM   26  N   UNL     1     -10.388  15.368  69.657  1.00  0.00    -0.262 N  
BRANCH  26  27
HETATM   27  C   UNL     1     -10.316  16.675  70.447  1.00  0.00     0.596 C  
HETATM   28  C   UNL     1     -10.161  18.008  69.684  1.00  0.00     0.351 C  
HETATM   29  C   UNL     1     -11.328  18.334  68.755  1.00  0.00     1.697 C  
HETATM   30  C   UNL     1     -10.041  19.159  70.700  1.00  0.00     1.689 C  
ENDBRANCH  26  27
BRANCH  26  31
HETATM   31  S   UNL     1     -12.049  14.925  69.262  1.00  0.00    -0.210 S  
HETATM   32  O   UNL     1     -12.946  15.773  70.007  1.00  0.00    -0.184 OA 
HETATM   33  O   UNL     1     -12.112  14.838  67.814  1.00  0.00    -0.288 OA 
BRANCH  31  34
HETATM   34  C   UNL     1     -12.236  13.263  69.905  1.00  0.00    -0.246 A  
HETATM   35  C   UNL     1     -12.870  11.765  71.694  1.00  0.00    -0.433 A  
HETATM   36  C   UNL     1     -12.791  13.065  71.169  1.00  0.00    -0.331 A  
HETATM   37  C   UNL     1     -12.361  10.668  70.990  1.00  0.00    -0.403 A  
HETATM   38  N   UNL     1     -12.539   9.371  71.474  1.00  0.00    -0.340 NA 
HETATM   39  C   UNL     1     -11.887  10.875  69.693  1.00  0.00    -0.416 A  
HETATM   40  H1  UNL     1     -12.168   8.571  70.962  1.00  0.00     0.000 HD 
HETATM   41  C   UNL     1     -11.808  12.165  69.151  1.00  0.00    -0.361 A  
HETATM   42  H2  UNL     1     -13.537   9.220  71.623  1.00  0.00     0.000 HD 
ENDBRANCH  31  34
ENDBRANCH  26  31
ENDBRANCH  25  26
ENDBRANCH  22  25
ENDBRANCH  14  22
ENDBRANCH  12  14
ENDBRANCH   9  10
ENDBRANCH   8   9
TORSDOF 11
ENDMDL
MODEL      379
REMARK 921   NORMALIZED FREE ENERGY PREDICTED BY IDOCK:    1.27 KCAL/MOL
REMARK 922        TOTAL FREE ENERGY PREDICTED BY IDOCK:   -0.53 KCAL/MOL
REMARK 923 INTER-LIGAND FREE ENERGY PREDICTED BY IDOCK:   -5.12 KCAL/MOL
REMARK 924 INTRA-LIGAND FREE ENERGY PREDICTED BY IDOCK:    4.59 KCAL/MOL
REMARK 927      BINDING AFFINITY PREDICTED BY RF-SCORE:    0.00 PKD
ROOT
HETATM    1  C   UNL     1      -5.709  15.379  69.513  1.00  0.00    -0.106 C  
HETATM    2  C   UNL     1      -6.650  16.426  68.946  1.00  0.00    -0.165 C  
HETATM    3  C   UNL     1      -6.181  16.633  67.518  1.00  0.00    -0.160 C  
HETATM    4  O   UNL     1      -5.131  15.704  67.255  1.00  0.00    -0.331 OA 
HETATM    5  C   UNL     1      -5.142  14.720  68.279  1.00  0.00    -0.112 C  
HETATM    6  O   UNL     1      -6.024  13.644  67.965  1.00  0.00    -0.108 OA 
HETATM    7  C   UNL     1      -6.576  13.170  69.197  1.00  0.00    -0.104 C  
HETATM    8  C   UNL     1      -6.337  14.227  70.275  1.00  0.00    -0.140 C  
ENDROOT
BRANCH   8   9
HETATM    9  O   UNL     1      -7.601  14.586  70.855  1.00  0.00     1.169 OA 
BRANCH   9  10
HETATM   10  C   UNL     1      -8.664  14.603  70.014  1.00  0.00     0.804 C  
HETATM   11  O   UNL     1      -9.683  15.250  70.185  1.00  0.00    -0.135 OA 
HETATM   12  N   UNL     1      -8.432  13.711  69.008  1.00  0.00    -0.340 N  
HETATM   13  H   UNL     1      -7.498  13.310  68.923  1.00  0.00     0.000 HD 
BRANCH  12  14
HETATM   14  C   UNL     1      -9.459  13.298  68.038  1.00  0.00    -0.219 C  
BRANCH  14  15
HETATM   15  C   UNL     1      -9.336  14.091  66.696  1.00  0.00    -0.292 C  
BRANCH  15  16
HETATM   16  C   UNL     1      -9.593  15.587  66.771  1.00  0.00    -0.251 A  
HETATM   17  C   UNL     1     -10.847  16.075  67.163  1.00  0.00    -0.239 A  
HETATM   18  C   UNL     1      -8.598  16.511  66.414  1.00  0.00    -0.347 A  
HETATM   19  C   UNL     1     -11.099  17.450  67.192  1.00  0.00     0.195 A  
HETATM   20  C   UNL     1     -10.099  18.354  66.841  1.00  0.00    -0.385 A  
HETATM   21  C   UNL     1      -8.845  17.885  66.459  1.00  0.00    -0.281 A  
ENDBRANCH  15  16
ENDBRANCH  14  15
BRANCH  14  22
HETATM   22  C   UNL     1      -9.481  11.764  67.758  1.00  0.00    -0.181 C  
HETATM   23  O   UNL     1      -9.527  11.023  68.986  1.00  0.00    -0.307 OA 
HETATM   24  H   UNL     1      -9.541  10.089  68.815  1.00  0.00     0.000 HD 
BRANCH  22  25
HETATM   25  C   UNL     1      -8.414  11.188  66.806  1.00  0.00    -0.153 C  
BRANCH  25  26
HETATM   26  N   UNL     1      -8.246   9.676  66.691  1.00  0.00    -0.119 N  
BRANCH  26  27
HETATM   27  C   UNL     1      -8.225   9.019  68.071  1.00  0.00    -0.110 C  
HETATM   28  C   UNL     1      -7.262   7.841  68.329  1.00  0.00    -0.089 C  
HETATM   29  C   UNL     1      -5.784   8.201  68.195  1.00  0.00    -0.034 C  
HETATM   30  C   UNL     1      -7.481   7.314  69.760  1.00  0.00    -0.093 C  
ENDBRANCH  26  27
BRANCH  26  31
HETATM   31  S   UNL     1      -9.528   9.027  65.670  1.00  0.00    -0.140 S  
HETATM   32  O   UNL     1      -8.931   8.281  64.590  1.00  0.00     0.125 OA 
HETATM   33  O   UNL     1     -10.496   8.422  66.567  1.00  0.00    -0.249 OA 
BRANCH  31  34
HETATM   34  C   UNL     1     -10.303  10.473  64.947  1.00  0.00    -0.237 A  
HETATM   35  C   UNL     1     -10.342  12.214  63.271  1.00  0.00    -0.352 A  
HETATM   36  C   UNL     1      -9.772  11.042  63.790  1.00  0.00    -0.351 A  
HETATM   37  C   UNL     1     -11.408  12.850  63.918  1.00  0.00    -0.436 A  
HETATM   38  N   UNL     1     -12.033  13.954  63.337  1.00  0.00    -0.844 NA 
HETATM   39  C   UNL     1     -11.980  12.220  65.026  1.00  0.00    -0.413 A  
HETATM   40  H1  UNL     1     -12.810  14.417  63.809  1.00  0.00     0.000 HD 
HETATM   41  C   UNL     1     -11.427  11.045  65.553  1.00  0.00     0.410 A  
HETATM   42  H2  UNL     1     -12.340  13.691  62.400  1.00  0.00     0.000 HD 
ENDBRANCH  31  34
ENDBRANCH  26  31
ENDBRANCH  25  26
ENDBRANCH  22  25
ENDBRANCH  14  22
ENDBRANCH  12  14
ENDBRANCH   9  10
ENDBRANCH   8   9
TORSDOF 11
ENDMDL
MODEL      380
REMARK 921   NORMALIZED FREE ENERGY PREDICTED BY IDOCK:    1.44 KCAL/MOL
REMARK 922        TOTAL FREE ENERGY PREDICTED BY IDOCK:   -0.25 KCAL/MOL
REMARK 923 INTER-LIGAND FREE ENERGY PREDICTED BY IDOCK:   -3.53 KCAL/MOL
REMARK 924 INTRA-LIGAND FREE ENERGY PREDICTED BY IDOCK:    3.28 KCAL/MOL
REMARK 927      BINDING AFFINITY PREDICTED BY RF-SCORE:    0.00 PKD
ROOT
HETATM    1  C   UNL     1     -10.414  12.046  66.290  1.00  0.00    -0.273 C  
HETATM    2  C   UNL     1      -9.995  13.251  65.468  1.00  0.00    -0.222 C  
HETATM    3  C   UNL     1     -10.125  12.798  64.027  1.00  0.00    -0.200 C  
HETATM    4  O   UNL     1     -10.676  11.482  64.021  1.00  0.00    -0.328 OA 
HETATM    5  C   UNL     1     -11.210  11.219  65.310  1.00  0.00     0.003 C  
HETATM    6  O   UNL     1     -12.560  11.665  65.421  1.00  0.00     0.321 OA 
HETATM    7  C   UNL     1     -12.759  12.095  66.772  1.00  0.00     2.250 C  
HETATM    8  C   UNL     1     -11.391  12.290  67.426  1.00  0.00    -0.325 C  
ENDROOT
BRANCH   8   9
HETATM    9  O   UNL     1     -11.310  13.633  67.930  1.00  0.00    -0.267 OA 
BRANCH   9  10
HETATM   10  C   UNL     1     -10.069  14.084  68.240  1.00  0.00    -0.246 C  
HETATM   11  O   UNL     1      -9.666  15.216  68.039  1.00  0.00    -0.206 OA 
HETATM   12  N   UNL     1      -9.337  13.037  68.721  1.00  0.00    -0.407 N  
HETATM   13  H   UNL     1      -9.823  12.166  68.936  1.00  0.00     0.000 HD 
BRANCH  12  14
HETATM   14  C   UNL     1      -7.885  13.100  68.946  1.00  0.00     0.118 C  
BRANCH  14  15
HETATM   15  C   UNL     1      -7.156  11.852  68.350  1.00  0.00    -0.086 C  
BRANCH  15  16
HETATM   16  C   UNL     1      -7.679  10.493  68.785  1.00  0.00    -0.109 A  
HETATM   17  C   UNL     1      -8.086   9.549  67.833  1.00  0.00    -0.106 A  
HETATM   18  C   UNL     1      -7.802  10.167  70.145  1.00  0.00    -0.065 A  
HETATM   19  C   UNL     1      -8.607   8.315  68.230  1.00  0.00    -0.133 A  
HETATM   20  C   UNL     1      -8.717   8.002  69.584  1.00  0.00    -0.133 A  
HETATM   21  C   UNL     1      -8.307   8.926  70.542  1.00  0.00    -0.177 A  
ENDBRANCH  15  16
ENDBRANCH  14  15
BRANCH  14  22
HETATM   22  C   UNL     1      -7.222  14.412  68.427  1.00  0.00    -0.114 C  
HETATM   23  O   UNL     1      -6.222  14.121  67.440  1.00  0.00    -0.336 OA 
HETATM   24  H   UNL     1      -5.818  14.921  67.124  1.00  0.00     0.000 HD 
BRANCH  22  25
HETATM   25  C   UNL     1      -6.691  15.415  69.471  1.00  0.00    -0.174 C  
BRANCH  25  26
HETATM   26  N   UNL     1      -6.909  16.909  69.257  1.00  0.00    -0.238 N  
BRANCH  26  27
HETATM   27  C   UNL     1      -6.139  17.730  70.292  1.00  0.00     0.086 C  
HETATM   28  C   UNL     1      -6.108  19.268  70.161  1.00  0.00    -0.234 C  
HETATM   29  C   UNL     1      -7.478  19.932  70.275  1.00  0.00     0.596 C  
HETATM   30  C   UNL     1      -5.217  19.851  71.274  1.00  0.00    -0.324 C  
ENDBRANCH  26  27
BRANCH  26  31
HETATM   31  S   UNL     1      -6.452  17.330  67.607  1.00  0.00    -0.155 S  
HETATM   32  O   UNL     1      -5.394  18.308  67.652  1.00  0.00    -0.148 OA 
HETATM   33  O   UNL     1      -6.296  16.074  66.896  1.00  0.00    -0.306 OA 
BRANCH  31  34
HETATM   34  C   UNL     1      -7.898  18.147  66.934  1.00  0.00    -0.229 A  
HETATM   35  C   UNL     1      -8.920  20.062  65.869  1.00  0.00    -0.162 A  
HETATM   36  C   UNL     1      -7.772  19.398  66.330  1.00  0.00    -0.297 A  
HETATM   37  C   UNL     1     -10.195  19.512  66.043  1.00  0.00    -0.478 A  
HETATM   38  N   UNL     1     -11.316  20.131  65.488  1.00  0.00     0.244 NA 
HETATM   39  C   UNL     1     -10.293  18.223  66.572  1.00  0.00    -0.410 A  
HETATM   40  H1  UNL     1     -12.245  19.730  65.615  1.00  0.00     0.000 HD 
HETATM   41  C   UNL     1      -9.156  17.544  67.032  1.00  0.00    -0.255 A  
HETATM   42  H2  UNL     1     -11.153  20.249  64.488  1.00  0.00     0.000 HD 
ENDBRANCH  31  34
ENDBRANCH  26  31
ENDBRANCH  25  26
ENDBRANCH  22  25
ENDBRANCH  14  22
ENDBRANCH  12  14
ENDBRANCH   9  10
ENDBRANCH   8   9
TORSDOF 11
ENDMDL
MODEL      381
REMARK 921   NORMALIZED FREE ENERGY PREDICTED BY IDOCK:    1.48 KCAL/MOL
REMARK 922        TOTAL FREE ENERGY PREDICTED BY IDOCK:   -0.19 KCAL/MOL
REMARK 923 INTER-LIGAND FREE ENERGY PREDICTED BY IDOCK:   -1.98 KCAL/MOL
REMARK 924 INTRA-LIGAND FREE ENERGY PREDICTED BY IDOCK:    1.79 KCAL/MOL
REMARK 927      BINDING AFFINITY PREDICTED BY RF-SCORE:    0.00 PKD
ROOT
HETATM    1  C   UNL     1      -9.161   9.573  64.350  1.00  0.00    -0.234 C  
HETATM    2  C   UNL     1      -8.335   9.993  65.552  1.00  0.00    -0.151 C  
HETATM    3  C   UNL     1      -6.927   9.530  65.234  1.00  0.00    -0.091 C  
HETATM    4  O   UNL     1      -6.923   8.989  63.914  1.00  0.00    -0.088 OA 
HETATM    5  C   UNL     1      -8.125   9.385  63.269  1.00  0.00    -0.151 C  
HETATM    6  O   UNL     1      -7.985  10.654  62.630  1.00  0.00    -0.161 OA 
HETATM    7  C   UNL     1      -9.253  11.313  62.708  1.00  0.00    -0.322 C  
HETATM    8  C   UNL     1     -10.104  10.607  63.763  1.00  0.00    -0.270 C  
ENDROOT
BRANCH   8   9
HETATM    9  O   UNL     1     -10.521  11.575  64.740  1.00  0.00    -0.268 OA 
BRANCH   9  10
HETATM   10  C   UNL     1     -10.102  12.849  64.539  1.00  0.00    -0.235 C  
HETATM   11  O   UNL     1     -10.210  13.465  63.492  1.00  0.00     0.273 OA 
HETATM   12  N   UNL     1      -9.466  13.278  65.668  1.00  0.00    -0.483 N  
HETATM   13  H   UNL     1      -9.535  12.704  66.509  1.00  0.00     0.000 HD 
BRANCH  12  14
HETATM   14  C   UNL     1      -8.688  14.524  65.736  1.00  0.00     1.111 C  
BRANCH  14  15
HETATM   15  C   UNL     1      -9.613  15.784  65.704  1.00  0.00    -0.299 C  
BRANCH  15  16
HETATM   16  C   UNL     1      -8.976  17.101  66.116  1.00  0.00    -0.217 A  
HETATM   17  C   UNL     1      -9.749  18.114  66.698  1.00  0.00    -0.334 A  
HETATM   18  C   UNL     1      -7.613  17.346  65.890  1.00  0.00    -0.106 A  
HETATM   19  C   UNL     1      -9.175  19.341  67.040  1.00  0.00    -0.357 A  
HETATM   20  C   UNL     1      -7.818  19.568  66.815  1.00  0.00    -0.291 A  
HETATM   21  C   UNL     1      -7.035  18.567  66.247  1.00  0.00    -0.275 A  
ENDBRANCH  15  16
ENDBRANCH  14  15
BRANCH  14  22
HETATM   22  C   UNL     1      -7.720  14.597  66.956  1.00  0.00     0.041 C  
HETATM   23  O   UNL     1      -7.352  13.282  67.394  1.00  0.00    -0.217 OA 
HETATM   24  H   UNL     1      -6.762  13.326  68.137  1.00  0.00     0.000 HD 
BRANCH  22  25
HETATM   25  C   UNL     1      -8.130  15.481  68.152  1.00  0.00    -0.132 C  
BRANCH  25  26
HETATM   26  N   UNL     1      -8.381  14.838  69.512  1.00  0.00     0.002 N  
BRANCH  26  27
HETATM   27  C   UNL     1      -7.346  15.299  70.537  1.00  0.00     0.750 C  
HETATM   28  C   UNL     1      -6.127  14.399  70.834  1.00  0.00    -0.142 C  
HETATM   29  C   UNL     1      -5.213  14.169  69.633  1.00  0.00    -0.091 C  
HETATM   30  C   UNL     1      -5.279  15.048  71.944  1.00  0.00    -0.060 C  
ENDBRANCH  26  27
BRANCH  26  31
HETATM   31  S   UNL     1     -10.028  15.198  70.027  1.00  0.00     0.092 S  
HETATM   32  O   UNL     1     -10.303  14.477  71.245  1.00  0.00     1.210 OA 
HETATM   33  O   UNL     1     -10.171  16.641  69.950  1.00  0.00    -0.107 OA 
BRANCH  31  34
HETATM   34  C   UNL     1     -11.065  14.491  68.748  1.00  0.00    -0.251 A  
HETATM   35  C   UNL     1     -11.963  12.558  67.607  1.00  0.00    -0.287 A  
HETATM   36  C   UNL     1     -11.206  13.106  68.654  1.00  0.00    -0.314 A  
HETATM   37  C   UNL     1     -12.544  13.372  66.628  1.00  0.00     0.020 A  
HETATM   38  N   UNL     1     -13.379  12.825  65.654  1.00  0.00     0.369 NA 
HETATM   39  C   UNL     1     -12.463  14.758  66.787  1.00  0.00     0.319 A  
HETATM   40  H1  UNL     1     -13.803  13.418  64.941  1.00  0.00     0.000 HD 
HETATM   41  C   UNL     1     -11.716  15.322  67.831  1.00  0.00    -0.233 A  
HETATM   42  H2  UNL     1     -14.125  12.311  66.125  1.00  0.00     0.000 HD 
ENDBRANCH  31  34
ENDBRANCH  26  31
ENDBRANCH  25  26
ENDBRANCH  22  25
ENDBRANCH  14  22
ENDBRANCH  12  14
ENDBRANCH   9  10
ENDBRANCH   8   9
TORSDOF 11
ENDMDL
MODEL      382
REMARK 921   NORMALIZED FREE ENERGY PREDICTED BY IDOCK:    1.81 KCAL/MOL
REMARK 922        TOTAL FREE ENERGY PREDICTED BY IDOCK:    0.36 KCAL/MOL
REMARK 923 INTER-LIGAND FREE ENERGY PREDICTED BY IDOCK:   -0.59 KCAL/MOL
REMARK 924 INTRA-LIGAND FREE ENERGY PREDICTED BY IDOCK:    0.95 KCAL/MOL
REMARK 927      BINDING AFFINITY PREDICTED BY RF-SCORE:    0.00 PKD
ROOT
HETATM    1  C   UNL     1     -12.557  14.035  72.276  1.00  0.00    -0.272 C  
HETATM    2  C   UNL     1     -12.125  12.967  71.288  1.00  0.00     0.179 C  
HETATM    3  C   UNL     1     -13.376  12.650  70.492  1.00  0.00     0.948 C  
HETATM    4  O   UNL     1     -14.410  13.538  70.913  1.00  0.00     1.013 OA 
HETATM    5  C   UNL     1     -13.814  14.593  71.654  1.00  0.00    -0.440 C  
HETATM    6  O   UNL     1     -13.395  15.660  70.805  1.00  0.00    -0.535 OA 
HETATM    7  C   UNL     1     -12.218  16.232  71.386  1.00  0.00    -0.080 C  
HETATM    8  C   UNL     1     -11.660  15.251  72.417  1.00  0.00    -0.417 C  
ENDROOT
BRANCH   8   9
HETATM    9  O   UNL     1     -10.294  14.957  72.079  1.00  0.00     1.177 OA 
BRANCH   9  10
HETATM   10  C   UNL     1      -9.937  15.168  70.788  1.00  0.00     0.793 C  
HETATM   11  O   UNL     1     -10.711  15.232  69.849  1.00  0.00    -0.259 OA 
HETATM   12  N   UNL     1      -8.575  15.199  70.717  1.00  0.00     1.050 N  
HETATM   13  H   UNL     1      -8.046  15.236  71.588  1.00  0.00     0.000 HD 
BRANCH  12  14
HETATM   14  C   UNL     1      -7.828  15.184  69.449  1.00  0.00    -0.208 C  
BRANCH  14  15
HETATM   15  C   UNL     1      -8.446  14.173  68.429  1.00  0.00    -0.170 C  
BRANCH  15  16
HETATM   16  C   UNL     1      -7.599  12.959  68.084  1.00  0.00    -0.135 A  
HETATM   17  C   UNL     1      -7.963  12.114  67.028  1.00  0.00    -0.138 A  
HETATM   18  C   UNL     1      -6.459  12.636  68.837  1.00  0.00    -0.091 A  
HETATM   19  C   UNL     1      -7.210  10.973  66.736  1.00  0.00    -0.139 A  
HETATM   20  C   UNL     1      -6.076  10.669  67.487  1.00  0.00    -0.052 A  
HETATM   21  C   UNL     1      -5.696  11.505  68.534  1.00  0.00    -0.042 A  
ENDBRANCH  15  16
ENDBRANCH  14  15
BRANCH  14  22
HETATM   22  C   UNL     1      -7.674  16.588  68.791  1.00  0.00    -0.226 C  
HETATM   23  O   UNL     1      -6.731  17.390  69.516  1.00  0.00    -0.222 OA 
HETATM   24  H   UNL     1      -6.636  18.246  69.114  1.00  0.00     0.000 HD 
BRANCH  22  25
HETATM   25  C   UNL     1      -8.957  17.388  68.485  1.00  0.00    -0.276 C  
BRANCH  25  26
HETATM   26  N   UNL     1      -8.875  18.639  67.616  1.00  0.00    -0.273 N  
BRANCH  26  27
HETATM   27  C   UNL     1      -7.546  18.697  66.862  1.00  0.00    -0.221 C  
HETATM   28  C   UNL     1      -6.956  20.072  66.483  1.00  0.00    -0.257 C  
HETATM   29  C   UNL     1      -6.610  20.954  67.680  1.00  0.00    -0.409 C  
HETATM   30  C   UNL     1      -5.661  19.859  65.675  1.00  0.00    -0.194 C  
ENDBRANCH  26  27
BRANCH  26  31
HETATM   31  S   UNL     1     -10.258  18.675  66.522  1.00  0.00    -0.431 S  
HETATM   32  O   UNL     1     -11.376  19.274  67.207  1.00  0.00    -0.181 OA 
HETATM   33  O   UNL     1      -9.766  19.203  65.263  1.00  0.00     0.182 OA 
BRANCH  31  34
HETATM   34  C   UNL     1     -10.665  16.950  66.254  1.00  0.00    -0.096 A  
HETATM   35  C   UNL     1     -11.941  14.982  66.836  1.00  0.00    -0.005 A  
HETATM   36  C   UNL     1     -11.676  16.350  67.003  1.00  0.00     0.896 A  
HETATM   37  C   UNL     1     -11.179  14.197  65.964  1.00  0.00    -0.319 A  
HETATM   38  N   UNL     1     -11.518  12.864  65.729  1.00  0.00    -0.322 NA 
HETATM   39  C   UNL     1     -10.228  14.832  65.162  1.00  0.00    -0.410 A  
HETATM   40  H1  UNL     1     -10.963  12.292  65.093  1.00  0.00     0.000 HD 
HETATM   41  C   UNL     1      -9.956  16.199  65.311  1.00  0.00    -0.007 A  
HETATM   42  H2  UNL     1     -12.490  12.831  65.420  1.00  0.00     0.000 HD 
ENDBRANCH  31  34
ENDBRANCH  26  31
ENDBRANCH  25  26
ENDBRANCH  22  25
ENDBRANCH  14  22
ENDBRANCH  12  14
ENDBRANCH   9  10
ENDBRANCH   8   9
TORSDOF 11
ENDMDL
MODEL      383
REMARK 921   NORMALIZED FREE ENERGY PREDICTED BY IDOCK:    2.26 KCAL/MOL
REMARK 922        TOTAL FREE ENERGY PREDICTED BY IDOCK:    1.09 KCAL/MOL
REMARK 923 INTER-LIGAND FREE ENERGY PREDICTED BY IDOCK:   -0.34 KCAL/MOL
REMARK 924 INTRA-LIGAND FREE ENERGY PREDICTED BY IDOCK:    1.43 KCAL/MOL
REMARK 927      BINDING AFFINITY PREDICTED BY RF-SCORE:    0.00 PKD
ROOT
HETATM    1  C   UNL     1     -10.947   4.130  63.659  1.00  0.00     0.171 C  
HETATM    2  C   UNL     1     -11.884   3.030  64.122  1.00  0.00     3.010 C  
HETATM    3  C   UNL     1     -11.607   1.868  63.187  1.00  0.00     0.174 C  
HETATM    4  O   UNL     1     -10.525   2.233  62.331  1.00  0.00    -0.101 OA 
HETATM    5  C   UNL     1      -9.893   3.381  62.880  1.00  0.00    -0.113 C  
HETATM    6  O   UNL     1      -8.883   3.025  63.822  1.00  0.00    -0.092 OA 
HETATM    7  C   UNL     1      -8.859   4.042  64.828  1.00  0.00    -0.130 C  
HETATM    8  C   UNL     1     -10.150   4.855  64.729  1.00  0.00     0.348 C  
ENDROOT
BRANCH   8   9
HETATM    9  O   UNL     1     -10.809   4.829  66.005  1.00  0.00    -0.287 OA 
BRANCH   9  10
HETATM   10  C   UNL     1     -10.561   5.875  66.831  1.00  0.00    -0.315 C  
HETATM   11  O   UNL     1     -11.235   6.888  66.899  1.00  0.00    -0.353 OA 
HETATM   12  N   UNL     1      -9.390   5.636  67.490  1.00  0.00    -0.109 N  
HETATM   13  H   UNL     1      -8.977   4.706  67.420  1.00  0.00     0.000 HD 
BRANCH  12  14
HETATM   14  C   UNL     1      -8.692   6.650  68.296  1.00  0.00    -0.118 C  
BRANCH  14  15
HETATM   15  C   UNL     1      -9.434   8.026  68.259  1.00  0.00    -0.147 C  
BRANCH  15  16
HETATM   16  C   UNL     1      -8.555   9.264  68.196  1.00  0.00    -0.125 A  
HETATM   17  C   UNL     1      -9.071  10.480  67.729  1.00  0.00    -0.140 A  
HETATM   18  C   UNL     1      -7.201   9.210  68.565  1.00  0.00    -0.073 A  
HETATM   19  C   UNL     1      -8.255  11.610  67.629  1.00  0.00    -0.141 A  
HETATM   20  C   UNL     1      -6.914  11.543  68.006  1.00  0.00    -0.077 A  
HETATM   21  C   UNL     1      -6.389  10.345  68.482  1.00  0.00    -0.051 A  
ENDBRANCH  15  16
ENDBRANCH  14  15
BRANCH  14  22
HETATM   22  C   UNL     1      -8.436   6.214  69.771  1.00  0.00    -0.128 C  
HETATM   23  O   UNL     1      -7.030   6.079  70.025  1.00  0.00    -0.064 OA 
HETATM   24  H   UNL     1      -6.874   5.814  70.924  1.00  0.00     0.000 HD 
BRANCH  22  25
HETATM   25  C   UNL     1      -9.214   4.997  70.311  1.00  0.00    -0.139 C  
BRANCH  25  26
HETATM   26  N   UNL     1      -9.016   4.560  71.759  1.00  0.00    -0.123 N  
BRANCH  26  27
HETATM   27  C   UNL     1      -7.533   4.364  72.076  1.00  0.00    -0.075 C  
HETATM   28  C   UNL     1      -6.808   3.112  71.538  1.00  0.00    -0.031 C  
HETATM   29  C   UNL     1      -6.758   3.026  70.014  1.00  0.00    -0.033 C  
HETATM   30  C   UNL     1      -5.355   3.112  72.049  1.00  0.00     0.000 C  
ENDBRANCH  26  27
BRANCH  26  31
HETATM   31  S   UNL     1      -9.770   5.742  72.829  1.00  0.00    -0.155 S  
HETATM   32  O   UNL     1     -10.895   6.333  72.148  1.00  0.00    -0.223 OA 
HETATM   33  O   UNL     1      -9.920   5.087  74.116  1.00  0.00    -0.160 OA 
BRANCH  31  34
HETATM   34  C   UNL     1      -8.535   7.025  73.024  1.00  0.00    -0.113 A  
HETATM   35  C   UNL     1      -7.377   8.968  72.171  1.00  0.00     0.211 A  
HETATM   36  C   UNL     1      -8.393   8.008  72.045  1.00  0.00    -0.179 A  
HETATM   37  C   UNL     1      -6.474   8.932  73.239  1.00  0.00     0.121 A  
HETATM   38  N   UNL     1      -5.536   9.951  73.410  1.00  0.00    -0.320 NA 
HETATM   39  C   UNL     1      -6.684   7.993  74.252  1.00  0.00    -0.140 A  
HETATM   40  H1  UNL     1      -4.877   9.925  74.188  1.00  0.00     0.000 HD 
HETATM   41  C   UNL     1      -7.698   7.031  74.145  1.00  0.00    -0.124 A  
HETATM   42  H2  UNL     1      -6.033  10.841  73.443  1.00  0.00     0.000 HD 
ENDBRANCH  31  34
ENDBRANCH  26  31
ENDBRANCH  25  26
ENDBRANCH  22  25
ENDBRANCH  14  22
ENDBRANCH  12  14
ENDBRANCH   9  10
ENDBRANCH   8   9
TORSDOF 11
ENDMDL
MODEL      384
REMARK 921   NORMALIZED FREE ENERGY PREDICTED BY IDOCK:    3.46 KCAL/MOL
REMARK 922        TOTAL FREE ENERGY PREDICTED BY IDOCK:    3.06 KCAL/MOL
REMARK 923 INTER-LIGAND FREE ENERGY PREDICTED BY IDOCK:   -7.18 KCAL/MOL
REMARK 924 INTRA-LIGAND FREE ENERGY PREDICTED BY IDOCK:   10.24 KCAL/MOL
REMARK 927      BINDING AFFINITY PREDICTED BY RF-SCORE:    0.00 PKD
ROOT
HETATM    1  C   UNL     1     -11.978   8.942  70.284  1.00  0.00     0.205 C  
HETATM    2  C   UNL     1     -12.914  10.107  70.552  1.00  0.00    -0.214 C  
HETATM    3  C   UNL     1     -13.064  10.142  72.060  1.00  0.00    -0.437 C  
HETATM    4  O   UNL     1     -12.203   9.151  72.617  1.00  0.00    -0.189 OA 
HETATM    5  C   UNL     1     -11.288   8.742  71.611  1.00  0.00    -0.320 C  
HETATM    6  O   UNL     1     -10.130   9.576  71.584  1.00  0.00    -0.153 OA 
HETATM    7  C   UNL     1      -9.694   9.658  70.223  1.00  0.00    -0.259 C  
HETATM    8  C   UNL     1     -10.832   9.184  69.319  1.00  0.00    -0.132 C  
ENDROOT
BRANCH   8   9
HETATM    9  O   UNL     1     -11.131  10.224  68.373  1.00  0.00    -0.253 OA 
BRANCH   9  10
HETATM   10  C   UNL     1     -10.989  11.497  68.816  1.00  0.00    -0.222 C  
HETATM   11  O   UNL     1     -10.262  11.843  69.731  1.00  0.00     0.589 OA 
HETATM   12  N   UNL     1     -11.860  12.292  68.130  1.00  0.00    -0.349 N  
HETATM   13  H   UNL     1     -12.339  11.898  67.320  1.00  0.00     0.000 HD 
BRANCH  12  14
HETATM   14  C   UNL     1     -12.145  13.688  68.497  1.00  0.00    -0.286 C  
BRANCH  14  15
HETATM   15  C   UNL     1     -11.296  14.145  69.727  1.00  0.00    -0.260 C  
BRANCH  15  16
HETATM   16  C   UNL     1     -12.072  14.560  70.967  1.00  0.00    -0.409 A  
HETATM   17  C   UNL     1     -13.472  14.498  70.984  1.00  0.00    -0.345 A  
HETATM   18  C   UNL     1     -11.411  15.050  72.104  1.00  0.00    -0.214 A  
HETATM   19  C   UNL     1     -14.190  14.919  72.106  1.00  0.00    -0.616 A  
HETATM   20  C   UNL     1     -13.519  15.397  73.231  1.00  0.00    -0.467 A  
HETATM   21  C   UNL     1     -12.128  15.455  73.232  1.00  0.00    -0.591 A  
ENDBRANCH  15  16
ENDBRANCH  14  15
BRANCH  14  22
HETATM   22  C   UNL     1     -11.977  14.697  67.320  1.00  0.00    -0.284 C  
HETATM   23  O   UNL     1     -11.010  14.219  66.374  1.00  0.00    -0.303 OA 
HETATM   24  H   UNL     1     -10.908  14.833  65.657  1.00  0.00     0.000 HD 
BRANCH  22  25
HETATM   25  C   UNL     1     -11.722  16.177  67.668  1.00  0.00     0.289 C  
BRANCH  25  26
HETATM   26  N   UNL     1     -10.659  16.958  66.903  1.00  0.00    -0.263 N  
BRANCH  26  27
HETATM   27  C   UNL     1      -9.670  17.623  67.860  1.00  0.00    -0.295 C  
HETATM   28  C   UNL     1      -8.510  18.461  67.282  1.00  0.00    -0.256 C  
HETATM   29  C   UNL     1      -8.960  19.685  66.488  1.00  0.00    -0.422 C  
HETATM   30  C   UNL     1      -7.623  18.959  68.439  1.00  0.00    -0.339 C  
ENDBRANCH  26  27
BRANCH  26  31
HETATM   31  S   UNL     1      -9.853  15.876  65.766  1.00  0.00    -0.319 S  
HETATM   32  O   UNL     1     -10.842  15.019  65.160  1.00  0.00    -0.351 OA 
HETATM   33  O   UNL     1      -8.977  16.710  64.963  1.00  0.00     0.963 OA 
BRANCH  31  34
HETATM   34  C   UNL     1      -8.812  14.840  66.791  1.00  0.00    -0.252 A  
HETATM   35  C   UNL     1      -7.288  14.586  68.651  1.00  0.00    -0.128 A  
HETATM   36  C   UNL     1      -8.157  15.387  67.894  1.00  0.00    -0.148 A  
HETATM   37  C   UNL     1      -7.031  13.257  68.293  1.00  0.00    -0.107 A  
HETATM   38  N   UNL     1      -6.248  12.441  69.111  1.00  0.00    -0.083 NA 
HETATM   39  C   UNL     1      -7.760  12.704  67.238  1.00  0.00    -0.140 A  
HETATM   40  H1  UNL     1      -6.061  11.473  68.850  1.00  0.00     0.000 HD 
HETATM   41  C   UNL     1      -8.637  13.489  66.476  1.00  0.00     0.184 A  
HETATM   42  H2  UNL     1      -6.652  12.446  70.048  1.00  0.00     0.000 HD 
ENDBRANCH  31  34
ENDBRANCH  26  31
ENDBRANCH  25  26
ENDBRANCH  22  25
ENDBRANCH  14  22
ENDBRANCH  12  14
ENDBRANCH   9  10
ENDBRANCH   8   9
TORSDOF 11
ENDMDL
MODEL      385
REMARK 921   NORMALIZED FREE ENERGY PREDICTED BY IDOCK:    3.76 KCAL/MOL
REMARK 922        TOTAL FREE ENERGY PREDICTED BY IDOCK:    3.56 KCAL/MOL
REMARK 923 INTER-LIGAND FREE ENERGY PREDICTED BY IDOCK:   -5.43 KCAL/MOL
REMARK 924 INTRA-LIGAND FREE ENERGY PREDICTED BY IDOCK:    8.99 KCAL/MOL
REMARK 927      BINDING AFFINITY PREDICTED BY RF-SCORE:    0.00 PKD
ROOT
HETATM    1  C   UNL     1     -12.987  13.576  65.641  1.00  0.00    -0.231 C  
HETATM    2  C   UNL     1     -12.660  12.098  65.536  1.00  0.00     0.570 C  
HETATM    3  C   UNL     1     -11.991  11.946  64.183  1.00  0.00    -0.307 C  
HETATM    4  O   UNL     1     -11.847  13.245  63.609  1.00  0.00    -0.473 OA 
HETATM    5  C   UNL     1     -12.060  14.208  64.631  1.00  0.00    -0.452 C  
HETATM    6  O   UNL     1     -10.853  14.505  65.332  1.00  0.00    -0.315 OA 
HETATM    7  C   UNL     1     -11.207  14.787  66.690  1.00  0.00    -0.346 C  
HETATM    8  C   UNL     1     -12.625  14.273  66.940  1.00  0.00     0.157 C  
ENDROOT
BRANCH   8   9
HETATM    9  O   UNL     1     -12.594  13.363  68.052  1.00  0.00     0.170 OA 
BRANCH   9  10
HETATM   10  C   UNL     1     -11.367  13.024  68.516  1.00  0.00    -0.288 C  
HETATM   11  O   UNL     1     -10.347  13.666  68.334  1.00  0.00    -0.238 OA 
HETATM   12  N   UNL     1     -11.459  11.809  69.132  1.00  0.00    -0.271 N  
HETATM   13  H   UNL     1     -12.388  11.426  69.307  1.00  0.00     0.000 HD 
BRANCH  12  14
HETATM   14  C   UNL     1     -10.289  11.025  69.557  1.00  0.00    -0.040 C  
BRANCH  14  15
HETATM   15  C   UNL     1     -10.593   9.491  69.553  1.00  0.00    -0.238 C  
BRANCH  15  16
HETATM   16  C   UNL     1     -11.156   8.912  70.841  1.00  0.00    -0.328 A  
HETATM   17  C   UNL     1     -10.305   8.342  71.797  1.00  0.00    -0.321 A  
HETATM   18  C   UNL     1     -12.538   8.900  71.084  1.00  0.00    -0.228 A  
HETATM   19  C   UNL     1     -10.824   7.770  72.962  1.00  0.00    -0.451 A  
HETATM   20  C   UNL     1     -12.198   7.772  73.193  1.00  0.00     0.685 A  
HETATM   21  C   UNL     1     -13.056   8.344  72.258  1.00  0.00    -0.316 A  
ENDBRANCH  15  16
ENDBRANCH  14  15
BRANCH  14  22
HETATM   22  C   UNL     1      -8.998  11.321  68.734  1.00  0.00    -0.111 C  
HETATM   23  O   UNL     1      -7.851  11.383  69.592  1.00  0.00    -0.339 OA 
HETATM   24  H   UNL     1      -7.064  11.563  69.091  1.00  0.00     0.000 HD 
BRANCH  22  25
HETATM   25  C   UNL     1      -9.022  12.516  67.759  1.00  0.00    -0.184 C  
BRANCH  25  26
HETATM   26  N   UNL     1      -7.868  12.710  66.780  1.00  0.00     0.070 N  
BRANCH  26  27
HETATM   27  C   UNL     1      -7.096  13.993  67.090  1.00  0.00     0.314 C  
HETATM   28  C   UNL     1      -6.987  14.471  68.554  1.00  0.00    -0.105 C  
HETATM   29  C   UNL     1      -6.250  13.501  69.473  1.00  0.00    -0.115 C  
HETATM   30  C   UNL     1      -6.229  15.812  68.591  1.00  0.00    -0.104 C  
ENDBRANCH  26  27
BRANCH  26  31
HETATM   31  S   UNL     1      -6.828  11.287  66.822  1.00  0.00    -0.128 S  
HETATM   32  O   UNL     1      -5.489  11.679  66.457  1.00  0.00    -0.194 OA 
HETATM   33  O   UNL     1      -7.106  10.617  68.079  1.00  0.00    -0.082 OA 
BRANCH  31  34
HETATM   34  C   UNL     1      -7.448  10.238  65.508  1.00  0.00    -0.149 A  
HETATM   35  C   UNL     1      -7.316   8.201  64.212  1.00  0.00    -0.094 A  
HETATM   36  C   UNL     1      -6.871   8.987  65.286  1.00  0.00    -0.072 A  
HETATM   37  C   UNL     1      -8.298   8.668  63.330  1.00  0.00    -0.129 A  
HETATM   38  N   UNL     1      -8.806   7.838  62.330  1.00  0.00    -0.377 NA 
HETATM   39  C   UNL     1      -8.922   9.884  63.619  1.00  0.00    -0.278 A  
HETATM   40  H1  UNL     1      -9.521   8.178  61.688  1.00  0.00     0.000 HD 
HETATM   41  C   UNL     1      -8.494  10.678  64.692  1.00  0.00    -0.088 A  
HETATM   42  H2  UNL     1      -9.150   6.983  62.769  1.00  0.00     0.000 HD 
ENDBRANCH  31  34
ENDBRANCH  26  31
ENDBRANCH  25  26
ENDBRANCH  22  25
ENDBRANCH  14  22
ENDBRANCH  12  14
ENDBRANCH   9  10
ENDBRANCH   8   9
TORSDOF 11
ENDMDL
MODEL      386
REMARK 921   NORMALIZED FREE ENERGY PREDICTED BY IDOCK:    4.36 KCAL/MOL
REMARK 922        TOTAL FREE ENERGY PREDICTED BY IDOCK:    4.55 KCAL/MOL
REMARK 923 INTER-LIGAND FREE ENERGY PREDICTED BY IDOCK:   -4.99 KCAL/MOL
REMARK 924 INTRA-LIGAND FREE ENERGY PREDICTED BY IDOCK:    9.54 KCAL/MOL
REMARK 927      BINDING AFFINITY PREDICTED BY RF-SCORE:    0.00 PKD
ROOT
HETATM    1  C   UNL     1     -12.987  13.576  65.641  1.00  0.00    -0.231 C  
HETATM    2  C   UNL     1     -12.660  12.098  65.536  1.00  0.00     0.570 C  
HETATM    3  C   UNL     1     -11.991  11.946  64.183  1.00  0.00    -0.307 C  
HETATM    4  O   UNL     1     -11.847  13.245  63.609  1.00  0.00    -0.473 OA 
HETATM    5  C   UNL     1     -12.060  14.208  64.631  1.00  0.00    -0.452 C  
HETATM    6  O   UNL     1     -10.853  14.505  65.332  1.00  0.00    -0.315 OA 
HETATM    7  C   UNL     1     -11.207  14.787  66.690  1.00  0.00    -0.346 C  
HETATM    8  C   UNL     1     -12.625  14.273  66.940  1.00  0.00     0.157 C  
ENDROOT
BRANCH   8   9
HETATM    9  O   UNL     1     -12.594  13.363  68.052  1.00  0.00     0.170 OA 
BRANCH   9  10
HETATM   10  C   UNL     1     -11.367  13.024  68.516  1.00  0.00    -0.288 C  
HETATM   11  O   UNL     1     -10.347  13.666  68.334  1.00  0.00    -0.238 OA 
HETATM   12  N   UNL     1     -11.459  11.809  69.132  1.00  0.00    -0.271 N  
HETATM   13  H   UNL     1     -12.388  11.426  69.307  1.00  0.00     0.000 HD 
BRANCH  12  14
HETATM   14  C   UNL     1     -10.289  11.025  69.557  1.00  0.00    -0.040 C  
BRANCH  14  15
HETATM   15  C   UNL     1     -10.593   9.491  69.553  1.00  0.00    -0.238 C  
BRANCH  15  16
HETATM   16  C   UNL     1      -9.554   8.599  68.894  1.00  0.00    -0.159 A  
HETATM   17  C   UNL     1      -9.685   8.228  67.549  1.00  0.00    -0.212 A  
HETATM   18  C   UNL     1      -8.464   8.097  69.622  1.00  0.00    -0.126 A  
HETATM   19  C   UNL     1      -8.755   7.373  66.951  1.00  0.00    -0.126 A  
HETATM   20  C   UNL     1      -7.674   6.888  67.686  1.00  0.00    -0.111 A  
HETATM   21  C   UNL     1      -7.524   7.256  69.020  1.00  0.00    -0.097 A  
ENDBRANCH  15  16
ENDBRANCH  14  15
BRANCH  14  22
HETATM   22  C   UNL     1      -8.998  11.321  68.734  1.00  0.00    -0.111 C  
HETATM   23  O   UNL     1      -7.851  11.383  69.592  1.00  0.00    -0.339 OA 
HETATM   24  H   UNL     1      -7.064  11.563  69.091  1.00  0.00     0.000 HD 
BRANCH  22  25
HETATM   25  C   UNL     1      -9.022  12.516  67.759  1.00  0.00    -0.184 C  
BRANCH  25  26
HETATM   26  N   UNL     1      -7.868  12.710  66.780  1.00  0.00     0.070 N  
BRANCH  26  27
HETATM   27  C   UNL     1      -7.096  13.993  67.090  1.00  0.00     0.314 C  
HETATM   28  C   UNL     1      -6.987  14.471  68.554  1.00  0.00    -0.105 C  
HETATM   29  C   UNL     1      -6.250  13.501  69.473  1.00  0.00    -0.115 C  
HETATM   30  C   UNL     1      -6.229  15.812  68.591  1.00  0.00    -0.104 C  
ENDBRANCH  26  27
BRANCH  26  31
HETATM   31  S   UNL     1      -6.828  11.287  66.822  1.00  0.00    -0.128 S  
HETATM   32  O   UNL     1      -5.489  11.679  66.457  1.00  0.00    -0.194 OA 
HETATM   33  O   UNL     1      -7.106  10.617  68.079  1.00  0.00    -0.082 OA 
BRANCH  31  34
HETATM   34  C   UNL     1      -7.448  10.238  65.508  1.00  0.00    -0.149 A  
HETATM   35  C   UNL     1      -7.050   8.836  63.579  1.00  0.00    -0.089 A  
HETATM   36  C   UNL     1      -6.555   9.600  64.648  1.00  0.00    -0.100 A  
HETATM   37  C   UNL     1      -8.425   8.739  63.334  1.00  0.00    -0.111 A  
HETATM   38  N   UNL     1      -8.909   7.894  62.334  1.00  0.00    -0.390 NA 
HETATM   39  C   UNL     1      -9.304   9.314  64.255  1.00  0.00     0.160 A  
HETATM   40  H1  UNL     1      -9.910   7.823  62.155  1.00  0.00     0.000 HD 
HETATM   41  C   UNL     1      -8.826  10.074  65.331  1.00  0.00    -0.199 A  
HETATM   42  H2  UNL     1      -8.548   6.955  62.507  1.00  0.00     0.000 HD 
ENDBRANCH  31  34
ENDBRANCH  26  31
ENDBRANCH  25  26
ENDBRANCH  22  25
ENDBRANCH  14  22
ENDBRANCH  12  14
ENDBRANCH   9  10
ENDBRANCH   8   9
TORSDOF 11
ENDMDL
MODEL      387
REMARK 921   NORMALIZED FREE ENERGY PREDICTED BY IDOCK:    5.02 KCAL/MOL
REMARK 922        TOTAL FREE ENERGY PREDICTED BY IDOCK:    5.63 KCAL/MOL
REMARK 923 INTER-LIGAND FREE ENERGY PREDICTED BY IDOCK:    0.27 KCAL/MOL
REMARK 924 INTRA-LIGAND FREE ENERGY PREDICTED BY IDOCK:    5.36 KCAL/MOL
REMARK 927      BINDING AFFINITY PREDICTED BY RF-SCORE:    0.00 PKD
ROOT
HETATM    1  C   UNL     1     -11.087  13.457  65.942  1.00  0.00    -0.293 C  
HETATM    2  C   UNL     1     -12.489  12.903  66.123  1.00  0.00    -0.089 C  
HETATM    3  C   UNL     1     -13.304  13.548  65.019  1.00  0.00     0.534 C  
HETATM    4  O   UNL     1     -12.422  14.321  64.207  1.00  0.00    -0.657 OA 
HETATM    5  C   UNL     1     -11.089  13.937  64.511  1.00  0.00    -0.366 C  
HETATM    6  O   UNL     1     -10.667  12.827  63.721  1.00  0.00    -0.413 OA 
HETATM    7  C   UNL     1      -9.773  12.047  64.521  1.00  0.00    -0.076 C  
HETATM    8  C   UNL     1      -9.941  12.463  65.983  1.00  0.00    -0.255 C  
ENDROOT
BRANCH   8   9
HETATM    9  O   UNL     1     -10.263  11.297  66.758  1.00  0.00    -0.212 OA 
BRANCH   9  10
HETATM   10  C   UNL     1      -9.802  11.277  68.033  1.00  0.00    -0.178 C  
HETATM   11  O   UNL     1     -10.426  11.654  69.010  1.00  0.00    -0.201 OA 
HETATM   12  N   UNL     1      -8.503  10.858  68.015  1.00  0.00    -0.126 N  
HETATM   13  H   UNL     1      -8.130  10.476  67.146  1.00  0.00     0.000 HD 
BRANCH  12  14
HETATM   14  C   UNL     1      -7.613  10.928  69.184  1.00  0.00    -0.133 C  
BRANCH  14  15
HETATM   15  C   UNL     1      -8.293  10.339  70.462  1.00  0.00     0.844 C  
BRANCH  15  16
HETATM   16  C   UNL     1      -7.430   9.440  71.334  1.00  0.00     0.202 A  
HETATM   17  C   UNL     1      -7.936   8.232  71.831  1.00  0.00    -0.165 A  
HETATM   18  C   UNL     1      -6.126   9.817  71.690  1.00  0.00     0.153 A  
HETATM   19  C   UNL     1      -7.160   7.425  72.667  1.00  0.00    -0.069 A  
HETATM   20  C   UNL     1      -5.864   7.808  73.007  1.00  0.00    -0.045 A  
HETATM   21  C   UNL     1      -5.343   9.001  72.512  1.00  0.00    -0.071 A  
ENDBRANCH  15  16
ENDBRANCH  14  15
BRANCH  14  22
HETATM   22  C   UNL     1      -6.221  10.261  68.958  1.00  0.00    -0.040 C  
HETATM   23  O   UNL     1      -5.162  11.182  69.253  1.00  0.00    -0.041 OA 
HETATM   24  H   UNL     1      -4.314  10.777  69.115  1.00  0.00     0.000 HD 
BRANCH  22  25
HETATM   25  C   UNL     1      -5.972   9.547  67.614  1.00  0.00    -0.052 C  
BRANCH  25  26
HETATM   26  N   UNL     1      -5.955   8.022  67.565  1.00  0.00    -0.045 N  
BRANCH  26  27
HETATM   27  C   UNL     1      -6.992   7.430  68.519  1.00  0.00    -0.079 C  
HETATM   28  C   UNL     1      -7.319   5.924  68.435  1.00  0.00    -0.084 C  
HETATM   29  C   UNL     1      -6.135   5.010  68.745  1.00  0.00    -0.030 C  
HETATM   30  C   UNL     1      -8.435   5.593  69.443  1.00  0.00    -0.106 C  
ENDBRANCH  26  27
BRANCH  26  31
HETATM   31  S   UNL     1      -6.208   7.494  65.902  1.00  0.00    -0.042 S  
HETATM   32  O   UNL     1      -5.132   7.997  65.085  1.00  0.00    -0.028 OA 
HETATM   33  O   UNL     1      -6.513   6.076  65.968  1.00  0.00    -0.043 OA 
BRANCH  31  34
HETATM   34  C   UNL     1      -7.702   8.338  65.384  1.00  0.00    -0.103 A  
HETATM   35  C   UNL     1     -10.076   8.731  65.617  1.00  0.00     0.501 A  
HETATM   36  C   UNL     1      -8.896   8.122  66.071  1.00  0.00    -0.206 A  
HETATM   37  C   UNL     1     -10.086   9.518  64.460  1.00  0.00     1.003 A  
HETATM   38  N   UNL     1     -11.240  10.203  64.077  1.00  0.00     1.654 NA 
HETATM   39  C   UNL     1      -8.867   9.791  63.835  1.00  0.00    -0.259 A  
HETATM   40  H1  UNL     1     -11.247  10.776  63.233  1.00  0.00     0.000 HD 
HETATM   41  C   UNL     1      -7.678   9.196  64.280  1.00  0.00    -0.120 A  
HETATM   42  H2  UNL     1     -11.541  10.783  64.860  1.00  0.00     0.000 HD 
ENDBRANCH  31  34
ENDBRANCH  26  31
ENDBRANCH  25  26
ENDBRANCH  22  25
ENDBRANCH  14  22
ENDBRANCH  12  14
ENDBRANCH   9  10
ENDBRANCH   8   9
TORSDOF 11
ENDMDL
MODEL      388
REMARK 921   NORMALIZED FREE ENERGY PREDICTED BY IDOCK:    5.61 KCAL/MOL
REMARK 922        TOTAL FREE ENERGY PREDICTED BY IDOCK:    6.60 KCAL/MOL
REMARK 923 INTER-LIGAND FREE ENERGY PREDICTED BY IDOCK:    5.46 KCAL/MOL
REMARK 924 INTRA-LIGAND FREE ENERGY PREDICTED BY IDOCK:    1.15 KCAL/MOL
REMARK 927      BINDING AFFINITY PREDICTED BY RF-SCORE:    0.00 PKD
ROOT
HETATM    1  C   UNL     1      -8.883  17.251  67.634  1.00  0.00    -0.220 C  
HETATM    2  C   UNL     1      -9.198  16.598  68.967  1.00  0.00    -0.223 C  
HETATM    3  C   UNL     1      -9.505  17.754  69.900  1.00  0.00     1.235 C  
HETATM    4  O   UNL     1      -9.476  18.961  69.139  1.00  0.00    -0.266 OA 
HETATM    5  C   UNL     1      -9.512  18.617  67.762  1.00  0.00    -0.300 C  
HETATM    6  O   UNL     1     -10.852  18.481  67.289  1.00  0.00    -0.408 OA 
HETATM    7  C   UNL     1     -10.849  17.463  66.284  1.00  0.00     0.057 C  
HETATM    8  C   UNL     1      -9.550  16.666  66.403  1.00  0.00    -0.285 C  
ENDROOT
BRANCH   8   9
HETATM    9  O   UNL     1      -9.877  15.277  66.573  1.00  0.00    -0.244 OA 
BRANCH   9  10
HETATM   10  C   UNL     1      -8.991  14.385  66.066  1.00  0.00     0.251 C  
HETATM   11  O   UNL     1      -7.858  14.653  65.703  1.00  0.00     2.733 OA 
HETATM   12  N   UNL     1      -9.614  13.177  65.949  1.00  0.00    -0.459 N  
HETATM   13  H   UNL     1     -10.529  13.061  66.384  1.00  0.00     0.000 HD 
BRANCH  12  14
HETATM   14  C   UNL     1      -9.034  12.032  65.229  1.00  0.00     0.403 C  
BRANCH  14  15
HETATM   15  C   UNL     1      -7.641  11.629  65.814  1.00  0.00     0.669 C  
BRANCH  15  16
HETATM   16  C   UNL     1      -7.422  11.913  67.291  1.00  0.00    -0.151 A  
HETATM   17  C   UNL     1      -7.529  13.218  67.789  1.00  0.00    -0.154 A  
HETATM   18  C   UNL     1      -7.071  10.885  68.181  1.00  0.00    -0.077 A  
HETATM   19  C   UNL     1      -7.286  13.489  69.138  1.00  0.00     0.074 A  
HETATM   20  C   UNL     1      -6.946  12.457  70.011  1.00  0.00     0.706 A  
HETATM   21  C   UNL     1      -6.846  11.153  69.534  1.00  0.00    -0.127 A  
ENDBRANCH  15  16
ENDBRANCH  14  15
BRANCH  14  22
HETATM   22  C   UNL     1      -9.972  10.788  65.163  1.00  0.00    -0.291 C  
HETATM   23  O   UNL     1     -10.447  10.579  63.826  1.00  0.00    -0.454 OA 
HETATM   24  H   UNL     1     -11.018   9.821  63.786  1.00  0.00     0.000 HD 
BRANCH  22  25
HETATM   25  C   UNL     1     -11.128  10.700  66.179  1.00  0.00     0.203 C  
BRANCH  25  26
HETATM   26  N   UNL     1     -10.845  10.227  67.602  1.00  0.00    -0.292 N  
BRANCH  26  27
HETATM   27  C   UNL     1     -11.782  10.905  68.602  1.00  0.00    -0.263 C  
HETATM   28  C   UNL     1     -11.738  10.476  70.084  1.00  0.00    -0.410 C  
HETATM   29  C   UNL     1     -10.399  10.739  70.770  1.00  0.00     1.457 C  
HETATM   30  C   UNL     1     -12.817  11.249  70.865  1.00  0.00    -0.343 C  
ENDBRANCH  26  27
BRANCH  26  31
HETATM   31  S   UNL     1     -10.971   8.470  67.663  1.00  0.00     0.362 S  
HETATM   32  O   UNL     1     -11.744   8.099  68.822  1.00  0.00     1.092 OA 
HETATM   33  O   UNL     1     -11.352   8.043  66.329  1.00  0.00     1.824 OA 
BRANCH  31  34
HETATM   34  C   UNL     1      -9.294   7.907  67.944  1.00  0.00    -0.141 A  
HETATM   35  C   UNL     1      -7.411   7.582  69.426  1.00  0.00    -0.087 A  
HETATM   36  C   UNL     1      -8.749   7.959  69.227  1.00  0.00    -0.138 A  
HETATM   37  C   UNL     1      -6.599   7.198  68.353  1.00  0.00    -0.048 A  
HETATM   38  N   UNL     1      -5.305   6.727  68.576  1.00  0.00    -0.015 NA 
HETATM   39  C   UNL     1      -7.185   7.072  67.091  1.00  0.00    -0.089 A  
HETATM   40  H1  UNL     1      -4.713   6.447  67.794  1.00  0.00     0.000 HD 
HETATM   41  C   UNL     1      -8.521   7.437  66.877  1.00  0.00    -0.123 A  
HETATM   42  H2  UNL     1      -5.357   5.947  69.232  1.00  0.00     0.000 HD 
ENDBRANCH  31  34
ENDBRANCH  26  31
ENDBRANCH  25  26
ENDBRANCH  22  25
ENDBRANCH  14  22
ENDBRANCH  12  14
ENDBRANCH   9  10
ENDBRANCH   8   9
TORSDOF 11
ENDMDL
MODEL      389
REMARK 921   NORMALIZED FREE ENERGY PREDICTED BY IDOCK:    8.62 KCAL/MOL
REMARK 922        TOTAL FREE ENERGY PREDICTED BY IDOCK:   11.54 KCAL/MOL
REMARK 923 INTER-LIGAND FREE ENERGY PREDICTED BY IDOCK:    4.65 KCAL/MOL
REMARK 924 INTRA-LIGAND FREE ENERGY PREDICTED BY IDOCK:    6.89 KCAL/MOL
REMARK 927      BINDING AFFINITY PREDICTED BY RF-SCORE:    0.00 PKD
ROOT
HETATM    1  C   UNL     1     -11.105  13.452  65.941  1.00  0.00    -0.293 C  
HETATM    2  C   UNL     1     -12.518  12.937  66.151  1.00  0.00    -0.089 C  
HETATM    3  C   UNL     1     -13.323  13.548  65.019  1.00  0.00     0.534 C  
HETATM    4  O   UNL     1     -12.427  14.263  64.170  1.00  0.00    -0.675 OA 
HETATM    5  C   UNL     1     -11.101  13.866  64.489  1.00  0.00    -0.366 C  
HETATM    6  O   UNL     1     -10.706  12.711  63.750  1.00  0.00    -0.416 OA 
HETATM    7  C   UNL     1      -9.825  11.950  64.584  1.00  0.00    -0.183 C  
HETATM    8  C   UNL     1      -9.980  12.437  66.025  1.00  0.00    -0.255 C  
ENDROOT
BRANCH   8   9
HETATM    9  O   UNL     1     -10.324  11.315  66.854  1.00  0.00    -0.217 OA 
BRANCH   9  10
HETATM   10  C   UNL     1      -9.868  11.351  68.131  1.00  0.00    -0.191 C  
HETATM   11  O   UNL     1     -10.488  11.792  69.083  1.00  0.00    -0.147 OA 
HETATM   12  N   UNL     1      -8.581  10.900  68.142  1.00  0.00    -0.127 N  
HETATM   13  H   UNL     1      -8.214  10.464  67.296  1.00  0.00     0.000 HD 
BRANCH  12  14
HETATM   14  C   UNL     1      -7.694  11.008  69.311  1.00  0.00    -0.068 C  
BRANCH  14  15
HETATM   15  C   UNL     1      -8.403  10.527  70.618  1.00  0.00     1.784 C  
BRANCH  15  16
HETATM   16  C   UNL     1      -9.652   9.681  70.436  1.00  0.00    -0.292 A  
HETATM   17  C   UNL     1     -10.917  10.204  70.736  1.00  0.00    -0.313 A  
HETATM   18  C   UNL     1      -9.566   8.348  70.002  1.00  0.00    -0.168 A  
HETATM   19  C   UNL     1     -12.063   9.415  70.611  1.00  0.00    -0.191 A  
HETATM   20  C   UNL     1     -11.963   8.096  70.172  1.00  0.00     0.424 A  
HETATM   21  C   UNL     1     -10.714   7.565  69.860  1.00  0.00    -0.254 A  
ENDBRANCH  15  16
ENDBRANCH  14  15
BRANCH  14  22
HETATM   22  C   UNL     1      -6.328  10.276  69.137  1.00  0.00    -0.045 C  
HETATM   23  O   UNL     1      -5.235  11.180  69.349  1.00  0.00    -0.044 OA 
HETATM   24  H   UNL     1      -4.403  10.734  69.244  1.00  0.00     0.000 HD 
BRANCH  22  25
HETATM   25  C   UNL     1      -6.113   9.443  67.857  1.00  0.00    -0.053 C  
BRANCH  25  26
HETATM   26  N   UNL     1      -6.120   7.920  67.941  1.00  0.00    -0.045 N  
BRANCH  26  27
HETATM   27  C   UNL     1      -7.137   7.431  68.973  1.00  0.00    -0.079 C  
HETATM   28  C   UNL     1      -7.493   5.930  69.026  1.00  0.00    -0.085 C  
HETATM   29  C   UNL     1      -6.317   5.022  69.377  1.00  0.00    -0.034 C  
HETATM   30  C   UNL     1      -8.583   5.709  70.093  1.00  0.00    -0.127 C  
ENDBRANCH  26  27
BRANCH  26  31
HETATM   31  S   UNL     1      -6.432   7.253  66.339  1.00  0.00    -0.049 S  
HETATM   32  O   UNL     1      -5.400   7.705  65.439  1.00  0.00    -0.028 OA 
HETATM   33  O   UNL     1      -6.706   5.841  66.532  1.00  0.00    -0.054 OA 
BRANCH  31  34
HETATM   34  C   UNL     1      -7.962   8.027  65.819  1.00  0.00    -0.111 A  
HETATM   35  C   UNL     1     -10.332   8.399  66.120  1.00  0.00     0.370 A  
HETATM   36  C   UNL     1      -9.123   7.848  66.572  1.00  0.00    -0.209 A  
HETATM   37  C   UNL     1     -10.405   9.088  64.904  1.00  0.00     2.498 A  
HETATM   38  N   UNL     1     -11.588   9.720  64.517  1.00  0.00     4.359 NA 
HETATM   39  C   UNL     1      -9.218   9.329  64.208  1.00  0.00     0.024 A  
HETATM   40  H1  UNL     1     -11.641  10.222  63.631  1.00  0.00     0.000 HD 
HETATM   41  C   UNL     1      -8.001   8.792  64.648  1.00  0.00    -0.135 A  
HETATM   42  H2  UNL     1     -11.868  10.357  65.263  1.00  0.00     0.000 HD 
ENDBRANCH  31  34
ENDBRANCH  26  31
ENDBRANCH  25  26
ENDBRANCH  22  25
ENDBRANCH  14  22
ENDBRANCH  12  14
ENDBRANCH   9  10
ENDBRANCH   8   9
TORSDOF 11
ENDMDL
MODEL      390
REMARK 921   NORMALIZED FREE ENERGY PREDICTED BY IDOCK:   20.12 KCAL/MOL
REMARK 922        TOTAL FREE ENERGY PREDICTED BY IDOCK:   30.44 KCAL/MOL
REMARK 923 INTER-LIGAND FREE ENERGY PREDICTED BY IDOCK:   28.83 KCAL/MOL
REMARK 924 INTRA-LIGAND FREE ENERGY PREDICTED BY IDOCK:    1.61 KCAL/MOL
REMARK 927      BINDING AFFINITY PREDICTED BY RF-SCORE:    0.00 PKD
ROOT
HETATM    1  C   UNL     1     -11.784   4.450  63.428  1.00  0.00     1.848 C  
HETATM    2  C   UNL     1     -13.239   4.094  63.668  1.00  0.00    11.597 C  
HETATM    3  C   UNL     1     -13.456   2.811  62.889  1.00  0.00    12.325 C  
HETATM    4  O   UNL     1     -12.203   2.407  62.338  1.00  0.00     0.396 OA 
HETATM    5  C   UNL     1     -11.176   3.141  62.989  1.00  0.00     0.130 C  
HETATM    6  O   UNL     1     -10.738   2.489  64.180  1.00  0.00     0.054 OA 
HETATM    7  C   UNL     1     -10.369   3.508  65.115  1.00  0.00     0.201 C  
HETATM    8  C   UNL     1     -10.958   4.837  64.642  1.00  0.00     0.526 C  
ENDROOT
BRANCH   8   9
HETATM    9  O   UNL     1     -11.768   5.382  65.696  1.00  0.00     0.920 OA 
BRANCH   9  10
HETATM   10  C   UNL     1     -11.229   6.410  66.397  1.00  0.00     0.604 C  
HETATM   11  O   UNL     1     -11.582   7.574  66.317  1.00  0.00     2.280 OA 
HETATM   12  N   UNL     1     -10.177   5.931  67.124  1.00  0.00    -0.177 N  
HETATM   13  H   UNL     1     -10.050   4.921  67.183  1.00  0.00     0.000 HD 
BRANCH  12  14
HETATM   14  C   UNL     1      -9.218   6.796  67.828  1.00  0.00    -0.111 C  
BRANCH  14  15
HETATM   15  C   UNL     1      -9.676   8.291  67.820  1.00  0.00    -0.194 C  
BRANCH  15  16
HETATM   16  C   UNL     1      -8.602   9.325  67.521  1.00  0.00    -0.116 A  
HETATM   17  C   UNL     1      -7.249   8.964  67.519  1.00  0.00    -0.080 A  
HETATM   18  C   UNL     1      -8.938  10.666  67.280  1.00  0.00    -0.141 A  
HETATM   19  C   UNL     1      -6.257   9.921  67.287  1.00  0.00    -0.066 A  
HETATM   20  C   UNL     1      -6.606  11.248  67.042  1.00  0.00    -0.116 A  
HETATM   21  C   UNL     1      -7.947  11.620  67.031  1.00  0.00    -0.164 A  
ENDBRANCH  15  16
ENDBRANCH  14  15
BRANCH  14  22
HETATM   22  C   UNL     1      -8.903   6.336  69.284  1.00  0.00    -0.123 C  
HETATM   23  O   UNL     1      -9.266   4.961  69.472  1.00  0.00    -0.105 OA 
HETATM   24  H   UNL     1      -9.074   4.680  70.360  1.00  0.00     0.000 HD 
BRANCH  22  25
HETATM   25  C   UNL     1      -9.423   7.207  70.445  1.00  0.00    -0.162 C  
BRANCH  25  26
HETATM   26  N   UNL     1      -9.176   6.767  71.885  1.00  0.00    -0.143 N  
BRANCH  26  27
HETATM   27  C   UNL     1      -9.809   5.402  72.158  1.00  0.00    -0.169 C  
HETATM   28  C   UNL     1     -11.274   5.335  72.638  1.00  0.00    -0.311 C  
HETATM   29  C   UNL     1     -12.285   5.890  71.637  1.00  0.00     0.324 C  
HETATM   30  C   UNL     1     -11.649   3.865  72.907  1.00  0.00     0.232 C  
ENDBRANCH  26  27
BRANCH  26  31
HETATM   31  S   UNL     1      -7.441   6.766  72.200  1.00  0.00    -0.093 S  
HETATM   32  O   UNL     1      -6.837   7.860  71.481  1.00  0.00    -0.048 OA 
HETATM   33  O   UNL     1      -7.289   6.628  73.637  1.00  0.00    -0.084 OA 
BRANCH  31  34
HETATM   34  C   UNL     1      -6.848   5.250  71.453  1.00  0.00    -0.052 A  
HETATM   35  C   UNL     1      -5.946   4.062  69.550  1.00  0.00    -0.023 A  
HETATM   36  C   UNL     1      -6.344   5.266  70.153  1.00  0.00    -0.030 A  
HETATM   37  C   UNL     1      -6.088   2.838  70.213  1.00  0.00    -0.023 A  
HETATM   38  N   UNL     1      -5.594   1.663  69.645  1.00  0.00    -0.016 NA 
HETATM   39  C   UNL     1      -6.515   2.851  71.543  1.00  0.00    -0.019 A  
HETATM   40  H1  UNL     1      -5.697   0.770  70.129  1.00  0.00     0.000 HD 
HETATM   41  C   UNL     1      -6.909   4.045  72.162  1.00  0.00    -0.041 A  
HETATM   42  H2  UNL     1      -4.605   1.800  69.437  1.00  0.00     0.000 HD 
ENDBRANCH  31  34
ENDBRANCH  26  31
ENDBRANCH  25  26
ENDBRANCH  22  25
ENDBRANCH  14  22
ENDBRANCH  12  14
ENDBRANCH   9  10
ENDBRANCH   8   9
TORSDOF 11
ENDMDL
