MODEL        1
REMARK 921   NORMALIZED FREE ENERGY PREDICTED BY IDOCK:   -7.36 KCAL/MOL
REMARK 922        TOTAL FREE ENERGY PREDICTED BY IDOCK:  -10.18 KCAL/MOL
REMARK 923 INTER-LIGAND FREE ENERGY PREDICTED BY IDOCK:   -9.94 KCAL/MOL
REMARK 924 INTRA-LIGAND FREE ENERGY PREDICTED BY IDOCK:   -0.24 KCAL/MOL
REMARK 927      BINDING AFFINITY PREDICTED BY RF-SCORE:    0.00 PKD
ROOT
HETATM    1  C   UNL     1      -9.798   9.997  66.517  1.00  0.00    -0.210 C  
HETATM    2  O   UNL     1     -11.159  10.189  66.921  1.00  0.00    -0.116 OA 
ENDROOT
BRANCH   2   3
HETATM    3  C   UNL     1     -11.357  11.102  67.931  1.00  0.00    -0.309 A  
HETATM    4  C   UNL     1     -11.659  12.437  67.559  1.00  0.00    -0.431 A  
HETATM    5  C   UNL     1     -11.986  13.328  68.608  1.00  0.00    -0.345 A  
HETATM    6  C   UNL     1     -11.175  10.744  69.300  1.00  0.00    -0.333 A  
HETATM    7  C   UNL     1     -11.505  11.708  70.280  1.00  0.00    -0.118 A  
HETATM    8  C   UNL     1     -11.956  13.001  69.971  1.00  0.00    -0.312 A  
BRANCH   4   9
HETATM    9  C   UNL     1     -11.678  12.979  66.099  1.00  0.00    -0.445 C  
HETATM   10  C   UNL     1     -12.261  12.004  65.049  1.00  0.00    -0.126 C  
HETATM   11  C   UNL     1     -12.497  14.285  66.059  1.00  0.00    -0.392 C  
HETATM   12  C   UNL     1     -10.247  13.300  65.572  1.00  0.00    -0.298 C  
ENDBRANCH   4   9
BRANCH   8  13
HETATM   13  N   UNL     1     -12.334  13.952  71.018  1.00  0.00    -0.364 N  
HETATM   14  C   UNL     1     -11.716  15.199  71.114  1.00  0.00    -0.353 C  
HETATM   15  O   UNL     1     -13.893  12.531  72.118  1.00  0.00    -0.343 OA 
HETATM   16  C   UNL     1     -11.961  16.080  72.086  1.00  0.00    -0.629 C  
HETATM   17  H   UNL     1     -14.448  14.427  73.483  1.00  0.00     0.000 HD 
HETATM   18  C   UNL     1     -12.955  15.753  73.106  1.00  0.00    -0.544 C  
HETATM   19  O   UNL     1     -13.147  16.485  74.068  1.00  0.00    -0.627 OA 
HETATM   20  N   UNL     1     -13.628  14.590  72.900  1.00  0.00    -0.428 N  
HETATM   21  C   UNL     1     -13.318  13.611  71.984  1.00  0.00    -0.459 C  
ENDBRANCH   8  13
BRANCH   6  22
HETATM   22  C   UNL     1     -10.642   9.414  69.735  1.00  0.00    -0.247 A  
HETATM   23  C   UNL     1     -11.938   6.532  71.686  1.00  0.00    -0.387 A  
HETATM   24  C   UNL     1     -11.510   8.420  70.224  1.00  0.00    -0.063 A  
HETATM   25  C   UNL     1     -11.471   5.501  72.492  1.00  0.00    -0.303 A  
HETATM   26  C   UNL     1     -11.041   7.324  70.961  1.00  0.00    -0.281 A  
HETATM   27  C   UNL     1     -10.109   5.230  72.549  1.00  0.00    -0.181 A  
HETATM   28  C   UNL     1      -8.782   7.957  70.387  1.00  0.00    -0.137 A  
HETATM   29  C   UNL     1      -9.201   5.987  71.804  1.00  0.00    -0.151 A  
HETATM   30  C   UNL     1      -9.265   9.130  69.785  1.00  0.00    -0.179 A  
HETATM   31  C   UNL     1      -9.659   7.074  71.038  1.00  0.00    -0.170 A  
BRANCH  27  32
HETATM   32  N   UNL     1      -9.655   4.142  73.347  1.00  0.00    -0.113 N  
HETATM   33  H   UNL     1      -9.094   4.298  74.184  1.00  0.00     0.000 HD 
BRANCH  32  34
HETATM   34  S   UNL     1     -10.083   2.575  72.851  1.00  0.00    -0.146 S  
HETATM   35  C   UNL     1      -8.761   1.602  73.537  1.00  0.00    -0.058 C  
HETATM   36  O   UNL     1      -9.926   2.584  71.412  1.00  0.00    -0.143 OA 
HETATM   37  O   UNL     1     -11.331   2.196  73.470  1.00  0.00    -0.200 OA 
ENDBRANCH  32  34
ENDBRANCH  27  32
ENDBRANCH   6  22
ENDBRANCH   2   3
TORSDOF 6
ENDMDL
MODEL        2
REMARK 921   NORMALIZED FREE ENERGY PREDICTED BY IDOCK:   -7.32 KCAL/MOL
REMARK 922        TOTAL FREE ENERGY PREDICTED BY IDOCK:  -10.13 KCAL/MOL
REMARK 923 INTER-LIGAND FREE ENERGY PREDICTED BY IDOCK:   -9.69 KCAL/MOL
REMARK 924 INTRA-LIGAND FREE ENERGY PREDICTED BY IDOCK:   -0.44 KCAL/MOL
REMARK 927      BINDING AFFINITY PREDICTED BY RF-SCORE:    0.00 PKD
ROOT
HETATM    1  C   UNL     1      -9.490  10.522  65.803  1.00  0.00    -0.201 C  
HETATM    2  O   UNL     1     -10.844  10.537  66.271  1.00  0.00    -0.125 OA 
ENDROOT
BRANCH   2   3
HETATM    3  C   UNL     1     -11.100  11.379  67.329  1.00  0.00    -0.303 A  
HETATM    4  C   UNL     1     -11.618  12.666  67.033  1.00  0.00    -0.431 A  
HETATM    5  C   UNL     1     -11.995  13.465  68.136  1.00  0.00    -0.356 A  
HETATM    6  C   UNL     1     -10.769  11.009  68.666  1.00  0.00    -0.234 A  
HETATM    7  C   UNL     1     -11.164  11.884  69.705  1.00  0.00    -0.184 A  
HETATM    8  C   UNL     1     -11.819  13.105  69.480  1.00  0.00    -0.322 A  
BRANCH   4   9
HETATM    9  C   UNL     1     -11.822  13.244  65.600  1.00  0.00    -0.419 C  
HETATM   10  C   UNL     1     -12.389  12.241  64.567  1.00  0.00    -0.468 C  
HETATM   11  C   UNL     1     -12.772  14.454  65.678  1.00  0.00    -0.302 C  
HETATM   12  C   UNL     1     -10.483  13.730  64.967  1.00  0.00    -0.418 C  
ENDBRANCH   4   9
BRANCH   8  13
HETATM   13  N   UNL     1     -12.254  13.957  70.588  1.00  0.00    -0.355 N  
HETATM   14  C   UNL     1     -13.286  13.560  71.440  1.00  0.00    -0.271 C  
HETATM   15  O   UNL     1     -10.811  15.783  70.100  1.00  0.00    -0.299 OA 
HETATM   16  C   UNL     1     -13.777  14.319  72.420  1.00  0.00    -0.616 C  
HETATM   17  H   UNL     1     -11.574  16.757  72.159  1.00  0.00     0.000 HD 
HETATM   18  C   UNL     1     -13.196  15.640  72.654  1.00  0.00    -0.502 C  
HETATM   19  O   UNL     1     -13.674  16.410  73.477  1.00  0.00    -0.555 OA 
HETATM   20  N   UNL     1     -12.109  15.932  71.893  1.00  0.00    -0.454 N  
HETATM   21  C   UNL     1     -11.656  15.228  70.800  1.00  0.00    -0.333 C  
ENDBRANCH   8  13
BRANCH   6  22
HETATM   22  C   UNL     1     -10.018   9.761  69.010  1.00  0.00    -0.189 A  
HETATM   23  C   UNL     1     -10.883   6.184  69.515  1.00  0.00    -0.428 A  
HETATM   24  C   UNL     1     -10.612   8.497  68.833  1.00  0.00    -0.166 A  
HETATM   25  C   UNL     1     -10.427   5.071  70.212  1.00  0.00    -0.243 A  
HETATM   26  C   UNL     1     -10.107   7.348  69.459  1.00  0.00    -0.187 A  
HETATM   27  C   UNL     1      -9.180   5.100  70.824  1.00  0.00    -0.145 A  
HETATM   28  C   UNL     1      -8.157   8.612  70.116  1.00  0.00    -0.113 A  
HETATM   29  C   UNL     1      -8.376   6.241  70.746  1.00  0.00    -0.126 A  
HETATM   30  C   UNL     1      -8.750   9.783  69.618  1.00  0.00    -0.211 A  
HETATM   31  C   UNL     1      -8.857   7.393  70.100  1.00  0.00    -0.147 A  
BRANCH  27  32
HETATM   32  N   UNL     1      -8.714   3.936  71.495  1.00  0.00    -0.096 N  
HETATM   33  H   UNL     1      -7.932   3.391  71.130  1.00  0.00     0.000 HD 
BRANCH  32  34
HETATM   34  S   UNL     1      -9.508   3.487  72.928  1.00  0.00    -0.115 S  
HETATM   35  C   UNL     1      -8.175   2.792  73.881  1.00  0.00    -0.071 C  
HETATM   36  O   UNL     1     -10.388   2.404  72.542  1.00  0.00    -0.156 OA 
HETATM   37  O   UNL     1     -10.010   4.666  73.592  1.00  0.00    -0.144 OA 
ENDBRANCH  32  34
ENDBRANCH  27  32
ENDBRANCH   6  22
ENDBRANCH   2   3
TORSDOF 6
ENDMDL
MODEL        3
REMARK 921   NORMALIZED FREE ENERGY PREDICTED BY IDOCK:   -7.26 KCAL/MOL
REMARK 922        TOTAL FREE ENERGY PREDICTED BY IDOCK:  -10.05 KCAL/MOL
REMARK 923 INTER-LIGAND FREE ENERGY PREDICTED BY IDOCK:   -9.38 KCAL/MOL
REMARK 924 INTRA-LIGAND FREE ENERGY PREDICTED BY IDOCK:   -0.67 KCAL/MOL
REMARK 927      BINDING AFFINITY PREDICTED BY RF-SCORE:    0.00 PKD
ROOT
HETATM    1  C   UNL     1     -12.609  10.840  70.526  1.00  0.00    -0.336 C  
HETATM    2  O   UNL     1     -11.212  10.525  70.541  1.00  0.00    -0.314 OA 
ENDROOT
BRANCH   2   3
HETATM    3  C   UNL     1     -10.800   9.599  69.609  1.00  0.00    -0.244 A  
HETATM    4  C   UNL     1     -10.534   8.283  70.065  1.00  0.00    -0.231 A  
HETATM    5  C   UNL     1     -10.238   7.318  69.075  1.00  0.00    -0.197 A  
HETATM    6  C   UNL     1     -10.557   9.970  68.254  1.00  0.00    -0.264 A  
HETATM    7  C   UNL     1     -10.242   8.940  67.338  1.00  0.00    -0.313 A  
HETATM    8  C   UNL     1     -10.115   7.591  67.705  1.00  0.00    -0.185 A  
BRANCH   4   9
HETATM    9  C   UNL     1     -10.569   7.824  71.554  1.00  0.00    -0.247 C  
HETATM   10  C   UNL     1     -11.896   8.113  72.295  1.00  0.00    -0.441 C  
HETATM   11  C   UNL     1     -10.294   6.309  71.620  1.00  0.00    -0.248 C  
HETATM   12  C   UNL     1      -9.486   8.541  72.415  1.00  0.00    -0.350 C  
ENDBRANCH   4   9
BRANCH   8  13
HETATM   13  N   UNL     1      -9.836   6.550  66.716  1.00  0.00    -0.160 N  
HETATM   14  C   UNL     1     -10.757   5.533  66.460  1.00  0.00    -0.240 C  
HETATM   15  O   UNL     1      -7.637   7.279  66.176  1.00  0.00    -0.084 OA 
HETATM   16  C   UNL     1     -10.533   4.516  65.626  1.00  0.00    -0.261 C  
HETATM   17  H   UNL     1      -7.656   5.611  64.448  1.00  0.00     0.000 HD 
HETATM   18  C   UNL     1      -9.265   4.458  64.902  1.00  0.00    -0.157 C  
HETATM   19  O   UNL     1      -8.975   3.498  64.201  1.00  0.00    -0.102 OA 
HETATM   20  N   UNL     1      -8.454   5.534  65.077  1.00  0.00    -0.149 N  
HETATM   21  C   UNL     1      -8.600   6.531  66.014  1.00  0.00    -0.148 C  
ENDBRANCH   8  13
BRANCH   6  22
HETATM   22  C   UNL     1     -10.605  11.387  67.770  1.00  0.00    -0.231 A  
HETATM   23  C   UNL     1      -8.916  14.569  68.671  1.00  0.00    -0.181 A  
HETATM   24  C   UNL     1      -9.605  12.303  68.141  1.00  0.00    -0.213 A  
HETATM   25  C   UNL     1      -9.145  15.940  68.630  1.00  0.00    -0.206 A  
HETATM   26  C   UNL     1      -9.787  13.688  68.019  1.00  0.00    -0.244 A  
HETATM   27  C   UNL     1     -10.220  16.441  67.906  1.00  0.00    -0.268 A  
HETATM   28  C   UNL     1     -11.807  13.270  66.763  1.00  0.00    -0.448 A  
HETATM   29  C   UNL     1     -11.078  15.579  67.219  1.00  0.00    -0.271 A  
HETATM   30  C   UNL     1     -11.686  11.897  67.028  1.00  0.00    -0.304 A  
HETATM   31  C   UNL     1     -10.894  14.188  67.310  1.00  0.00    -0.288 A  
BRANCH  27  32
HETATM   32  N   UNL     1     -10.411  17.849  67.841  1.00  0.00    -0.389 N  
HETATM   33  H   UNL     1     -10.972  18.340  68.537  1.00  0.00     0.000 HD 
BRANCH  32  34
HETATM   34  S   UNL     1      -9.671  18.682  66.559  1.00  0.00    -0.360 S  
HETATM   35  C   UNL     1      -8.679  19.878  67.426  1.00  0.00    -0.336 C  
HETATM   36  O   UNL     1     -10.749  19.392  65.904  1.00  0.00    -0.473 OA 
HETATM   37  O   UNL     1      -8.810  17.781  65.830  1.00  0.00    -0.501 OA 
ENDBRANCH  32  34
ENDBRANCH  27  32
ENDBRANCH   6  22
ENDBRANCH   2   3
TORSDOF 6
ENDMDL
MODEL        4
REMARK 921   NORMALIZED FREE ENERGY PREDICTED BY IDOCK:   -6.65 KCAL/MOL
REMARK 922        TOTAL FREE ENERGY PREDICTED BY IDOCK:   -9.23 KCAL/MOL
REMARK 923 INTER-LIGAND FREE ENERGY PREDICTED BY IDOCK:   -8.59 KCAL/MOL
REMARK 924 INTRA-LIGAND FREE ENERGY PREDICTED BY IDOCK:   -0.63 KCAL/MOL
REMARK 927      BINDING AFFINITY PREDICTED BY RF-SCORE:    0.00 PKD
ROOT
HETATM    1  C   UNL     1     -12.692  10.593  70.003  1.00  0.00    -0.092 C  
HETATM    2  O   UNL     1     -11.283  10.385  70.155  1.00  0.00    -0.279 OA 
ENDROOT
BRANCH   2   3
HETATM    3  C   UNL     1     -10.699   9.553  69.228  1.00  0.00    -0.222 A  
HETATM    4  C   UNL     1     -10.390   8.230  69.636  1.00  0.00    -0.218 A  
HETATM    5  C   UNL     1      -9.911   7.355  68.634  1.00  0.00    -0.174 A  
HETATM    6  C   UNL     1     -10.331  10.028  67.935  1.00  0.00    -0.249 A  
HETATM    7  C   UNL     1      -9.838   9.084  67.005  1.00  0.00    -0.270 A  
HETATM    8  C   UNL     1      -9.654   7.726  67.306  1.00  0.00    -0.161 A  
BRANCH   4   9
HETATM    9  C   UNL     1     -10.560   7.673  71.081  1.00  0.00    -0.235 C  
HETATM   10  C   UNL     1     -10.153   8.651  72.209  1.00  0.00    -0.363 C  
HETATM   11  C   UNL     1     -12.033   7.270  71.294  1.00  0.00    -0.359 C  
HETATM   12  C   UNL     1      -9.681   6.411  71.332  1.00  0.00    -0.187 C  
ENDBRANCH   4   9
BRANCH   8  13
HETATM   13  N   UNL     1      -9.187   6.773  66.298  1.00  0.00    -0.154 N  
HETATM   14  C   UNL     1      -8.103   7.072  65.472  1.00  0.00    -0.132 C  
HETATM   15  O   UNL     1     -10.873   5.138  66.676  1.00  0.00    -0.230 OA 
HETATM   16  C   UNL     1      -7.675   6.280  64.487  1.00  0.00    -0.106 C  
HETATM   17  H   UNL     1      -9.661   3.734  65.151  1.00  0.00     0.000 HD 
HETATM   18  C   UNL     1      -8.347   5.002  64.261  1.00  0.00    -0.136 C  
HETATM   19  O   UNL     1      -8.053   4.286  63.313  1.00  0.00    -0.081 OA 
HETATM   20  N   UNL     1      -9.307   4.689  65.171  1.00  0.00    -0.156 N  
HETATM   21  C   UNL     1      -9.851   5.530  66.115  1.00  0.00    -0.107 C  
ENDBRANCH   8  13
BRANCH   6  22
HETATM   22  C   UNL     1     -10.429  11.467  67.531  1.00  0.00    -0.233 A  
HETATM   23  C   UNL     1      -8.752  14.631  68.516  1.00  0.00    -0.176 A  
HETATM   24  C   UNL     1      -9.427  12.383  67.900  1.00  0.00    -0.198 A  
HETATM   25  C   UNL     1      -9.007  15.997  68.560  1.00  0.00    -0.200 A  
HETATM   26  C   UNL     1      -9.640  13.768  67.862  1.00  0.00    -0.222 A  
HETATM   27  C   UNL     1     -10.126  16.514  67.919  1.00  0.00    -0.256 A  
HETATM   28  C   UNL     1     -11.713  13.376  66.688  1.00  0.00    -0.428 A  
HETATM   29  C   UNL     1     -11.004  15.672  67.231  1.00  0.00    -0.275 A  
HETATM   30  C   UNL     1     -11.555  11.994  66.872  1.00  0.00    -0.389 A  
HETATM   31  C   UNL     1     -10.790  14.282  67.237  1.00  0.00    -0.285 A  
BRANCH  27  32
HETATM   32  N   UNL     1     -10.345  17.919  67.940  1.00  0.00    -0.372 N  
HETATM   33  H   UNL     1     -10.900  18.358  68.675  1.00  0.00     0.000 HD 
BRANCH  32  34
HETATM   34  S   UNL     1      -9.650  18.839  66.693  1.00  0.00    -0.349 S  
HETATM   35  C   UNL     1      -8.556  19.911  67.598  1.00  0.00    -0.330 C  
HETATM   36  O   UNL     1     -10.734  19.646  66.176  1.00  0.00    -0.464 OA 
HETATM   37  O   UNL     1      -8.875  17.978  65.831  1.00  0.00    -0.504 OA 
ENDBRANCH  32  34
ENDBRANCH  27  32
ENDBRANCH   6  22
ENDBRANCH   2   3
TORSDOF 6
ENDMDL
MODEL        5
REMARK 921   NORMALIZED FREE ENERGY PREDICTED BY IDOCK:   -6.60 KCAL/MOL
REMARK 922        TOTAL FREE ENERGY PREDICTED BY IDOCK:   -9.16 KCAL/MOL
REMARK 923 INTER-LIGAND FREE ENERGY PREDICTED BY IDOCK:   -9.12 KCAL/MOL
REMARK 924 INTRA-LIGAND FREE ENERGY PREDICTED BY IDOCK:   -0.04 KCAL/MOL
REMARK 927      BINDING AFFINITY PREDICTED BY RF-SCORE:    0.00 PKD
ROOT
HETATM    1  C   UNL     1     -13.657  12.841  72.428  1.00  0.00    -0.407 C  
HETATM    2  O   UNL     1     -12.288  12.803  72.008  1.00  0.00     0.220 OA 
ENDROOT
BRANCH   2   3
HETATM    3  C   UNL     1     -12.083  12.598  70.662  1.00  0.00    -0.226 A  
HETATM    4  C   UNL     1     -12.078  13.738  69.818  1.00  0.00    -0.400 A  
HETATM    5  C   UNL     1     -11.737  13.520  68.463  1.00  0.00    -0.392 A  
HETATM    6  C   UNL     1     -11.974  11.283  70.122  1.00  0.00    -0.452 A  
HETATM    7  C   UNL     1     -11.654  11.162  68.750  1.00  0.00    -0.389 A  
HETATM    8  C   UNL     1     -11.486  12.262  67.896  1.00  0.00    -0.330 A  
BRANCH   4   9
HETATM    9  C   UNL     1     -12.391  15.195  70.274  1.00  0.00    -0.398 C  
HETATM   10  C   UNL     1     -11.650  15.651  71.553  1.00  0.00    -0.507 C  
HETATM   11  C   UNL     1     -12.036  16.166  69.131  1.00  0.00    -0.085 C  
HETATM   12  C   UNL     1     -13.899  15.392  70.614  1.00  0.00     0.069 C  
ENDBRANCH   4   9
BRANCH   8  13
HETATM   13  N   UNL     1     -11.108  12.093  66.492  1.00  0.00    -0.291 N  
HETATM   14  C   UNL     1     -10.003  11.320  66.132  1.00  0.00    -0.228 C  
HETATM   15  O   UNL     1     -12.772  13.535  65.592  1.00  0.00    -0.480 OA 
HETATM   16  C   UNL     1      -9.563  11.185  64.880  1.00  0.00    -0.279 C  
HETATM   17  H   UNL     1     -12.043  12.798  63.425  1.00  0.00     0.000 HD 
HETATM   18  C   UNL     1     -10.283  11.855  63.798  1.00  0.00    -0.413 C  
HETATM   19  O   UNL     1      -9.865  11.840  62.648  1.00  0.00    -0.113 OA 
HETATM   20  N   UNL     1     -11.427  12.485  64.174  1.00  0.00    -0.355 N  
HETATM   21  C   UNL     1     -11.840  12.743  65.462  1.00  0.00    -0.422 C  
ENDBRANCH   8  13
BRANCH   6  22
HETATM   22  C   UNL     1     -12.195  10.043  70.932  1.00  0.00    -0.441 A  
HETATM   23  C   UNL     1     -10.042   7.648  72.782  1.00  0.00    -0.311 A  
HETATM   24  C   UNL     1     -11.173   9.532  71.753  1.00  0.00    -0.263 A  
HETATM   25  C   UNL     1     -10.035   6.316  73.179  1.00  0.00    -0.183 A  
HETATM   26  C   UNL     1     -11.199   8.217  72.236  1.00  0.00    -0.425 A  
HETATM   27  C   UNL     1     -11.193   5.555  73.070  1.00  0.00    -0.293 A  
HETATM   28  C   UNL     1     -13.471   8.014  71.444  1.00  0.00    -0.263 A  
HETATM   29  C   UNL     1     -12.368   6.117  72.562  1.00  0.00     0.025 A  
HETATM   30  C   UNL     1     -13.370   9.275  70.834  1.00  0.00    -0.018 A  
HETATM   31  C   UNL     1     -12.365   7.443  72.096  1.00  0.00    -0.239 A  
BRANCH  27  32
HETATM   32  N   UNL     1     -11.178   4.207  73.522  1.00  0.00    -0.272 N  
HETATM   33  H   UNL     1     -11.827   3.881  74.239  1.00  0.00     0.000 HD 
BRANCH  32  34
HETATM   34  S   UNL     1     -10.037   3.159  72.824  1.00  0.00    -0.157 S  
HETATM   35  C   UNL     1     -10.852   1.584  72.969  1.00  0.00    -0.147 C  
HETATM   36  O   UNL     1      -8.917   3.164  73.741  1.00  0.00    -0.076 OA 
HETATM   37  O   UNL     1      -9.869   3.487  71.429  1.00  0.00    -0.177 OA 
ENDBRANCH  32  34
ENDBRANCH  27  32
ENDBRANCH   6  22
ENDBRANCH   2   3
TORSDOF 6
ENDMDL
MODEL        6
REMARK 921   NORMALIZED FREE ENERGY PREDICTED BY IDOCK:   -6.52 KCAL/MOL
REMARK 922        TOTAL FREE ENERGY PREDICTED BY IDOCK:   -9.04 KCAL/MOL
REMARK 923 INTER-LIGAND FREE ENERGY PREDICTED BY IDOCK:   -8.53 KCAL/MOL
REMARK 924 INTRA-LIGAND FREE ENERGY PREDICTED BY IDOCK:   -0.51 KCAL/MOL
REMARK 927      BINDING AFFINITY PREDICTED BY RF-SCORE:    0.00 PKD
ROOT
HETATM    1  C   UNL     1      -6.732   8.662  69.216  1.00  0.00    -0.050 C  
HETATM    2  O   UNL     1      -7.332   9.792  69.860  1.00  0.00    -0.097 OA 
ENDROOT
BRANCH   2   3
HETATM    3  C   UNL     1      -8.194  10.533  69.084  1.00  0.00    -0.150 A  
HETATM    4  C   UNL     1      -7.705  11.745  68.534  1.00  0.00    -0.137 A  
HETATM    5  C   UNL     1      -8.562  12.423  67.637  1.00  0.00    -0.172 A  
HETATM    6  C   UNL     1      -9.557  10.146  68.916  1.00  0.00    -0.186 A  
HETATM    7  C   UNL     1     -10.346  10.899  68.016  1.00  0.00    -0.212 A  
HETATM    8  C   UNL     1      -9.869  12.023  67.324  1.00  0.00    -0.192 A  
BRANCH   4   9
HETATM    9  C   UNL     1      -6.304  12.361  68.824  1.00  0.00    -0.078 C  
HETATM   10  C   UNL     1      -5.864  12.313  70.306  1.00  0.00    -0.166 C  
HETATM   11  C   UNL     1      -5.247  11.624  67.978  1.00  0.00    -0.045 C  
HETATM   12  C   UNL     1      -6.239  13.873  68.453  1.00  0.00    -0.101 C  
ENDBRANCH   4   9
BRANCH   8  13
HETATM   13  N   UNL     1     -10.706  12.745  66.365  1.00  0.00    -0.259 N  
HETATM   14  C   UNL     1     -10.422  12.720  64.999  1.00  0.00    -0.314 C  
HETATM   15  O   UNL     1     -12.153  13.739  67.971  1.00  0.00    -0.362 OA 
HETATM   16  C   UNL     1     -11.100  13.414  64.083  1.00  0.00    -0.353 C  
HETATM   17  H   UNL     1     -13.446  14.534  66.109  1.00  0.00     0.000 HD 
HETATM   18  C   UNL     1     -12.232  14.234  64.509  1.00  0.00    -0.455 C  
HETATM   19  O   UNL     1     -12.824  14.961  63.722  1.00  0.00    -0.662 OA 
HETATM   20  N   UNL     1     -12.557  14.125  65.824  1.00  0.00    -0.486 N  
HETATM   21  C   UNL     1     -11.811  13.519  66.809  1.00  0.00    -0.406 C  
ENDBRANCH   8  13
BRANCH   6  22
HETATM   22  C   UNL     1     -10.182   9.002  69.653  1.00  0.00    -0.211 A  
HETATM   23  C   UNL     1     -10.179   7.768  73.156  1.00  0.00    -0.398 A  
HETATM   24  C   UNL     1     -10.214   8.989  71.059  1.00  0.00    -0.347 A  
HETATM   25  C   UNL     1     -10.326   6.579  73.862  1.00  0.00    -0.356 A  
HETATM   26  C   UNL     1     -10.454   7.813  71.784  1.00  0.00    -0.259 A  
HETATM   27  C   UNL     1     -10.787   5.441  73.212  1.00  0.00    -0.298 A  
HETATM   28  C   UNL     1     -11.051   6.711  69.720  1.00  0.00    -0.398 A  
HETATM   29  C   UNL     1     -11.102   5.477  71.851  1.00  0.00    -0.233 A  
HETATM   30  C   UNL     1     -10.660   7.851  69.000  1.00  0.00    -0.177 A  
HETATM   31  C   UNL     1     -10.892   6.657  71.115  1.00  0.00    -0.284 A  
BRANCH  27  32
HETATM   32  N   UNL     1     -10.973   4.246  73.962  1.00  0.00    -0.223 N  
HETATM   33  H   UNL     1     -11.675   4.188  74.699  1.00  0.00     0.000 HD 
BRANCH  32  34
HETATM   34  S   UNL     1      -9.981   2.921  73.583  1.00  0.00    -0.111 S  
HETATM   35  C   UNL     1     -10.764   1.607  74.493  1.00  0.00    -0.112 C  
HETATM   36  O   UNL     1      -8.715   3.208  74.222  1.00  0.00    -0.079 OA 
HETATM   37  O   UNL     1     -10.064   2.643  72.169  1.00  0.00    -0.164 OA 
ENDBRANCH  32  34
ENDBRANCH  27  32
ENDBRANCH   6  22
ENDBRANCH   2   3
TORSDOF 6
ENDMDL
MODEL        7
REMARK 921   NORMALIZED FREE ENERGY PREDICTED BY IDOCK:   -6.48 KCAL/MOL
REMARK 922        TOTAL FREE ENERGY PREDICTED BY IDOCK:   -8.99 KCAL/MOL
REMARK 923 INTER-LIGAND FREE ENERGY PREDICTED BY IDOCK:   -8.51 KCAL/MOL
REMARK 924 INTRA-LIGAND FREE ENERGY PREDICTED BY IDOCK:   -0.49 KCAL/MOL
REMARK 927      BINDING AFFINITY PREDICTED BY RF-SCORE:    0.00 PKD
ROOT
HETATM    1  C   UNL     1      -6.287  10.441  64.531  1.00  0.00    -0.053 C  
HETATM    2  O   UNL     1      -7.640  10.072  64.238  1.00  0.00    -0.136 OA 
ENDROOT
BRANCH   2   3
HETATM    3  C   UNL     1      -8.353   9.541  65.289  1.00  0.00    -0.139 A  
HETATM    4  C   UNL     1      -8.368   8.129  65.424  1.00  0.00    -0.163 A  
HETATM    5  C   UNL     1      -8.997   7.611  66.580  1.00  0.00    -0.181 A  
HETATM    6  C   UNL     1      -9.127  10.371  66.153  1.00  0.00    -0.183 A  
HETATM    7  C   UNL     1      -9.741   9.761  67.271  1.00  0.00    -0.213 A  
HETATM    8  C   UNL     1      -9.662   8.386  67.542  1.00  0.00    -0.162 A  
BRANCH   4   9
HETATM    9  C   UNL     1      -7.729   7.124  64.420  1.00  0.00    -0.117 C  
HETATM   10  C   UNL     1      -7.934   7.475  62.927  1.00  0.00    -0.120 C  
HETATM   11  C   UNL     1      -6.216   7.031  64.696  1.00  0.00    -0.037 C  
HETATM   12  C   UNL     1      -8.327   5.692  64.563  1.00  0.00    -0.108 C  
ENDBRANCH   4   9
BRANCH   8  13
HETATM   13  N   UNL     1     -10.272   7.803  68.738  1.00  0.00    -0.198 N  
HETATM   14  C   UNL     1     -10.193   8.447  69.973  1.00  0.00    -0.202 C  
HETATM   15  O   UNL     1     -11.015   5.793  67.704  1.00  0.00    -0.240 OA 
HETATM   16  C   UNL     1     -10.663   7.936  71.112  1.00  0.00    -0.251 C  
HETATM   17  H   UNL     1     -12.128   5.302  69.775  1.00  0.00     0.000 HD 
HETATM   18  C   UNL     1     -11.332   6.636  71.084  1.00  0.00    -0.306 C  
HETATM   19  O   UNL     1     -11.695   6.084  72.114  1.00  0.00    -0.311 OA 
HETATM   20  N   UNL     1     -11.507   6.107  69.845  1.00  0.00    -0.394 N  
HETATM   21  C   UNL     1     -10.932   6.546  68.674  1.00  0.00    -0.293 C  
ENDBRANCH   8  13
BRANCH   6  22
HETATM   22  C   UNL     1      -9.326  11.836  65.921  1.00  0.00    -0.214 A  
HETATM   23  C   UNL     1      -8.827  14.940  67.898  1.00  0.00    -0.165 A  
HETATM   24  C   UNL     1      -8.753  12.783  66.790  1.00  0.00    -0.125 A  
HETATM   25  C   UNL     1      -9.333  16.231  67.992  1.00  0.00    -0.214 A  
HETATM   26  C   UNL     1      -9.193  14.113  66.830  1.00  0.00    -0.282 A  
HETATM   27  C   UNL     1     -10.176  16.718  67.000  1.00  0.00    -0.292 A  
HETATM   28  C   UNL     1     -10.501  13.698  64.842  1.00  0.00    -0.426 A  
HETATM   29  C   UNL     1     -10.523  15.919  65.906  1.00  0.00    -0.373 A  
HETATM   30  C   UNL     1     -10.170  12.335  64.911  1.00  0.00    -0.307 A  
HETATM   31  C   UNL     1     -10.069  14.590  65.838  1.00  0.00    -0.346 A  
BRANCH  27  32
HETATM   32  N   UNL     1     -10.649  18.056  67.091  1.00  0.00    -0.358 N  
HETATM   33  H   UNL     1     -11.431  18.301  67.699  1.00  0.00     0.000 HD 
BRANCH  32  34
HETATM   34  S   UNL     1      -9.861  19.231  66.151  1.00  0.00    -0.321 S  
HETATM   35  C   UNL     1      -9.812  20.617  67.266  1.00  0.00    -0.388 C  
HETATM   36  O   UNL     1     -10.796  19.548  65.092  1.00  0.00    -0.409 OA 
HETATM   37  O   UNL     1      -8.515  18.798  65.863  1.00  0.00    -0.481 OA 
ENDBRANCH  32  34
ENDBRANCH  27  32
ENDBRANCH   6  22
ENDBRANCH   2   3
TORSDOF 6
ENDMDL
MODEL        8
REMARK 921   NORMALIZED FREE ENERGY PREDICTED BY IDOCK:   -6.43 KCAL/MOL
REMARK 922        TOTAL FREE ENERGY PREDICTED BY IDOCK:   -8.93 KCAL/MOL
REMARK 923 INTER-LIGAND FREE ENERGY PREDICTED BY IDOCK:   -9.20 KCAL/MOL
REMARK 924 INTRA-LIGAND FREE ENERGY PREDICTED BY IDOCK:    0.27 KCAL/MOL
REMARK 927      BINDING AFFINITY PREDICTED BY RF-SCORE:    0.00 PKD
ROOT
HETATM    1  C   UNL     1     -11.013  10.117  66.567  1.00  0.00     0.133 C  
HETATM    2  O   UNL     1     -12.036  11.120  66.587  1.00  0.00    -0.038 OA 
ENDROOT
BRANCH   2   3
HETATM    3  C   UNL     1     -11.601  12.411  66.789  1.00  0.00    -0.379 A  
HETATM    4  C   UNL     1     -11.532  13.263  65.658  1.00  0.00    -0.342 A  
HETATM    5  C   UNL     1     -11.208  14.617  65.905  1.00  0.00    -0.336 A  
HETATM    6  C   UNL     1     -11.147  12.848  68.068  1.00  0.00    -0.283 A  
HETATM    7  C   UNL     1     -10.822  14.216  68.216  1.00  0.00    -0.259 A  
HETATM    8  C   UNL     1     -10.881  15.143  67.164  1.00  0.00    -0.320 A  
BRANCH   4   9
HETATM    9  C   UNL     1     -11.806  12.828  64.187  1.00  0.00    -0.482 C  
HETATM   10  C   UNL     1     -12.894  11.740  64.021  1.00  0.00    -0.181 C  
HETATM   11  C   UNL     1     -12.224  14.065  63.367  1.00  0.00     0.132 C  
HETATM   12  C   UNL     1     -10.543  12.215  63.511  1.00  0.00    -0.501 C  
ENDBRANCH   4   9
BRANCH   8  13
HETATM   13  N   UNL     1     -10.582  16.560  67.372  1.00  0.00    -0.317 N  
HETATM   14  C   UNL     1     -10.465  17.090  68.658  1.00  0.00    -0.363 C  
HETATM   15  O   UNL     1     -10.603  17.177  65.075  1.00  0.00    -0.704 OA 
HETATM   16  C   UNL     1     -10.266  18.384  68.916  1.00  0.00    -0.284 C  
HETATM   17  H   UNL     1      -9.839  19.339  65.790  1.00  0.00     0.000 HD 
HETATM   18  C   UNL     1     -10.131  19.318  67.801  1.00  0.00    -0.391 C  
HETATM   19  O   UNL     1     -10.043  20.524  67.986  1.00  0.00    -0.320 OA 
HETATM   20  N   UNL     1     -10.116  18.743  66.569  1.00  0.00    -0.372 N  
HETATM   21  C   UNL     1     -10.437  17.439  66.266  1.00  0.00    -0.276 C  
ENDBRANCH   8  13
BRANCH   6  22
HETATM   22  C   UNL     1     -10.989  11.929  69.240  1.00  0.00    -0.208 A  
HETATM   23  C   UNL     1      -8.701   9.151  70.158  1.00  0.00    -0.196 A  
HETATM   24  C   UNL     1      -9.816  11.169  69.399  1.00  0.00     0.099 A  
HETATM   25  C   UNL     1      -8.690   8.000  70.937  1.00  0.00    -0.143 A  
HETATM   26  C   UNL     1      -9.764  10.058  70.252  1.00  0.00    -0.108 A  
HETATM   27  C   UNL     1      -9.719   7.766  71.842  1.00  0.00    -0.169 A  
HETATM   28  C   UNL     1     -11.924  10.684  71.132  1.00  0.00    -0.401 A  
HETATM   29  C   UNL     1     -10.769   8.678  71.976  1.00  0.00    -0.427 A  
HETATM   30  C   UNL     1     -12.023  11.697  70.165  1.00  0.00    -0.441 A  
HETATM   31  C   UNL     1     -10.822   9.811  71.145  1.00  0.00    -0.333 A  
BRANCH  27  32
HETATM   32  N   UNL     1      -9.666   6.604  72.661  1.00  0.00    -0.160 N  
HETATM   33  H   UNL     1      -9.057   6.559  73.478  1.00  0.00     0.000 HD 
BRANCH  32  34
HETATM   34  S   UNL     1     -10.656   5.294  72.226  1.00  0.00    -0.218 S  
HETATM   35  C   UNL     1      -9.836   3.935  73.029  1.00  0.00    -0.131 C  
HETATM   36  O   UNL     1     -10.468   5.143  70.799  1.00  0.00    -0.243 OA 
HETATM   37  O   UNL     1     -11.970   5.470  72.798  1.00  0.00    -0.237 OA 
ENDBRANCH  32  34
ENDBRANCH  27  32
ENDBRANCH   6  22
ENDBRANCH   2   3
TORSDOF 6
ENDMDL
MODEL        9
REMARK 921   NORMALIZED FREE ENERGY PREDICTED BY IDOCK:   -6.34 KCAL/MOL
REMARK 922        TOTAL FREE ENERGY PREDICTED BY IDOCK:   -8.81 KCAL/MOL
REMARK 923 INTER-LIGAND FREE ENERGY PREDICTED BY IDOCK:   -9.07 KCAL/MOL
REMARK 924 INTRA-LIGAND FREE ENERGY PREDICTED BY IDOCK:    0.26 KCAL/MOL
REMARK 927      BINDING AFFINITY PREDICTED BY RF-SCORE:    0.00 PKD
ROOT
HETATM    1  C   UNL     1      -9.924  10.076  66.626  1.00  0.00    -0.216 C  
HETATM    2  O   UNL     1     -11.280  10.347  66.998  1.00  0.00    -0.207 OA 
ENDROOT
BRANCH   2   3
HETATM    3  C   UNL     1     -11.448  11.245  68.028  1.00  0.00    -0.298 A  
HETATM    4  C   UNL     1     -11.646  12.607  67.685  1.00  0.00    -0.414 A  
HETATM    5  C   UNL     1     -11.944  13.490  68.749  1.00  0.00    -0.374 A  
HETATM    6  C   UNL     1     -11.334  10.838  69.390  1.00  0.00    -0.351 A  
HETATM    7  C   UNL     1     -11.628  11.797  70.387  1.00  0.00    -0.109 A  
HETATM    8  C   UNL     1     -11.980  13.126  70.102  1.00  0.00    -0.310 A  
BRANCH   4   9
HETATM    9  C   UNL     1     -11.582  13.188  66.241  1.00  0.00    -0.399 C  
HETATM   10  C   UNL     1     -10.165  13.244  65.622  1.00  0.00    -0.295 C  
HETATM   11  C   UNL     1     -12.484  12.343  65.320  1.00  0.00    -0.256 C  
HETATM   12  C   UNL     1     -12.086  14.661  66.178  1.00  0.00    -0.213 C  
ENDBRANCH   4   9
BRANCH   8  13
HETATM   13  N   UNL     1     -12.324  14.072  71.164  1.00  0.00    -0.354 N  
HETATM   14  C   UNL     1     -11.751  15.344  71.210  1.00  0.00    -0.380 C  
HETATM   15  O   UNL     1     -13.750  12.604  72.377  1.00  0.00    -0.517 OA 
HETATM   16  C   UNL     1     -11.966  16.224  72.188  1.00  0.00    -0.575 C  
HETATM   17  H   UNL     1     -14.288  14.492  73.761  1.00  0.00     0.000 HD 
HETATM   18  C   UNL     1     -12.877  15.870  73.275  1.00  0.00    -0.556 C  
HETATM   19  O   UNL     1     -13.032  16.604  74.242  1.00  0.00    -0.594 OA 
HETATM   20  N   UNL     1     -13.515  14.680  73.123  1.00  0.00    -0.352 N  
HETATM   21  C   UNL     1     -13.228  13.703  72.197  1.00  0.00    -0.449 C  
ENDBRANCH   8  13
BRANCH   6  22
HETATM   22  C   UNL     1     -10.906   9.464  69.803  1.00  0.00    -0.250 A  
HETATM   23  C   UNL     1      -7.945   7.303  69.207  1.00  0.00    -0.118 A  
HETATM   24  C   UNL     1      -9.571   9.051  69.640  1.00  0.00    -0.175 A  
HETATM   25  C   UNL     1      -7.611   5.955  69.150  1.00  0.00    -0.090 A  
HETATM   26  C   UNL     1      -9.205   7.698  69.672  1.00  0.00    -0.146 A  
HETATM   27  C   UNL     1      -8.516   4.997  69.592  1.00  0.00    -0.088 A  
HETATM   28  C   UNL     1     -11.428   7.158  70.447  1.00  0.00    -0.317 A  
HETATM   29  C   UNL     1      -9.764   5.376  70.093  1.00  0.00    -0.252 A  
HETATM   30  C   UNL     1     -11.816   8.494  70.262  1.00  0.00     0.193 A  
HETATM   31  C   UNL     1     -10.136   6.732  70.093  1.00  0.00    -0.195 A  
BRANCH  27  32
HETATM   32  N   UNL     1      -8.137   3.626  69.565  1.00  0.00    -0.053 N  
HETATM   33  H   UNL     1      -8.013   3.095  70.427  1.00  0.00     0.000 HD 
BRANCH  32  34
HETATM   34  S   UNL     1      -7.899   2.908  68.045  1.00  0.00    -0.059 S  
HETATM   35  C   UNL     1      -9.310   3.501  67.137  1.00  0.00    -0.200 C  
HETATM   36  O   UNL     1      -8.082   1.490  68.270  1.00  0.00    -0.056 OA 
HETATM   37  O   UNL     1      -6.691   3.426  67.448  1.00  0.00    -0.044 OA 
ENDBRANCH  32  34
ENDBRANCH  27  32
ENDBRANCH   6  22
ENDBRANCH   2   3
TORSDOF 6
ENDMDL
MODEL       10
REMARK 921   NORMALIZED FREE ENERGY PREDICTED BY IDOCK:   -6.26 KCAL/MOL
REMARK 922        TOTAL FREE ENERGY PREDICTED BY IDOCK:   -8.70 KCAL/MOL
REMARK 923 INTER-LIGAND FREE ENERGY PREDICTED BY IDOCK:   -7.86 KCAL/MOL
REMARK 924 INTRA-LIGAND FREE ENERGY PREDICTED BY IDOCK:   -0.84 KCAL/MOL
REMARK 927      BINDING AFFINITY PREDICTED BY RF-SCORE:    0.00 PKD
ROOT
HETATM    1  C   UNL     1      -8.820   5.468  65.384  1.00  0.00    -0.127 C  
HETATM    2  O   UNL     1      -8.089   6.592  65.887  1.00  0.00    -0.112 OA 
ENDROOT
BRANCH   2   3
HETATM    3  C   UNL     1      -8.688   7.819  65.716  1.00  0.00    -0.133 A  
HETATM    4  C   UNL     1      -8.273   8.603  64.609  1.00  0.00    -0.167 A  
HETATM    5  C   UNL     1      -8.991   9.799  64.377  1.00  0.00    -0.284 A  
HETATM    6  C   UNL     1      -9.623   8.326  66.666  1.00  0.00    -0.299 A  
HETATM    7  C   UNL     1     -10.275   9.543  66.361  1.00  0.00    -0.302 A  
HETATM    8  C   UNL     1     -10.014  10.289  65.201  1.00  0.00    -0.325 A  
BRANCH   4   9
HETATM    9  C   UNL     1      -7.118   8.235  63.631  1.00  0.00    -0.086 C  
HETATM   10  C   UNL     1      -7.455   7.119  62.614  1.00  0.00    -0.098 C  
HETATM   11  C   UNL     1      -6.700   9.496  62.849  1.00  0.00    -0.100 C  
HETATM   12  C   UNL     1      -5.860   7.703  64.381  1.00  0.00    -0.041 C  
ENDBRANCH   4   9
BRANCH   8  13
HETATM   13  N   UNL     1     -10.748  11.520  64.900  1.00  0.00    -0.297 N  
HETATM   14  C   UNL     1     -11.609  11.595  63.805  1.00  0.00    -0.332 C  
HETATM   15  O   UNL     1      -9.787  12.832  66.635  1.00  0.00    -0.238 OA 
HETATM   16  C   UNL     1     -12.249  12.706  63.434  1.00  0.00    -0.610 C  
HETATM   17  H   UNL     1     -11.353  14.546  66.019  1.00  0.00     0.000 HD 
HETATM   18  C   UNL     1     -12.075  13.922  64.225  1.00  0.00    -0.440 C  
HETATM   19  O   UNL     1     -12.564  14.987  63.873  1.00  0.00    -0.813 OA 
HETATM   20  N   UNL     1     -11.337  13.771  65.356  1.00  0.00    -0.304 N  
HETATM   21  C   UNL     1     -10.571  12.680  65.699  1.00  0.00    -0.273 C  
ENDBRANCH   8  13
BRANCH   6  22
HETATM   22  C   UNL     1      -9.927   7.641  67.963  1.00  0.00    -0.208 A  
HETATM   23  C   UNL     1      -8.045   6.851  71.065  1.00  0.00    -0.106 A  
HETATM   24  C   UNL     1      -9.058   7.771  69.061  1.00  0.00    -0.144 A  
HETATM   25  C   UNL     1      -8.040   5.915  72.093  1.00  0.00    -0.107 A  
HETATM   26  C   UNL     1      -9.103   6.888  70.149  1.00  0.00    -0.152 A  
HETATM   27  C   UNL     1      -9.108   5.038  72.237  1.00  0.00    -0.131 A  
HETATM   28  C   UNL     1     -11.160   5.976  69.272  1.00  0.00    -0.424 A  
HETATM   29  C   UNL     1     -10.191   5.085  71.354  1.00  0.00    -0.270 A  
HETATM   30  C   UNL     1     -11.014   6.761  68.117  1.00  0.00    -0.277 A  
HETATM   31  C   UNL     1     -10.173   5.983  70.272  1.00  0.00    -0.266 A  
BRANCH  27  32
HETATM   32  N   UNL     1      -9.104   4.118  73.321  1.00  0.00    -0.106 N  
HETATM   33  H   UNL     1      -9.346   4.413  74.267  1.00  0.00     0.000 HD 
BRANCH  32  34
HETATM   34  S   UNL     1      -8.682   2.508  72.981  1.00  0.00    -0.071 S  
HETATM   35  C   UNL     1     -10.277   1.727  72.874  1.00  0.00    -0.120 C  
HETATM   36  O   UNL     1      -8.035   2.031  74.185  1.00  0.00    -0.050 OA 
HETATM   37  O   UNL     1      -8.026   2.441  71.697  1.00  0.00    -0.047 OA 
ENDBRANCH  32  34
ENDBRANCH  27  32
ENDBRANCH   6  22
ENDBRANCH   2   3
TORSDOF 6
ENDMDL
MODEL       11
REMARK 921   NORMALIZED FREE ENERGY PREDICTED BY IDOCK:   -6.25 KCAL/MOL
REMARK 922        TOTAL FREE ENERGY PREDICTED BY IDOCK:   -8.68 KCAL/MOL
REMARK 923 INTER-LIGAND FREE ENERGY PREDICTED BY IDOCK:   -8.19 KCAL/MOL
REMARK 924 INTRA-LIGAND FREE ENERGY PREDICTED BY IDOCK:   -0.50 KCAL/MOL
REMARK 927      BINDING AFFINITY PREDICTED BY RF-SCORE:    0.00 PKD
ROOT
HETATM    1  C   UNL     1     -12.758  10.055  70.775  1.00  0.00    -0.273 C  
HETATM    2  O   UNL     1     -11.402   9.717  71.085  1.00  0.00    -0.327 OA 
ENDROOT
BRANCH   2   3
HETATM    3  C   UNL     1     -10.790   8.844  70.214  1.00  0.00    -0.239 A  
HETATM    4  C   UNL     1     -10.800   7.467  70.550  1.00  0.00    -0.259 A  
HETATM    5  C   UNL     1     -10.282   6.576  69.581  1.00  0.00    -0.220 A  
HETATM    6  C   UNL     1     -10.092   9.316  69.063  1.00  0.00    -0.207 A  
HETATM    7  C   UNL     1      -9.586   8.351  68.161  1.00  0.00    -0.158 A  
HETATM    8  C   UNL     1      -9.700   6.967  68.367  1.00  0.00    -0.137 A  
BRANCH   4   9
HETATM    9  C   UNL     1     -11.353   6.870  71.879  1.00  0.00    -0.297 C  
HETATM   10  C   UNL     1     -11.030   7.695  73.148  1.00  0.00    -0.411 C  
HETATM   11  C   UNL     1     -12.883   6.727  71.766  1.00  0.00    -0.307 C  
HETATM   12  C   UNL     1     -10.763   5.459  72.179  1.00  0.00    -0.286 C  
ENDBRANCH   4   9
BRANCH   8  13
HETATM   13  N   UNL     1      -9.206   6.002  67.383  1.00  0.00    -0.110 N  
HETATM   14  C   UNL     1      -7.856   5.653  67.333  1.00  0.00    -0.101 C  
HETATM   15  O   UNL     1     -11.278   5.684  66.259  1.00  0.00    -0.024 OA 
HETATM   16  C   UNL     1      -7.330   4.838  66.418  1.00  0.00    -0.082 C  
HETATM   17  H   UNL     1     -10.176   3.951  65.012  1.00  0.00     0.000 HD 
HETATM   18  C   UNL     1      -8.206   4.240  65.412  1.00  0.00    -0.109 C  
HETATM   19  O   UNL     1      -7.757   3.564  64.496  1.00  0.00    -0.075 OA 
HETATM   20  N   UNL     1      -9.530   4.499  65.578  1.00  0.00    -0.163 N  
HETATM   21  C   UNL     1     -10.087   5.424  66.431  1.00  0.00    -0.204 C  
ENDBRANCH   8  13
BRANCH   6  22
HETATM   22  C   UNL     1      -9.860  10.768  68.782  1.00  0.00    -0.200 A  
HETATM   23  C   UNL     1     -11.898  13.589  67.485  1.00  0.00    -0.406 A  
HETATM   24  C   UNL     1     -10.946  11.637  68.567  1.00  0.00    -0.264 A  
HETATM   25  C   UNL     1     -11.736  14.788  66.801  1.00  0.00    -0.309 A  
HETATM   26  C   UNL     1     -10.783  12.890  67.960  1.00  0.00    -0.244 A  
HETATM   27  C   UNL     1     -10.463  15.317  66.622  1.00  0.00    -0.290 A  
HETATM   28  C   UNL     1      -8.389  12.623  68.148  1.00  0.00    -0.175 A  
HETATM   29  C   UNL     1      -9.340  14.651  67.122  1.00  0.00    -0.231 A  
HETATM   30  C   UNL     1      -8.574  11.311  68.611  1.00  0.00    -0.139 A  
HETATM   31  C   UNL     1      -9.490  13.405  67.756  1.00  0.00    -0.210 A  
BRANCH  27  32
HETATM   32  N   UNL     1     -10.322  16.566  65.958  1.00  0.00    -0.341 N  
HETATM   33  H   UNL     1     -10.430  16.644  64.947  1.00  0.00     0.000 HD 
BRANCH  32  34
HETATM   34  S   UNL     1      -9.965  17.925  66.913  1.00  0.00    -0.352 S  
HETATM   35  C   UNL     1     -10.657  19.245  65.941  1.00  0.00    -0.435 C  
HETATM   36  O   UNL     1      -8.523  18.047  66.863  1.00  0.00    -0.234 OA 
HETATM   37  O   UNL     1     -10.670  17.832  68.169  1.00  0.00    -0.366 OA 
ENDBRANCH  32  34
ENDBRANCH  27  32
ENDBRANCH   6  22
ENDBRANCH   2   3
TORSDOF 6
ENDMDL
MODEL       12
REMARK 921   NORMALIZED FREE ENERGY PREDICTED BY IDOCK:   -6.25 KCAL/MOL
REMARK 922        TOTAL FREE ENERGY PREDICTED BY IDOCK:   -8.68 KCAL/MOL
REMARK 923 INTER-LIGAND FREE ENERGY PREDICTED BY IDOCK:   -8.16 KCAL/MOL
REMARK 924 INTRA-LIGAND FREE ENERGY PREDICTED BY IDOCK:   -0.52 KCAL/MOL
REMARK 927      BINDING AFFINITY PREDICTED BY RF-SCORE:    0.00 PKD
ROOT
HETATM    1  C   UNL     1     -11.806  11.402  70.778  1.00  0.00    -0.127 C  
HETATM    2  O   UNL     1     -12.330  10.330  69.985  1.00  0.00    -0.206 OA 
ENDROOT
BRANCH   2   3
HETATM    3  C   UNL     1     -11.395   9.488  69.428  1.00  0.00     0.054 A  
HETATM    4  C   UNL     1     -11.196   8.227  70.046  1.00  0.00    -0.081 A  
HETATM    5  C   UNL     1     -10.328   7.328  69.385  1.00  0.00    -0.212 A  
HETATM    6  C   UNL     1     -10.589   9.902  68.327  1.00  0.00    -0.269 A  
HETATM    7  C   UNL     1      -9.731   8.941  67.744  1.00  0.00    -0.196 A  
HETATM    8  C   UNL     1      -9.605   7.627  68.221  1.00  0.00    -0.153 A  
BRANCH   4   9
HETATM    9  C   UNL     1     -11.874   7.759  71.369  1.00  0.00    -0.324 C  
HETATM   10  C   UNL     1     -13.364   8.150  71.512  1.00  0.00    -0.313 C  
HETATM   11  C   UNL     1     -11.759   6.226  71.477  1.00  0.00    -0.329 C  
HETATM   12  C   UNL     1     -11.193   8.376  72.628  1.00  0.00    -0.339 C  
ENDBRANCH   4   9
BRANCH   8  13
HETATM   13  N   UNL     1      -8.741   6.649  67.557  1.00  0.00    -0.119 N  
HETATM   14  C   UNL     1      -7.360   6.657  67.756  1.00  0.00    -0.096 C  
HETATM   15  O   UNL     1     -10.458   5.594  66.293  1.00  0.00    -0.193 OA 
HETATM   16  C   UNL     1      -6.512   5.842  67.126  1.00  0.00    -0.047 C  
HETATM   17  H   UNL     1      -8.794   3.994  65.628  1.00  0.00     0.000 HD 
HETATM   18  C   UNL     1      -7.040   4.854  66.188  1.00  0.00    -0.072 C  
HETATM   19  O   UNL     1      -6.297   4.150  65.517  1.00  0.00    -0.030 OA 
HETATM   20  N   UNL     1      -8.396   4.790  66.126  1.00  0.00    -0.111 N  
HETATM   21  C   UNL     1      -9.289   5.689  66.665  1.00  0.00    -0.144 C  
ENDBRANCH   8  13
BRANCH   6  22
HETATM   22  C   UNL     1     -10.601  11.296  67.780  1.00  0.00    -0.239 A  
HETATM   23  C   UNL     1      -9.297  14.598  68.871  1.00  0.00    -0.160 A  
HETATM   24  C   UNL     1      -9.747  12.280  68.312  1.00  0.00    -0.219 A  
HETATM   25  C   UNL     1      -9.577  15.951  68.721  1.00  0.00    -0.219 A  
HETATM   26  C   UNL     1      -9.965  13.647  68.091  1.00  0.00    -0.246 A  
HETATM   27  C   UNL     1     -10.496  16.366  67.764  1.00  0.00    -0.300 A  
HETATM   28  C   UNL     1     -11.648  13.073  66.457  1.00  0.00    -0.407 A  
HETATM   29  C   UNL     1     -11.146  15.433  66.951  1.00  0.00    -0.256 A  
HETATM   30  C   UNL     1     -11.521  11.719  66.804  1.00  0.00    -0.352 A  
HETATM   31  C   UNL     1     -10.918  14.059  67.143  1.00  0.00    -0.303 A  
BRANCH  27  32
HETATM   32  N   UNL     1     -10.736  17.758  67.596  1.00  0.00    -0.371 N  
HETATM   33  H   UNL     1     -11.365  18.265  68.219  1.00  0.00     0.000 HD 
BRANCH  32  34
HETATM   34  S   UNL     1      -9.936  18.542  66.320  1.00  0.00    -0.341 S  
HETATM   35  C   UNL     1      -9.586  20.134  67.033  1.00  0.00    -0.424 C  
HETATM   36  O   UNL     1     -10.949  18.726  65.303  1.00  0.00    -0.531 OA 
HETATM   37  O   UNL     1      -8.697  17.860  66.033  1.00  0.00    -0.492 OA 
ENDBRANCH  32  34
ENDBRANCH  27  32
ENDBRANCH   6  22
ENDBRANCH   2   3
TORSDOF 6
ENDMDL
MODEL       13
REMARK 921   NORMALIZED FREE ENERGY PREDICTED BY IDOCK:   -6.25 KCAL/MOL
REMARK 922        TOTAL FREE ENERGY PREDICTED BY IDOCK:   -8.68 KCAL/MOL
REMARK 923 INTER-LIGAND FREE ENERGY PREDICTED BY IDOCK:   -7.98 KCAL/MOL
REMARK 924 INTRA-LIGAND FREE ENERGY PREDICTED BY IDOCK:   -0.70 KCAL/MOL
REMARK 927      BINDING AFFINITY PREDICTED BY RF-SCORE:    0.00 PKD
ROOT
HETATM    1  C   UNL     1      -6.939   8.160  64.779  1.00  0.00    -0.074 C  
HETATM    2  O   UNL     1      -8.249   7.582  64.807  1.00  0.00    -0.129 OA 
ENDROOT
BRANCH   2   3
HETATM    3  C   UNL     1      -8.737   7.268  66.056  1.00  0.00    -0.151 A  
HETATM    4  C   UNL     1      -8.775   5.899  66.420  1.00  0.00    -0.131 A  
HETATM    5  C   UNL     1      -9.156   5.608  67.750  1.00  0.00    -0.106 A  
HETATM    6  C   UNL     1      -9.270   8.273  66.915  1.00  0.00    -0.197 A  
HETATM    7  C   UNL     1      -9.648   7.885  68.222  1.00  0.00    -0.164 A  
HETATM    8  C   UNL     1      -9.565   6.565  68.690  1.00  0.00    -0.125 A  
BRANCH   4   9
HETATM    9  C   UNL     1      -8.410   4.709  65.482  1.00  0.00    -0.118 C  
HETATM   10  C   UNL     1      -8.902   4.856  64.022  1.00  0.00    -0.083 C  
HETATM   11  C   UNL     1      -6.879   4.534  65.465  1.00  0.00    -0.057 C  
HETATM   12  C   UNL     1      -9.037   3.367  65.964  1.00  0.00    -0.153 C  
ENDBRANCH   4   9
BRANCH   8  13
HETATM   13  N   UNL     1      -9.922   6.215  70.066  1.00  0.00    -0.169 N  
HETATM   14  C   UNL     1      -8.970   5.703  70.949  1.00  0.00    -0.140 C  
HETATM   15  O   UNL     1     -12.243   6.696  69.869  1.00  0.00    -0.123 OA 
HETATM   16  C   UNL     1      -9.245   5.298  72.190  1.00  0.00    -0.156 C  
HETATM   17  H   UNL     1     -12.385   6.303  72.235  1.00  0.00     0.000 HD 
HETATM   18  C   UNL     1     -10.615   5.415  72.687  1.00  0.00    -0.228 C  
HETATM   19  O   UNL     1     -10.936   4.970  73.781  1.00  0.00    -0.297 OA 
HETATM   20  N   UNL     1     -11.479   6.041  71.847  1.00  0.00    -0.288 N  
HETATM   21  C   UNL     1     -11.259   6.358  70.525  1.00  0.00    -0.352 C  
ENDBRANCH   8  13
BRANCH   6  22
HETATM   22  C   UNL     1      -9.459   9.698  66.495  1.00  0.00    -0.233 A  
HETATM   23  C   UNL     1      -9.352  13.009  68.173  1.00  0.00    -0.217 A  
HETATM   24  C   UNL     1      -9.054  10.751  67.334  1.00  0.00    -0.148 A  
HETATM   25  C   UNL     1      -9.893  14.283  68.041  1.00  0.00    -0.224 A  
HETATM   26  C   UNL     1      -9.522  12.061  67.157  1.00  0.00    -0.187 A  
HETATM   27  C   UNL     1     -10.573  14.630  66.880  1.00  0.00    -0.281 A  
HETATM   28  C   UNL     1     -10.480  11.389  65.044  1.00  0.00    -0.361 A  
HETATM   29  C   UNL     1     -10.720  13.708  65.840  1.00  0.00    -0.281 A  
HETATM   30  C   UNL     1     -10.136  10.055  65.314  1.00  0.00    -0.299 A  
HETATM   31  C   UNL     1     -10.234  12.397  65.992  1.00  0.00    -0.267 A  
BRANCH  27  32
HETATM   32  N   UNL     1     -11.081  15.952  66.747  1.00  0.00    -0.148 N  
HETATM   33  H   UNL     1     -11.914  16.252  67.254  1.00  0.00     0.000 HD 
BRANCH  32  34
HETATM   34  S   UNL     1     -10.249  17.011  65.713  1.00  0.00    -0.172 S  
HETATM   35  C   UNL     1     -10.532  18.583  66.496  1.00  0.00    -0.398 C  
HETATM   36  O   UNL     1     -11.001  16.991  64.476  1.00  0.00    -1.031 OA 
HETATM   37  O   UNL     1      -8.838  16.707  65.741  1.00  0.00    -0.493 OA 
ENDBRANCH  32  34
ENDBRANCH  27  32
ENDBRANCH   6  22
ENDBRANCH   2   3
TORSDOF 6
ENDMDL
MODEL       14
REMARK 921   NORMALIZED FREE ENERGY PREDICTED BY IDOCK:   -6.15 KCAL/MOL
REMARK 922        TOTAL FREE ENERGY PREDICTED BY IDOCK:   -8.54 KCAL/MOL
REMARK 923 INTER-LIGAND FREE ENERGY PREDICTED BY IDOCK:   -8.82 KCAL/MOL
REMARK 924 INTRA-LIGAND FREE ENERGY PREDICTED BY IDOCK:    0.28 KCAL/MOL
REMARK 927      BINDING AFFINITY PREDICTED BY RF-SCORE:    0.00 PKD
ROOT
HETATM    1  C   UNL     1     -11.537  10.860  70.511  1.00  0.00    -0.300 C  
HETATM    2  O   UNL     1     -12.339  11.890  69.922  1.00  0.00    -0.201 OA 
ENDROOT
BRANCH   2   3
HETATM    3  C   UNL     1     -11.685  13.069  69.643  1.00  0.00    -0.297 A  
HETATM    4  C   UNL     1     -11.981  14.192  70.456  1.00  0.00    -0.393 A  
HETATM    5  C   UNL     1     -11.206  15.354  70.236  1.00  0.00    -0.328 A  
HETATM    6  C   UNL     1     -10.814  13.183  68.520  1.00  0.00    -0.285 A  
HETATM    7  C   UNL     1     -10.097  14.393  68.367  1.00  0.00    -0.244 A  
HETATM    8  C   UNL     1     -10.236  15.488  69.233  1.00  0.00    -0.252 A  
BRANCH   4   9
HETATM    9  C   UNL     1     -13.066  14.231  71.574  1.00  0.00    -0.413 C  
HETATM   10  C   UNL     1     -13.514  12.845  72.096  1.00  0.00    -0.619 C  
HETATM   11  C   UNL     1     -12.532  15.051  72.764  1.00  0.00    -0.472 C  
HETATM   12  C   UNL     1     -14.386  14.902  71.088  1.00  0.00    -0.331 C  
ENDBRANCH   4   9
BRANCH   8  13
HETATM   13  N   UNL     1      -9.438  16.704  69.065  1.00  0.00    -0.257 N  
HETATM   14  C   UNL     1     -10.039  17.922  68.743  1.00  0.00    -0.384 C  
HETATM   15  O   UNL     1      -7.316  15.674  69.373  1.00  0.00    -0.194 OA 
HETATM   16  C   UNL     1      -9.364  19.047  68.506  1.00  0.00    -0.425 C  
HETATM   17  H   UNL     1      -6.387  17.888  69.318  1.00  0.00     0.000 HD 
HETATM   18  C   UNL     1      -7.907  19.036  68.612  1.00  0.00    -0.348 C  
HETATM   19  O   UNL     1      -7.238  20.016  68.312  1.00  0.00    -0.295 OA 
HETATM   20  N   UNL     1      -7.372  17.869  69.058  1.00  0.00    -0.234 N  
HETATM   21  C   UNL     1      -8.024  16.664  69.193  1.00  0.00    -0.154 C  
ENDBRANCH   8  13
BRANCH   6  22
HETATM   22  C   UNL     1     -10.639  12.098  67.503  1.00  0.00    -0.240 A  
HETATM   23  C   UNL     1      -8.181   9.380  66.900  1.00  0.00    -0.116 A  
HETATM   24  C   UNL     1      -9.745  11.037  67.735  1.00  0.00    -0.183 A  
HETATM   25  C   UNL     1      -7.665   8.631  65.849  1.00  0.00    -0.101 A  
HETATM   26  C   UNL     1      -9.287  10.214  66.697  1.00  0.00    -0.195 A  
HETATM   27  C   UNL     1      -8.273   8.680  64.600  1.00  0.00    -0.165 A  
HETATM   28  C   UNL     1     -10.924  11.220  65.233  1.00  0.00    -0.207 A  
HETATM   29  C   UNL     1      -9.400   9.478  64.388  1.00  0.00    -0.120 A  
HETATM   30  C   UNL     1     -11.261  12.136  66.241  1.00  0.00    -0.382 A  
HETATM   31  C   UNL     1      -9.888  10.290  65.427  1.00  0.00    -0.362 A  
BRANCH  27  32
HETATM   32  N   UNL     1      -7.755   7.872  63.550  1.00  0.00    -0.130 N  
HETATM   33  H   UNL     1      -7.271   8.286  62.753  1.00  0.00     0.000 HD 
BRANCH  32  34
HETATM   34  S   UNL     1      -7.975   6.192  63.672  1.00  0.00    -0.063 S  
HETATM   35  C   UNL     1      -6.323   5.634  64.026  1.00  0.00    -0.025 C  
HETATM   36  O   UNL     1      -8.309   5.762  62.331  1.00  0.00    -0.103 OA 
HETATM   37  O   UNL     1      -8.834   5.897  64.793  1.00  0.00    -0.006 OA 
ENDBRANCH  32  34
ENDBRANCH  27  32
ENDBRANCH   6  22
ENDBRANCH   2   3
TORSDOF 6
ENDMDL
MODEL       15
REMARK 921   NORMALIZED FREE ENERGY PREDICTED BY IDOCK:   -6.11 KCAL/MOL
REMARK 922        TOTAL FREE ENERGY PREDICTED BY IDOCK:   -8.50 KCAL/MOL
REMARK 923 INTER-LIGAND FREE ENERGY PREDICTED BY IDOCK:   -8.48 KCAL/MOL
REMARK 924 INTRA-LIGAND FREE ENERGY PREDICTED BY IDOCK:   -0.02 KCAL/MOL
REMARK 927      BINDING AFFINITY PREDICTED BY RF-SCORE:    0.00 PKD
ROOT
HETATM    1  C   UNL     1     -10.339   9.525  66.030  1.00  0.00    -0.060 C  
HETATM    2  O   UNL     1     -11.368  10.504  66.216  1.00  0.00     0.129 OA 
ENDROOT
BRANCH   2   3
HETATM    3  C   UNL     1     -10.939  11.757  66.589  1.00  0.00    -0.294 A  
HETATM    4  C   UNL     1     -11.078  12.806  65.645  1.00  0.00    -0.311 A  
HETATM    5  C   UNL     1     -10.752  14.107  66.093  1.00  0.00    -0.297 A  
HETATM    6  C   UNL     1     -10.292  11.975  67.841  1.00  0.00    -0.209 A  
HETATM    7  C   UNL     1      -9.980  13.309  68.194  1.00  0.00    -0.234 A  
HETATM    8  C   UNL     1     -10.236  14.409  67.361  1.00  0.00    -0.247 A  
BRANCH   4   9
HETATM    9  C   UNL     1     -11.580  12.635  64.180  1.00  0.00    -0.458 C  
HETATM   10  C   UNL     1     -12.820  11.723  64.018  1.00  0.00    -0.181 C  
HETATM   11  C   UNL     1     -11.916  14.023  63.599  1.00  0.00    -0.109 C  
HETATM   12  C   UNL     1     -10.502  11.984  63.262  1.00  0.00    -0.403 C  
ENDBRANCH   4   9
BRANCH   8  13
HETATM   13  N   UNL     1      -9.942  15.778  67.787  1.00  0.00    -0.226 N  
HETATM   14  C   UNL     1      -8.647  16.293  67.714  1.00  0.00    -0.171 C  
HETATM   15  O   UNL     1     -12.135  16.295  68.550  1.00  0.00    -0.004 OA 
HETATM   16  C   UNL     1      -8.300  17.504  68.153  1.00  0.00    -0.249 C  
HETATM   17  H   UNL     1     -11.347  18.542  68.866  1.00  0.00     0.000 HD 
HETATM   18  C   UNL     1      -9.327  18.374  68.722  1.00  0.00    -0.279 C  
HETATM   19  O   UNL     1      -9.043  19.453  69.223  1.00  0.00    -0.248 OA 
HETATM   20  N   UNL     1     -10.595  17.888  68.651  1.00  0.00    -0.243 N  
HETATM   21  C   UNL     1     -10.967  16.606  68.319  1.00  0.00    -0.341 C  
ENDBRANCH   8  13
BRANCH   6  22
HETATM   22  C   UNL     1      -9.919  10.867  68.776  1.00  0.00    -0.203 A  
HETATM   23  C   UNL     1     -11.646   8.923  71.428  1.00  0.00    -0.382 A  
HETATM   24  C   UNL     1     -10.913  10.149  69.466  1.00  0.00    -0.295 A  
HETATM   25  C   UNL     1     -11.352   8.228  72.595  1.00  0.00    -0.421 A  
HETATM   26  C   UNL     1     -10.615   9.368  70.592  1.00  0.00    -0.354 A  
HETATM   27  C   UNL     1     -10.031   7.939  72.915  1.00  0.00    -0.294 A  
HETATM   28  C   UNL     1      -8.264   9.662  70.123  1.00  0.00    -0.206 A  
HETATM   29  C   UNL     1      -8.991   8.344  72.073  1.00  0.00    -0.290 A  
HETATM   30  C   UNL     1      -8.583  10.562  69.095  1.00  0.00    -0.157 A  
HETATM   31  C   UNL     1      -9.275   9.105  70.926  1.00  0.00    -0.326 A  
BRANCH  27  32
HETATM   32  N   UNL     1      -9.754   7.189  74.091  1.00  0.00    -0.394 N  
HETATM   33  H   UNL     1      -9.585   7.650  74.985  1.00  0.00     0.000 HD 
BRANCH  32  34
HETATM   34  S   UNL     1      -9.716   5.497  73.950  1.00  0.00    -0.171 S  
HETATM   35  C   UNL     1      -9.649   5.279  72.186  1.00  0.00    -0.151 C  
HETATM   36  O   UNL     1     -11.019   5.056  74.402  1.00  0.00    -0.289 OA 
HETATM   37  O   UNL     1      -8.502   4.989  74.544  1.00  0.00    -0.109 OA 
ENDBRANCH  32  34
ENDBRANCH  27  32
ENDBRANCH   6  22
ENDBRANCH   2   3
TORSDOF 6
ENDMDL
MODEL       16
REMARK 921   NORMALIZED FREE ENERGY PREDICTED BY IDOCK:   -6.07 KCAL/MOL
REMARK 922        TOTAL FREE ENERGY PREDICTED BY IDOCK:   -8.44 KCAL/MOL
REMARK 923 INTER-LIGAND FREE ENERGY PREDICTED BY IDOCK:   -8.23 KCAL/MOL
REMARK 924 INTRA-LIGAND FREE ENERGY PREDICTED BY IDOCK:   -0.21 KCAL/MOL
REMARK 927      BINDING AFFINITY PREDICTED BY RF-SCORE:    0.00 PKD
ROOT
HETATM    1  C   UNL     1      -9.071   9.334  64.721  1.00  0.00    -0.144 C  
HETATM    2  O   UNL     1      -8.149   9.262  65.815  1.00  0.00    -0.110 OA 
ENDROOT
BRANCH   2   3
HETATM    3  C   UNL     1      -8.656   8.755  66.990  1.00  0.00    -0.116 A  
HETATM    4  C   UNL     1      -8.414   7.386  67.273  1.00  0.00    -0.118 A  
HETATM    5  C   UNL     1      -8.830   6.919  68.541  1.00  0.00    -0.124 A  
HETATM    6  C   UNL     1      -9.475   9.549  67.846  1.00  0.00    -0.149 A  
HETATM    7  C   UNL     1      -9.864   8.989  69.085  1.00  0.00    -0.175 A  
HETATM    8  C   UNL     1      -9.524   7.688  69.487  1.00  0.00    -0.152 A  
BRANCH   4   9
HETATM    9  C   UNL     1      -7.711   6.381  66.311  1.00  0.00    -0.099 C  
HETATM   10  C   UNL     1      -8.454   6.127  64.978  1.00  0.00    -0.071 C  
HETATM   11  C   UNL     1      -6.296   6.900  65.990  1.00  0.00    -0.050 C  
HETATM   12  C   UNL     1      -7.566   4.965  66.946  1.00  0.00    -0.088 C  
ENDBRANCH   4   9
BRANCH   8  13
HETATM   13  N   UNL     1      -9.906   7.166  70.799  1.00  0.00    -0.179 N  
HETATM   14  C   UNL     1      -8.985   7.098  71.844  1.00  0.00    -0.127 C  
HETATM   15  O   UNL     1     -12.132   6.570  70.208  1.00  0.00    -0.348 OA 
HETATM   16  C   UNL     1      -9.249   6.567  73.039  1.00  0.00    -0.141 C  
HETATM   17  H   UNL     1     -12.468   6.067  72.533  1.00  0.00     0.000 HD 
HETATM   18  C   UNL     1     -10.588   6.043  73.302  1.00  0.00    -0.256 C  
HETATM   19  O   UNL     1     -10.852   5.462  74.346  1.00  0.00    -0.255 OA 
HETATM   20  N   UNL     1     -11.491   6.250  72.308  1.00  0.00    -0.294 N  
HETATM   21  C   UNL     1     -11.222   6.682  71.029  1.00  0.00    -0.300 C  
ENDBRANCH   8  13
BRANCH   6  22
HETATM   22  C   UNL     1      -9.945  10.924  67.487  1.00  0.00    -0.201 A  
HETATM   23  C   UNL     1      -8.395  14.290  67.232  1.00  0.00    -0.222 A  
HETATM   24  C   UNL     1      -9.020  11.945  67.201  1.00  0.00    -0.178 A  
HETATM   25  C   UNL     1      -8.747  15.630  67.337  1.00  0.00    -0.194 A  
HETATM   26  C   UNL     1      -9.384  13.299  67.214  1.00  0.00    -0.226 A  
HETATM   27  C   UNL     1     -10.088  15.992  67.385  1.00  0.00    -0.258 A  
HETATM   28  C   UNL     1     -11.699  12.633  67.383  1.00  0.00    -0.432 A  
HETATM   29  C   UNL     1     -11.089  15.019  67.331  1.00  0.00    -0.324 A  
HETATM   30  C   UNL     1     -11.302  11.294  67.523  1.00  0.00    -0.360 A  
HETATM   31  C   UNL     1     -10.741  13.658  67.292  1.00  0.00    -0.283 A  
BRANCH  27  32
HETATM   32  N   UNL     1     -10.428  17.372  67.449  1.00  0.00    -0.345 N  
HETATM   33  H   UNL     1     -10.854  17.774  68.284  1.00  0.00     0.000 HD 
BRANCH  32  34
HETATM   34  S   UNL     1     -10.097  18.324  66.082  1.00  0.00    -0.300 S  
HETATM   35  C   UNL     1     -10.782  19.896  66.558  1.00  0.00    -0.333 C  
HETATM   36  O   UNL     1     -10.934  17.776  65.035  1.00  0.00    -0.784 OA 
HETATM   37  O   UNL     1      -8.669  18.452  65.915  1.00  0.00    -0.497 OA 
ENDBRANCH  32  34
ENDBRANCH  27  32
ENDBRANCH   6  22
ENDBRANCH   2   3
TORSDOF 6
ENDMDL
MODEL       17
REMARK 921   NORMALIZED FREE ENERGY PREDICTED BY IDOCK:   -6.06 KCAL/MOL
REMARK 922        TOTAL FREE ENERGY PREDICTED BY IDOCK:   -8.43 KCAL/MOL
REMARK 923 INTER-LIGAND FREE ENERGY PREDICTED BY IDOCK:   -8.48 KCAL/MOL
REMARK 924 INTRA-LIGAND FREE ENERGY PREDICTED BY IDOCK:    0.05 KCAL/MOL
REMARK 927      BINDING AFFINITY PREDICTED BY RF-SCORE:    0.00 PKD
ROOT
HETATM    1  C   UNL     1     -11.053  10.499  66.125  1.00  0.00     0.262 C  
HETATM    2  O   UNL     1     -11.656  11.645  66.738  1.00  0.00    -0.503 OA 
ENDROOT
BRANCH   2   3
HETATM    3  C   UNL     1     -10.796  12.671  67.058  1.00  0.00    -0.253 A  
HETATM    4  C   UNL     1     -10.778  13.803  66.204  1.00  0.00    -0.283 A  
HETATM    5  C   UNL     1      -9.986  14.898  66.621  1.00  0.00    -0.267 A  
HETATM    6  C   UNL     1      -9.890  12.562  68.154  1.00  0.00    -0.221 A  
HETATM    7  C   UNL     1      -9.120  13.702  68.483  1.00  0.00    -0.112 A  
HETATM    8  C   UNL     1      -9.173  14.905  67.763  1.00  0.00    -0.186 A  
BRANCH   4   9
HETATM    9  C   UNL     1     -11.575  13.935  64.872  1.00  0.00    -0.365 C  
HETATM   10  C   UNL     1     -11.821  15.388  64.400  1.00  0.00    -0.260 C  
HETATM   11  C   UNL     1     -10.820  13.183  63.759  1.00  0.00    -0.172 C  
HETATM   12  C   UNL     1     -13.003  13.319  64.978  1.00  0.00    -0.228 C  
ENDBRANCH   4   9
BRANCH   8  13
HETATM   13  N   UNL     1      -8.394  16.076  68.168  1.00  0.00    -0.158 N  
HETATM   14  C   UNL     1      -7.002  16.020  68.257  1.00  0.00    -0.120 C  
HETATM   15  O   UNL     1     -10.253  17.498  68.591  1.00  0.00    -0.335 OA 
HETATM   16  C   UNL     1      -6.241  17.027  68.689  1.00  0.00    -0.153 C  
HETATM   17  H   UNL     1      -8.655  19.261  68.920  1.00  0.00     0.000 HD 
HETATM   18  C   UNL     1      -6.879  18.286  69.070  1.00  0.00    -0.254 C  
HETATM   19  O   UNL     1      -6.235  19.204  69.561  1.00  0.00    -0.262 OA 
HETATM   20  N   UNL     1      -8.217  18.344  68.841  1.00  0.00    -0.226 N  
HETATM   21  C   UNL     1      -9.043  17.292  68.514  1.00  0.00    -0.269 C  
ENDBRANCH   8  13
BRANCH   6  22
HETATM   22  C   UNL     1      -9.711  11.306  68.949  1.00  0.00    -0.141 A  
HETATM   23  C   UNL     1     -11.752   9.375  71.377  1.00  0.00    -0.448 A  
HETATM   24  C   UNL     1     -10.814  10.684  69.562  1.00  0.00    -0.303 A  
HETATM   25  C   UNL     1     -11.584   8.509  72.451  1.00  0.00    -0.425 A  
HETATM   26  C   UNL     1     -10.656   9.740  70.586  1.00  0.00    -0.382 A  
HETATM   27  C   UNL     1     -10.331   7.972  72.719  1.00  0.00    -0.339 A  
HETATM   28  C   UNL     1      -8.286   9.697  70.126  1.00  0.00    -0.206 A  
HETATM   29  C   UNL     1      -9.233   8.296  71.918  1.00  0.00    -0.272 A  
HETATM   30  C   UNL     1      -8.445  10.752  69.214  1.00  0.00    -0.058 A  
HETATM   31  C   UNL     1      -9.380   9.223  70.870  1.00  0.00    -0.313 A  
BRANCH  27  32
HETATM   32  N   UNL     1     -10.189   7.054  73.796  1.00  0.00    -0.347 N  
HETATM   33  H   UNL     1     -10.085   7.378  74.758  1.00  0.00     0.000 HD 
BRANCH  32  34
HETATM   34  S   UNL     1     -10.198   5.398  73.421  1.00  0.00    -0.213 S  
HETATM   35  C   UNL     1      -8.466   5.068  73.181  1.00  0.00    -0.110 C  
HETATM   36  O   UNL     1     -10.848   5.312  72.130  1.00  0.00    -0.225 OA 
HETATM   37  O   UNL     1     -10.678   4.646  74.556  1.00  0.00    -0.333 OA 
ENDBRANCH  32  34
ENDBRANCH  27  32
ENDBRANCH   6  22
ENDBRANCH   2   3
TORSDOF 6
ENDMDL
MODEL       18
REMARK 921   NORMALIZED FREE ENERGY PREDICTED BY IDOCK:   -5.97 KCAL/MOL
REMARK 922        TOTAL FREE ENERGY PREDICTED BY IDOCK:   -8.31 KCAL/MOL
REMARK 923 INTER-LIGAND FREE ENERGY PREDICTED BY IDOCK:   -8.53 KCAL/MOL
REMARK 924 INTRA-LIGAND FREE ENERGY PREDICTED BY IDOCK:    0.22 KCAL/MOL
REMARK 927      BINDING AFFINITY PREDICTED BY RF-SCORE:    0.00 PKD
ROOT
HETATM    1  C   UNL     1     -12.392  12.114  64.749  1.00  0.00    -0.230 C  
HETATM    2  O   UNL     1     -11.200  12.297  65.520  1.00  0.00    -0.310 OA 
ENDROOT
BRANCH   2   3
HETATM    3  C   UNL     1     -11.378  12.828  66.778  1.00  0.00    -0.313 A  
HETATM    4  C   UNL     1     -11.395  14.241  66.897  1.00  0.00    -0.354 A  
HETATM    5  C   UNL     1     -11.708  14.764  68.172  1.00  0.00    -0.353 A  
HETATM    6  C   UNL     1     -11.449  11.992  67.931  1.00  0.00    -0.396 A  
HETATM    7  C   UNL     1     -11.743  12.607  69.170  1.00  0.00    -0.375 A  
HETATM    8  C   UNL     1     -11.922  13.991  69.322  1.00  0.00    -0.353 A  
BRANCH   4   9
HETATM    9  C   UNL     1     -11.122  15.243  65.735  1.00  0.00    -0.301 C  
HETATM   10  C   UNL     1     -12.286  15.407  64.729  1.00  0.00     0.048 C  
HETATM   11  C   UNL     1     -10.795  16.626  66.332  1.00  0.00    -0.012 C  
HETATM   12  C   UNL     1      -9.912  14.807  64.855  1.00  0.00    -0.089 C  
ENDBRANCH   4   9
BRANCH   8  13
HETATM   13  N   UNL     1     -12.273  14.581  70.615  1.00  0.00    -0.307 N  
HETATM   14  C   UNL     1     -13.217  13.980  71.448  1.00  0.00    -0.334 C  
HETATM   15  O   UNL     1     -10.913  16.521  70.400  1.00  0.00    -0.309 OA 
HETATM   16  C   UNL     1     -13.634  14.503  72.602  1.00  0.00    -0.577 C  
HETATM   17  H   UNL     1     -11.509  17.022  72.672  1.00  0.00     0.000 HD 
HETATM   18  C   UNL     1     -13.060  15.768  73.057  1.00  0.00    -0.543 C  
HETATM   19  O   UNL     1     -13.477  16.335  74.058  1.00  0.00    -0.470 OA 
HETATM   20  N   UNL     1     -12.050  16.250  72.285  1.00  0.00    -0.516 N  
HETATM   21  C   UNL     1     -11.682  15.802  71.037  1.00  0.00    -0.422 C  
ENDBRANCH   8  13
BRANCH   6  22
HETATM   22  C   UNL     1     -11.213  10.514  67.888  1.00  0.00    -0.358 A  
HETATM   23  C   UNL     1     -11.243   7.738  70.356  1.00  0.00    -0.246 A  
HETATM   24  C   UNL     1     -11.596   9.697  68.968  1.00  0.00     0.277 A  
HETATM   25  C   UNL     1     -10.663   6.491  70.557  1.00  0.00    -0.305 A  
HETATM   26  C   UNL     1     -11.089   8.401  69.133  1.00  0.00     0.188 A  
HETATM   27  C   UNL     1      -9.959   5.881  69.525  1.00  0.00    -0.185 A  
HETATM   28  C   UNL     1     -10.125   8.541  66.923  1.00  0.00    -0.364 A  
HETATM   29  C   UNL     1      -9.826   6.511  68.285  1.00  0.00    -0.132 A  
HETATM   30  C   UNL     1     -10.511   9.889  66.842  1.00  0.00    -0.284 A  
HETATM   31  C   UNL     1     -10.352   7.801  68.095  1.00  0.00    -0.248 A  
BRANCH  27  32
HETATM   32  N   UNL     1      -9.411   4.586  69.737  1.00  0.00    -0.136 N  
HETATM   33  H   UNL     1     -10.008   3.761  69.798  1.00  0.00     0.000 HD 
BRANCH  32  34
HETATM   34  S   UNL     1      -7.723   4.464  69.885  1.00  0.00    -0.053 S  
HETATM   35  C   UNL     1      -7.550   3.014  70.901  1.00  0.00    -0.036 C  
HETATM   36  O   UNL     1      -7.335   5.611  70.679  1.00  0.00    -0.078 OA 
HETATM   37  O   UNL     1      -7.140   4.215  68.588  1.00  0.00    -0.053 OA 
ENDBRANCH  32  34
ENDBRANCH  27  32
ENDBRANCH   6  22
ENDBRANCH   2   3
TORSDOF 6
ENDMDL
MODEL       19
REMARK 921   NORMALIZED FREE ENERGY PREDICTED BY IDOCK:   -5.97 KCAL/MOL
REMARK 922        TOTAL FREE ENERGY PREDICTED BY IDOCK:   -8.31 KCAL/MOL
REMARK 923 INTER-LIGAND FREE ENERGY PREDICTED BY IDOCK:   -8.20 KCAL/MOL
REMARK 924 INTRA-LIGAND FREE ENERGY PREDICTED BY IDOCK:   -0.10 KCAL/MOL
REMARK 927      BINDING AFFINITY PREDICTED BY RF-SCORE:    0.00 PKD
ROOT
HETATM    1  C   UNL     1     -10.995  12.953  64.786  1.00  0.00    -0.318 C  
HETATM    2  O   UNL     1      -9.943  13.418  65.640  1.00  0.00    -0.285 OA 
ENDROOT
BRANCH   2   3
HETATM    3  C   UNL     1     -10.319  13.745  66.924  1.00  0.00    -0.266 A  
HETATM    4  C   UNL     1     -10.503  15.119  67.224  1.00  0.00    -0.271 A  
HETATM    5  C   UNL     1     -11.012  15.423  68.507  1.00  0.00    -0.278 A  
HETATM    6  C   UNL     1     -10.427  12.750  67.939  1.00  0.00    -0.226 A  
HETATM    7  C   UNL     1     -10.923  13.152  69.201  1.00  0.00    -0.194 A  
HETATM    8  C   UNL     1     -11.268  14.477  69.510  1.00  0.00    -0.264 A  
BRANCH   4   9
HETATM    9  C   UNL     1     -10.212  16.298  66.247  1.00  0.00    -0.339 C  
HETATM   10  C   UNL     1      -8.727  16.460  65.844  1.00  0.00    -0.134 C  
HETATM   11  C   UNL     1     -11.047  16.107  64.966  1.00  0.00    -0.304 C  
HETATM   12  C   UNL     1     -10.595  17.678  66.863  1.00  0.00    -0.235 C  
ENDBRANCH   4   9
BRANCH   8  13
HETATM   13  N   UNL     1     -11.824  14.841  70.814  1.00  0.00    -0.295 N  
HETATM   14  C   UNL     1     -11.504  16.056  71.419  1.00  0.00    -0.398 C  
HETATM   15  O   UNL     1     -12.989  12.800  71.184  1.00  0.00    -0.271 OA 
HETATM   16  C   UNL     1     -11.918  16.416  72.635  1.00  0.00    -0.595 C  
HETATM   17  H   UNL     1     -13.925  13.848  73.132  1.00  0.00     0.000 HD 
HETATM   18  C   UNL     1     -12.784  15.509  73.387  1.00  0.00    -0.532 C  
HETATM   19  O   UNL     1     -13.111  15.751  74.541  1.00  0.00    -0.227 OA 
HETATM   20  N   UNL     1     -13.180  14.400  72.709  1.00  0.00    -0.495 N  
HETATM   21  C   UNL     1     -12.678  13.945  71.511  1.00  0.00    -0.357 C  
ENDBRANCH   8  13
BRANCH   6  22
HETATM   22  C   UNL     1     -10.028  11.321  67.734  1.00  0.00    -0.193 A  
HETATM   23  C   UNL     1      -6.862   9.514  67.020  1.00  0.00    -0.084 A  
HETATM   24  C   UNL     1      -8.673  10.944  67.773  1.00  0.00    -0.129 A  
HETATM   25  C   UNL     1      -6.423   8.344  66.412  1.00  0.00    -0.058 A  
HETATM   26  C   UNL     1      -8.228   9.724  67.244  1.00  0.00    -0.117 A  
HETATM   27  C   UNL     1      -7.340   7.361  66.060  1.00  0.00    -0.075 A  
HETATM   28  C   UNL     1     -10.531   9.037  67.002  1.00  0.00    -0.316 A  
HETATM   29  C   UNL     1      -8.703   7.537  66.309  1.00  0.00    -0.165 A  
HETATM   30  C   UNL     1     -10.952  10.319  67.388  1.00  0.00    -0.317 A  
HETATM   31  C   UNL     1      -9.163   8.745  66.863  1.00  0.00    -0.195 A  
BRANCH  27  32
HETATM   32  N   UNL     1      -6.865   6.152  65.478  1.00  0.00    -0.051 N  
HETATM   33  H   UNL     1      -6.586   5.360  66.057  1.00  0.00     0.000 HD 
BRANCH  32  34
HETATM   34  S   UNL     1      -6.781   6.078  63.784  1.00  0.00    -0.038 S  
HETATM   35  C   UNL     1      -7.362   4.428  63.461  1.00  0.00    -0.054 C  
HETATM   36  O   UNL     1      -5.367   6.117  63.479  1.00  0.00    -0.017 OA 
HETATM   37  O   UNL     1      -7.701   7.032  63.211  1.00  0.00    -0.108 OA 
ENDBRANCH  32  34
ENDBRANCH  27  32
ENDBRANCH   6  22
ENDBRANCH   2   3
TORSDOF 6
ENDMDL
MODEL       20
REMARK 921   NORMALIZED FREE ENERGY PREDICTED BY IDOCK:   -5.93 KCAL/MOL
REMARK 922        TOTAL FREE ENERGY PREDICTED BY IDOCK:   -8.26 KCAL/MOL
REMARK 923 INTER-LIGAND FREE ENERGY PREDICTED BY IDOCK:   -8.01 KCAL/MOL
REMARK 924 INTRA-LIGAND FREE ENERGY PREDICTED BY IDOCK:   -0.25 KCAL/MOL
REMARK 927      BINDING AFFINITY PREDICTED BY RF-SCORE:    0.00 PKD
ROOT
HETATM    1  C   UNL     1      -9.485   9.325  71.295  1.00  0.00    -0.175 C  
HETATM    2  O   UNL     1     -10.596   8.753  70.596  1.00  0.00    -0.200 OA 
ENDROOT
BRANCH   2   3
HETATM    3  C   UNL     1     -10.277   7.958  69.518  1.00  0.00    -0.208 A  
HETATM    4  C   UNL     1     -10.148   6.564  69.747  1.00  0.00    -0.207 A  
HETATM    5  C   UNL     1      -9.948   5.752  68.606  1.00  0.00    -0.201 A  
HETATM    6  C   UNL     1      -9.994   8.523  68.240  1.00  0.00    -0.211 A  
HETATM    7  C   UNL     1      -9.783   7.632  67.161  1.00  0.00    -0.239 A  
HETATM    8  C   UNL     1      -9.795   6.235  67.299  1.00  0.00    -0.137 A  
BRANCH   4   9
HETATM    9  C   UNL     1     -10.233   5.871  71.139  1.00  0.00    -0.266 C  
HETATM   10  C   UNL     1     -11.530   6.157  71.932  1.00  0.00    -0.355 C  
HETATM   11  C   UNL     1     -10.103   4.347  70.950  1.00  0.00    -0.199 C  
HETATM   12  C   UNL     1      -9.091   6.330  72.095  1.00  0.00    -0.141 C  
ENDBRANCH   4   9
BRANCH   8  13
HETATM   13  N   UNL     1      -9.620   5.350  66.147  1.00  0.00    -0.158 N  
HETATM   14  C   UNL     1     -10.720   4.795  65.491  1.00  0.00    -0.096 C  
HETATM   15  O   UNL     1      -7.242   5.315  66.197  1.00  0.00    -0.071 OA 
HETATM   16  C   UNL     1     -10.628   3.926  64.484  1.00  0.00    -0.201 C  
HETATM   17  H   UNL     1      -7.354   4.090  64.134  1.00  0.00     0.000 HD 
HETATM   18  C   UNL     1      -9.304   3.537  64.001  1.00  0.00    -0.132 C  
HETATM   19  O   UNL     1      -9.166   2.674  63.145  1.00  0.00    -0.091 OA 
HETATM   20  N   UNL     1      -8.266   4.201  64.575  1.00  0.00    -0.093 N  
HETATM   21  C   UNL     1      -8.320   5.006  65.690  1.00  0.00    -0.120 C  
ENDBRANCH   8  13
BRANCH   6  22
HETATM   22  C   UNL     1      -9.897   9.997  67.998  1.00  0.00    -0.164 A  
HETATM   23  C   UNL     1     -12.005  12.572  66.349  1.00  0.00    -0.386 A  
HETATM   24  C   UNL     1     -11.026  10.731  67.590  1.00  0.00    -0.365 A  
HETATM   25  C   UNL     1     -11.873  13.794  65.700  1.00  0.00    -0.383 A  
HETATM   26  C   UNL     1     -10.913  12.006  67.017  1.00  0.00    -0.323 A  
HETATM   27  C   UNL     1     -10.663  14.476  65.746  1.00  0.00    -0.315 A  
HETATM   28  C   UNL     1      -8.576  12.028  67.625  1.00  0.00    -0.163 A  
HETATM   29  C   UNL     1      -9.573  13.943  66.439  1.00  0.00    -0.292 A  
HETATM   30  C   UNL     1      -8.676  10.695  68.054  1.00  0.00    -0.126 A  
HETATM   31  C   UNL     1      -9.678  12.677  67.042  1.00  0.00    -0.225 A  
BRANCH  27  32
HETATM   32  N   UNL     1     -10.562  15.745  65.112  1.00  0.00    -0.424 N  
HETATM   33  H   UNL     1     -10.583  15.832  64.096  1.00  0.00     0.000 HD 
BRANCH  32  34
HETATM   34  S   UNL     1     -10.404  17.110  66.111  1.00  0.00    -0.269 S  
HETATM   35  C   UNL     1      -8.641  17.199  66.330  1.00  0.00    -0.265 C  
HETATM   36  O   UNL     1     -10.988  16.715  67.376  1.00  0.00    -0.238 OA 
HETATM   37  O   UNL     1     -10.862  18.282  65.404  1.00  0.00    -0.569 OA 
ENDBRANCH  32  34
ENDBRANCH  27  32
ENDBRANCH   6  22
ENDBRANCH   2   3
TORSDOF 6
ENDMDL
MODEL       21
REMARK 921   NORMALIZED FREE ENERGY PREDICTED BY IDOCK:   -5.83 KCAL/MOL
REMARK 922        TOTAL FREE ENERGY PREDICTED BY IDOCK:   -8.12 KCAL/MOL
REMARK 923 INTER-LIGAND FREE ENERGY PREDICTED BY IDOCK:   -9.17 KCAL/MOL
REMARK 924 INTRA-LIGAND FREE ENERGY PREDICTED BY IDOCK:    1.05 KCAL/MOL
REMARK 927      BINDING AFFINITY PREDICTED BY RF-SCORE:    0.00 PKD
ROOT
HETATM    1  C   UNL     1     -11.891  10.676  71.286  1.00  0.00    -0.161 C  
HETATM    2  O   UNL     1     -12.589  11.616  70.461  1.00  0.00    -0.259 OA 
ENDROOT
BRANCH   2   3
HETATM    3  C   UNL     1     -11.848  12.691  70.025  1.00  0.00    -0.285 A  
HETATM    4  C   UNL     1     -12.082  13.945  70.646  1.00  0.00    -0.417 A  
HETATM    5  C   UNL     1     -11.223  15.005  70.275  1.00  0.00    -0.286 A  
HETATM    6  C   UNL     1     -10.946  12.571  68.927  1.00  0.00    -0.272 A  
HETATM    7  C   UNL     1     -10.143  13.693  68.613  1.00  0.00    -0.182 A  
HETATM    8  C   UNL     1     -10.224  14.917  69.294  1.00  0.00    -0.214 A  
BRANCH   4   9
HETATM    9  C   UNL     1     -13.186  14.228  71.708  1.00  0.00    -0.444 C  
HETATM   10  C   UNL     1     -13.850  12.967  72.311  1.00  0.00    -0.529 C  
HETATM   11  C   UNL     1     -12.576  15.055  72.857  1.00  0.00    -0.510 C  
HETATM   12  C   UNL     1     -14.376  15.042  71.116  1.00  0.00    -0.379 C  
ENDBRANCH   4   9
BRANCH   8  13
HETATM   13  N   UNL     1      -9.340  16.036  68.968  1.00  0.00    -0.226 N  
HETATM   14  C   UNL     1      -7.981  15.998  69.284  1.00  0.00    -0.217 C  
HETATM   15  O   UNL     1     -11.030  17.462  68.089  1.00  0.00    -0.334 OA 
HETATM   16  C   UNL     1      -7.139  17.011  69.080  1.00  0.00    -0.233 C  
HETATM   17  H   UNL     1      -9.253  18.947  67.452  1.00  0.00     0.000 HD 
HETATM   18  C   UNL     1      -7.640  18.237  68.462  1.00  0.00    -0.300 C  
HETATM   19  O   UNL     1      -6.930  19.227  68.341  1.00  0.00    -0.259 OA 
HETATM   20  N   UNL     1      -8.933  18.184  68.048  1.00  0.00    -0.276 N  
HETATM   21  C   UNL     1      -9.855  17.208  68.349  1.00  0.00    -0.296 C  
ENDBRANCH   8  13
BRANCH   6  22
HETATM   22  C   UNL     1     -10.825  11.332  68.096  1.00  0.00    -0.263 A  
HETATM   23  C   UNL     1      -9.989   7.769  68.728  1.00  0.00    -0.181 A  
HETATM   24  C   UNL     1     -10.776  10.064  68.704  1.00  0.00    -0.256 A  
HETATM   25  C   UNL     1      -9.443   6.674  68.067  1.00  0.00    -0.118 A  
HETATM   26  C   UNL     1     -10.314   8.932  68.019  1.00  0.00    -0.271 A  
HETATM   27  C   UNL     1      -9.256   6.719  66.691  1.00  0.00    -0.159 A  
HETATM   28  C   UNL     1     -10.332  10.213  65.972  1.00  0.00    -0.234 A  
HETATM   29  C   UNL     1      -9.609   7.858  65.962  1.00  0.00    -0.037 A  
HETATM   30  C   UNL     1     -10.647  11.371  66.701  1.00  0.00    -0.302 A  
HETATM   31  C   UNL     1     -10.099   8.994  66.631  1.00  0.00    -0.355 A  
BRANCH  27  32
HETATM   32  N   UNL     1      -8.738   5.573  66.028  1.00  0.00    -0.136 N  
HETATM   33  H   UNL     1      -7.820   5.589  65.582  1.00  0.00     0.000 HD 
BRANCH  32  34
HETATM   34  S   UNL     1      -9.704   4.176  66.006  1.00  0.00    -0.196 S  
HETATM   35  C   UNL     1      -9.010   3.274  64.638  1.00  0.00    -0.129 C  
HETATM   36  O   UNL     1     -11.018   4.638  65.611  1.00  0.00    -0.253 OA 
HETATM   37  O   UNL     1      -9.504   3.430  67.225  1.00  0.00    -0.203 OA 
ENDBRANCH  32  34
ENDBRANCH  27  32
ENDBRANCH   6  22
ENDBRANCH   2   3
TORSDOF 6
ENDMDL
MODEL       22
REMARK 921   NORMALIZED FREE ENERGY PREDICTED BY IDOCK:   -5.83 KCAL/MOL
REMARK 922        TOTAL FREE ENERGY PREDICTED BY IDOCK:   -8.12 KCAL/MOL
REMARK 923 INTER-LIGAND FREE ENERGY PREDICTED BY IDOCK:   -8.18 KCAL/MOL
REMARK 924 INTRA-LIGAND FREE ENERGY PREDICTED BY IDOCK:    0.06 KCAL/MOL
REMARK 927      BINDING AFFINITY PREDICTED BY RF-SCORE:    0.00 PKD
ROOT
HETATM    1  C   UNL     1     -10.151   9.334  71.284  1.00  0.00    -0.291 C  
HETATM    2  O   UNL     1     -11.134   8.522  70.631  1.00  0.00    -0.247 OA 
ENDROOT
BRANCH   2   3
HETATM    3  C   UNL     1     -10.705   7.857  69.505  1.00  0.00    -0.192 A  
HETATM    4  C   UNL     1     -10.277   6.514  69.659  1.00  0.00    -0.220 A  
HETATM    5  C   UNL     1      -9.965   5.809  68.474  1.00  0.00    -0.197 A  
HETATM    6  C   UNL     1     -10.606   8.520  68.247  1.00  0.00    -0.173 A  
HETATM    7  C   UNL     1     -10.263   7.739  67.119  1.00  0.00    -0.365 A  
HETATM    8  C   UNL     1      -9.976   6.367  67.187  1.00  0.00    -0.155 A  
BRANCH   4   9
HETATM    9  C   UNL     1     -10.151   5.762  71.018  1.00  0.00    -0.260 C  
HETATM   10  C   UNL     1      -8.951   6.195  71.894  1.00  0.00    -0.140 C  
HETATM   11  C   UNL     1     -11.446   5.968  71.828  1.00  0.00    -0.314 C  
HETATM   12  C   UNL     1      -9.951   4.229  70.825  1.00  0.00    -0.224 C  
ENDBRANCH   4   9
BRANCH   8  13
HETATM   13  N   UNL     1      -9.673   5.586  65.987  1.00  0.00    -0.123 N  
HETATM   14  C   UNL     1     -10.590   4.668  65.474  1.00  0.00    -0.172 C  
HETATM   15  O   UNL     1      -7.457   6.399  65.694  1.00  0.00    -0.077 OA 
HETATM   16  C   UNL     1     -10.347   3.874  64.430  1.00  0.00    -0.242 C  
HETATM   17  H   UNL     1      -7.434   5.187  63.620  1.00  0.00     0.000 HD 
HETATM   18  C   UNL     1      -9.059   3.975  63.746  1.00  0.00    -0.132 C  
HETATM   19  O   UNL     1      -8.753   3.206  62.846  1.00  0.00    -0.088 OA 
HETATM   20  N   UNL     1      -8.250   4.972  64.192  1.00  0.00    -0.123 N  
HETATM   21  C   UNL     1      -8.418   5.721  65.334  1.00  0.00    -0.151 C  
ENDBRANCH   8  13
BRANCH   6  22
HETATM   22  C   UNL     1     -10.831   9.991  68.074  1.00  0.00    -0.311 A  
HETATM   23  C   UNL     1      -8.826  12.867  66.850  1.00  0.00    -0.188 A  
HETATM   24  C   UNL     1      -9.948  10.763  67.297  1.00  0.00    -0.219 A  
HETATM   25  C   UNL     1      -8.730  14.243  67.023  1.00  0.00    -0.231 A  
HETATM   26  C   UNL     1      -9.904  12.161  67.394  1.00  0.00    -0.193 A  
HETATM   27  C   UNL     1      -9.729  14.927  67.705  1.00  0.00    -0.212 A  
HETATM   28  C   UNL     1     -11.911  12.088  68.737  1.00  0.00    -0.358 A  
HETATM   29  C   UNL     1     -10.832  14.242  68.223  1.00  0.00    -0.256 A  
HETATM   30  C   UNL     1     -11.848  10.686  68.753  1.00  0.00    -0.177 A  
HETATM   31  C   UNL     1     -10.904  12.843  68.111  1.00  0.00    -0.257 A  
BRANCH  27  32
HETATM   32  N   UNL     1      -9.634  16.340  67.833  1.00  0.00    -0.226 N  
HETATM   33  H   UNL     1      -9.599  16.787  68.749  1.00  0.00     0.000 HD 
BRANCH  32  34
HETATM   34  S   UNL     1      -9.583  17.255  66.403  1.00  0.00    -0.261 S  
HETATM   35  C   UNL     1     -10.331  18.784  66.922  1.00  0.00    -0.404 C  
HETATM   36  O   UNL     1     -10.506  16.593  65.505  1.00  0.00    -0.509 OA 
HETATM   37  O   UNL     1      -8.210  17.493  66.030  1.00  0.00    -0.491 OA 
ENDBRANCH  32  34
ENDBRANCH  27  32
ENDBRANCH   6  22
ENDBRANCH   2   3
TORSDOF 6
ENDMDL
MODEL       23
REMARK 921   NORMALIZED FREE ENERGY PREDICTED BY IDOCK:   -5.77 KCAL/MOL
REMARK 922        TOTAL FREE ENERGY PREDICTED BY IDOCK:   -8.04 KCAL/MOL
REMARK 923 INTER-LIGAND FREE ENERGY PREDICTED BY IDOCK:   -8.00 KCAL/MOL
REMARK 924 INTRA-LIGAND FREE ENERGY PREDICTED BY IDOCK:   -0.04 KCAL/MOL
REMARK 927      BINDING AFFINITY PREDICTED BY RF-SCORE:    0.00 PKD
ROOT
HETATM    1  C   UNL     1     -11.262  10.637  65.282  1.00  0.00     0.608 C  
HETATM    2  O   UNL     1     -10.197  11.347  65.924  1.00  0.00    -0.230 OA 
ENDROOT
BRANCH   2   3
HETATM    3  C   UNL     1     -10.541  12.032  67.068  1.00  0.00    -0.227 A  
HETATM    4  C   UNL     1     -10.938  13.386  66.927  1.00  0.00    -0.295 A  
HETATM    5  C   UNL     1     -11.410  14.032  68.093  1.00  0.00    -0.320 A  
HETATM    6  C   UNL     1     -10.413  11.434  68.356  1.00  0.00    -0.221 A  
HETATM    7  C   UNL     1     -10.890  12.164  69.469  1.00  0.00     0.068 A  
HETATM    8  C   UNL     1     -11.436  13.453  69.370  1.00  0.00    -0.274 A  
BRANCH   4   9
HETATM    9  C   UNL     1     -10.916  14.195  65.595  1.00  0.00    -0.308 C  
HETATM   10  C   UNL     1     -10.039  13.584  64.476  1.00  0.00    -0.179 C  
HETATM   11  C   UNL     1     -12.357  14.331  65.066  1.00  0.00    -0.434 C  
HETATM   12  C   UNL     1     -10.343  15.631  65.790  1.00  0.00    -0.386 C  
ENDBRANCH   4   9
BRANCH   8  13
HETATM   13  N   UNL     1     -11.963  14.155  70.542  1.00  0.00    -0.319 N  
HETATM   14  C   UNL     1     -12.910  13.556  71.374  1.00  0.00    -0.355 C  
HETATM   15  O   UNL     1     -10.803  16.198  70.173  1.00  0.00    -0.332 OA 
HETATM   16  C   UNL     1     -13.482  14.167  72.413  1.00  0.00    -0.616 C  
HETATM   17  H   UNL     1     -11.651  16.906  72.306  1.00  0.00     0.000 HD 
HETATM   18  C   UNL     1     -13.088  15.536  72.736  1.00  0.00    -0.480 C  
HETATM   19  O   UNL     1     -13.652  16.171  73.618  1.00  0.00    -0.584 OA 
HETATM   20  N   UNL     1     -12.070  16.033  71.986  1.00  0.00    -0.492 N  
HETATM   21  C   UNL     1     -11.546  15.480  70.840  1.00  0.00    -0.375 C  
ENDBRANCH   8  13
BRANCH   6  22
HETATM   22  C   UNL     1      -9.789  10.091  68.578  1.00  0.00    -0.168 A  
HETATM   23  C   UNL     1     -11.030   6.648  69.210  1.00  0.00    -0.346 A  
HETATM   24  C   UNL     1     -10.564   8.920  68.495  1.00  0.00    -0.183 A  
HETATM   25  C   UNL     1     -10.623   5.470  69.827  1.00  0.00    -0.388 A  
HETATM   26  C   UNL     1     -10.126   7.702  69.034  1.00  0.00    -0.199 A  
HETATM   27  C   UNL     1      -9.303   5.323  70.237  1.00  0.00    -0.158 A  
HETATM   28  C   UNL     1      -7.948   8.687  69.381  1.00  0.00    -0.102 A  
HETATM   29  C   UNL     1      -8.378   6.351  70.036  1.00  0.00    -0.130 A  
HETATM   30  C   UNL     1      -8.450   9.935  68.982  1.00  0.00    -0.136 A  
HETATM   31  C   UNL     1      -8.796   7.570  69.473  1.00  0.00    -0.137 A  
BRANCH  27  32
HETATM   32  N   UNL     1      -8.897   4.095  70.827  1.00  0.00    -0.083 N  
HETATM   33  H   UNL     1      -8.941   3.952  71.836  1.00  0.00     0.000 HD 
BRANCH  32  34
HETATM   34  S   UNL     1      -8.337   2.874  69.788  1.00  0.00    -0.053 S  
HETATM   35  C   UNL     1      -6.573   3.010  69.983  1.00  0.00    -0.033 C  
HETATM   36  O   UNL     1      -8.672   3.335  68.457  1.00  0.00    -0.087 OA 
HETATM   37  O   UNL     1      -8.777   1.587  70.271  1.00  0.00    -0.046 OA 
ENDBRANCH  32  34
ENDBRANCH  27  32
ENDBRANCH   6  22
ENDBRANCH   2   3
TORSDOF 6
ENDMDL
MODEL       24
REMARK 921   NORMALIZED FREE ENERGY PREDICTED BY IDOCK:   -5.65 KCAL/MOL
REMARK 922        TOTAL FREE ENERGY PREDICTED BY IDOCK:   -7.88 KCAL/MOL
REMARK 923 INTER-LIGAND FREE ENERGY PREDICTED BY IDOCK:   -8.47 KCAL/MOL
REMARK 924 INTRA-LIGAND FREE ENERGY PREDICTED BY IDOCK:    0.59 KCAL/MOL
REMARK 927      BINDING AFFINITY PREDICTED BY RF-SCORE:    0.00 PKD
ROOT
HETATM    1  C   UNL     1     -12.796  11.175  71.692  1.00  0.00    -0.419 C  
HETATM    2  O   UNL     1     -13.041  10.477  70.466  1.00  0.00    -0.322 OA 
ENDROOT
BRANCH   2   3
HETATM    3  C   UNL     1     -11.931   9.941  69.853  1.00  0.00     0.058 A  
HETATM    4  C   UNL     1     -11.534   8.636  70.240  1.00  0.00    -0.084 A  
HETATM    5  C   UNL     1     -10.473   8.054  69.508  1.00  0.00    -0.226 A  
HETATM    6  C   UNL     1     -11.154  10.704  68.932  1.00  0.00    -0.314 A  
HETATM    7  C   UNL     1     -10.095  10.045  68.265  1.00  0.00    -0.182 A  
HETATM    8  C   UNL     1      -9.751   8.704  68.496  1.00  0.00    -0.163 A  
BRANCH   4   9
HETATM    9  C   UNL     1     -12.189   7.799  71.380  1.00  0.00    -0.343 C  
HETATM   10  C   UNL     1     -13.724   7.950  71.500  1.00  0.00    -0.384 C  
HETATM   11  C   UNL     1     -11.862   6.309  71.160  1.00  0.00    -0.234 C  
HETATM   12  C   UNL     1     -11.652   8.202  72.786  1.00  0.00    -0.371 C  
ENDBRANCH   4   9
BRANCH   8  13
HETATM   13  N   UNL     1      -8.679   8.047  67.747  1.00  0.00    -0.127 N  
HETATM   14  C   UNL     1      -8.960   7.046  66.816  1.00  0.00    -0.132 C  
HETATM   15  O   UNL     1      -6.878   9.169  68.822  1.00  0.00    -0.059 OA 
HETATM   16  C   UNL     1      -8.026   6.359  66.156  1.00  0.00    -0.112 C  
HETATM   17  H   UNL     1      -5.439   8.102  67.222  1.00  0.00     0.000 HD 
HETATM   18  C   UNL     1      -6.618   6.676  66.383  1.00  0.00    -0.044 C  
HETATM   19  O   UNL     1      -5.725   6.012  65.874  1.00  0.00    -0.018 OA 
HETATM   20  N   UNL     1      -6.393   7.743  67.193  1.00  0.00    -0.053 N  
HETATM   21  C   UNL     1      -7.320   8.390  67.978  1.00  0.00    -0.096 C  
ENDBRANCH   8  13
BRANCH   6  22
HETATM   22  C   UNL     1     -11.397  12.156  68.658  1.00  0.00    -0.330 A  
HETATM   23  C   UNL     1     -10.530  14.537  65.944  1.00  0.00    -0.322 A  
HETATM   24  C   UNL     1     -11.179  12.687  67.374  1.00  0.00    -0.337 A  
HETATM   25  C   UNL     1     -10.310  15.896  65.756  1.00  0.00    -0.396 A  
HETATM   26  C   UNL     1     -11.046  14.066  67.157  1.00  0.00    -0.313 A  
HETATM   27  C   UNL     1     -10.639  16.797  66.762  1.00  0.00    -0.203 A  
HETATM   28  C   UNL     1     -11.763  14.453  69.430  1.00  0.00    -0.362 A  
HETATM   29  C   UNL     1     -11.189  16.348  67.965  1.00  0.00    -0.235 A  
HETATM   30  C   UNL     1     -11.741  13.070  69.671  1.00  0.00    -0.364 A  
HETATM   31  C   UNL     1     -11.353  14.970  68.189  1.00  0.00    -0.343 A  
BRANCH  27  32
HETATM   32  N   UNL     1     -10.446  18.187  66.533  1.00  0.00    -0.364 N  
HETATM   33  H   UNL     1     -11.052  18.709  65.899  1.00  0.00     0.000 HD 
BRANCH  32  34
HETATM   34  S   UNL     1      -9.169  18.947  67.355  1.00  0.00    -0.288 S  
HETATM   35  C   UNL     1     -10.039  19.895  68.584  1.00  0.00    -0.406 C  
HETATM   36  O   UNL     1      -8.608  19.875  66.396  1.00  0.00    -0.335 OA 
HETATM   37  O   UNL     1      -8.352  17.951  68.006  1.00  0.00    -0.244 OA 
ENDBRANCH  32  34
ENDBRANCH  27  32
ENDBRANCH   6  22
ENDBRANCH   2   3
TORSDOF 6
ENDMDL
MODEL       25
REMARK 921   NORMALIZED FREE ENERGY PREDICTED BY IDOCK:   -5.63 KCAL/MOL
REMARK 922        TOTAL FREE ENERGY PREDICTED BY IDOCK:   -7.85 KCAL/MOL
REMARK 923 INTER-LIGAND FREE ENERGY PREDICTED BY IDOCK:   -7.23 KCAL/MOL
REMARK 924 INTRA-LIGAND FREE ENERGY PREDICTED BY IDOCK:   -0.62 KCAL/MOL
REMARK 927      BINDING AFFINITY PREDICTED BY RF-SCORE:    0.00 PKD
ROOT
HETATM    1  C   UNL     1      -5.980  10.745  65.686  1.00  0.00    -0.108 C  
HETATM    2  O   UNL     1      -7.363  10.397  65.548  1.00  0.00    -0.145 OA 
ENDROOT
BRANCH   2   3
HETATM    3  C   UNL     1      -7.846   9.496  66.470  1.00  0.00    -0.101 A  
HETATM    4  C   UNL     1      -7.845   8.124  66.109  1.00  0.00    -0.092 A  
HETATM    5  C   UNL     1      -8.223   7.205  67.116  1.00  0.00    -0.118 A  
HETATM    6  C   UNL     1      -8.412   9.931  67.704  1.00  0.00    -0.114 A  
HETATM    7  C   UNL     1      -8.784   8.940  68.641  1.00  0.00    -0.134 A  
HETATM    8  C   UNL     1      -8.664   7.562  68.398  1.00  0.00    -0.123 A  
BRANCH   4   9
HETATM    9  C   UNL     1      -7.442   7.563  64.713  1.00  0.00    -0.091 C  
HETATM   10  C   UNL     1      -5.918   7.482  64.458  1.00  0.00    -0.038 C  
HETATM   11  C   UNL     1      -8.040   6.152  64.547  1.00  0.00    -0.118 C  
HETATM   12  C   UNL     1      -7.978   8.447  63.547  1.00  0.00    -0.159 C  
ENDBRANCH   4   9
BRANCH   8  13
HETATM   13  N   UNL     1      -9.015   6.571  69.415  1.00  0.00    -0.132 N  
HETATM   14  C   UNL     1      -8.042   6.013  70.244  1.00  0.00    -0.111 C  
HETATM   15  O   UNL     1     -11.324   6.427  68.859  1.00  0.00    -0.341 OA 
HETATM   16  C   UNL     1      -8.284   5.053  71.139  1.00  0.00    -0.114 C  
HETATM   17  H   UNL     1     -11.563   5.030  70.798  1.00  0.00     0.000 HD 
HETATM   18  C   UNL     1      -9.651   4.561  71.299  1.00  0.00    -0.172 C  
HETATM   19  O   UNL     1      -9.907   3.619  72.036  1.00  0.00    -0.158 OA 
HETATM   20  N   UNL     1     -10.588   5.223  70.571  1.00  0.00    -0.242 N  
HETATM   21  C   UNL     1     -10.357   6.126  69.558  1.00  0.00    -0.219 C  
ENDBRANCH   8  13
BRANCH   6  22
HETATM   22  C   UNL     1      -8.641  11.373  68.038  1.00  0.00    -0.147 A  
HETATM   23  C   UNL     1     -11.359  13.840  67.474  1.00  0.00    -0.334 A  
HETATM   24  C   UNL     1      -9.926  11.936  67.932  1.00  0.00    -0.195 A  
HETATM   25  C   UNL     1     -11.535  15.212  67.336  1.00  0.00    -0.284 A  
HETATM   26  C   UNL     1     -10.125  13.323  67.884  1.00  0.00    -0.235 A  
HETATM   27  C   UNL     1     -10.492  16.077  67.644  1.00  0.00    -0.292 A  
HETATM   28  C   UNL     1      -7.802  13.635  68.469  1.00  0.00    -0.131 A  
HETATM   29  C   UNL     1      -9.264  15.581  68.090  1.00  0.00    -0.189 A  
HETATM   30  C   UNL     1      -7.591  12.251  68.361  1.00  0.00    -0.128 A  
HETATM   31  C   UNL     1      -9.057  14.193  68.168  1.00  0.00    -0.193 A  
BRANCH  27  32
HETATM   32  N   UNL     1     -10.705  17.480  67.538  1.00  0.00    -0.324 N  
HETATM   33  H   UNL     1     -11.213  17.994  68.258  1.00  0.00     0.000 HD 
BRANCH  32  34
HETATM   34  S   UNL     1     -10.083  18.265  66.167  1.00  0.00    -0.300 S  
HETATM   35  C   UNL     1     -10.587  19.948  66.451  1.00  0.00    -0.420 C  
HETATM   36  O   UNL     1     -10.861  17.752  65.059  1.00  0.00    -0.774 OA 
HETATM   37  O   UNL     1      -8.642  18.186  66.175  1.00  0.00    -0.456 OA 
ENDBRANCH  32  34
ENDBRANCH  27  32
ENDBRANCH   6  22
ENDBRANCH   2   3
TORSDOF 6
ENDMDL
MODEL       26
REMARK 921   NORMALIZED FREE ENERGY PREDICTED BY IDOCK:   -5.62 KCAL/MOL
REMARK 922        TOTAL FREE ENERGY PREDICTED BY IDOCK:   -7.84 KCAL/MOL
REMARK 923 INTER-LIGAND FREE ENERGY PREDICTED BY IDOCK:   -7.52 KCAL/MOL
REMARK 924 INTRA-LIGAND FREE ENERGY PREDICTED BY IDOCK:   -0.31 KCAL/MOL
REMARK 927      BINDING AFFINITY PREDICTED BY RF-SCORE:    0.00 PKD
ROOT
HETATM    1  C   UNL     1     -10.668  10.459  70.108  1.00  0.00    -0.233 C  
HETATM    2  O   UNL     1     -11.240   9.431  69.291  1.00  0.00    -0.109 OA 
ENDROOT
BRANCH   2   3
HETATM    3  C   UNL     1     -10.377   8.818  68.412  1.00  0.00    -0.204 A  
HETATM    4  C   UNL     1      -9.957   7.498  68.718  1.00  0.00    -0.175 A  
HETATM    5  C   UNL     1      -9.176   6.840  67.740  1.00  0.00    -0.111 A  
HETATM    6  C   UNL     1      -9.850   9.515  67.285  1.00  0.00    -0.228 A  
HETATM    7  C   UNL     1      -9.057   8.781  66.372  1.00  0.00    -0.221 A  
HETATM    8  C   UNL     1      -8.733   7.426  66.545  1.00  0.00    -0.140 A  
BRANCH   4   9
HETATM    9  C   UNL     1     -10.309   6.723  70.023  1.00  0.00    -0.225 C  
HETATM   10  C   UNL     1     -10.002   5.207  69.984  1.00  0.00    -0.326 C  
HETATM   11  C   UNL     1      -9.535   7.347  71.201  1.00  0.00    -0.157 C  
HETATM   12  C   UNL     1     -11.828   6.799  70.359  1.00  0.00    -0.395 C  
ENDBRANCH   4   9
BRANCH   8  13
HETATM   13  N   UNL     1      -7.951   6.692  65.550  1.00  0.00    -0.111 N  
HETATM   14  C   UNL     1      -8.522   5.664  64.799  1.00  0.00    -0.102 C  
HETATM   15  O   UNL     1      -5.882   7.785  65.980  1.00  0.00    -0.036 OA 
HETATM   16  C   UNL     1      -7.846   4.910  63.931  1.00  0.00    -0.085 C  
HETATM   17  H   UNL     1      -5.013   6.588  64.087  1.00  0.00     0.000 HD 
HETATM   18  C   UNL     1      -6.426   5.177  63.714  1.00  0.00    -0.026 C  
HETATM   19  O   UNL     1      -5.743   4.454  63.001  1.00  0.00    -0.015 OA 
HETATM   20  N   UNL     1      -5.942   6.269  64.361  1.00  0.00    -0.022 N  
HETATM   21  C   UNL     1      -6.576   6.989  65.349  1.00  0.00    -0.047 C  
ENDBRANCH   8  13
BRANCH   6  22
HETATM   22  C   UNL     1     -10.083  10.974  67.040  1.00  0.00    -0.232 A  
HETATM   23  C   UNL     1      -8.608  14.152  68.272  1.00  0.00    -0.175 A  
HETATM   24  C   UNL     1      -9.137  11.929  67.456  1.00  0.00    -0.178 A  
HETATM   25  C   UNL     1      -8.967  15.480  68.472  1.00  0.00    -0.191 A  
HETATM   26  C   UNL     1      -9.460  13.288  67.574  1.00  0.00    -0.220 A  
HETATM   27  C   UNL     1     -10.158  15.963  67.943  1.00  0.00    -0.235 A  
HETATM   28  C   UNL     1     -11.559  12.843  66.464  1.00  0.00    -0.425 A  
HETATM   29  C   UNL     1     -11.003  15.124  67.211  1.00  0.00    -0.327 A  
HETATM   30  C   UNL     1     -11.282  11.468  66.495  1.00  0.00    -0.324 A  
HETATM   31  C   UNL     1     -10.680  13.764  67.062  1.00  0.00    -0.283 A  
BRANCH  27  32
HETATM   32  N   UNL     1     -10.485  17.336  68.121  1.00  0.00    -0.365 N  
HETATM   33  H   UNL     1     -10.964  17.661  68.961  1.00  0.00     0.000 HD 
BRANCH  32  34
HETATM   34  S   UNL     1     -10.049  18.413  66.882  1.00  0.00    -0.389 S  
HETATM   35  C   UNL     1      -8.626  19.218  67.584  1.00  0.00    -0.296 C  
HETATM   36  O   UNL     1     -11.125  19.379  66.833  1.00  0.00    -0.388 OA 
HETATM   37  O   UNL     1      -9.652  17.668  65.711  1.00  0.00    -0.524 OA 
ENDBRANCH  32  34
ENDBRANCH  27  32
ENDBRANCH   6  22
ENDBRANCH   2   3
TORSDOF 6
ENDMDL
MODEL       27
REMARK 921   NORMALIZED FREE ENERGY PREDICTED BY IDOCK:   -5.58 KCAL/MOL
REMARK 922        TOTAL FREE ENERGY PREDICTED BY IDOCK:   -7.78 KCAL/MOL
REMARK 923 INTER-LIGAND FREE ENERGY PREDICTED BY IDOCK:   -6.98 KCAL/MOL
REMARK 924 INTRA-LIGAND FREE ENERGY PREDICTED BY IDOCK:   -0.80 KCAL/MOL
REMARK 927      BINDING AFFINITY PREDICTED BY RF-SCORE:    0.00 PKD
ROOT
HETATM    1  C   UNL     1      -5.846  10.308  65.924  1.00  0.00    -0.088 C  
HETATM    2  O   UNL     1      -7.244  10.124  65.673  1.00  0.00    -0.123 OA 
ENDROOT
BRANCH   2   3
HETATM    3  C   UNL     1      -7.942   9.448  66.649  1.00  0.00    -0.108 A  
HETATM    4  C   UNL     1      -8.129   8.053  66.475  1.00  0.00    -0.103 A  
HETATM    5  C   UNL     1      -8.733   7.357  67.547  1.00  0.00    -0.124 A  
HETATM    6  C   UNL     1      -8.534  10.138  67.747  1.00  0.00    -0.114 A  
HETATM    7  C   UNL     1      -9.138   9.360  68.762  1.00  0.00    -0.132 A  
HETATM    8  C   UNL     1      -9.220   7.960  68.717  1.00  0.00    -0.143 A  
BRANCH   4   9
HETATM    9  C   UNL     1      -7.703   7.240  65.216  1.00  0.00    -0.114 C  
HETATM   10  C   UNL     1      -6.193   6.911  65.133  1.00  0.00    -0.036 C  
HETATM   11  C   UNL     1      -8.493   5.918  65.181  1.00  0.00    -0.130 C  
HETATM   12  C   UNL     1      -8.002   8.007  63.892  1.00  0.00    -0.128 C  
ENDBRANCH   4   9
BRANCH   8  13
HETATM   13  N   UNL     1      -9.810   7.190  69.812  1.00  0.00    -0.172 N  
HETATM   14  C   UNL     1     -11.185   7.214  70.050  1.00  0.00    -0.238 C  
HETATM   15  O   UNL     1      -7.760   6.363  70.691  1.00  0.00    -0.100 OA 
HETATM   16  C   UNL     1     -11.776   6.595  71.073  1.00  0.00    -0.415 C  
HETATM   17  H   UNL     1      -9.095   5.022  72.171  1.00  0.00     0.000 HD 
HETATM   18  C   UNL     1     -10.958   5.814  71.999  1.00  0.00    -0.260 C  
HETATM   19  O   UNL     1     -11.439   5.308  73.004  1.00  0.00    -0.313 OA 
HETATM   20  N   UNL     1      -9.648   5.706  71.656  1.00  0.00    -0.153 N  
HETATM   21  C   UNL     1      -8.989   6.425  70.684  1.00  0.00    -0.144 C  
ENDBRANCH   8  13
BRANCH   6  22
HETATM   22  C   UNL     1      -8.558  11.631  67.862  1.00  0.00    -0.150 A  
HETATM   23  C   UNL     1     -10.020  14.431  65.908  1.00  0.00    -0.350 A  
HETATM   24  C   UNL     1      -9.465  12.393  67.102  1.00  0.00    -0.198 A  
HETATM   25  C   UNL     1      -9.787  15.776  65.644  1.00  0.00    -0.357 A  
HETATM   26  C   UNL     1      -9.292  13.770  66.903  1.00  0.00    -0.267 A  
HETATM   27  C   UNL     1      -8.854  16.477  66.399  1.00  0.00    -0.310 A  
HETATM   28  C   UNL     1      -7.537  13.746  68.562  1.00  0.00    -0.134 A  
HETATM   29  C   UNL     1      -8.144  15.843  67.421  1.00  0.00    -0.187 A  
HETATM   30  C   UNL     1      -7.623  12.347  68.632  1.00  0.00    -0.082 A  
HETATM   31  C   UNL     1      -8.325  14.467  67.650  1.00  0.00    -0.188 A  
BRANCH  27  32
HETATM   32  N   UNL     1      -8.662  17.863  66.142  1.00  0.00    -0.151 N  
HETATM   33  H   UNL     1      -7.978  18.185  65.457  1.00  0.00     0.000 HD 
BRANCH  32  34
HETATM   34  S   UNL     1      -9.613  18.962  67.021  1.00  0.00    -0.325 S  
HETATM   35  C   UNL     1     -10.529  19.768  65.726  1.00  0.00    -0.445 C  
HETATM   36  O   UNL     1      -8.672  19.921  67.560  1.00  0.00    -0.318 OA 
HETATM   37  O   UNL     1     -10.524  18.239  67.876  1.00  0.00    -0.381 OA 
ENDBRANCH  32  34
ENDBRANCH  27  32
ENDBRANCH   6  22
ENDBRANCH   2   3
TORSDOF 6
ENDMDL
MODEL       28
REMARK 921   NORMALIZED FREE ENERGY PREDICTED BY IDOCK:   -5.57 KCAL/MOL
REMARK 922        TOTAL FREE ENERGY PREDICTED BY IDOCK:   -7.77 KCAL/MOL
REMARK 923 INTER-LIGAND FREE ENERGY PREDICTED BY IDOCK:   -9.28 KCAL/MOL
REMARK 924 INTRA-LIGAND FREE ENERGY PREDICTED BY IDOCK:    1.50 KCAL/MOL
REMARK 927      BINDING AFFINITY PREDICTED BY RF-SCORE:    0.00 PKD
ROOT
HETATM    1  C   UNL     1      -8.373  11.899  66.587  1.00  0.00    -0.117 C  
HETATM    2  O   UNL     1      -9.419  11.205  65.897  1.00  0.00    -0.199 OA 
ENDROOT
BRANCH   2   3
HETATM    3  C   UNL     1      -9.536   9.864  66.185  1.00  0.00    -0.200 A  
HETATM    4  C   UNL     1      -9.028   8.942  65.234  1.00  0.00    -0.213 A  
HETATM    5  C   UNL     1      -9.040   7.578  65.607  1.00  0.00     0.060 A  
HETATM    6  C   UNL     1     -10.226   9.415  67.349  1.00  0.00    -0.298 A  
HETATM    7  C   UNL     1     -10.206   8.028  67.629  1.00  0.00    -0.291 A  
HETATM    8  C   UNL     1      -9.585   7.081  66.800  1.00  0.00    -0.171 A  
BRANCH   4   9
HETATM    9  C   UNL     1      -8.443   9.320  63.840  1.00  0.00    -0.198 C  
HETATM   10  C   UNL     1      -9.396  10.133  62.932  1.00  0.00    -0.320 C  
HETATM   11  C   UNL     1      -7.150  10.135  64.043  1.00  0.00    -0.103 C  
HETATM   12  C   UNL     1      -8.085   8.062  62.993  1.00  0.00    -0.120 C  
ENDBRANCH   4   9
BRANCH   8  13
HETATM   13  N   UNL     1      -9.546   5.661  67.152  1.00  0.00    -0.125 N  
HETATM   14  C   UNL     1      -9.547   5.250  68.485  1.00  0.00    -0.135 C  
HETATM   15  O   UNL     1      -9.361   4.841  64.927  1.00  0.00    -0.150 OA 
HETATM   16  C   UNL     1      -9.440   3.978  68.874  1.00  0.00    -0.237 C  
HETATM   17  H   UNL     1      -9.605   2.643  65.864  1.00  0.00     0.000 HD 
HETATM   18  C   UNL     1      -9.344   2.932  67.858  1.00  0.00    -0.205 C  
HETATM   19  O   UNL     1      -9.149   1.763  68.163  1.00  0.00    -0.119 OA 
HETATM   20  N   UNL     1      -9.482   3.361  66.576  1.00  0.00    -0.162 N  
HETATM   21  C   UNL     1      -9.471   4.667  66.140  1.00  0.00    -0.169 C  
ENDBRANCH   8  13
BRANCH   6  22
HETATM   22  C   UNL     1     -10.972  10.333  68.266  1.00  0.00    -0.315 A  
HETATM   23  C   UNL     1     -11.979  13.908  68.218  1.00  0.00    -0.392 A  
HETATM   24  C   UNL     1     -11.440  11.578  67.807  1.00  0.00    -0.357 A  
HETATM   25  C   UNL     1     -12.261  14.942  69.103  1.00  0.00    -0.194 A  
HETATM   26  C   UNL     1     -11.816  12.600  68.690  1.00  0.00    -0.342 A  
HETATM   27  C   UNL     1     -12.420  14.671  70.457  1.00  0.00    -0.347 A  
HETATM   28  C   UNL     1     -11.666  11.023  70.513  1.00  0.00    -0.416 A  
HETATM   29  C   UNL     1     -12.297  13.366  70.940  1.00  0.00    -0.436 A  
HETATM   30  C   UNL     1     -11.146  10.059  69.635  1.00  0.00    -0.300 A  
HETATM   31  C   UNL     1     -11.946  12.325  70.063  1.00  0.00    -0.379 A  
BRANCH  27  32
HETATM   32  N   UNL     1     -12.751  15.737  71.339  1.00  0.00    -0.464 N  
HETATM   33  H   UNL     1     -12.557  16.708  71.093  1.00  0.00     0.000 HD 
BRANCH  32  34
HETATM   34  S   UNL     1     -13.480  15.331  72.818  1.00  0.00    -0.532 S  
HETATM   35  C   UNL     1     -12.064  15.043  73.856  1.00  0.00    -0.445 C  
HETATM   36  O   UNL     1     -14.122  14.056  72.580  1.00  0.00    -0.629 OA 
HETATM   37  O   UNL     1     -14.221  16.464  73.319  1.00  0.00    -0.253 OA 
ENDBRANCH  32  34
ENDBRANCH  27  32
ENDBRANCH   6  22
ENDBRANCH   2   3
TORSDOF 6
ENDMDL
MODEL       29
REMARK 921   NORMALIZED FREE ENERGY PREDICTED BY IDOCK:   -5.56 KCAL/MOL
REMARK 922        TOTAL FREE ENERGY PREDICTED BY IDOCK:   -7.75 KCAL/MOL
REMARK 923 INTER-LIGAND FREE ENERGY PREDICTED BY IDOCK:   -6.93 KCAL/MOL
REMARK 924 INTRA-LIGAND FREE ENERGY PREDICTED BY IDOCK:   -0.82 KCAL/MOL
REMARK 927      BINDING AFFINITY PREDICTED BY RF-SCORE:    0.00 PKD
ROOT
HETATM    1  C   UNL     1      -5.692  10.215  69.646  1.00  0.00    -0.038 C  
HETATM    2  O   UNL     1      -6.776  11.063  70.046  1.00  0.00    -0.153 OA 
ENDROOT
BRANCH   2   3
HETATM    3  C   UNL     1      -7.754  11.267  69.099  1.00  0.00    -0.046 A  
HETATM    4  C   UNL     1      -7.654  12.429  68.293  1.00  0.00    -0.131 A  
HETATM    5  C   UNL     1      -8.593  12.554  67.243  1.00  0.00    -0.191 A  
HETATM    6  C   UNL     1      -8.876  10.394  68.994  1.00  0.00    -0.176 A  
HETATM    7  C   UNL     1      -9.778  10.610  67.926  1.00  0.00    -0.177 A  
HETATM    8  C   UNL     1      -9.644  11.658  67.002  1.00  0.00    -0.184 A  
BRANCH   4   9
HETATM    9  C   UNL     1      -6.585  13.551  68.463  1.00  0.00    -0.089 C  
HETATM   10  C   UNL     1      -5.178  13.197  67.926  1.00  0.00    -0.107 C  
HETATM   11  C   UNL     1      -7.075  14.824  67.745  1.00  0.00    -0.191 C  
HETATM   12  C   UNL     1      -6.346  13.912  69.960  1.00  0.00    -0.099 C  
ENDBRANCH   4   9
BRANCH   8  13
HETATM   13  N   UNL     1     -10.573  11.815  65.882  1.00  0.00    -0.262 N  
HETATM   14  C   UNL     1     -11.706  12.622  65.994  1.00  0.00    -0.417 C  
HETATM   15  O   UNL     1      -9.479  10.296  64.414  1.00  0.00    -0.255 OA 
HETATM   16  C   UNL     1     -12.628  12.750  65.038  1.00  0.00    -0.538 C  
HETATM   17  H   UNL     1     -11.032  11.020  62.730  1.00  0.00     0.000 HD 
HETATM   18  C   UNL     1     -12.447  12.034  63.777  1.00  0.00    -0.485 C  
HETATM   19  O   UNL     1     -13.309  12.044  62.908  1.00  0.00    -0.245 OA 
HETATM   20  N   UNL     1     -11.268  11.370  63.658  1.00  0.00    -0.368 N  
HETATM   21  C   UNL     1     -10.359  11.120  64.661  1.00  0.00    -0.330 C  
ENDBRANCH   8  13
BRANCH   6  22
HETATM   22  C   UNL     1      -9.146   9.284  69.963  1.00  0.00    -0.229 A  
HETATM   23  C   UNL     1      -8.582   5.614  70.035  1.00  0.00    -0.122 A  
HETATM   24  C   UNL     1      -8.532   8.029  69.801  1.00  0.00    -0.127 A  
HETATM   25  C   UNL     1      -9.123   4.469  70.608  1.00  0.00    -0.175 A  
HETATM   26  C   UNL     1      -9.012   6.881  70.447  1.00  0.00    -0.152 A  
HETATM   27  C   UNL     1     -10.065   4.582  71.623  1.00  0.00    -0.179 A  
HETATM   28  C   UNL     1     -10.474   8.282  71.763  1.00  0.00    -0.325 A  
HETATM   29  C   UNL     1     -10.479   5.839  72.073  1.00  0.00    -0.267 A  
HETATM   30  C   UNL     1     -10.091   9.396  70.999  1.00  0.00    -0.353 A  
HETATM   31  C   UNL     1      -9.987   7.001  71.453  1.00  0.00    -0.190 A  
BRANCH  27  32
HETATM   32  N   UNL     1     -10.574   3.398  72.227  1.00  0.00     0.037 N  
HETATM   33  H   UNL     1     -11.521   3.071  72.035  1.00  0.00     0.000 HD 
BRANCH  32  34
HETATM   34  S   UNL     1      -9.545   2.551  73.280  1.00  0.00    -0.094 S  
HETATM   35  C   UNL     1     -10.708   1.769  74.376  1.00  0.00    -0.127 C  
HETATM   36  O   UNL     1      -8.852   3.578  74.029  1.00  0.00    -0.087 OA 
HETATM   37  O   UNL     1      -8.824   1.541  72.543  1.00  0.00    -0.060 OA 
ENDBRANCH  32  34
ENDBRANCH  27  32
ENDBRANCH   6  22
ENDBRANCH   2   3
TORSDOF 6
ENDMDL
MODEL       30
REMARK 921   NORMALIZED FREE ENERGY PREDICTED BY IDOCK:   -5.55 KCAL/MOL
REMARK 922        TOTAL FREE ENERGY PREDICTED BY IDOCK:   -7.74 KCAL/MOL
REMARK 923 INTER-LIGAND FREE ENERGY PREDICTED BY IDOCK:   -9.57 KCAL/MOL
REMARK 924 INTRA-LIGAND FREE ENERGY PREDICTED BY IDOCK:    1.83 KCAL/MOL
REMARK 927      BINDING AFFINITY PREDICTED BY RF-SCORE:    0.00 PKD
ROOT
HETATM    1  C   UNL     1     -11.743  10.786  71.250  1.00  0.00     0.067 C  
HETATM    2  O   UNL     1     -12.509  11.648  70.401  1.00  0.00    -0.283 OA 
ENDROOT
BRANCH   2   3
HETATM    3  C   UNL     1     -11.885  12.812  70.014  1.00  0.00    -0.281 A  
HETATM    4  C   UNL     1     -12.169  13.987  70.756  1.00  0.00    -0.438 A  
HETATM    5  C   UNL     1     -11.422  15.141  70.426  1.00  0.00    -0.322 A  
HETATM    6  C   UNL     1     -11.057  12.858  68.854  1.00  0.00    -0.301 A  
HETATM    7  C   UNL     1     -10.367  14.063  68.588  1.00  0.00    -0.238 A  
HETATM    8  C   UNL     1     -10.492  15.216  69.379  1.00  0.00    -0.255 A  
BRANCH   4   9
HETATM    9  C   UNL     1     -13.213  14.090  71.909  1.00  0.00    -0.477 C  
HETATM   10  C   UNL     1     -12.668  14.682  73.231  1.00  0.00    -0.552 C  
HETATM   11  C   UNL     1     -14.397  14.957  71.438  1.00  0.00    -0.560 C  
HETATM   12  C   UNL     1     -13.777  12.696  72.317  1.00  0.00    -0.429 C  
ENDBRANCH   4   9
BRANCH   8  13
HETATM   13  N   UNL     1      -9.721  16.428  69.096  1.00  0.00    -0.268 N  
HETATM   14  C   UNL     1     -10.356  17.646  68.854  1.00  0.00    -0.323 C  
HETATM   15  O   UNL     1      -7.580  15.390  69.112  1.00  0.00    -0.163 OA 
HETATM   16  C   UNL     1      -9.716  18.768  68.519  1.00  0.00    -0.426 C  
HETATM   17  H   UNL     1      -6.659  17.600  68.917  1.00  0.00     0.000 HD 
HETATM   18  C   UNL     1      -8.258  18.751  68.422  1.00  0.00    -0.341 C  
HETATM   19  O   UNL     1      -7.634  19.727  68.027  1.00  0.00    -0.287 OA 
HETATM   20  N   UNL     1      -7.671  17.584  68.795  1.00  0.00    -0.268 N  
HETATM   21  C   UNL     1      -8.302  16.382  69.027  1.00  0.00    -0.225 C  
ENDBRANCH   8  13
BRANCH   6  22
HETATM   22  C   UNL     1     -10.903  11.706  67.910  1.00  0.00    -0.255 A  
HETATM   23  C   UNL     1     -10.434   8.036  68.239  1.00  0.00    -0.210 A  
HETATM   24  C   UNL     1     -11.039  10.383  68.369  1.00  0.00    -0.322 A  
HETATM   25  C   UNL     1      -9.876   6.972  67.541  1.00  0.00    -0.186 A  
HETATM   26  C   UNL     1     -10.562   9.290  67.630  1.00  0.00    -0.324 A  
HETATM   27  C   UNL     1      -9.480   7.142  66.220  1.00  0.00    -0.067 A  
HETATM   28  C   UNL     1     -10.177  10.773  65.763  1.00  0.00    -0.319 A  
HETATM   29  C   UNL     1      -9.634   8.377  65.584  1.00  0.00     0.118 A  
HETATM   30  C   UNL     1     -10.513  11.873  66.569  1.00  0.00    -0.256 A  
HETATM   31  C   UNL     1     -10.135   9.476  66.304  1.00  0.00    -0.327 A  
BRANCH  27  32
HETATM   32  N   UNL     1      -8.952   6.028  65.509  1.00  0.00    -0.332 N  
HETATM   33  H   UNL     1      -8.167   6.135  64.865  1.00  0.00     0.000 HD 
BRANCH  32  34
HETATM   34  S   UNL     1      -9.677   4.515  65.772  1.00  0.00    -0.219 S  
HETATM   35  C   UNL     1      -8.789   3.482  64.628  1.00  0.00    -0.119 C  
HETATM   36  O   UNL     1     -11.030   4.660  65.280  1.00  0.00    -0.220 OA 
HETATM   37  O   UNL     1      -9.410   4.079  67.122  1.00  0.00    -0.156 OA 
ENDBRANCH  32  34
ENDBRANCH  27  32
ENDBRANCH   6  22
ENDBRANCH   2   3
TORSDOF 6
ENDMDL
MODEL       31
REMARK 921   NORMALIZED FREE ENERGY PREDICTED BY IDOCK:   -5.47 KCAL/MOL
REMARK 922        TOTAL FREE ENERGY PREDICTED BY IDOCK:   -7.64 KCAL/MOL
REMARK 923 INTER-LIGAND FREE ENERGY PREDICTED BY IDOCK:   -8.02 KCAL/MOL
REMARK 924 INTRA-LIGAND FREE ENERGY PREDICTED BY IDOCK:    0.38 KCAL/MOL
REMARK 927      BINDING AFFINITY PREDICTED BY RF-SCORE:    0.00 PKD
ROOT
HETATM    1  C   UNL     1      -7.356   7.871  65.451  1.00  0.00    -0.076 C  
HETATM    2  O   UNL     1      -8.763   7.701  65.654  1.00  0.00    -0.151 OA 
ENDROOT
BRANCH   2   3
HETATM    3  C   UNL     1      -9.139   7.289  66.912  1.00  0.00    -0.141 A  
HETATM    4  C   UNL     1      -9.369   5.903  67.107  1.00  0.00    -0.118 A  
HETATM    5  C   UNL     1      -9.627   5.485  68.433  1.00  0.00    -0.155 A  
HETATM    6  C   UNL     1      -9.379   8.228  67.958  1.00  0.00    -0.141 A  
HETATM    7  C   UNL     1      -9.653   7.718  69.248  1.00  0.00    -0.159 A  
HETATM    8  C   UNL     1      -9.744   6.347  69.533  1.00  0.00    -0.150 A  
BRANCH   4   9
HETATM    9  C   UNL     1      -9.336   4.821  65.986  1.00  0.00    -0.156 C  
HETATM   10  C   UNL     1      -8.403   5.144  64.796  1.00  0.00    -0.143 C  
HETATM   11  C   UNL     1      -8.898   3.477  66.600  1.00  0.00    -0.139 C  
HETATM   12  C   UNL     1     -10.735   4.611  65.331  1.00  0.00    -0.143 C  
ENDBRANCH   4   9
BRANCH   8  13
HETATM   13  N   UNL     1      -9.982   5.861  70.893  1.00  0.00    -0.182 N  
HETATM   14  C   UNL     1      -8.979   5.208  71.611  1.00  0.00    -0.134 C  
HETATM   15  O   UNL     1     -12.280   6.466  70.993  1.00  0.00    -0.256 OA 
HETATM   16  C   UNL     1      -9.153   4.679  72.823  1.00  0.00    -0.134 C  
HETATM   17  H   UNL     1     -12.210   5.815  73.304  1.00  0.00     0.000 HD 
HETATM   18  C   UNL     1     -10.457   4.801  73.470  1.00  0.00    -0.220 C  
HETATM   19  O   UNL     1     -10.694   4.251  74.538  1.00  0.00    -0.228 OA 
HETATM   20  N   UNL     1     -11.363   5.558  72.797  1.00  0.00    -0.305 N  
HETATM   21  C   UNL     1     -11.256   6.012  71.502  1.00  0.00    -0.264 C  
ENDBRANCH   8  13
BRANCH   6  22
HETATM   22  C   UNL     1      -9.368   9.711  67.747  1.00  0.00    -0.142 A  
HETATM   23  C   UNL     1     -11.783  12.244  66.505  1.00  0.00    -0.420 A  
HETATM   24  C   UNL     1     -10.569  10.412  67.533  1.00  0.00    -0.312 A  
HETATM   25  C   UNL     1     -11.790  13.485  65.879  1.00  0.00    -0.405 A  
HETATM   26  C   UNL     1     -10.585  11.703  66.987  1.00  0.00    -0.272 A  
HETATM   27  C   UNL     1     -10.610  14.210  65.766  1.00  0.00    -0.300 A  
HETATM   28  C   UNL     1      -8.186  11.798  67.243  1.00  0.00    -0.163 A  
HETATM   29  C   UNL     1      -9.412  13.702  66.274  1.00  0.00    -0.209 A  
HETATM   30  C   UNL     1      -8.177  10.452  67.643  1.00  0.00    -0.110 A  
HETATM   31  C   UNL     1      -9.383  12.419  66.849  1.00  0.00    -0.213 A  
BRANCH  27  32
HETATM   32  N   UNL     1     -10.647  15.497  65.162  1.00  0.00    -0.421 N  
HETATM   33  H   UNL     1     -11.079  15.641  64.249  1.00  0.00     0.000 HD 
BRANCH  32  34
HETATM   34  S   UNL     1      -9.944  16.785  66.017  1.00  0.00    -0.285 S  
HETATM   35  C   UNL     1     -10.548  16.500  67.666  1.00  0.00    -0.321 C  
HETATM   36  O   UNL     1     -10.597  17.972  65.506  1.00  0.00    -0.639 OA 
HETATM   37  O   UNL     1      -8.507  16.650  66.001  1.00  0.00    -0.409 OA 
ENDBRANCH  32  34
ENDBRANCH  27  32
ENDBRANCH   6  22
ENDBRANCH   2   3
TORSDOF 6
ENDMDL
MODEL       32
REMARK 921   NORMALIZED FREE ENERGY PREDICTED BY IDOCK:   -5.45 KCAL/MOL
REMARK 922        TOTAL FREE ENERGY PREDICTED BY IDOCK:   -7.61 KCAL/MOL
REMARK 923 INTER-LIGAND FREE ENERGY PREDICTED BY IDOCK:   -7.31 KCAL/MOL
REMARK 924 INTRA-LIGAND FREE ENERGY PREDICTED BY IDOCK:   -0.30 KCAL/MOL
REMARK 927      BINDING AFFINITY PREDICTED BY RF-SCORE:    0.00 PKD
ROOT
HETATM    1  C   UNL     1      -6.404  10.729  65.849  1.00  0.00    -0.109 C  
HETATM    2  O   UNL     1      -7.816  10.502  65.928  1.00  0.00    -0.143 OA 
ENDROOT
BRANCH   2   3
HETATM    3  C   UNL     1      -8.275  10.017  67.131  1.00  0.00    -0.117 A  
HETATM    4  C   UNL     1      -8.317   8.610  67.299  1.00  0.00    -0.108 A  
HETATM    5  C   UNL     1      -8.668   8.136  68.584  1.00  0.00    -0.134 A  
HETATM    6  C   UNL     1      -8.780  10.893  68.138  1.00  0.00    -0.133 A  
HETATM    7  C   UNL     1      -9.130  10.326  69.385  1.00  0.00    -0.203 A  
HETATM    8  C   UNL     1      -9.047   8.952  69.660  1.00  0.00    -0.151 A  
BRANCH   4   9
HETATM    9  C   UNL     1      -7.984   7.563  66.193  1.00  0.00    -0.111 C  
HETATM   10  C   UNL     1      -8.341   8.001  64.753  1.00  0.00    -0.086 C  
HETATM   11  C   UNL     1      -6.479   7.239  66.246  1.00  0.00    -0.048 C  
HETATM   12  C   UNL     1      -8.765   6.230  66.393  1.00  0.00    -0.137 C  
ENDBRANCH   4   9
BRANCH   8  13
HETATM   13  N   UNL     1      -9.373   8.413  70.981  1.00  0.00    -0.161 N  
HETATM   14  C   UNL     1      -8.420   7.728  71.735  1.00  0.00    -0.112 C  
HETATM   15  O   UNL     1     -11.671   9.026  70.957  1.00  0.00    -0.280 OA 
HETATM   16  C   UNL     1      -8.672   7.151  72.911  1.00  0.00    -0.144 C  
HETATM   17  H   UNL     1     -11.751   8.283  73.240  1.00  0.00     0.000 HD 
HETATM   18  C   UNL     1     -10.016   7.254  73.478  1.00  0.00    -0.320 C  
HETATM   19  O   UNL     1     -10.321   6.663  74.505  1.00  0.00    -0.328 OA 
HETATM   20  N   UNL     1     -10.875   8.042  72.779  1.00  0.00    -0.368 N  
HETATM   21  C   UNL     1     -10.684   8.547  71.513  1.00  0.00    -0.261 C  
ENDBRANCH   8  13
BRANCH   6  22
HETATM   22  C   UNL     1      -8.967  12.364  67.927  1.00  0.00    -0.184 A  
HETATM   23  C   UNL     1      -6.764  15.354  67.901  1.00  0.00    -0.177 A  
HETATM   24  C   UNL     1      -7.860  13.199  67.690  1.00  0.00    -0.169 A  
HETATM   25  C   UNL     1      -6.829  16.721  68.143  1.00  0.00    -0.153 A  
HETATM   26  C   UNL     1      -7.936  14.590  67.842  1.00  0.00    -0.152 A  
HETATM   27  C   UNL     1      -8.064  17.340  68.288  1.00  0.00    -0.246 A  
HETATM   28  C   UNL     1     -10.333  14.394  68.062  1.00  0.00    -0.227 A  
HETATM   29  C   UNL     1      -9.246  16.600  68.196  1.00  0.00    -0.220 A  
HETATM   30  C   UNL     1     -10.217  12.995  68.061  1.00  0.00    -0.233 A  
HETATM   31  C   UNL     1      -9.187  15.207  68.018  1.00  0.00    -0.185 A  
BRANCH  27  32
HETATM   32  N   UNL     1      -8.111  18.747  68.492  1.00  0.00    -0.337 N  
HETATM   33  H   UNL     1      -7.960  19.154  69.416  1.00  0.00     0.000 HD 
BRANCH  32  34
HETATM   34  S   UNL     1      -8.426  19.725  67.140  1.00  0.00    -0.331 S  
HETATM   35  C   UNL     1      -6.974  20.753  67.086  1.00  0.00    -0.348 C  
HETATM   36  O   UNL     1      -9.543  20.557  67.534  1.00  0.00    -0.418 OA 
HETATM   37  O   UNL     1      -8.480  18.906  65.952  1.00  0.00    -0.474 OA 
ENDBRANCH  32  34
ENDBRANCH  27  32
ENDBRANCH   6  22
ENDBRANCH   2   3
TORSDOF 6
ENDMDL
MODEL       33
REMARK 921   NORMALIZED FREE ENERGY PREDICTED BY IDOCK:   -5.45 KCAL/MOL
REMARK 922        TOTAL FREE ENERGY PREDICTED BY IDOCK:   -7.61 KCAL/MOL
REMARK 923 INTER-LIGAND FREE ENERGY PREDICTED BY IDOCK:   -7.41 KCAL/MOL
REMARK 924 INTRA-LIGAND FREE ENERGY PREDICTED BY IDOCK:   -0.20 KCAL/MOL
REMARK 927      BINDING AFFINITY PREDICTED BY RF-SCORE:    0.00 PKD
ROOT
HETATM    1  C   UNL     1     -11.035  12.987  64.115  1.00  0.00    -0.408 C  
HETATM    2  O   UNL     1     -10.004  13.486  64.975  1.00  0.00    -0.266 OA 
ENDROOT
BRANCH   2   3
HETATM    3  C   UNL     1     -10.357  13.653  66.295  1.00  0.00    -0.293 A  
HETATM    4  C   UNL     1     -10.580  14.976  66.753  1.00  0.00    -0.301 A  
HETATM    5  C   UNL     1     -11.066  15.116  68.073  1.00  0.00    -0.310 A  
HETATM    6  C   UNL     1     -10.405  12.546  67.193  1.00  0.00    -0.230 A  
HETATM    7  C   UNL     1     -10.882  12.785  68.503  1.00  0.00    -0.279 A  
HETATM    8  C   UNL     1     -11.263  14.054  68.967  1.00  0.00    -0.276 A  
BRANCH   4   9
HETATM    9  C   UNL     1     -10.355  16.268  65.910  1.00  0.00    -0.381 C  
HETATM   10  C   UNL     1     -11.036  16.267  64.521  1.00  0.00    -0.174 C  
HETATM   11  C   UNL     1     -10.871  17.483  66.706  1.00  0.00     0.009 C  
HETATM   12  C   UNL     1      -8.847  16.510  65.598  1.00  0.00     0.302 C  
ENDBRANCH   4   9
BRANCH   8  13
HETATM   13  N   UNL     1     -11.798  14.248  70.316  1.00  0.00    -0.296 N  
HETATM   14  C   UNL     1     -12.617  13.288  70.912  1.00  0.00    -0.306 C  
HETATM   15  O   UNL     1     -10.909  16.430  70.642  1.00  0.00    -0.190 OA 
HETATM   16  C   UNL     1     -13.194  13.436  72.105  1.00  0.00    -0.557 C  
HETATM   17  H   UNL     1     -11.705  16.267  72.903  1.00  0.00     0.000 HD 
HETATM   18  C   UNL     1     -12.945  14.658  72.867  1.00  0.00    -0.497 C  
HETATM   19  O   UNL     1     -13.525  14.882  73.921  1.00  0.00     0.110 OA 
HETATM   20  N   UNL     1     -12.038  15.505  72.313  1.00  0.00    -0.385 N  
HETATM   21  C   UNL     1     -11.522  15.439  71.039  1.00  0.00    -0.364 C  
ENDBRANCH   8  13
BRANCH   6  22
HETATM   22  C   UNL     1      -9.963  11.166  66.819  1.00  0.00    -0.242 A  
HETATM   23  C   UNL     1     -11.088   7.709  67.579  1.00  0.00     0.092 A  
HETATM   24  C   UNL     1     -10.801  10.059  67.048  1.00  0.00    -0.196 A  
HETATM   25  C   UNL     1     -10.573   6.421  67.669  1.00  0.00    -0.340 A  
HETATM   26  C   UNL     1     -10.310   8.746  67.052  1.00  0.00    -0.353 A  
HETATM   27  C   UNL     1      -9.293   6.154  67.199  1.00  0.00    -0.118 A  
HETATM   28  C   UNL     1      -8.213   9.572  66.182  1.00  0.00    -0.115 A  
HETATM   29  C   UNL     1      -8.515   7.169  66.636  1.00  0.00    -0.121 A  
HETATM   30  C   UNL     1      -8.672  10.890  66.332  1.00  0.00    -0.174 A  
HETATM   31  C   UNL     1      -9.004   8.487  66.601  1.00  0.00    -0.178 A  
BRANCH  27  32
HETATM   32  N   UNL     1      -8.800   4.821  67.261  1.00  0.00    -0.103 N  
HETATM   33  H   UNL     1      -8.547   4.391  68.151  1.00  0.00     0.000 HD 
BRANCH  32  34
HETATM   34  S   UNL     1      -8.649   3.972  65.797  1.00  0.00    -0.112 S  
HETATM   35  C   UNL     1      -8.780   2.283  66.340  1.00  0.00    -0.120 C  
HETATM   36  O   UNL     1      -7.282   4.197  65.376  1.00  0.00    -0.068 OA 
HETATM   37  O   UNL     1      -9.763   4.289  64.937  1.00  0.00    -0.170 OA 
ENDBRANCH  32  34
ENDBRANCH  27  32
ENDBRANCH   6  22
ENDBRANCH   2   3
TORSDOF 6
ENDMDL
MODEL       34
REMARK 921   NORMALIZED FREE ENERGY PREDICTED BY IDOCK:   -5.42 KCAL/MOL
REMARK 922        TOTAL FREE ENERGY PREDICTED BY IDOCK:   -7.56 KCAL/MOL
REMARK 923 INTER-LIGAND FREE ENERGY PREDICTED BY IDOCK:   -7.43 KCAL/MOL
REMARK 924 INTRA-LIGAND FREE ENERGY PREDICTED BY IDOCK:   -0.13 KCAL/MOL
REMARK 927      BINDING AFFINITY PREDICTED BY RF-SCORE:    0.00 PKD
ROOT
HETATM    1  C   UNL     1      -9.449   8.483  72.420  1.00  0.00    -0.280 C  
HETATM    2  O   UNL     1     -10.499   7.816  71.709  1.00  0.00    -0.208 OA 
ENDROOT
BRANCH   2   3
HETATM    3  C   UNL     1     -10.105   7.087  70.610  1.00  0.00    -0.191 A  
HETATM    4  C   UNL     1     -10.008   5.680  70.757  1.00  0.00    -0.254 A  
HETATM    5  C   UNL     1      -9.728   4.939  69.586  1.00  0.00    -0.266 A  
HETATM    6  C   UNL     1      -9.718   7.727  69.396  1.00  0.00    -0.169 A  
HETATM    7  C   UNL     1      -9.433   6.904  68.282  1.00  0.00    -0.126 A  
HETATM    8  C   UNL     1      -9.469   5.502  68.328  1.00  0.00    -0.115 A  
BRANCH   4   9
HETATM    9  C   UNL     1     -10.207   4.901  72.092  1.00  0.00    -0.257 C  
HETATM   10  C   UNL     1     -11.533   5.202  72.831  1.00  0.00    -0.329 C  
HETATM   11  C   UNL     1     -10.142   3.388  71.805  1.00  0.00    -0.136 C  
HETATM   12  C   UNL     1      -9.101   5.234  73.138  1.00  0.00    -0.127 C  
ENDBRANCH   4   9
BRANCH   8  13
HETATM   13  N   UNL     1      -9.214   4.689  67.138  1.00  0.00    -0.122 N  
HETATM   14  C   UNL     1      -7.998   4.027  66.965  1.00  0.00    -0.096 C  
HETATM   15  O   UNL     1     -11.271   5.168  66.043  1.00  0.00    -0.045 OA 
HETATM   16  C   UNL     1      -7.676   3.332  65.873  1.00  0.00    -0.081 C  
HETATM   17  H   UNL     1     -10.620   3.537  64.404  1.00  0.00     0.000 HD 
HETATM   18  C   UNL     1      -8.651   3.218  64.791  1.00  0.00    -0.099 C  
HETATM   19  O   UNL     1      -8.369   2.672  63.732  1.00  0.00    -0.084 OA 
HETATM   20  N   UNL     1      -9.869   3.761  65.056  1.00  0.00    -0.184 N  
HETATM   21  C   UNL     1     -10.191   4.582  66.112  1.00  0.00    -0.254 C  
ENDBRANCH   8  13
BRANCH   6  22
HETATM   22  C   UNL     1      -9.588   9.213  69.258  1.00  0.00    -0.159 A  
HETATM   23  C   UNL     1     -11.910  12.046  68.644  1.00  0.00    -0.366 A  
HETATM   24  C   UNL     1     -10.725  10.039  69.321  1.00  0.00    -0.249 A  
HETATM   25  C   UNL     1     -11.904  13.321  68.091  1.00  0.00    -0.388 A  
HETATM   26  C   UNL     1     -10.708  11.360  68.851  1.00  0.00    -0.248 A  
HETATM   27  C   UNL     1     -10.697  13.935  67.779  1.00  0.00    -0.246 A  
HETATM   28  C   UNL     1      -8.308  11.205  68.627  1.00  0.00    -0.154 A  
HETATM   29  C   UNL     1      -9.485  13.280  68.013  1.00  0.00    -0.219 A  
HETATM   30  C   UNL     1      -8.367   9.841  68.953  1.00  0.00    -0.120 A  
HETATM   31  C   UNL     1      -9.485  11.964  68.509  1.00  0.00    -0.151 A  
BRANCH  27  32
HETATM   32  N   UNL     1     -10.711  15.257  67.255  1.00  0.00    -0.305 N  
HETATM   33  H   UNL     1     -10.753  16.070  67.871  1.00  0.00     0.000 HD 
BRANCH  32  34
HETATM   34  S   UNL     1     -10.654  15.432  65.567  1.00  0.00    -0.411 S  
HETATM   35  C   UNL     1     -12.164  14.633  65.067  1.00  0.00    -0.322 C  
HETATM   36  O   UNL     1      -9.550  14.597  65.143  1.00  0.00    -0.097 OA 
HETATM   37  O   UNL     1     -10.715  16.832  65.223  1.00  0.00    -0.576 OA 
ENDBRANCH  32  34
ENDBRANCH  27  32
ENDBRANCH   6  22
ENDBRANCH   2   3
TORSDOF 6
ENDMDL
MODEL       35
REMARK 921   NORMALIZED FREE ENERGY PREDICTED BY IDOCK:   -5.40 KCAL/MOL
REMARK 922        TOTAL FREE ENERGY PREDICTED BY IDOCK:   -7.54 KCAL/MOL
REMARK 923 INTER-LIGAND FREE ENERGY PREDICTED BY IDOCK:   -7.53 KCAL/MOL
REMARK 924 INTRA-LIGAND FREE ENERGY PREDICTED BY IDOCK:   -0.01 KCAL/MOL
REMARK 927      BINDING AFFINITY PREDICTED BY RF-SCORE:    0.00 PKD
ROOT
HETATM    1  C   UNL     1     -11.547  11.414  65.208  1.00  0.00     0.191 C  
HETATM    2  O   UNL     1     -10.423  11.957  65.909  1.00  0.00    -0.242 OA 
ENDROOT
BRANCH   2   3
HETATM    3  C   UNL     1     -10.706  12.560  67.114  1.00  0.00    -0.237 A  
HETATM    4  C   UNL     1     -11.077  13.929  67.092  1.00  0.00    -0.312 A  
HETATM    5  C   UNL     1     -11.488  14.493  68.321  1.00  0.00    -0.336 A  
HETATM    6  C   UNL     1     -10.542  11.863  68.347  1.00  0.00    -0.239 A  
HETATM    7  C   UNL     1     -10.958  12.516  69.530  1.00  0.00     0.029 A  
HETATM    8  C   UNL     1     -11.478  13.820  69.551  1.00  0.00    -0.267 A  
BRANCH   4   9
HETATM    9  C   UNL     1     -11.088  14.836  65.824  1.00  0.00    -0.338 C  
HETATM   10  C   UNL     1      -9.965  14.540  64.802  1.00  0.00     0.048 C  
HETATM   11  C   UNL     1     -12.447  14.688  65.113  1.00  0.00    -0.206 C  
HETATM   12  C   UNL     1     -10.898  16.341  66.179  1.00  0.00    -0.105 C  
ENDBRANCH   4   9
BRANCH   8  13
HETATM   13  N   UNL     1     -11.942  14.440  70.793  1.00  0.00    -0.316 N  
HETATM   14  C   UNL     1     -11.367  15.619  71.269  1.00  0.00    -0.390 C  
HETATM   15  O   UNL     1     -13.522  12.754  71.358  1.00  0.00    -0.153 OA 
HETATM   16  C   UNL     1     -11.693  16.194  72.427  1.00  0.00    -0.550 C  
HETATM   17  H   UNL     1     -14.210  14.193  73.154  1.00  0.00     0.000 HD 
HETATM   18  C   UNL     1     -12.735  15.587  73.252  1.00  0.00    -0.509 C  
HETATM   19  O   UNL     1     -13.003  16.022  74.364  1.00  0.00    -0.580 OA 
HETATM   20  N   UNL     1     -13.362  14.520  72.691  1.00  0.00    -0.461 N  
HETATM   21  C   UNL     1     -12.971  13.834  71.563  1.00  0.00    -0.363 C  
ENDBRANCH   8  13
BRANCH   6  22
HETATM   22  C   UNL     1      -9.941  10.495  68.442  1.00  0.00    -0.177 A  
HETATM   23  C   UNL     1      -7.996   8.275  66.188  1.00  0.00    -0.100 A  
HETATM   24  C   UNL     1      -9.001  10.058  67.491  1.00  0.00    -0.141 A  
HETATM   25  C   UNL     1      -7.763   6.922  65.974  1.00  0.00    -0.096 A  
HETATM   26  C   UNL     1      -8.688   8.702  67.327  1.00  0.00    -0.133 A  
HETATM   27  C   UNL     1      -8.184   5.990  66.915  1.00  0.00    -0.105 A  
HETATM   28  C   UNL     1      -9.929   8.215  69.341  1.00  0.00    -0.188 A  
HETATM   29  C   UNL     1      -8.844   6.400  68.076  1.00  0.00    -0.113 A  
HETATM   30  C   UNL     1     -10.356   9.551  69.399  1.00  0.00    -0.225 A  
HETATM   31  C   UNL     1      -9.143   7.761  68.268  1.00  0.00    -0.130 A  
BRANCH  27  32
HETATM   32  N   UNL     1      -7.898   4.613  66.699  1.00  0.00    -0.098 N  
HETATM   33  H   UNL     1      -6.940   4.261  66.725  1.00  0.00     0.000 HD 
BRANCH  32  34
HETATM   34  S   UNL     1      -9.209   3.578  66.394  1.00  0.00    -0.161 S  
HETATM   35  C   UNL     1      -8.521   2.462  65.191  1.00  0.00    -0.099 C  
HETATM   36  O   UNL     1     -10.188   4.406  65.722  1.00  0.00    -0.241 OA 
HETATM   37  O   UNL     1      -9.538   2.848  67.595  1.00  0.00    -0.182 OA 
ENDBRANCH  32  34
ENDBRANCH  27  32
ENDBRANCH   6  22
ENDBRANCH   2   3
TORSDOF 6
ENDMDL
MODEL       36
REMARK 921   NORMALIZED FREE ENERGY PREDICTED BY IDOCK:   -5.38 KCAL/MOL
REMARK 922        TOTAL FREE ENERGY PREDICTED BY IDOCK:   -7.51 KCAL/MOL
REMARK 923 INTER-LIGAND FREE ENERGY PREDICTED BY IDOCK:   -7.50 KCAL/MOL
REMARK 924 INTRA-LIGAND FREE ENERGY PREDICTED BY IDOCK:   -0.01 KCAL/MOL
REMARK 927      BINDING AFFINITY PREDICTED BY RF-SCORE:    0.00 PKD
ROOT
HETATM    1  C   UNL     1     -10.080  10.166  70.027  1.00  0.00    -0.190 C  
HETATM    2  O   UNL     1     -10.964   9.267  69.347  1.00  0.00    -0.212 OA 
ENDROOT
BRANCH   2   3
HETATM    3  C   UNL     1     -10.357   8.303  68.575  1.00  0.00    -0.199 A  
HETATM    4  C   UNL     1     -10.216   7.007  69.135  1.00  0.00    -0.193 A  
HETATM    5  C   UNL     1      -9.708   6.001  68.281  1.00  0.00    -0.138 A  
HETATM    6  C   UNL     1      -9.805   8.616  67.299  1.00  0.00    -0.256 A  
HETATM    7  C   UNL     1      -9.297   7.548  66.524  1.00  0.00    -0.231 A  
HETATM    8  C   UNL     1      -9.271   6.216  66.966  1.00  0.00    -0.123 A  
BRANCH   4   9
HETATM    9  C   UNL     1     -10.597   6.613  70.593  1.00  0.00    -0.268 C  
HETATM   10  C   UNL     1     -10.467   5.105  70.916  1.00  0.00    -0.258 C  
HETATM   11  C   UNL     1      -9.709   7.401  71.575  1.00  0.00    -0.170 C  
HETATM   12  C   UNL     1     -12.083   6.948  70.923  1.00  0.00    -0.424 C  
ENDBRANCH   4   9
BRANCH   8  13
HETATM   13  N   UNL     1      -8.781   5.133  66.112  1.00  0.00    -0.120 N  
HETATM   14  C   UNL     1      -7.419   4.836  66.036  1.00  0.00    -0.078 C  
HETATM   15  O   UNL     1     -10.890   4.561  65.172  1.00  0.00    -0.227 OA 
HETATM   16  C   UNL     1      -6.902   3.912  65.224  1.00  0.00    -0.053 C  
HETATM   17  H   UNL     1      -9.770   2.705  64.138  1.00  0.00     0.000 HD 
HETATM   18  C   UNL     1      -7.798   3.132  64.374  1.00  0.00    -0.078 C  
HETATM   19  O   UNL     1      -7.365   2.342  63.545  1.00  0.00    -0.050 OA 
HETATM   20  N   UNL     1      -9.123   3.359  64.576  1.00  0.00    -0.125 N  
HETATM   21  C   UNL     1      -9.680   4.380  65.311  1.00  0.00    -0.192 C  
ENDBRANCH   8  13
BRANCH   6  22
HETATM   22  C   UNL     1      -9.727  10.010  66.758  1.00  0.00    -0.239 A  
HETATM   23  C   UNL     1      -7.657  13.019  67.436  1.00  0.00    -0.141 A  
HETATM   24  C   UNL     1      -8.614  10.825  67.038  1.00  0.00    -0.130 A  
HETATM   25  C   UNL     1      -7.739  14.404  67.348  1.00  0.00    -0.207 A  
HETATM   26  C   UNL     1      -8.652  12.216  66.867  1.00  0.00    -0.191 A  
HETATM   27  C   UNL     1      -8.792  14.993  66.659  1.00  0.00    -0.272 A  
HETATM   28  C   UNL     1     -10.772  11.976  65.734  1.00  0.00    -0.319 A  
HETATM   29  C   UNL     1      -9.775  14.206  66.054  1.00  0.00    -0.297 A  
HETATM   30  C   UNL     1     -10.785  10.609  66.051  1.00  0.00    -0.127 A  
HETATM   31  C   UNL     1      -9.736  12.807  66.194  1.00  0.00    -0.246 A  
BRANCH  27  32
HETATM   32  N   UNL     1      -8.834  16.411  66.544  1.00  0.00    -0.252 N  
HETATM   33  H   UNL     1      -7.978  16.965  66.522  1.00  0.00     0.000 HD 
BRANCH  32  34
HETATM   34  S   UNL     1     -10.363  17.144  66.445  1.00  0.00    -0.273 S  
HETATM   35  C   UNL     1      -9.965  18.855  66.731  1.00  0.00    -0.360 C  
HETATM   36  O   UNL     1     -11.084  16.658  67.602  1.00  0.00    -0.244 OA 
HETATM   37  O   UNL     1     -10.888  16.989  65.110  1.00  0.00    -0.617 OA 
ENDBRANCH  32  34
ENDBRANCH  27  32
ENDBRANCH   6  22
ENDBRANCH   2   3
TORSDOF 6
ENDMDL
MODEL       37
REMARK 921   NORMALIZED FREE ENERGY PREDICTED BY IDOCK:   -5.37 KCAL/MOL
REMARK 922        TOTAL FREE ENERGY PREDICTED BY IDOCK:   -7.50 KCAL/MOL
REMARK 923 INTER-LIGAND FREE ENERGY PREDICTED BY IDOCK:   -7.29 KCAL/MOL
REMARK 924 INTRA-LIGAND FREE ENERGY PREDICTED BY IDOCK:   -0.21 KCAL/MOL
REMARK 927      BINDING AFFINITY PREDICTED BY RF-SCORE:    0.00 PKD
ROOT
HETATM    1  C   UNL     1     -11.525  11.229  67.721  1.00  0.00    -0.275 C  
HETATM    2  O   UNL     1     -10.744  11.641  66.593  1.00  0.00    -0.246 OA 
ENDROOT
BRANCH   2   3
HETATM    3  C   UNL     1      -9.888  12.696  66.814  1.00  0.00    -0.235 A  
HETATM    4  C   UNL     1     -10.197  13.933  66.194  1.00  0.00    -0.307 A  
HETATM    5  C   UNL     1      -9.380  15.034  66.537  1.00  0.00    -0.309 A  
HETATM    6  C   UNL     1      -8.684  12.528  67.561  1.00  0.00    -0.182 A  
HETATM    7  C   UNL     1      -7.916  13.683  67.835  1.00  0.00    -0.161 A  
HETATM    8  C   UNL     1      -8.256  14.965  67.374  1.00  0.00    -0.197 A  
BRANCH   4   9
HETATM    9  C   UNL     1     -11.371  14.168  65.196  1.00  0.00    -0.336 C  
HETATM   10  C   UNL     1     -12.785  13.987  65.798  1.00  0.00    -0.487 C  
HETATM   11  C   UNL     1     -11.263  15.595  64.623  1.00  0.00    -0.380 C  
HETATM   12  C   UNL     1     -11.333  13.171  63.999  1.00  0.00    -0.437 C  
ENDBRANCH   4   9
BRANCH   8  13
HETATM   13  N   UNL     1      -7.459  16.142  67.722  1.00  0.00    -0.127 N  
HETATM   14  C   UNL     1      -6.825  16.242  68.961  1.00  0.00    -0.182 C  
HETATM   15  O   UNL     1      -7.904  17.363  65.729  1.00  0.00    -0.526 OA 
HETATM   16  C   UNL     1      -6.146  17.315  69.367  1.00  0.00    -0.236 C  
HETATM   17  H   UNL     1      -6.301  18.968  66.519  1.00  0.00     0.000 HD 
HETATM   18  C   UNL     1      -6.020  18.459  68.465  1.00  0.00    -0.191 C  
HETATM   19  O   UNL     1      -5.490  19.501  68.826  1.00  0.00    -0.197 OA 
HETATM   20  N   UNL     1      -6.536  18.268  67.222  1.00  0.00    -0.177 N  
HETATM   21  C   UNL     1      -7.341  17.229  66.815  1.00  0.00    -0.213 C  
ENDBRANCH   8  13
BRANCH   6  22
HETATM   22  C   UNL     1      -8.198  11.197  68.046  1.00  0.00    -0.125 A  
HETATM   23  C   UNL     1      -8.288   7.705  66.785  1.00  0.00    -0.125 A  
HETATM   24  C   UNL     1      -8.138  10.096  67.173  1.00  0.00    -0.120 A  
HETATM   25  C   UNL     1      -8.282   6.402  67.269  1.00  0.00    -0.113 A  
HETATM   26  C   UNL     1      -8.038   8.780  67.646  1.00  0.00    -0.106 A  
HETATM   27  C   UNL     1      -7.987   6.162  68.605  1.00  0.00    -0.101 A  
HETATM   28  C   UNL     1      -7.633   9.651  69.862  1.00  0.00    -0.138 A  
HETATM   29  C   UNL     1      -7.699   7.220  69.472  1.00  0.00    -0.113 A  
HETATM   30  C   UNL     1      -7.888  10.951  69.396  1.00  0.00    -0.048 A  
HETATM   31  C   UNL     1      -7.769   8.545  69.006  1.00  0.00    -0.096 A  
BRANCH  27  32
HETATM   32  N   UNL     1      -7.943   4.818  69.071  1.00  0.00    -0.075 N  
HETATM   33  H   UNL     1      -7.057   4.322  69.173  1.00  0.00     0.000 HD 
BRANCH  32  34
HETATM   34  S   UNL     1      -9.420   4.072  69.451  1.00  0.00    -0.187 S  
HETATM   35  C   UNL     1      -9.039   3.275  70.996  1.00  0.00    -0.113 C  
HETATM   36  O   UNL     1      -9.584   3.040  68.449  1.00  0.00    -0.175 OA 
HETATM   37  O   UNL     1     -10.431   5.079  69.666  1.00  0.00    -0.255 OA 
ENDBRANCH  32  34
ENDBRANCH  27  32
ENDBRANCH   6  22
ENDBRANCH   2   3
TORSDOF 6
ENDMDL
MODEL       38
REMARK 921   NORMALIZED FREE ENERGY PREDICTED BY IDOCK:   -5.37 KCAL/MOL
REMARK 922        TOTAL FREE ENERGY PREDICTED BY IDOCK:   -7.50 KCAL/MOL
REMARK 923 INTER-LIGAND FREE ENERGY PREDICTED BY IDOCK:   -6.82 KCAL/MOL
REMARK 924 INTRA-LIGAND FREE ENERGY PREDICTED BY IDOCK:   -0.67 KCAL/MOL
REMARK 927      BINDING AFFINITY PREDICTED BY RF-SCORE:    0.00 PKD
ROOT
HETATM    1  C   UNL     1     -10.905  11.669  67.634  1.00  0.00    -0.225 C  
HETATM    2  O   UNL     1     -10.301  12.108  66.412  1.00  0.00    -0.213 OA 
ENDROOT
BRANCH   2   3
HETATM    3  C   UNL     1      -9.813  13.396  66.417  1.00  0.00    -0.296 A  
HETATM    4  C   UNL     1     -10.544  14.376  65.699  1.00  0.00    -0.339 A  
HETATM    5  C   UNL     1     -10.100  15.713  65.823  1.00  0.00    -0.394 A  
HETATM    6  C   UNL     1      -8.571  13.714  67.040  1.00  0.00    -0.173 A  
HETATM    7  C   UNL     1      -8.195  15.076  67.095  1.00  0.00    -0.251 A  
HETATM    8  C   UNL     1      -8.958  16.112  66.533  1.00  0.00    -0.287 A  
BRANCH   4   9
HETATM    9  C   UNL     1     -11.798  14.095  64.817  1.00  0.00    -0.425 C  
HETATM   10  C   UNL     1     -13.005  13.493  65.573  1.00  0.00    -0.269 C  
HETATM   11  C   UNL     1     -12.246  15.410  64.149  1.00  0.00    -0.075 C  
HETATM   12  C   UNL     1     -11.501  13.065  63.686  1.00  0.00    -0.449 C  
ENDBRANCH   4   9
BRANCH   8  13
HETATM   13  N   UNL     1      -8.556  17.514  66.656  1.00  0.00    -0.246 N  
HETATM   14  C   UNL     1      -7.396  17.987  66.042  1.00  0.00    -0.263 C  
HETATM   15  O   UNL     1     -10.313  18.166  68.122  1.00  0.00    -0.364 OA 
HETATM   16  C   UNL     1      -6.937  19.233  66.175  1.00  0.00    -0.261 C  
HETATM   17  H   UNL     1      -9.514  20.415  67.856  1.00  0.00     0.000 HD 
HETATM   18  C   UNL     1      -7.694  20.186  66.984  1.00  0.00    -0.315 C  
HETATM   19  O   UNL     1      -7.266  21.309  67.213  1.00  0.00    -0.508 OA 
HETATM   20  N   UNL     1      -8.884  19.724  67.451  1.00  0.00    -0.315 N  
HETATM   21  C   UNL     1      -9.325  18.421  67.434  1.00  0.00    -0.272 C  
ENDBRANCH   8  13
BRANCH   6  22
HETATM   22  C   UNL     1      -7.652  12.681  67.615  1.00  0.00    -0.152 A  
HETATM   23  C   UNL     1      -6.549   9.266  66.657  1.00  0.00    -0.068 A  
HETATM   24  C   UNL     1      -7.225  11.590  66.836  1.00  0.00    -0.137 A  
HETATM   25  C   UNL     1      -6.091   8.095  67.249  1.00  0.00    -0.054 A  
HETATM   26  C   UNL     1      -6.676  10.437  67.414  1.00  0.00    -0.072 A  
HETATM   27  C   UNL     1      -5.719   8.095  68.588  1.00  0.00    -0.036 A  
HETATM   28  C   UNL     1      -6.574  11.597  69.530  1.00  0.00    -0.111 A  
HETATM   29  C   UNL     1      -5.804   9.264  69.349  1.00  0.00    -0.034 A  
HETATM   30  C   UNL     1      -7.264  12.682  68.967  1.00  0.00     0.009 A  
HETATM   31  C   UNL     1      -6.329  10.435  68.777  1.00  0.00    -0.047 A  
BRANCH  27  32
HETATM   32  N   UNL     1      -5.211   6.897  69.163  1.00  0.00    -0.013 N  
HETATM   33  H   UNL     1      -4.208   6.735  69.249  1.00  0.00     0.000 HD 
BRANCH  32  34
HETATM   34  S   UNL     1      -6.339   5.747  69.700  1.00  0.00    -0.039 S  
HETATM   35  C   UNL     1      -5.546   5.113  71.161  1.00  0.00    -0.008 C  
HETATM   36  O   UNL     1      -6.316   4.704  68.696  1.00  0.00    -0.034 OA 
HETATM   37  O   UNL     1      -7.568   6.409  70.069  1.00  0.00    -0.091 OA 
ENDBRANCH  32  34
ENDBRANCH  27  32
ENDBRANCH   6  22
ENDBRANCH   2   3
TORSDOF 6
ENDMDL
MODEL       39
REMARK 921   NORMALIZED FREE ENERGY PREDICTED BY IDOCK:   -5.35 KCAL/MOL
REMARK 922        TOTAL FREE ENERGY PREDICTED BY IDOCK:   -7.48 KCAL/MOL
REMARK 923 INTER-LIGAND FREE ENERGY PREDICTED BY IDOCK:   -6.56 KCAL/MOL
REMARK 924 INTRA-LIGAND FREE ENERGY PREDICTED BY IDOCK:   -0.91 KCAL/MOL
REMARK 927      BINDING AFFINITY PREDICTED BY RF-SCORE:    0.00 PKD
ROOT
HETATM    1  C   UNL     1     -11.272  11.226  67.206  1.00  0.00    -0.296 C  
HETATM    2  O   UNL     1     -10.555  11.761  66.088  1.00  0.00    -0.243 OA 
ENDROOT
BRANCH   2   3
HETATM    3  C   UNL     1      -9.940  12.974  66.298  1.00  0.00    -0.283 A  
HETATM    4  C   UNL     1     -10.545  14.124  65.729  1.00  0.00    -0.306 A  
HETATM    5  C   UNL     1      -9.971  15.372  66.065  1.00  0.00    -0.350 A  
HETATM    6  C   UNL     1      -8.692  13.062  66.982  1.00  0.00    -0.195 A  
HETATM    7  C   UNL     1      -8.182  14.353  67.253  1.00  0.00    -0.223 A  
HETATM    8  C   UNL     1      -8.818  15.536  66.846  1.00  0.00    -0.255 A  
BRANCH   4   9
HETATM    9  C   UNL     1     -11.792  14.113  64.795  1.00  0.00    -0.425 C  
HETATM   10  C   UNL     1     -13.135  13.814  65.503  1.00  0.00    -0.210 C  
HETATM   11  C   UNL     1     -11.904  15.480  64.092  1.00  0.00    -0.094 C  
HETATM   12  C   UNL     1     -11.689  13.017  63.691  1.00  0.00    -0.550 C  
ENDBRANCH   4   9
BRANCH   8  13
HETATM   13  N   UNL     1      -8.281  16.854  67.189  1.00  0.00    -0.182 N  
HETATM   14  C   UNL     1      -7.267  17.439  66.430  1.00  0.00    -0.298 C  
HETATM   15  O   UNL     1      -9.567  17.157  69.167  1.00  0.00    -0.221 OA 
HETATM   16  C   UNL     1      -6.685  18.601  66.731  1.00  0.00    -0.211 C  
HETATM   17  H   UNL     1      -8.668  19.383  69.246  1.00  0.00     0.000 HD 
HETATM   18  C   UNL     1      -7.140  19.338  67.908  1.00  0.00    -0.243 C  
HETATM   19  O   UNL     1      -6.575  20.358  68.279  1.00  0.00    -0.285 OA 
HETATM   20  N   UNL     1      -8.216  18.801  68.541  1.00  0.00    -0.338 N  
HETATM   21  C   UNL     1      -8.757  17.554  68.330  1.00  0.00    -0.276 C  
ENDBRANCH   8  13
BRANCH   6  22
HETATM   22  C   UNL     1      -7.901  11.863  67.406  1.00  0.00    -0.158 A  
HETATM   23  C   UNL     1      -6.500   8.864  65.721  1.00  0.00    -0.060 A  
HETATM   24  C   UNL     1      -7.271  11.047  66.448  1.00  0.00    -0.127 A  
HETATM   25  C   UNL     1      -6.156   7.549  66.010  1.00  0.00    -0.038 A  
HETATM   26  C   UNL     1      -6.836   9.750  66.752  1.00  0.00    -0.084 A  
HETATM   27  C   UNL     1      -6.107   7.121  67.331  1.00  0.00    -0.037 A  
HETATM   28  C   UNL     1      -7.266  10.196  69.086  1.00  0.00    -0.081 A  
HETATM   29  C   UNL     1      -6.403   8.001  68.375  1.00  0.00    -0.050 A  
HETATM   30  C   UNL     1      -7.839  11.431  68.743  1.00  0.00    -0.128 A  
HETATM   31  C   UNL     1      -6.817   9.314  68.088  1.00  0.00    -0.064 A  
BRANCH  27  32
HETATM   32  N   UNL     1      -5.711   5.783  67.608  1.00  0.00    -0.012 N  
HETATM   33  H   UNL     1      -4.746   5.478  67.476  1.00  0.00     0.000 HD 
BRANCH  32  34
HETATM   34  S   UNL     1      -6.904   4.712  68.167  1.00  0.00    -0.056 S  
HETATM   35  C   UNL     1      -6.266   3.141  67.628  1.00  0.00    -0.032 C  
HETATM   36  O   UNL     1      -8.075   5.011  67.371  1.00  0.00    -0.102 OA 
HETATM   37  O   UNL     1      -6.946   4.744  69.610  1.00  0.00    -0.050 OA 
ENDBRANCH  32  34
ENDBRANCH  27  32
ENDBRANCH   6  22
ENDBRANCH   2   3
TORSDOF 6
ENDMDL
MODEL       40
REMARK 921   NORMALIZED FREE ENERGY PREDICTED BY IDOCK:   -5.35 KCAL/MOL
REMARK 922        TOTAL FREE ENERGY PREDICTED BY IDOCK:   -7.47 KCAL/MOL
REMARK 923 INTER-LIGAND FREE ENERGY PREDICTED BY IDOCK:   -6.70 KCAL/MOL
REMARK 924 INTRA-LIGAND FREE ENERGY PREDICTED BY IDOCK:   -0.77 KCAL/MOL
REMARK 927      BINDING AFFINITY PREDICTED BY RF-SCORE:    0.00 PKD
ROOT
HETATM    1  C   UNL     1     -11.409  11.325  67.344  1.00  0.00    -0.276 C  
HETATM    2  O   UNL     1     -10.709  11.797  66.187  1.00  0.00    -0.257 OA 
ENDROOT
BRANCH   2   3
HETATM    3  C   UNL     1      -9.997  12.963  66.355  1.00  0.00    -0.267 A  
HETATM    4  C   UNL     1     -10.516  14.141  65.762  1.00  0.00    -0.320 A  
HETATM    5  C   UNL     1      -9.840  15.348  66.054  1.00  0.00    -0.355 A  
HETATM    6  C   UNL     1      -8.735  12.969  67.020  1.00  0.00    -0.195 A  
HETATM    7  C   UNL     1      -8.120  14.222  67.247  1.00  0.00    -0.199 A  
HETATM    8  C   UNL     1      -8.666  15.441  66.815  1.00  0.00    -0.269 A  
BRANCH   4   9
HETATM    9  C   UNL     1     -11.774  14.205  64.845  1.00  0.00    -0.395 C  
HETATM   10  C   UNL     1     -11.788  13.181  63.685  1.00  0.00    -0.549 C  
HETATM   11  C   UNL     1     -13.034  13.985  65.704  1.00  0.00    -0.337 C  
HETATM   12  C   UNL     1     -11.916  15.587  64.138  1.00  0.00    -0.083 C  
ENDBRANCH   4   9
BRANCH   8  13
HETATM   13  N   UNL     1      -8.019  16.719  67.115  1.00  0.00    -0.170 N  
HETATM   14  C   UNL     1      -6.848  17.105  66.462  1.00  0.00    -0.260 C  
HETATM   15  O   UNL     1      -9.512  17.371  68.848  1.00  0.00    -0.264 OA 
HETATM   16  C   UNL     1      -6.172  18.221  66.740  1.00  0.00    -0.201 C  
HETATM   17  H   UNL     1      -8.362  19.480  68.857  1.00  0.00     0.000 HD 
HETATM   18  C   UNL     1      -6.685  19.124  67.767  1.00  0.00    -0.209 C  
HETATM   19  O   UNL     1      -6.053  20.109  68.124  1.00  0.00    -0.229 OA 
HETATM   20  N   UNL     1      -7.895  18.780  68.282  1.00  0.00    -0.294 N  
HETATM   21  C   UNL     1      -8.554  17.585  68.106  1.00  0.00    -0.258 C  
ENDBRANCH   8  13
BRANCH   6  22
HETATM   22  C   UNL     1      -8.037  11.722  67.466  1.00  0.00    -0.152 A  
HETATM   23  C   UNL     1      -7.193   8.445  65.935  1.00  0.00    -0.072 A  
HETATM   24  C   UNL     1      -7.623  10.759  66.528  1.00  0.00    -0.139 A  
HETATM   25  C   UNL     1      -6.964   7.127  66.310  1.00  0.00    -0.065 A  
HETATM   26  C   UNL     1      -7.300   9.448  66.906  1.00  0.00    -0.090 A  
HETATM   27  C   UNL     1      -6.802   6.807  67.652  1.00  0.00    -0.080 A  
HETATM   28  C   UNL     1      -7.389  10.136  69.219  1.00  0.00    -0.098 A  
HETATM   29  C   UNL     1      -6.868   7.801  68.633  1.00  0.00    -0.062 A  
HETATM   30  C   UNL     1      -7.859  11.398  68.824  1.00  0.00    -0.128 A  
HETATM   31  C   UNL     1      -7.166   9.126  68.268  1.00  0.00    -0.078 A  
BRANCH  27  32
HETATM   32  N   UNL     1      -6.525   5.459  68.012  1.00  0.00    -0.046 N  
HETATM   33  H   UNL     1      -5.568   5.131  68.141  1.00  0.00     0.000 HD 
BRANCH  32  34
HETATM   34  S   UNL     1      -7.849   4.416  68.218  1.00  0.00    -0.079 S  
HETATM   35  C   UNL     1      -7.812   4.122  69.973  1.00  0.00    -0.052 C  
HETATM   36  O   UNL     1      -7.463   3.188  67.555  1.00  0.00    -0.061 OA 
HETATM   37  O   UNL     1      -9.068   5.106  67.872  1.00  0.00    -0.109 OA 
ENDBRANCH  32  34
ENDBRANCH  27  32
ENDBRANCH   6  22
ENDBRANCH   2   3
TORSDOF 6
ENDMDL
MODEL       41
REMARK 921   NORMALIZED FREE ENERGY PREDICTED BY IDOCK:   -5.34 KCAL/MOL
REMARK 922        TOTAL FREE ENERGY PREDICTED BY IDOCK:   -7.46 KCAL/MOL
REMARK 923 INTER-LIGAND FREE ENERGY PREDICTED BY IDOCK:   -7.14 KCAL/MOL
REMARK 924 INTRA-LIGAND FREE ENERGY PREDICTED BY IDOCK:   -0.32 KCAL/MOL
REMARK 927      BINDING AFFINITY PREDICTED BY RF-SCORE:    0.00 PKD
ROOT
HETATM    1  C   UNL     1     -10.323   7.807  66.665  1.00  0.00    -0.192 C  
HETATM    2  O   UNL     1      -9.157   8.640  66.666  1.00  0.00    -0.148 OA 
ENDROOT
BRANCH   2   3
HETATM    3  C   UNL     1      -9.384   9.983  66.472  1.00  0.00    -0.162 A  
HETATM    4  C   UNL     1      -8.887  10.567  65.279  1.00  0.00    -0.205 A  
HETATM    5  C   UNL     1      -9.241  11.914  65.037  1.00  0.00     0.179 A  
HETATM    6  C   UNL     1     -10.013  10.780  67.473  1.00  0.00    -0.203 A  
HETATM    7  C   UNL     1     -10.307  12.126  67.151  1.00  0.00    -0.233 A  
HETATM    8  C   UNL     1      -9.974  12.717  65.923  1.00  0.00    -0.266 A  
BRANCH   4   9
HETATM    9  C   UNL     1      -8.011   9.834  64.218  1.00  0.00    -0.143 C  
HETATM   10  C   UNL     1      -8.399   8.359  63.959  1.00  0.00    -0.068 C  
HETATM   11  C   UNL     1      -8.091  10.601  62.884  1.00  0.00    -0.104 C  
HETATM   12  C   UNL     1      -6.512   9.768  64.639  1.00  0.00    -0.111 C  
ENDBRANCH   4   9
BRANCH   8  13
HETATM   13  N   UNL     1     -10.341  14.100  65.613  1.00  0.00    -0.317 N  
HETATM   14  C   UNL     1     -11.332  14.389  64.674  1.00  0.00    -0.371 C  
HETATM   15  O   UNL     1      -8.713  15.127  67.011  1.00  0.00    -0.205 OA 
HETATM   16  C   UNL     1     -11.662  15.624  64.294  1.00  0.00    -0.171 C  
HETATM   17  H   UNL     1      -9.771  17.216  66.475  1.00  0.00     0.000 HD 
HETATM   18  C   UNL     1     -10.978  16.761  64.905  1.00  0.00    -0.087 C  
HETATM   19  O   UNL     1     -11.178  17.907  64.523  1.00  0.00    -0.538 OA 
HETATM   20  N   UNL     1     -10.119  16.443  65.909  1.00  0.00    -0.345 N  
HETATM   21  C   UNL     1      -9.670  15.184  66.240  1.00  0.00    -0.290 C  
ENDBRANCH   8  13
BRANCH   6  22
HETATM   22  C   UNL     1     -10.355  10.265  68.837  1.00  0.00    -0.221 A  
HETATM   23  C   UNL     1      -8.556   8.438  71.524  1.00  0.00    -0.215 A  
HETATM   24  C   UNL     1      -9.340   9.868  69.727  1.00  0.00    -0.248 A  
HETATM   25  C   UNL     1      -8.820   7.567  72.574  1.00  0.00    -0.171 A  
HETATM   26  C   UNL     1      -9.607   9.063  70.843  1.00  0.00    -0.328 A  
HETATM   27  C   UNL     1     -10.131   7.346  72.977  1.00  0.00    -0.273 A  
HETATM   28  C   UNL     1     -11.970   9.377  70.452  1.00  0.00    -0.080 A  
HETATM   29  C   UNL     1     -11.191   7.990  72.333  1.00  0.00    -0.432 A  
HETATM   30  C   UNL     1     -11.681  10.049  69.254  1.00  0.00     0.028 A  
HETATM   31  C   UNL     1     -10.938   8.820  71.227  1.00  0.00    -0.345 A  
BRANCH  27  32
HETATM   32  N   UNL     1     -10.378   6.485  74.082  1.00  0.00    -0.371 N  
HETATM   33  H   UNL     1     -10.634   6.857  74.997  1.00  0.00     0.000 HD 
BRANCH  32  34
HETATM   34  S   UNL     1     -10.228   4.813  73.822  1.00  0.00    -0.218 S  
HETATM   35  C   UNL     1      -8.641   4.471  74.550  1.00  0.00    -0.102 C  
HETATM   36  O   UNL     1     -10.098   4.670  72.387  1.00  0.00    -0.169 OA 
HETATM   37  O   UNL     1     -11.256   4.115  74.557  1.00  0.00    -0.020 OA 
ENDBRANCH  32  34
ENDBRANCH  27  32
ENDBRANCH   6  22
ENDBRANCH   2   3
TORSDOF 6
ENDMDL
MODEL       42
REMARK 921   NORMALIZED FREE ENERGY PREDICTED BY IDOCK:   -5.22 KCAL/MOL
REMARK 922        TOTAL FREE ENERGY PREDICTED BY IDOCK:   -7.29 KCAL/MOL
REMARK 923 INTER-LIGAND FREE ENERGY PREDICTED BY IDOCK:   -7.47 KCAL/MOL
REMARK 924 INTRA-LIGAND FREE ENERGY PREDICTED BY IDOCK:    0.17 KCAL/MOL
REMARK 927      BINDING AFFINITY PREDICTED BY RF-SCORE:    0.00 PKD
ROOT
HETATM    1  C   UNL     1     -12.286  12.926  69.492  1.00  0.00    -0.119 C  
HETATM    2  O   UNL     1     -10.894  13.149  69.237  1.00  0.00    -0.144 OA 
ENDROOT
BRANCH   2   3
HETATM    3  C   UNL     1     -10.342  12.388  68.232  1.00  0.00    -0.227 A  
HETATM    4  C   UNL     1     -10.267  12.963  66.938  1.00  0.00    -0.243 A  
HETATM    5  C   UNL     1      -9.581  12.217  65.952  1.00  0.00    -0.207 A  
HETATM    6  C   UNL     1      -9.946  11.037  68.460  1.00  0.00    -0.198 A  
HETATM    7  C   UNL     1      -9.287  10.360  67.407  1.00  0.00    -0.162 A  
HETATM    8  C   UNL     1      -9.048  10.935  66.149  1.00  0.00    -0.183 A  
BRANCH   4   9
HETATM    9  C   UNL     1     -10.857  14.349  66.536  1.00  0.00    -0.310 C  
HETATM   10  C   UNL     1     -10.675  15.466  67.591  1.00  0.00    -0.292 C  
HETATM   11  C   UNL     1     -10.201  14.810  65.220  1.00  0.00    -0.415 C  
HETATM   12  C   UNL     1     -12.396  14.287  66.304  1.00  0.00    -0.399 C  
ENDBRANCH   4   9
BRANCH   8  13
HETATM   13  N   UNL     1      -8.320  10.215  65.103  1.00  0.00    -0.154 N  
HETATM   14  C   UNL     1      -8.994   9.601  64.047  1.00  0.00    -0.223 C  
HETATM   15  O   UNL     1      -6.156  10.481  66.056  1.00  0.00    -0.096 OA 
HETATM   16  C   UNL     1      -8.397   8.871  63.105  1.00  0.00    -0.185 C  
HETATM   17  H   UNL     1      -5.298   9.494  64.042  1.00  0.00     0.000 HD 
HETATM   18  C   UNL     1      -6.944   8.713  63.143  1.00  0.00    -0.090 C  
HETATM   19  O   UNL     1      -6.362   7.977  62.358  1.00  0.00    -0.084 OA 
HETATM   20  N   UNL     1      -6.314   9.436  64.106  1.00  0.00    -0.089 N  
HETATM   21  C   UNL     1      -6.905  10.096  65.159  1.00  0.00    -0.134 C  
ENDBRANCH   8  13
BRANCH   6  22
HETATM   22  C   UNL     1     -10.207  10.311  69.743  1.00  0.00    -0.262 A  
HETATM   23  C   UNL     1      -8.253   8.106  72.004  1.00  0.00    -0.192 A  
HETATM   24  C   UNL     1      -9.142   9.790  70.501  1.00  0.00    -0.069 A  
HETATM   25  C   UNL     1      -8.454   7.078  72.918  1.00  0.00    -0.130 A  
HETATM   26  C   UNL     1      -9.343   8.818  71.491  1.00  0.00    -0.337 A  
HETATM   27  C   UNL     1      -9.740   6.781  73.354  1.00  0.00    -0.192 A  
HETATM   28  C   UNL     1     -11.725   9.162  71.287  1.00  0.00    -0.396 A  
HETATM   29  C   UNL     1     -10.836   7.506  72.880  1.00  0.00    -0.425 A  
HETATM   30  C   UNL     1     -11.507  10.017  70.195  1.00  0.00    -0.344 A  
HETATM   31  C   UNL     1     -10.649   8.503  71.906  1.00  0.00    -0.392 A  
BRANCH  27  32
HETATM   32  N   UNL     1      -9.920   5.755  74.322  1.00  0.00    -0.217 N  
HETATM   33  H   UNL     1     -10.252   5.967  75.263  1.00  0.00     0.000 HD 
BRANCH  32  34
HETATM   34  S   UNL     1      -9.561   4.163  73.852  1.00  0.00    -0.107 S  
HETATM   35  C   UNL     1      -9.918   4.208  72.110  1.00  0.00    -0.174 C  
HETATM   36  O   UNL     1     -10.574   3.349  74.490  1.00  0.00    -0.192 OA 
HETATM   37  O   UNL     1      -8.154   3.905  74.049  1.00  0.00    -0.082 OA 
ENDBRANCH  32  34
ENDBRANCH  27  32
ENDBRANCH   6  22
ENDBRANCH   2   3
TORSDOF 6
ENDMDL
MODEL       43
REMARK 921   NORMALIZED FREE ENERGY PREDICTED BY IDOCK:   -5.17 KCAL/MOL
REMARK 922        TOTAL FREE ENERGY PREDICTED BY IDOCK:   -7.23 KCAL/MOL
REMARK 923 INTER-LIGAND FREE ENERGY PREDICTED BY IDOCK:   -8.38 KCAL/MOL
REMARK 924 INTRA-LIGAND FREE ENERGY PREDICTED BY IDOCK:    1.15 KCAL/MOL
REMARK 927      BINDING AFFINITY PREDICTED BY RF-SCORE:    0.00 PKD
ROOT
HETATM    1  C   UNL     1     -10.554   8.770  72.098  1.00  0.00    -0.316 C  
HETATM    2  O   UNL     1     -11.401   8.110  71.149  1.00  0.00    -0.259 OA 
ENDROOT
BRANCH   2   3
HETATM    3  C   UNL     1     -10.792   7.716  69.979  1.00  0.00    -0.243 A  
HETATM    4  C   UNL     1     -10.130   6.462  69.974  1.00  0.00    -0.208 A  
HETATM    5  C   UNL     1      -9.625   6.019  68.730  1.00  0.00    -0.148 A  
HETATM    6  C   UNL     1     -10.747   8.576  68.843  1.00  0.00    -0.100 A  
HETATM    7  C   UNL     1     -10.200   8.055  67.647  1.00  0.00    -0.291 A  
HETATM    8  C   UNL     1      -9.667   6.761  67.541  1.00  0.00    -0.128 A  
BRANCH   4   9
HETATM    9  C   UNL     1      -9.944   5.539  71.216  1.00  0.00    -0.249 C  
HETATM   10  C   UNL     1      -8.808   5.961  72.177  1.00  0.00    -0.136 C  
HETATM   11  C   UNL     1     -11.264   5.494  72.010  1.00  0.00    -0.222 C  
HETATM   12  C   UNL     1      -9.582   4.078  70.812  1.00  0.00    -0.263 C  
ENDBRANCH   4   9
BRANCH   8  13
HETATM   13  N   UNL     1      -9.155   6.245  66.271  1.00  0.00    -0.154 N  
HETATM   14  C   UNL     1      -8.106   6.879  65.605  1.00  0.00    -0.129 C  
HETATM   15  O   UNL     1     -10.729   4.474  66.051  1.00  0.00    -0.238 OA 
HETATM   16  C   UNL     1      -7.643   6.503  64.412  1.00  0.00    -0.099 C  
HETATM   17  H   UNL     1      -9.453   3.761  64.145  1.00  0.00     0.000 HD 
HETATM   18  C   UNL     1      -8.236   5.340  63.755  1.00  0.00    -0.123 C  
HETATM   19  O   UNL     1      -7.912   5.014  62.621  1.00  0.00    -0.070 OA 
HETATM   20  N   UNL     1      -9.160   4.673  64.495  1.00  0.00    -0.153 N  
HETATM   21  C   UNL     1      -9.742   5.100  65.667  1.00  0.00    -0.060 C  
ENDBRANCH   8  13
BRANCH   6  22
HETATM   22  C   UNL     1     -11.232   9.993  68.867  1.00  0.00    -0.179 A  
HETATM   23  C   UNL     1     -10.850  12.977  66.689  1.00  0.00    -0.291 A  
HETATM   24  C   UNL     1     -11.143  10.798  67.716  1.00  0.00    -0.381 A  
HETATM   25  C   UNL     1     -10.860  14.364  66.779  1.00  0.00    -0.301 A  
HETATM   26  C   UNL     1     -11.243  12.195  67.781  1.00  0.00    -0.333 A  
HETATM   27  C   UNL     1     -11.300  14.979  67.945  1.00  0.00    -0.333 A  
HETATM   28  C   UNL     1     -11.943  11.997  70.084  1.00  0.00    -0.401 A  
HETATM   29  C   UNL     1     -11.731  14.215  69.032  1.00  0.00    -0.361 A  
HETATM   30  C   UNL     1     -11.689  10.617  70.041  1.00  0.00    -0.405 A  
HETATM   31  C   UNL     1     -11.661  12.812  68.974  1.00  0.00    -0.371 A  
BRANCH  27  32
HETATM   32  N   UNL     1     -11.344  16.399  68.001  1.00  0.00    -0.235 N  
HETATM   33  H   UNL     1     -12.212  16.909  67.836  1.00  0.00     0.000 HD 
BRANCH  32  34
HETATM   34  S   UNL     1      -9.896  17.215  68.353  1.00  0.00    -0.313 S  
HETATM   35  C   UNL     1      -9.182  17.403  66.734  1.00  0.00    -0.260 C  
HETATM   36  O   UNL     1      -9.095  16.254  69.081  1.00  0.00    -0.253 OA 
HETATM   37  O   UNL     1     -10.194  18.516  68.902  1.00  0.00    -0.374 OA 
ENDBRANCH  32  34
ENDBRANCH  27  32
ENDBRANCH   6  22
ENDBRANCH   2   3
TORSDOF 6
ENDMDL
MODEL       44
REMARK 921   NORMALIZED FREE ENERGY PREDICTED BY IDOCK:   -5.07 KCAL/MOL
REMARK 922        TOTAL FREE ENERGY PREDICTED BY IDOCK:   -7.09 KCAL/MOL
REMARK 923 INTER-LIGAND FREE ENERGY PREDICTED BY IDOCK:   -7.61 KCAL/MOL
REMARK 924 INTRA-LIGAND FREE ENERGY PREDICTED BY IDOCK:    0.52 KCAL/MOL
REMARK 927      BINDING AFFINITY PREDICTED BY RF-SCORE:    0.00 PKD
ROOT
HETATM    1  C   UNL     1      -8.394   9.566  70.081  1.00  0.00    -0.192 C  
HETATM    2  O   UNL     1      -9.216   8.395  70.010  1.00  0.00    -0.155 OA 
ENDROOT
BRANCH   2   3
HETATM    3  C   UNL     1      -9.017   7.593  68.909  1.00  0.00    -0.137 A  
HETATM    4  C   UNL     1      -8.155   6.477  69.058  1.00  0.00    -0.112 A  
HETATM    5  C   UNL     1      -8.067   5.595  67.956  1.00  0.00    -0.097 A  
HETATM    6  C   UNL     1      -9.580   7.923  67.641  1.00  0.00    -0.183 A  
HETATM    7  C   UNL     1      -9.420   6.991  66.590  1.00  0.00    -0.210 A  
HETATM    8  C   UNL     1      -8.704   5.792  66.722  1.00  0.00    -0.116 A  
BRANCH   4   9
HETATM    9  C   UNL     1      -7.330   6.143  70.337  1.00  0.00    -0.089 C  
HETATM   10  C   UNL     1      -8.145   6.122  71.652  1.00  0.00    -0.110 C  
HETATM   11  C   UNL     1      -6.658   4.768  70.157  1.00  0.00    -0.036 C  
HETATM   12  C   UNL     1      -6.206   7.190  70.600  1.00  0.00    -0.035 C  
ENDBRANCH   4   9
BRANCH   8  13
HETATM   13  N   UNL     1      -8.604   4.832  65.622  1.00  0.00    -0.124 N  
HETATM   14  C   UNL     1      -7.369   4.507  65.059  1.00  0.00    -0.072 C  
HETATM   15  O   UNL     1     -10.942   4.470  65.373  1.00  0.00    -0.256 OA 
HETATM   16  C   UNL     1      -7.217   3.699  64.009  1.00  0.00    -0.051 C  
HETATM   17  H   UNL     1     -10.368   2.753  63.795  1.00  0.00     0.000 HD 
HETATM   18  C   UNL     1      -8.400   3.080  63.413  1.00  0.00    -0.086 C  
HETATM   19  O   UNL     1      -8.323   2.408  62.393  1.00  0.00    -0.071 OA 
HETATM   20  N   UNL     1      -9.565   3.315  64.073  1.00  0.00    -0.132 N  
HETATM   21  C   UNL     1      -9.771   4.234  65.076  1.00  0.00    -0.189 C  
ENDBRANCH   8  13
BRANCH   6  22
HETATM   22  C   UNL     1     -10.310   9.204  67.376  1.00  0.00    -0.330 A  
HETATM   23  C   UNL     1     -10.236  11.816  64.738  1.00  0.00    -0.324 A  
HETATM   24  C   UNL     1     -10.244   9.816  66.111  1.00  0.00    -0.278 A  
HETATM   25  C   UNL     1     -10.503  13.171  64.579  1.00  0.00    -0.425 A  
HETATM   26  C   UNL     1     -10.598  11.159  65.919  1.00  0.00    -0.294 A  
HETATM   27  C   UNL     1     -11.168  13.868  65.580  1.00  0.00    -0.306 A  
HETATM   28  C   UNL     1     -11.494  11.201  68.161  1.00  0.00    -0.373 A  
HETATM   29  C   UNL     1     -11.570  13.219  66.751  1.00  0.00    -0.408 A  
HETATM   30  C   UNL     1     -10.994   9.908  68.384  1.00  0.00    -0.235 A  
HETATM   31  C   UNL     1     -11.245  11.865  66.948  1.00  0.00    -0.382 A  
BRANCH  27  32
HETATM   32  N   UNL     1     -11.470  15.243  65.380  1.00  0.00    -0.245 N  
HETATM   33  H   UNL     1     -12.358  15.536  64.971  1.00  0.00     0.000 HD 
BRANCH  32  34
HETATM   34  S   UNL     1     -10.297  16.379  65.846  1.00  0.00    -0.341 S  
HETATM   35  C   UNL     1     -10.733  16.677  67.545  1.00  0.00    -0.278 C  
HETATM   36  O   UNL     1     -10.615  17.573  65.092  1.00  0.00    -0.657 OA 
HETATM   37  O   UNL     1      -8.987  15.776  65.784  1.00  0.00    -0.282 OA 
ENDBRANCH  32  34
ENDBRANCH  27  32
ENDBRANCH   6  22
ENDBRANCH   2   3
TORSDOF 6
ENDMDL
MODEL       45
REMARK 921   NORMALIZED FREE ENERGY PREDICTED BY IDOCK:   -5.07 KCAL/MOL
REMARK 922        TOTAL FREE ENERGY PREDICTED BY IDOCK:   -7.09 KCAL/MOL
REMARK 923 INTER-LIGAND FREE ENERGY PREDICTED BY IDOCK:   -6.99 KCAL/MOL
REMARK 924 INTRA-LIGAND FREE ENERGY PREDICTED BY IDOCK:   -0.10 KCAL/MOL
REMARK 927      BINDING AFFINITY PREDICTED BY RF-SCORE:    0.00 PKD
ROOT
HETATM    1  C   UNL     1      -5.958  11.186  66.351  1.00  0.00    -0.145 C  
HETATM    2  O   UNL     1      -7.331  11.204  65.943  1.00  0.00    -0.036 OA 
ENDROOT
BRANCH   2   3
HETATM    3  C   UNL     1      -8.216  10.590  66.801  1.00  0.00    -0.126 A  
HETATM    4  C   UNL     1      -8.533   9.230  66.553  1.00  0.00    -0.131 A  
HETATM    5  C   UNL     1      -9.340   8.583  67.517  1.00  0.00    -0.169 A  
HETATM    6  C   UNL     1      -8.862  11.318  67.843  1.00  0.00    -0.142 A  
HETATM    7  C   UNL     1      -9.671  10.590  68.746  1.00  0.00    -0.187 A  
HETATM    8  C   UNL     1      -9.900   9.209  68.639  1.00  0.00    -0.164 A  
BRANCH   4   9
HETATM    9  C   UNL     1      -8.043   8.403  65.326  1.00  0.00    -0.140 C  
HETATM   10  C   UNL     1      -6.511   8.206  65.242  1.00  0.00    -0.052 C  
HETATM   11  C   UNL     1      -8.712   7.015  65.357  1.00  0.00     0.009 C  
HETATM   12  C   UNL     1      -8.418   9.081  63.974  1.00  0.00    -0.175 C  
ENDBRANCH   4   9
BRANCH   8  13
HETATM   13  N   UNL     1     -10.705   8.487  69.625  1.00  0.00    -0.223 N  
HETATM   14  C   UNL     1     -10.766   7.093  69.623  1.00  0.00    -0.239 C  
HETATM   15  O   UNL     1     -11.622  10.412  70.681  1.00  0.00    -0.305 OA 
HETATM   16  C   UNL     1     -11.536   6.379  70.446  1.00  0.00    -0.440 C  
HETATM   17  H   UNL     1     -12.572   8.905  72.292  1.00  0.00     0.000 HD 
HETATM   18  C   UNL     1     -12.353   7.076  71.437  1.00  0.00    -0.377 C  
HETATM   19  O   UNL     1     -13.145   6.472  72.149  1.00  0.00    -0.155 OA 
HETATM   20  N   UNL     1     -12.162   8.420  71.495  1.00  0.00    -0.293 N  
HETATM   21  C   UNL     1     -11.473   9.193  70.589  1.00  0.00    -0.262 C  
ENDBRANCH   8  13
BRANCH   6  22
HETATM   22  C   UNL     1      -8.735  12.800  68.009  1.00  0.00    -0.194 A  
HETATM   23  C   UNL     1     -10.007  15.800  66.227  1.00  0.00    -0.315 A  
HETATM   24  C   UNL     1      -9.598  13.673  67.321  1.00  0.00    -0.238 A  
HETATM   25  C   UNL     1      -9.657  17.126  65.998  1.00  0.00    -0.190 A  
HETATM   26  C   UNL     1      -9.301  15.034  67.161  1.00  0.00    -0.225 A  
HETATM   27  C   UNL     1      -8.627  17.706  66.728  1.00  0.00    -0.255 A  
HETATM   28  C   UNL     1      -7.482  14.779  68.730  1.00  0.00    -0.133 A  
HETATM   29  C   UNL     1      -7.935  16.967  67.692  1.00  0.00    -0.186 A  
HETATM   30  C   UNL     1      -7.701  13.393  68.756  1.00  0.00    -0.037 A  
HETATM   31  C   UNL     1      -8.238  15.607  67.882  1.00  0.00    -0.155 A  
BRANCH  27  32
HETATM   32  N   UNL     1      -8.313  19.076  66.510  1.00  0.00    -0.295 N  
HETATM   33  H   UNL     1      -8.931  19.819  66.836  1.00  0.00     0.000 HD 
BRANCH  32  34
HETATM   34  S   UNL     1      -6.870  19.427  65.685  1.00  0.00    -0.284 S  
HETATM   35  C   UNL     1      -5.754  19.763  67.029  1.00  0.00    -0.173 C  
HETATM   36  O   UNL     1      -7.127  20.676  65.000  1.00  0.00    -0.164 OA 
HETATM   37  O   UNL     1      -6.424  18.255  64.970  1.00  0.00    -0.392 OA 
ENDBRANCH  32  34
ENDBRANCH  27  32
ENDBRANCH   6  22
ENDBRANCH   2   3
TORSDOF 6
ENDMDL
MODEL       46
REMARK 921   NORMALIZED FREE ENERGY PREDICTED BY IDOCK:   -5.06 KCAL/MOL
REMARK 922        TOTAL FREE ENERGY PREDICTED BY IDOCK:   -7.08 KCAL/MOL
REMARK 923 INTER-LIGAND FREE ENERGY PREDICTED BY IDOCK:   -6.51 KCAL/MOL
REMARK 924 INTRA-LIGAND FREE ENERGY PREDICTED BY IDOCK:   -0.57 KCAL/MOL
REMARK 927      BINDING AFFINITY PREDICTED BY RF-SCORE:    0.00 PKD
ROOT
HETATM    1  C   UNL     1      -6.365   9.433  64.621  1.00  0.00    -0.079 C  
HETATM    2  O   UNL     1      -7.585   8.695  64.757  1.00  0.00    -0.093 OA 
ENDROOT
BRANCH   2   3
HETATM    3  C   UNL     1      -7.923   8.334  66.042  1.00  0.00    -0.098 A  
HETATM    4  C   UNL     1      -7.742   6.977  66.411  1.00  0.00    -0.104 A  
HETATM    5  C   UNL     1      -7.973   6.655  67.769  1.00  0.00    -0.112 A  
HETATM    6  C   UNL     1      -8.522   9.267  66.939  1.00  0.00    -0.128 A  
HETATM    7  C   UNL     1      -8.738   8.848  68.272  1.00  0.00    -0.134 A  
HETATM    8  C   UNL     1      -8.435   7.558  68.736  1.00  0.00    -0.129 A  
BRANCH   4   9
HETATM    9  C   UNL     1      -7.291   5.837  65.450  1.00  0.00    -0.076 C  
HETATM   10  C   UNL     1      -7.471   4.405  66.007  1.00  0.00    -0.085 C  
HETATM   11  C   UNL     1      -8.080   5.950  64.131  1.00  0.00    -0.110 C  
HETATM   12  C   UNL     1      -5.773   5.926  65.105  1.00  0.00    -0.024 C  
ENDBRANCH   4   9
BRANCH   8  13
HETATM   13  N   UNL     1      -8.630   7.182  70.137  1.00  0.00    -0.139 N  
HETATM   14  C   UNL     1      -9.906   6.944  70.648  1.00  0.00    -0.182 C  
HETATM   15  O   UNL     1      -6.345   7.351  70.777  1.00  0.00    -0.038 OA 
HETATM   16  C   UNL     1     -10.157   6.670  71.929  1.00  0.00    -0.196 C  
HETATM   17  H   UNL     1      -7.014   6.440  72.896  1.00  0.00     0.000 HD 
HETATM   18  C   UNL     1      -9.041   6.579  72.868  1.00  0.00    -0.128 C  
HETATM   19  O   UNL     1      -9.227   6.424  74.067  1.00  0.00    -0.134 OA 
HETATM   20  N   UNL     1      -7.808   6.683  72.305  1.00  0.00    -0.096 N  
HETATM   21  C   UNL     1      -7.521   7.084  71.020  1.00  0.00    -0.081 C  
ENDBRANCH   8  13
BRANCH   6  22
HETATM   22  C   UNL     1      -8.940  10.646  66.530  1.00  0.00    -0.169 A  
HETATM   23  C   UNL     1      -8.302  14.095  67.751  1.00  0.00    -0.175 A  
HETATM   24  C   UNL     1      -8.273  11.775  67.039  1.00  0.00    -0.172 A  
HETATM   25  C   UNL     1      -8.910  15.344  67.765  1.00  0.00    -0.170 A  
HETATM   26  C   UNL     1      -8.835  13.058  66.977  1.00  0.00    -0.213 A  
HETATM   27  C   UNL     1     -10.030  15.578  66.976  1.00  0.00    -0.239 A  
HETATM   28  C   UNL     1     -10.556  12.188  65.523  1.00  0.00    -0.314 A  
HETATM   29  C   UNL     1     -10.555  14.565  66.168  1.00  0.00    -0.308 A  
HETATM   30  C   UNL     1     -10.066  10.887  65.723  1.00  0.00    -0.308 A  
HETATM   31  C   UNL     1      -9.986  13.279  66.199  1.00  0.00    -0.295 A  
BRANCH  27  32
HETATM   32  N   UNL     1     -10.612  16.876  66.970  1.00  0.00    -0.276 N  
HETATM   33  H   UNL     1     -11.553  17.036  67.331  1.00  0.00     0.000 HD 
BRANCH  32  34
HETATM   34  S   UNL     1      -9.681  18.149  66.341  1.00  0.00    -0.306 S  
HETATM   35  C   UNL     1      -9.279  19.068  67.810  1.00  0.00    -0.298 C  
HETATM   36  O   UNL     1     -10.610  18.941  65.563  1.00  0.00    -0.572 OA 
HETATM   37  O   UNL     1      -8.471  17.621  65.758  1.00  0.00    -0.525 OA 
ENDBRANCH  32  34
ENDBRANCH  27  32
ENDBRANCH   6  22
ENDBRANCH   2   3
TORSDOF 6
ENDMDL
MODEL       47
REMARK 921   NORMALIZED FREE ENERGY PREDICTED BY IDOCK:   -5.05 KCAL/MOL
REMARK 922        TOTAL FREE ENERGY PREDICTED BY IDOCK:   -7.06 KCAL/MOL
REMARK 923 INTER-LIGAND FREE ENERGY PREDICTED BY IDOCK:   -6.33 KCAL/MOL
REMARK 924 INTRA-LIGAND FREE ENERGY PREDICTED BY IDOCK:   -0.73 KCAL/MOL
REMARK 927      BINDING AFFINITY PREDICTED BY RF-SCORE:    0.00 PKD
ROOT
HETATM    1  C   UNL     1      -8.583   7.555  67.387  1.00  0.00    -0.118 C  
HETATM    2  O   UNL     1      -7.744   8.404  68.179  1.00  0.00    -0.099 OA 
ENDROOT
BRANCH   2   3
HETATM    3  C   UNL     1      -8.111   9.730  68.224  1.00  0.00    -0.104 A  
HETATM    4  C   UNL     1      -7.378  10.641  67.422  1.00  0.00    -0.093 A  
HETATM    5  C   UNL     1      -7.852  11.973  67.383  1.00  0.00    -0.162 A  
HETATM    6  C   UNL     1      -9.127  10.186  69.114  1.00  0.00    -0.189 A  
HETATM    7  C   UNL     1      -9.520  11.542  69.021  1.00  0.00     0.068 A  
HETATM    8  C   UNL     1      -8.932  12.457  68.135  1.00  0.00    -0.196 A  
BRANCH   4   9
HETATM    9  C   UNL     1      -6.121  10.281  66.573  1.00  0.00    -0.071 C  
HETATM   10  C   UNL     1      -6.421   9.560  65.238  1.00  0.00    -0.078 C  
HETATM   11  C   UNL     1      -5.337  11.572  66.265  1.00  0.00    -0.028 C  
HETATM   12  C   UNL     1      -5.162   9.311  67.327  1.00  0.00    -0.036 C  
ENDBRANCH   4   9
BRANCH   8  13
HETATM   13  N   UNL     1      -9.403  13.840  68.036  1.00  0.00    -0.193 N  
HETATM   14  C   UNL     1      -8.739  14.876  68.695  1.00  0.00    -0.177 C  
HETATM   15  O   UNL     1     -11.337  13.370  66.734  1.00  0.00    -0.305 OA 
HETATM   16  C   UNL     1      -9.157  16.142  68.705  1.00  0.00    -0.229 C  
HETATM   17  H   UNL     1     -11.632  15.747  66.563  1.00  0.00     0.000 HD 
HETATM   18  C   UNL     1     -10.366  16.496  67.965  1.00  0.00    -0.294 C  
HETATM   19  O   UNL     1     -10.842  17.622  68.022  1.00  0.00    -0.369 OA 
HETATM   20  N   UNL     1     -10.905  15.489  67.230  1.00  0.00    -0.313 N  
HETATM   21  C   UNL     1     -10.572  14.155  67.293  1.00  0.00    -0.277 C  
ENDBRANCH   8  13
BRANCH   6  22
HETATM   22  C   UNL     1      -9.775   9.308  70.139  1.00  0.00    -0.252 A  
HETATM   23  C   UNL     1      -8.597   6.991  72.792  1.00  0.00    -0.131 A  
HETATM   24  C   UNL     1      -9.023   8.773  71.201  1.00  0.00    -0.280 A  
HETATM   25  C   UNL     1      -9.022   5.858  73.476  1.00  0.00    -0.128 A  
HETATM   26  C   UNL     1      -9.481   7.687  71.960  1.00  0.00    -0.194 A  
HETATM   27  C   UNL     1     -10.342   5.437  73.365  1.00  0.00    -0.216 A  
HETATM   28  C   UNL     1     -11.638   7.906  70.894  1.00  0.00    -0.286 A  
HETATM   29  C   UNL     1     -11.248   6.141  72.569  1.00  0.00    -0.327 A  
HETATM   30  C   UNL     1     -11.114   8.887  70.039  1.00  0.00    -0.180 A  
HETATM   31  C   UNL     1     -10.810   7.249  71.821  1.00  0.00    -0.251 A  
BRANCH  27  32
HETATM   32  N   UNL     1     -10.768   4.301  74.108  1.00  0.00    -0.254 N  
HETATM   33  H   UNL     1     -11.064   4.385  75.081  1.00  0.00     0.000 HD 
BRANCH  32  34
HETATM   34  S   UNL     1     -10.765   2.800  73.314  1.00  0.00    -0.170 S  
HETATM   35  C   UNL     1      -9.489   1.925  74.193  1.00  0.00    -0.071 C  
HETATM   36  O   UNL     1     -10.271   3.083  71.983  1.00  0.00    -0.143 OA 
HETATM   37  O   UNL     1     -12.032   2.140  73.521  1.00  0.00    -0.185 OA 
ENDBRANCH  32  34
ENDBRANCH  27  32
ENDBRANCH   6  22
ENDBRANCH   2   3
TORSDOF 6
ENDMDL
MODEL       48
REMARK 921   NORMALIZED FREE ENERGY PREDICTED BY IDOCK:   -4.96 KCAL/MOL
REMARK 922        TOTAL FREE ENERGY PREDICTED BY IDOCK:   -6.94 KCAL/MOL
REMARK 923 INTER-LIGAND FREE ENERGY PREDICTED BY IDOCK:   -7.20 KCAL/MOL
REMARK 924 INTRA-LIGAND FREE ENERGY PREDICTED BY IDOCK:    0.25 KCAL/MOL
REMARK 927      BINDING AFFINITY PREDICTED BY RF-SCORE:    0.00 PKD
ROOT
HETATM    1  C   UNL     1     -10.391  10.407  65.515  1.00  0.00    -0.195 C  
HETATM    2  O   UNL     1      -9.701  11.615  65.855  1.00  0.00    -0.222 OA 
ENDROOT
BRANCH   2   3
HETATM    3  C   UNL     1     -10.193  12.297  66.945  1.00  0.00    -0.213 A  
HETATM    4  C   UNL     1     -10.953  13.468  66.697  1.00  0.00    -0.293 A  
HETATM    5  C   UNL     1     -11.557  14.079  67.820  1.00  0.00    -0.378 A  
HETATM    6  C   UNL     1      -9.873  11.895  68.275  1.00  0.00    -0.199 A  
HETATM    7  C   UNL     1     -10.506  12.581  69.338  1.00  0.00     0.320 A  
HETATM    8  C   UNL     1     -11.390  13.654  69.146  1.00  0.00    -0.285 A  
BRANCH   4   9
HETATM    9  C   UNL     1     -11.187  14.107  65.296  1.00  0.00    -0.326 C  
HETATM   10  C   UNL     1     -10.459  13.401  64.127  1.00  0.00    -0.202 C  
HETATM   11  C   UNL     1     -12.699  14.115  64.994  1.00  0.00    -0.336 C  
HETATM   12  C   UNL     1     -10.682  15.580  65.230  1.00  0.00    -0.440 C  
ENDBRANCH   4   9
BRANCH   8  13
HETATM   13  N   UNL     1     -12.062  14.304  70.273  1.00  0.00    -0.314 N  
HETATM   14  C   UNL     1     -13.014  13.625  71.033  1.00  0.00    -0.232 C  
HETATM   15  O   UNL     1     -11.056  16.441  69.984  1.00  0.00    -0.350 OA 
HETATM   16  C   UNL     1     -13.713  14.181  72.024  1.00  0.00    -0.554 C  
HETATM   17  H   UNL     1     -12.120  17.067  72.045  1.00  0.00     0.000 HD 
HETATM   18  C   UNL     1     -13.464  15.579  72.371  1.00  0.00    -0.509 C  
HETATM   19  O   UNL     1     -14.144  16.160  73.205  1.00  0.00    -0.442 OA 
HETATM   20  N   UNL     1     -12.438  16.163  71.698  1.00  0.00    -0.352 N  
HETATM   21  C   UNL     1     -11.783  15.659  70.596  1.00  0.00    -0.369 C  
ENDBRANCH   8  13
BRANCH   6  22
HETATM   22  C   UNL     1      -8.896  10.805  68.590  1.00  0.00    -0.152 A  
HETATM   23  C   UNL     1      -9.085   7.138  69.148  1.00  0.00    -0.137 A  
HETATM   24  C   UNL     1      -9.262   9.454  68.446  1.00  0.00    -0.127 A  
HETATM   25  C   UNL     1      -8.409   6.132  69.829  1.00  0.00    -0.124 A  
HETATM   26  C   UNL     1      -8.534   8.420  69.052  1.00  0.00    -0.123 A  
HETATM   27  C   UNL     1      -7.161   6.390  70.384  1.00  0.00    -0.083 A  
HETATM   28  C   UNL     1      -6.814  10.020  69.618  1.00  0.00    -0.078 A  
HETATM   29  C   UNL     1      -6.579   7.655  70.266  1.00  0.00    -0.038 A  
HETATM   30  C   UNL     1      -7.628  11.060  69.142  1.00  0.00    -0.113 A  
HETATM   31  C   UNL     1      -7.285   8.695  69.638  1.00  0.00    -0.052 A  
BRANCH  27  32
HETATM   32  N   UNL     1      -6.466   5.336  71.039  1.00  0.00    -0.033 N  
HETATM   33  H   UNL     1      -5.810   4.740  70.533  1.00  0.00     0.000 HD 
BRANCH  32  34
HETATM   34  S   UNL     1      -6.770   5.106  72.694  1.00  0.00    -0.072 S  
HETATM   35  C   UNL     1      -7.556   3.510  72.702  1.00  0.00    -0.059 C  
HETATM   36  O   UNL     1      -7.772   6.096  73.029  1.00  0.00    -0.100 OA 
HETATM   37  O   UNL     1      -5.519   5.030  73.409  1.00  0.00    -0.016 OA 
ENDBRANCH  32  34
ENDBRANCH  27  32
ENDBRANCH   6  22
ENDBRANCH   2   3
TORSDOF 6
ENDMDL
MODEL       49
REMARK 921   NORMALIZED FREE ENERGY PREDICTED BY IDOCK:   -4.92 KCAL/MOL
REMARK 922        TOTAL FREE ENERGY PREDICTED BY IDOCK:   -6.89 KCAL/MOL
REMARK 923 INTER-LIGAND FREE ENERGY PREDICTED BY IDOCK:   -7.23 KCAL/MOL
REMARK 924 INTRA-LIGAND FREE ENERGY PREDICTED BY IDOCK:    0.34 KCAL/MOL
REMARK 927      BINDING AFFINITY PREDICTED BY RF-SCORE:    0.00 PKD
ROOT
HETATM    1  C   UNL     1     -11.786  11.483  67.638  1.00  0.00    -0.208 C  
HETATM    2  O   UNL     1     -10.803  11.729  66.625  1.00  0.00    -0.251 OA 
ENDROOT
BRANCH   2   3
HETATM    3  C   UNL     1      -9.959  12.791  66.858  1.00  0.00    -0.232 A  
HETATM    4  C   UNL     1     -10.205  13.994  66.150  1.00  0.00    -0.308 A  
HETATM    5  C   UNL     1      -9.408  15.108  66.499  1.00  0.00    -0.308 A  
HETATM    6  C   UNL     1      -8.822  12.658  67.710  1.00  0.00    -0.179 A  
HETATM    7  C   UNL     1      -8.069  13.823  67.984  1.00  0.00    -0.163 A  
HETATM    8  C   UNL     1      -8.358  15.079  67.428  1.00  0.00    -0.190 A  
BRANCH   4   9
HETATM    9  C   UNL     1     -11.290  14.180  65.047  1.00  0.00    -0.350 C  
HETATM   10  C   UNL     1     -12.745  13.946  65.519  1.00  0.00    -0.536 C  
HETATM   11  C   UNL     1     -11.186  15.608  64.476  1.00  0.00    -0.337 C  
HETATM   12  C   UNL     1     -11.105  13.181  63.866  1.00  0.00    -0.345 C  
ENDBRANCH   4   9
BRANCH   8  13
HETATM   13  N   UNL     1      -7.582  16.270  67.777  1.00  0.00    -0.132 N  
HETATM   14  C   UNL     1      -7.024  16.419  69.047  1.00  0.00    -0.200 C  
HETATM   15  O   UNL     1      -7.902  17.410  65.714  1.00  0.00    -0.526 OA 
HETATM   16  C   UNL     1      -6.369  17.509  69.451  1.00  0.00    -0.246 C  
HETATM   17  H   UNL     1      -6.348  19.047  66.535  1.00  0.00     0.000 HD 
HETATM   18  C   UNL     1      -6.187  18.615  68.514  1.00  0.00    -0.214 C  
HETATM   19  O   UNL     1      -5.678  19.671  68.865  1.00  0.00    -0.212 OA 
HETATM   20  N   UNL     1      -6.626  18.375  67.250  1.00  0.00    -0.193 N  
HETATM   21  C   UNL     1      -7.407  17.320  66.836  1.00  0.00    -0.205 C  
ENDBRANCH   8  13
BRANCH   6  22
HETATM   22  C   UNL     1      -8.390  11.354  68.304  1.00  0.00    -0.152 A  
HETATM   23  C   UNL     1      -9.543   9.180  71.086  1.00  0.00    -0.347 A  
HETATM   24  C   UNL     1      -9.237  10.651  69.181  1.00  0.00    -0.162 A  
HETATM   25  C   UNL     1      -9.036   8.244  71.980  1.00  0.00    -0.267 A  
HETATM   26  C   UNL     1      -8.756   9.640  70.024  1.00  0.00    -0.256 A  
HETATM   27  C   UNL     1      -7.758   7.732  71.796  1.00  0.00    -0.089 A  
HETATM   28  C   UNL     1      -6.651   9.712  68.841  1.00  0.00    -0.046 A  
HETATM   29  C   UNL     1      -6.972   8.152  70.720  1.00  0.00    -0.041 A  
HETATM   30  C   UNL     1      -7.100  10.825  68.113  1.00  0.00    -0.078 A  
HETATM   31  C   UNL     1      -7.450   9.147  69.850  1.00  0.00    -0.070 A  
BRANCH  27  32
HETATM   32  N   UNL     1      -7.275   6.742  72.697  1.00  0.00    -0.079 N  
HETATM   33  H   UNL     1      -6.808   7.001  73.567  1.00  0.00     0.000 HD 
BRANCH  32  34
HETATM   34  S   UNL     1      -7.505   5.115  72.270  1.00  0.00    -0.096 S  
HETATM   35  C   UNL     1      -5.896   4.669  71.655  1.00  0.00    -0.013 C  
HETATM   36  O   UNL     1      -8.415   5.150  71.145  1.00  0.00    -0.117 OA 
HETATM   37  O   UNL     1      -7.799   4.341  73.452  1.00  0.00    -0.084 OA 
ENDBRANCH  32  34
ENDBRANCH  27  32
ENDBRANCH   6  22
ENDBRANCH   2   3
TORSDOF 6
ENDMDL
MODEL       50
REMARK 921   NORMALIZED FREE ENERGY PREDICTED BY IDOCK:   -4.88 KCAL/MOL
REMARK 922        TOTAL FREE ENERGY PREDICTED BY IDOCK:   -6.83 KCAL/MOL
REMARK 923 INTER-LIGAND FREE ENERGY PREDICTED BY IDOCK:   -6.47 KCAL/MOL
REMARK 924 INTRA-LIGAND FREE ENERGY PREDICTED BY IDOCK:   -0.37 KCAL/MOL
REMARK 927      BINDING AFFINITY PREDICTED BY RF-SCORE:    0.00 PKD
ROOT
HETATM    1  C   UNL     1      -9.905  10.959  63.861  1.00  0.00    -0.331 C  
HETATM    2  O   UNL     1      -8.596  10.700  64.381  1.00  0.00    -0.173 OA 
ENDROOT
BRANCH   2   3
HETATM    3  C   UNL     1      -8.501   9.644  65.259  1.00  0.00    -0.146 A  
HETATM    4  C   UNL     1      -7.899   8.450  64.786  1.00  0.00    -0.128 A  
HETATM    5  C   UNL     1      -7.694   7.425  65.739  1.00  0.00    -0.102 A  
HETATM    6  C   UNL     1      -9.070   9.714  66.565  1.00  0.00    -0.185 A  
HETATM    7  C   UNL     1      -8.833   8.630  67.442  1.00  0.00    -0.140 A  
HETATM    8  C   UNL     1      -8.111   7.483  67.076  1.00  0.00    -0.117 A  
BRANCH   4   9
HETATM    9  C   UNL     1      -7.432   8.199  63.321  1.00  0.00    -0.120 C  
HETATM   10  C   UNL     1      -6.567   9.327  62.710  1.00  0.00    -0.093 C  
HETATM   11  C   UNL     1      -6.628   6.885  63.269  1.00  0.00    -0.043 C  
HETATM   12  C   UNL     1      -8.633   8.061  62.338  1.00  0.00     0.005 C  
ENDBRANCH   4   9
BRANCH   8  13
HETATM   13  N   UNL     1      -7.848   6.406  68.031  1.00  0.00    -0.104 N  
HETATM   14  C   UNL     1      -6.687   6.397  68.805  1.00  0.00    -0.061 C  
HETATM   15  O   UNL     1      -9.773   5.110  67.506  1.00  0.00    -0.136 OA 
HETATM   16  C   UNL     1      -6.354   5.410  69.638  1.00  0.00    -0.030 C  
HETATM   17  H   UNL     1      -9.159   3.702  69.353  1.00  0.00     0.000 HD 
HETATM   18  C   UNL     1      -7.258   4.272  69.789  1.00  0.00    -0.049 C  
HETATM   19  O   UNL     1      -6.953   3.299  70.466  1.00  0.00    -0.033 OA 
HETATM   20  N   UNL     1      -8.437   4.384  69.122  1.00  0.00    -0.078 N  
HETATM   21  C   UNL     1      -8.757   5.323  68.168  1.00  0.00    -0.102 C  
ENDBRANCH   8  13
BRANCH   6  22
HETATM   22  C   UNL     1      -9.908  10.862  67.034  1.00  0.00    -0.214 A  
HETATM   23  C   UNL     1      -9.258  14.219  68.485  1.00  0.00    -0.197 A  
HETATM   24  C   UNL     1      -9.329  12.124  67.261  1.00  0.00    -0.183 A  
HETATM   25  C   UNL     1      -9.867  15.151  69.318  1.00  0.00    -0.231 A  
HETATM   26  C   UNL     1      -9.974  13.109  68.024  1.00  0.00    -0.233 A  
HETATM   27  C   UNL     1     -11.205  15.001  69.661  1.00  0.00    -0.275 A  
HETATM   28  C   UNL     1     -11.975  11.756  68.002  1.00  0.00    -0.195 A  
HETATM   29  C   UNL     1     -11.947  13.919  69.179  1.00  0.00    -0.404 A  
HETATM   30  C   UNL     1     -11.266  10.720  67.373  1.00  0.00    -0.315 A  
HETATM   31  C   UNL     1     -11.321  12.937  68.392  1.00  0.00    -0.329 A  
BRANCH  27  32
HETATM   32  N   UNL     1     -11.822  15.989  70.478  1.00  0.00    -0.438 N  
HETATM   33  H   UNL     1     -11.880  16.963  70.178  1.00  0.00     0.000 HD 
BRANCH  32  34
HETATM   34  S   UNL     1     -12.457  15.487  71.971  1.00  0.00    -0.441 S  
HETATM   35  C   UNL     1     -14.205  15.469  71.636  1.00  0.00    -0.412 C  
HETATM   36  O   UNL     1     -12.191  16.584  72.877  1.00  0.00    -0.470 OA 
HETATM   37  O   UNL     1     -12.009  14.145  72.260  1.00  0.00     0.030 OA 
ENDBRANCH  32  34
ENDBRANCH  27  32
ENDBRANCH   6  22
ENDBRANCH   2   3
TORSDOF 6
ENDMDL
MODEL       51
REMARK 921   NORMALIZED FREE ENERGY PREDICTED BY IDOCK:   -4.83 KCAL/MOL
REMARK 922        TOTAL FREE ENERGY PREDICTED BY IDOCK:   -6.77 KCAL/MOL
REMARK 923 INTER-LIGAND FREE ENERGY PREDICTED BY IDOCK:   -6.49 KCAL/MOL
REMARK 924 INTRA-LIGAND FREE ENERGY PREDICTED BY IDOCK:   -0.28 KCAL/MOL
REMARK 927      BINDING AFFINITY PREDICTED BY RF-SCORE:    0.00 PKD
ROOT
HETATM    1  C   UNL     1      -5.215  11.440  69.218  1.00  0.00    -0.044 C  
HETATM    2  O   UNL     1      -6.323  12.055  69.885  1.00  0.00    -0.141 OA 
ENDROOT
BRANCH   2   3
HETATM    3  C   UNL     1      -7.357  12.462  69.073  1.00  0.00     0.031 A  
HETATM    4  C   UNL     1      -7.429  13.839  68.741  1.00  0.00    -0.098 A  
HETATM    5  C   UNL     1      -8.419  14.213  67.804  1.00  0.00    -0.178 A  
HETATM    6  C   UNL     1      -8.373  11.552  68.657  1.00  0.00    -0.123 A  
HETATM    7  C   UNL     1      -9.338  12.022  67.736  1.00  0.00    -0.190 A  
HETATM    8  C   UNL     1      -9.367  13.339  67.253  1.00  0.00    -0.226 A  
BRANCH   4   9
HETATM    9  C   UNL     1      -6.493  14.949  69.307  1.00  0.00    -0.121 C  
HETATM   10  C   UNL     1      -6.126  14.792  70.802  1.00  0.00    -0.070 C  
HETATM   11  C   UNL     1      -5.190  14.974  68.485  1.00  0.00    -0.101 C  
HETATM   12  C   UNL     1      -7.140  16.364  69.218  1.00  0.00    -0.222 C  
ENDBRANCH   4   9
BRANCH   8  13
HETATM   13  N   UNL     1     -10.355  13.771  66.262  1.00  0.00    -0.287 N  
HETATM   14  C   UNL     1     -10.134  14.897  65.469  1.00  0.00    -0.370 C  
HETATM   15  O   UNL     1     -11.990  12.123  66.782  1.00  0.00    -0.606 OA 
HETATM   16  C   UNL     1     -11.023  15.384  64.602  1.00  0.00    -0.333 C  
HETATM   17  H   UNL     1     -13.216  12.940  64.885  1.00  0.00     0.000 HD 
HETATM   18  C   UNL     1     -12.302  14.696  64.434  1.00  0.00    -0.398 C  
HETATM   19  O   UNL     1     -13.185  15.157  63.723  1.00  0.00     0.067 OA 
HETATM   20  N   UNL     1     -12.422  13.532  65.123  1.00  0.00    -0.444 N  
HETATM   21  C   UNL     1     -11.581  13.069  66.110  1.00  0.00    -0.366 C  
ENDBRANCH   8  13
BRANCH   6  22
HETATM   22  C   UNL     1      -8.469  10.144  69.159  1.00  0.00    -0.157 A  
HETATM   23  C   UNL     1      -9.744   8.491  72.231  1.00  0.00    -0.380 A  
HETATM   24  C   UNL     1      -9.287   9.832  70.260  1.00  0.00    -0.236 A  
HETATM   25  C   UNL     1      -9.527   7.345  72.986  1.00  0.00    -0.233 A  
HETATM   26  C   UNL     1      -9.140   8.636  70.976  1.00  0.00    -0.248 A  
HETATM   27  C   UNL     1      -8.738   6.320  72.478  1.00  0.00    -0.120 A  
HETATM   28  C   UNL     1      -7.638   7.841  69.260  1.00  0.00    -0.098 A  
HETATM   29  C   UNL     1      -8.156   6.431  71.212  1.00  0.00    -0.117 A  
HETATM   30  C   UNL     1      -7.681   9.100  68.641  1.00  0.00    -0.092 A  
HETATM   31  C   UNL     1      -8.316   7.615  70.470  1.00  0.00    -0.126 A  
BRANCH  27  32
HETATM   32  N   UNL     1      -8.564   5.137  73.249  1.00  0.00    -0.113 N  
HETATM   33  H   UNL     1      -7.991   5.135  74.093  1.00  0.00     0.000 HD 
BRANCH  32  34
HETATM   34  S   UNL     1      -9.346   3.729  72.710  1.00  0.00    -0.111 S  
HETATM   35  C   UNL     1      -9.855   2.985  74.244  1.00  0.00    -0.108 C  
HETATM   36  O   UNL     1      -8.292   2.910  72.149  1.00  0.00    -0.058 OA 
HETATM   37  O   UNL     1     -10.512   4.088  71.939  1.00  0.00    -0.076 OA 
ENDBRANCH  32  34
ENDBRANCH  27  32
ENDBRANCH   6  22
ENDBRANCH   2   3
TORSDOF 6
ENDMDL
MODEL       52
REMARK 921   NORMALIZED FREE ENERGY PREDICTED BY IDOCK:   -4.82 KCAL/MOL
REMARK 922        TOTAL FREE ENERGY PREDICTED BY IDOCK:   -6.75 KCAL/MOL
REMARK 923 INTER-LIGAND FREE ENERGY PREDICTED BY IDOCK:   -6.79 KCAL/MOL
REMARK 924 INTRA-LIGAND FREE ENERGY PREDICTED BY IDOCK:    0.04 KCAL/MOL
REMARK 927      BINDING AFFINITY PREDICTED BY RF-SCORE:    0.00 PKD
ROOT
HETATM    1  C   UNL     1     -10.023  10.656  64.893  1.00  0.00    -0.318 C  
HETATM    2  O   UNL     1      -8.708  10.892  65.410  1.00  0.00    -0.188 OA 
ENDROOT
BRANCH   2   3
HETATM    3  C   UNL     1      -8.271   9.996  66.359  1.00  0.00    -0.119 A  
HETATM    4  C   UNL     1      -7.337   9.011  65.950  1.00  0.00    -0.093 A  
HETATM    5  C   UNL     1      -6.803   8.185  66.967  1.00  0.00    -0.070 A  
HETATM    6  C   UNL     1      -8.807   9.998  67.681  1.00  0.00    -0.121 A  
HETATM    7  C   UNL     1      -8.227   9.119  68.625  1.00  0.00    -0.114 A  
HETATM    8  C   UNL     1      -7.191   8.225  68.314  1.00  0.00    -0.093 A  
BRANCH   4   9
HETATM    9  C   UNL     1      -6.844   8.792  64.488  1.00  0.00    -0.077 C  
HETATM   10  C   UNL     1      -6.380  10.075  63.758  1.00  0.00    -0.132 C  
HETATM   11  C   UNL     1      -5.676   7.786  64.497  1.00  0.00    -0.041 C  
HETATM   12  C   UNL     1      -7.963   8.212  63.572  1.00  0.00    -0.145 C  
ENDBRANCH   4   9
BRANCH   8  13
HETATM   13  N   UNL     1      -6.586   7.367  69.334  1.00  0.00    -0.036 N  
HETATM   14  C   UNL     1      -6.820   5.992  69.349  1.00  0.00    -0.062 C  
HETATM   15  O   UNL     1      -5.536   9.114  70.561  1.00  0.00    -0.029 OA 
HETATM   16  C   UNL     1      -6.359   5.167  70.291  1.00  0.00    -0.026 C  
HETATM   17  H   UNL     1      -4.498   7.386  71.867  1.00  0.00     0.000 HD 
HETATM   18  C   UNL     1      -5.532   5.710  71.367  1.00  0.00    -0.016 C  
HETATM   19  O   UNL     1      -5.166   5.013  72.304  1.00  0.00    -0.004 OA 
HETATM   20  N   UNL     1      -5.218   7.026  71.241  1.00  0.00    -0.027 N  
HETATM   21  C   UNL     1      -5.771   7.924  70.356  1.00  0.00    -0.026 C  
ENDBRANCH   8  13
BRANCH   6  22
HETATM   22  C   UNL     1      -9.952  10.867  68.101  1.00  0.00    -0.188 A  
HETATM   23  C   UNL     1     -10.420  14.470  68.870  1.00  0.00    -0.246 A  
HETATM   24  C   UNL     1      -9.852  12.268  68.023  1.00  0.00    -0.204 A  
HETATM   25  C   UNL     1     -11.237  15.293  69.637  1.00  0.00    -0.289 A  
HETATM   26  C   UNL     1     -10.728  13.113  68.720  1.00  0.00    -0.253 A  
HETATM   27  C   UNL     1     -12.384  14.776  70.226  1.00  0.00    -0.345 A  
HETATM   28  C   UNL     1     -12.088  11.191  69.257  1.00  0.00    -0.377 A  
HETATM   29  C   UNL     1     -12.727  13.432  70.056  1.00  0.00     0.045 A  
HETATM   30  C   UNL     1     -11.121  10.349  68.687  1.00  0.00    -0.313 A  
HETATM   31  C   UNL     1     -11.872  12.577  69.337  1.00  0.00    -0.368 A  
BRANCH  27  32
HETATM   32  N   UNL     1     -13.229  15.645  70.970  1.00  0.00    -0.597 N  
HETATM   33  H   UNL     1     -13.726  16.414  70.520  1.00  0.00     0.000 HD 
BRANCH  32  34
HETATM   34  S   UNL     1     -13.378  15.354  72.637  1.00  0.00    -0.556 S  
HETATM   35  C   UNL     1     -11.687  15.460  73.178  1.00  0.00    -0.332 C  
HETATM   36  O   UNL     1     -13.790  13.970  72.738  1.00  0.00    -0.674 OA 
HETATM   37  O   UNL     1     -14.146  16.414  73.246  1.00  0.00    -0.354 OA 
ENDBRANCH  32  34
ENDBRANCH  27  32
ENDBRANCH   6  22
ENDBRANCH   2   3
TORSDOF 6
ENDMDL
MODEL       53
REMARK 921   NORMALIZED FREE ENERGY PREDICTED BY IDOCK:   -4.78 KCAL/MOL
REMARK 922        TOTAL FREE ENERGY PREDICTED BY IDOCK:   -6.70 KCAL/MOL
REMARK 923 INTER-LIGAND FREE ENERGY PREDICTED BY IDOCK:   -7.98 KCAL/MOL
REMARK 924 INTRA-LIGAND FREE ENERGY PREDICTED BY IDOCK:    1.28 KCAL/MOL
REMARK 927      BINDING AFFINITY PREDICTED BY RF-SCORE:    0.00 PKD
ROOT
HETATM    1  C   UNL     1     -10.666   8.324  72.275  1.00  0.00    -0.329 C  
HETATM    2  O   UNL     1     -11.341   7.379  71.437  1.00  0.00    -0.247 OA 
ENDROOT
BRANCH   2   3
HETATM    3  C   UNL     1     -10.529   6.600  70.642  1.00  0.00    -0.217 A  
HETATM    4  C   UNL     1     -10.050   5.383  71.188  1.00  0.00    -0.276 A  
HETATM    5  C   UNL     1      -9.327   4.539  70.314  1.00  0.00    -0.218 A  
HETATM    6  C   UNL     1     -10.109   7.045  69.354  1.00  0.00    -0.175 A  
HETATM    7  C   UNL     1      -9.368   6.141  68.558  1.00  0.00    -0.117 A  
HETATM    8  C   UNL     1      -8.993   4.859  68.990  1.00  0.00    -0.102 A  
BRANCH   4   9
HETATM    9  C   UNL     1     -10.279   4.903  72.653  1.00  0.00    -0.238 C  
HETATM   10  C   UNL     1      -9.453   5.656  73.722  1.00  0.00    -0.139 C  
HETATM   11  C   UNL     1     -11.774   5.047  73.000  1.00  0.00    -0.229 C  
HETATM   12  C   UNL     1      -9.888   3.407  72.849  1.00  0.00    -0.201 C  
ENDBRANCH   4   9
BRANCH   8  13
HETATM   13  N   UNL     1      -8.268   3.937  68.115  1.00  0.00    -0.087 N  
HETATM   14  C   UNL     1      -7.037   3.400  68.496  1.00  0.00    -0.050 C  
HETATM   15  O   UNL     1      -9.796   4.040  66.295  1.00  0.00    -0.205 OA 
HETATM   16  C   UNL     1      -6.293   2.614  67.716  1.00  0.00    -0.032 C  
HETATM   17  H   UNL     1      -8.489   2.300  65.278  1.00  0.00     0.000 HD 
HETATM   18  C   UNL     1      -6.789   2.256  66.389  1.00  0.00    -0.043 C  
HETATM   19  O   UNL     1      -6.102   1.617  65.603  1.00  0.00    -0.020 OA 
HETATM   20  N   UNL     1      -8.047   2.687  66.111  1.00  0.00    -0.082 N  
HETATM   21  C   UNL     1      -8.786   3.593  66.837  1.00  0.00    -0.130 C  
ENDBRANCH   8  13
BRANCH   6  22
HETATM   22  C   UNL     1     -10.402   8.414  68.823  1.00  0.00    -0.225 A  
HETATM   23  C   UNL     1     -10.242  10.075  65.505  1.00  0.00    -0.248 A  
HETATM   24  C   UNL     1     -10.517   8.634  67.438  1.00  0.00    -0.351 A  
HETATM   25  C   UNL     1     -10.065  11.342  64.960  1.00  0.00    -0.331 A  
HETATM   26  C   UNL     1     -10.432   9.919  66.883  1.00  0.00    -0.284 A  
HETATM   27  C   UNL     1     -10.117  12.462  65.781  1.00  0.00    -0.253 A  
HETATM   28  C   UNL     1     -10.537  10.844  69.111  1.00  0.00    -0.253 A  
HETATM   29  C   UNL     1     -10.343  12.327  67.154  1.00  0.00    -0.234 A  
HETATM   30  C   UNL     1     -10.466   9.550  69.650  1.00  0.00    -0.239 A  
HETATM   31  C   UNL     1     -10.456  11.046  67.723  1.00  0.00    -0.232 A  
BRANCH  27  32
HETATM   32  N   UNL     1      -9.978  13.751  65.198  1.00  0.00    -0.579 N  
HETATM   33  H   UNL     1      -9.065  14.202  65.122  1.00  0.00     0.000 HD 
BRANCH  32  34
HETATM   34  S   UNL     1     -11.387  14.513  64.634  1.00  0.00    -0.343 S  
HETATM   35  C   UNL     1     -12.523  14.212  65.970  1.00  0.00    -0.425 C  
HETATM   36  O   UNL     1     -11.813  13.716  63.503  1.00  0.00    -0.346 OA 
HETATM   37  O   UNL     1     -11.154  15.932  64.511  1.00  0.00    -0.495 OA 
ENDBRANCH  32  34
ENDBRANCH  27  32
ENDBRANCH   6  22
ENDBRANCH   2   3
TORSDOF 6
ENDMDL
MODEL       54
REMARK 921   NORMALIZED FREE ENERGY PREDICTED BY IDOCK:   -4.76 KCAL/MOL
REMARK 922        TOTAL FREE ENERGY PREDICTED BY IDOCK:   -6.67 KCAL/MOL
REMARK 923 INTER-LIGAND FREE ENERGY PREDICTED BY IDOCK:   -6.62 KCAL/MOL
REMARK 924 INTRA-LIGAND FREE ENERGY PREDICTED BY IDOCK:   -0.05 KCAL/MOL
REMARK 927      BINDING AFFINITY PREDICTED BY RF-SCORE:    0.00 PKD
ROOT
HETATM    1  C   UNL     1      -5.274  11.041  69.461  1.00  0.00    -0.041 C  
HETATM    2  O   UNL     1      -6.426  11.763  69.913  1.00  0.00    -0.131 OA 
ENDROOT
BRANCH   2   3
HETATM    3  C   UNL     1      -7.470  11.839  69.020  1.00  0.00    -0.030 A  
HETATM    4  C   UNL     1      -7.584  13.019  68.242  1.00  0.00    -0.135 A  
HETATM    5  C   UNL     1      -8.583  13.024  67.242  1.00  0.00    -0.206 A  
HETATM    6  C   UNL     1      -8.456  10.811  68.945  1.00  0.00    -0.149 A  
HETATM    7  C   UNL     1      -9.433  10.912  67.927  1.00  0.00    -0.166 A  
HETATM    8  C   UNL     1      -9.502  11.987  67.027  1.00  0.00    -0.198 A  
BRANCH   4   9
HETATM    9  C   UNL     1      -6.684  14.283  68.391  1.00  0.00    -0.104 C  
HETATM   10  C   UNL     1      -6.642  14.889  69.814  1.00  0.00    -0.170 C  
HETATM   11  C   UNL     1      -5.245  13.927  67.969  1.00  0.00    -0.101 C  
HETATM   12  C   UNL     1      -7.168  15.457  67.488  1.00  0.00    -0.224 C  
ENDBRANCH   4   9
BRANCH   8  13
HETATM   13  N   UNL     1     -10.501  12.028  65.957  1.00  0.00    -0.241 N  
HETATM   14  C   UNL     1     -10.298  11.347  64.756  1.00  0.00    -0.294 C  
HETATM   15  O   UNL     1     -11.991  13.530  67.042  1.00  0.00    -0.386 OA 
HETATM   16  C   UNL     1     -11.132  11.403  63.717  1.00  0.00    -0.417 C  
HETATM   17  H   UNL     1     -13.505  13.128  65.221  1.00  0.00     0.000 HD 
HETATM   18  C   UNL     1     -12.355  12.196  63.830  1.00  0.00    -0.532 C  
HETATM   19  O   UNL     1     -13.102  12.355  62.874  1.00  0.00    -0.281 OA 
HETATM   20  N   UNL     1     -12.580  12.731  65.058  1.00  0.00    -0.509 N  
HETATM   21  C   UNL     1     -11.688  12.793  66.105  1.00  0.00    -0.403 C  
ENDBRANCH   8  13
BRANCH   6  22
HETATM   22  C   UNL     1      -8.510   9.654  69.894  1.00  0.00    -0.211 A  
HETATM   23  C   UNL     1      -6.853   6.340  70.153  1.00  0.00    -0.054 A  
HETATM   24  C   UNL     1      -7.520   8.655  69.861  1.00  0.00    -0.056 A  
HETATM   25  C   UNL     1      -7.092   5.073  70.673  1.00  0.00    -0.053 A  
HETATM   26  C   UNL     1      -7.711   7.403  70.461  1.00  0.00    -0.096 A  
HETATM   27  C   UNL     1      -8.163   4.869  71.535  1.00  0.00    -0.113 A  
HETATM   28  C   UNL     1      -9.714   8.256  71.507  1.00  0.00    -0.251 A  
HETATM   29  C   UNL     1      -9.008   5.926  71.883  1.00  0.00    -0.139 A  
HETATM   30  C   UNL     1      -9.586   9.448  70.776  1.00  0.00    -0.322 A  
HETATM   31  C   UNL     1      -8.814   7.195  71.309  1.00  0.00    -0.129 A  
BRANCH  27  32
HETATM   32  N   UNL     1      -8.364   3.575  72.090  1.00  0.00    -0.078 N  
HETATM   33  H   UNL     1      -8.211   3.396  73.083  1.00  0.00     0.000 HD 
BRANCH  32  34
HETATM   34  S   UNL     1      -8.866   2.340  71.039  1.00  0.00    -0.076 S  
HETATM   35  C   UNL     1      -9.496   3.270  69.659  1.00  0.00    -0.139 C  
HETATM   36  O   UNL     1      -9.992   1.719  71.704  1.00  0.00    -0.148 OA 
HETATM   37  O   UNL     1      -7.722   1.568  70.617  1.00  0.00    -0.036 OA 
ENDBRANCH  32  34
ENDBRANCH  27  32
ENDBRANCH   6  22
ENDBRANCH   2   3
TORSDOF 6
ENDMDL
MODEL       55
REMARK 921   NORMALIZED FREE ENERGY PREDICTED BY IDOCK:   -4.61 KCAL/MOL
REMARK 922        TOTAL FREE ENERGY PREDICTED BY IDOCK:   -6.47 KCAL/MOL
REMARK 923 INTER-LIGAND FREE ENERGY PREDICTED BY IDOCK:   -8.03 KCAL/MOL
REMARK 924 INTRA-LIGAND FREE ENERGY PREDICTED BY IDOCK:    1.55 KCAL/MOL
REMARK 927      BINDING AFFINITY PREDICTED BY RF-SCORE:    0.00 PKD
ROOT
HETATM    1  C   UNL     1     -11.700  10.659  71.589  1.00  0.00     0.508 C  
HETATM    2  O   UNL     1     -12.379   9.881  70.596  1.00  0.00    -0.273 OA 
ENDROOT
BRANCH   2   3
HETATM    3  C   UNL     1     -11.572   9.252  69.676  1.00  0.00     0.267 A  
HETATM    4  C   UNL     1     -11.137   7.936  69.975  1.00  0.00    -0.165 A  
HETATM    5  C   UNL     1     -10.418   7.262  68.962  1.00  0.00    -0.219 A  
HETATM    6  C   UNL     1     -11.111   9.931  68.509  1.00  0.00    -0.181 A  
HETATM    7  C   UNL     1     -10.377   9.182  67.561  1.00  0.00    -0.324 A  
HETATM    8  C   UNL     1     -10.047   7.829  67.734  1.00  0.00    -0.189 A  
BRANCH   4   9
HETATM    9  C   UNL     1     -11.412   7.182  71.311  1.00  0.00    -0.314 C  
HETATM   10  C   UNL     1     -10.814   7.849  72.572  1.00  0.00    -0.403 C  
HETATM   11  C   UNL     1     -12.935   7.046  71.506  1.00  0.00    -0.411 C  
HETATM   12  C   UNL     1     -10.803   5.747  71.311  1.00  0.00    -0.313 C  
ENDBRANCH   4   9
BRANCH   8  13
HETATM   13  N   UNL     1      -9.327   7.077  66.705  1.00  0.00    -0.160 N  
HETATM   14  C   UNL     1      -8.435   7.713  65.840  1.00  0.00    -0.143 C  
HETATM   15  O   UNL     1     -10.361   4.979  67.136  1.00  0.00    -0.203 OA 
HETATM   16  C   UNL     1      -7.804   7.101  64.837  1.00  0.00    -0.126 C  
HETATM   17  H   UNL     1      -8.808   4.045  65.559  1.00  0.00     0.000 HD 
HETATM   18  C   UNL     1      -8.022   5.671  64.628  1.00  0.00    -0.120 C  
HETATM   19  O   UNL     1      -7.542   5.086  63.667  1.00  0.00    -0.061 OA 
HETATM   20  N   UNL     1      -8.790   5.064  65.571  1.00  0.00    -0.142 N  
HETATM   21  C   UNL     1      -9.547   5.683  66.540  1.00  0.00    -0.155 C  
ENDBRANCH   8  13
BRANCH   6  22
HETATM   22  C   UNL     1     -11.355  11.387  68.257  1.00  0.00    -0.354 A  
HETATM   23  C   UNL     1     -10.541  13.796  65.550  1.00  0.00    -0.312 A  
HETATM   24  C   UNL     1     -11.164  11.933  66.974  1.00  0.00    -0.379 A  
HETATM   25  C   UNL     1     -10.320  15.156  65.372  1.00  0.00    -0.415 A  
HETATM   26  C   UNL     1     -11.031  13.313  66.769  1.00  0.00    -0.302 A  
HETATM   27  C   UNL     1     -10.623  16.047  66.395  1.00  0.00    -0.284 A  
HETATM   28  C   UNL     1     -11.695  13.677  69.062  1.00  0.00    -0.375 A  
HETATM   29  C   UNL     1     -11.147  15.586  67.606  1.00  0.00    -0.311 A  
HETATM   30  C   UNL     1     -11.673  12.291  69.287  1.00  0.00    -0.388 A  
HETATM   31  C   UNL     1     -11.311  14.206  67.818  1.00  0.00    -0.330 A  
BRANCH  27  32
HETATM   32  N   UNL     1     -10.430  17.439  66.178  1.00  0.00    -0.327 N  
HETATM   33  H   UNL     1     -11.026  17.962  65.535  1.00  0.00     0.000 HD 
BRANCH  32  34
HETATM   34  S   UNL     1      -9.171  18.198  67.028  1.00  0.00    -0.277 S  
HETATM   35  C   UNL     1      -7.898  16.956  66.980  1.00  0.00    -0.199 C  
HETATM   36  O   UNL     1      -9.647  18.293  68.392  1.00  0.00    -0.306 OA 
HETATM   37  O   UNL     1      -8.731  19.365  66.301  1.00  0.00    -0.341 OA 
ENDBRANCH  32  34
ENDBRANCH  27  32
ENDBRANCH   6  22
ENDBRANCH   2   3
TORSDOF 6
ENDMDL
MODEL       56
REMARK 921   NORMALIZED FREE ENERGY PREDICTED BY IDOCK:   -4.60 KCAL/MOL
REMARK 922        TOTAL FREE ENERGY PREDICTED BY IDOCK:   -6.45 KCAL/MOL
REMARK 923 INTER-LIGAND FREE ENERGY PREDICTED BY IDOCK:   -7.69 KCAL/MOL
REMARK 924 INTRA-LIGAND FREE ENERGY PREDICTED BY IDOCK:    1.24 KCAL/MOL
REMARK 927      BINDING AFFINITY PREDICTED BY RF-SCORE:    0.00 PKD
ROOT
HETATM    1  C   UNL     1      -6.695  11.049  67.553  1.00  0.00    -0.072 C  
HETATM    2  O   UNL     1      -7.779  10.271  67.031  1.00  0.00    -0.098 OA 
ENDROOT
BRANCH   2   3
HETATM    3  C   UNL     1      -8.408   9.445  67.934  1.00  0.00    -0.115 A  
HETATM    4  C   UNL     1      -7.999   8.088  67.979  1.00  0.00    -0.128 A  
HETATM    5  C   UNL     1      -8.565   7.290  68.999  1.00  0.00    -0.129 A  
HETATM    6  C   UNL     1      -9.496   9.911  68.730  1.00  0.00    -0.157 A  
HETATM    7  C   UNL     1     -10.016   9.034  69.709  1.00  0.00    -0.204 A  
HETATM    8  C   UNL     1      -9.545   7.726  69.903  1.00  0.00    -0.164 A  
BRANCH   4   9
HETATM    9  C   UNL     1      -6.967   7.430  67.015  1.00  0.00    -0.082 C  
HETATM   10  C   UNL     1      -5.488   7.784  67.302  1.00  0.00    -0.035 C  
HETATM   11  C   UNL     1      -7.123   5.898  67.083  1.00  0.00    -0.070 C  
HETATM   12  C   UNL     1      -7.185   7.865  65.535  1.00  0.00    -0.067 C  
ENDBRANCH   4   9
BRANCH   8  13
HETATM   13  N   UNL     1     -10.078   6.867  70.961  1.00  0.00    -0.193 N  
HETATM   14  C   UNL     1      -9.247   6.007  71.679  1.00  0.00    -0.145 C  
HETATM   15  O   UNL     1     -12.360   7.477  70.673  1.00  0.00    -0.141 OA 
HETATM   16  C   UNL     1      -9.680   5.148  72.603  1.00  0.00    -0.178 C  
HETATM   17  H   UNL     1     -12.814   6.172  72.638  1.00  0.00     0.000 HD 
HETATM   18  C   UNL     1     -11.106   5.109  72.922  1.00  0.00    -0.295 C  
HETATM   19  O   UNL     1     -11.565   4.275  73.692  1.00  0.00    -0.204 OA 
HETATM   20  N   UNL     1     -11.860   6.054  72.300  1.00  0.00    -0.304 N  
HETATM   21  C   UNL     1     -11.468   6.866  71.260  1.00  0.00    -0.296 C  
ENDBRANCH   8  13
BRANCH   6  22
HETATM   22  C   UNL     1     -10.114  11.265  68.563  1.00  0.00    -0.210 A  
HETATM   23  C   UNL     1      -9.194  14.418  66.828  1.00  0.00    -0.287 A  
HETATM   24  C   UNL     1      -9.634  12.154  67.583  1.00  0.00    -0.190 A  
HETATM   25  C   UNL     1      -9.413  15.787  66.930  1.00  0.00    -0.244 A  
HETATM   26  C   UNL     1      -9.924  13.525  67.622  1.00  0.00    -0.229 A  
HETATM   27  C   UNL     1     -10.388  16.270  67.794  1.00  0.00    -0.287 A  
HETATM   28  C   UNL     1     -11.525  13.096  69.379  1.00  0.00    -0.321 A  
HETATM   29  C   UNL     1     -11.152  15.391  68.567  1.00  0.00    -0.295 A  
HETATM   30  C   UNL     1     -11.109  11.756  69.428  1.00  0.00    -0.245 A  
HETATM   31  C   UNL     1     -10.891  14.010  68.520  1.00  0.00    -0.268 A  
BRANCH  27  32
HETATM   32  N   UNL     1     -10.627  17.671  67.851  1.00  0.00    -0.395 N  
HETATM   33  H   UNL     1     -10.908  18.126  68.720  1.00  0.00     0.000 HD 
BRANCH  32  34
HETATM   34  S   UNL     1     -10.427  18.559  66.417  1.00  0.00    -0.361 S  
HETATM   35  C   UNL     1      -8.675  18.867  66.420  1.00  0.00    -0.303 C  
HETATM   36  O   UNL     1     -11.098  19.818  66.661  1.00  0.00    -0.332 OA 
HETATM   37  O   UNL     1     -10.768  17.732  65.284  1.00  0.00    -0.649 OA 
ENDBRANCH  32  34
ENDBRANCH  27  32
ENDBRANCH   6  22
ENDBRANCH   2   3
TORSDOF 6
ENDMDL
MODEL       57
REMARK 921   NORMALIZED FREE ENERGY PREDICTED BY IDOCK:   -4.53 KCAL/MOL
REMARK 922        TOTAL FREE ENERGY PREDICTED BY IDOCK:   -6.36 KCAL/MOL
REMARK 923 INTER-LIGAND FREE ENERGY PREDICTED BY IDOCK:   -6.09 KCAL/MOL
REMARK 924 INTRA-LIGAND FREE ENERGY PREDICTED BY IDOCK:   -0.27 KCAL/MOL
REMARK 927      BINDING AFFINITY PREDICTED BY RF-SCORE:    0.00 PKD
ROOT
HETATM    1  C   UNL     1      -6.363   7.412  65.180  1.00  0.00    -0.038 C  
HETATM    2  O   UNL     1      -7.731   6.993  65.243  1.00  0.00    -0.098 OA 
ENDROOT
BRANCH   2   3
HETATM    3  C   UNL     1      -8.233   6.781  66.507  1.00  0.00    -0.117 A  
HETATM    4  C   UNL     1      -8.379   5.438  66.938  1.00  0.00    -0.108 A  
HETATM    5  C   UNL     1      -8.773   5.244  68.282  1.00  0.00    -0.101 A  
HETATM    6  C   UNL     1      -8.678   7.866  67.318  1.00  0.00    -0.131 A  
HETATM    7  C   UNL     1      -9.076   7.574  68.643  1.00  0.00    -0.134 A  
HETATM    8  C   UNL     1      -9.097   6.275  69.176  1.00  0.00    -0.130 A  
BRANCH   4   9
HETATM    9  C   UNL     1      -8.118   4.178  66.058  1.00  0.00    -0.098 C  
HETATM   10  C   UNL     1      -6.664   4.029  65.549  1.00  0.00    -0.052 C  
HETATM   11  C   UNL     1      -8.485   2.917  66.865  1.00  0.00    -0.102 C  
HETATM   12  C   UNL     1      -8.980   4.180  64.760  1.00  0.00    -0.140 C  
ENDBRANCH   4   9
BRANCH   8  13
HETATM   13  N   UNL     1      -9.470   6.023  70.568  1.00  0.00    -0.166 N  
HETATM   14  C   UNL     1      -8.519   5.626  71.509  1.00  0.00    -0.128 C  
HETATM   15  O   UNL     1     -11.804   6.385  70.286  1.00  0.00    -0.396 OA 
HETATM   16  C   UNL     1      -8.806   5.311  72.773  1.00  0.00    -0.122 C  
HETATM   17  H   UNL     1     -11.984   6.179  72.673  1.00  0.00     0.000 HD 
HETATM   18  C   UNL     1     -10.190   5.408  73.232  1.00  0.00    -0.192 C  
HETATM   19  O   UNL     1     -10.518   5.040  74.352  1.00  0.00    -0.268 OA 
HETATM   20  N   UNL     1     -11.060   5.926  72.326  1.00  0.00    -0.266 N  
HETATM   21  C   UNL     1     -10.822   6.145  70.988  1.00  0.00    -0.279 C  
ENDBRANCH   8  13
BRANCH   6  22
HETATM   22  C   UNL     1      -8.754   9.279  66.828  1.00  0.00    -0.138 A  
HETATM   23  C   UNL     1      -7.006  12.464  67.596  1.00  0.00    -0.132 A  
HETATM   24  C   UNL     1      -7.730  10.196  67.128  1.00  0.00    -0.092 A  
HETATM   25  C   UNL     1      -7.234  13.835  67.560  1.00  0.00    -0.173 A  
HETATM   26  C   UNL     1      -7.918  11.580  67.008  1.00  0.00    -0.161 A  
HETATM   27  C   UNL     1      -8.353  14.333  66.903  1.00  0.00    -0.054 A  
HETATM   28  C   UNL     1     -10.014  11.158  65.886  1.00  0.00    -0.285 A  
HETATM   29  C   UNL     1      -9.255  13.468  66.278  1.00  0.00    -0.070 A  
HETATM   30  C   UNL     1      -9.879   9.786  66.153  1.00  0.00    -0.329 A  
HETATM   31  C   UNL     1      -9.067  12.077  66.367  1.00  0.00    -0.193 A  
BRANCH  27  32
HETATM   32  N   UNL     1      -8.545  15.741  66.840  1.00  0.00    -0.223 N  
HETATM   33  H   UNL     1      -7.822  16.358  66.470  1.00  0.00     0.000 HD 
BRANCH  32  34
HETATM   34  S   UNL     1     -10.024  16.356  67.405  1.00  0.00    -0.256 S  
HETATM   35  C   UNL     1     -10.337  17.673  66.250  1.00  0.00    -0.342 C  
HETATM   36  O   UNL     1      -9.713  16.955  68.686  1.00  0.00    -0.246 OA 
HETATM   37  O   UNL     1     -11.049  15.348  67.275  1.00  0.00    -0.325 OA 
ENDBRANCH  32  34
ENDBRANCH  27  32
ENDBRANCH   6  22
ENDBRANCH   2   3
TORSDOF 6
ENDMDL
MODEL       58
REMARK 921   NORMALIZED FREE ENERGY PREDICTED BY IDOCK:   -4.47 KCAL/MOL
REMARK 922        TOTAL FREE ENERGY PREDICTED BY IDOCK:   -6.29 KCAL/MOL
REMARK 923 INTER-LIGAND FREE ENERGY PREDICTED BY IDOCK:   -7.44 KCAL/MOL
REMARK 924 INTRA-LIGAND FREE ENERGY PREDICTED BY IDOCK:    1.16 KCAL/MOL
REMARK 927      BINDING AFFINITY PREDICTED BY RF-SCORE:    0.00 PKD
ROOT
HETATM    1  C   UNL     1      -9.080   8.301  72.942  1.00  0.00    -0.262 C  
HETATM    2  O   UNL     1     -10.048   7.332  72.523  1.00  0.00    -0.175 OA 
ENDROOT
BRANCH   2   3
HETATM    3  C   UNL     1      -9.752   6.655  71.362  1.00  0.00    -0.172 A  
HETATM    4  C   UNL     1      -8.921   5.511  71.463  1.00  0.00    -0.146 A  
HETATM    5  C   UNL     1      -8.735   4.757  70.281  1.00  0.00    -0.121 A  
HETATM    6  C   UNL     1     -10.185   7.139  70.093  1.00  0.00    -0.204 A  
HETATM    7  C   UNL     1      -9.934   6.329  68.961  1.00  0.00    -0.175 A  
HETATM    8  C   UNL     1      -9.247   5.107  69.023  1.00  0.00    -0.117 A  
BRANCH   4   9
HETATM    9  C   UNL     1      -8.228   5.016  72.768  1.00  0.00    -0.109 C  
HETATM   10  C   UNL     1      -7.752   3.544  72.737  1.00  0.00    -0.061 C  
HETATM   11  C   UNL     1      -7.012   5.916  73.062  1.00  0.00    -0.077 C  
HETATM   12  C   UNL     1      -9.180   5.086  74.001  1.00  0.00    -0.117 C  
ENDBRANCH   4   9
BRANCH   8  13
HETATM   13  N   UNL     1      -9.050   4.277  67.834  1.00  0.00    -0.123 N  
HETATM   14  C   UNL     1      -8.661   4.839  66.618  1.00  0.00    -0.108 C  
HETATM   15  O   UNL     1      -9.727   2.224  68.829  1.00  0.00    -0.090 OA 
HETATM   16  C   UNL     1      -8.536   4.150  65.483  1.00  0.00    -0.110 C  
HETATM   17  H   UNL     1      -9.030   1.164  66.789  1.00  0.00     0.000 HD 
HETATM   18  C   UNL     1      -8.789   2.711  65.494  1.00  0.00    -0.133 C  
HETATM   19  O   UNL     1      -8.781   2.053  64.462  1.00  0.00    -0.092 OA 
HETATM   20  N   UNL     1      -9.034   2.181  66.722  1.00  0.00    -0.129 N  
HETATM   21  C   UNL     1      -9.287   2.876  67.883  1.00  0.00    -0.205 C  
ENDBRANCH   8  13
BRANCH   6  22
HETATM   22  C   UNL     1     -10.872   8.457  69.908  1.00  0.00    -0.207 A  
HETATM   23  C   UNL     1     -11.097  10.988  67.199  1.00  0.00    -0.333 A  
HETATM   24  C   UNL     1     -10.988   9.030  68.628  1.00  0.00     0.034 A  
HETATM   25  C   UNL     1     -11.306  12.353  67.037  1.00  0.00    -0.388 A  
HETATM   26  C   UNL     1     -11.289  10.387  68.448  1.00  0.00    -0.292 A  
HETATM   27  C   UNL     1     -11.745  13.118  68.111  1.00  0.00    -0.355 A  
HETATM   28  C   UNL     1     -11.781  10.548  70.808  1.00  0.00    -0.454 A  
HETATM   29  C   UNL     1     -11.978  12.528  69.356  1.00  0.00    -0.315 A  
HETATM   30  C   UNL     1     -11.329   9.232  70.990  1.00  0.00    -0.390 A  
HETATM   31  C   UNL     1     -11.705  11.162  69.546  1.00  0.00    -0.405 A  
BRANCH  27  32
HETATM   32  N   UNL     1     -11.995  14.504  67.913  1.00  0.00    -0.533 N  
HETATM   33  H   UNL     1     -12.906  14.913  68.122  1.00  0.00     0.000 HD 
BRANCH  32  34
HETATM   34  S   UNL     1     -10.718  15.453  67.316  1.00  0.00    -0.309 S  
HETATM   35  C   UNL     1     -11.035  17.021  68.094  1.00  0.00    -0.263 C  
HETATM   36  O   UNL     1     -10.992  15.597  65.902  1.00  0.00    -0.308 OA 
HETATM   37  O   UNL     1      -9.461  14.926  67.790  1.00  0.00    -0.199 OA 
ENDBRANCH  32  34
ENDBRANCH  27  32
ENDBRANCH   6  22
ENDBRANCH   2   3
TORSDOF 6
ENDMDL
MODEL       59
REMARK 921   NORMALIZED FREE ENERGY PREDICTED BY IDOCK:   -4.43 KCAL/MOL
REMARK 922        TOTAL FREE ENERGY PREDICTED BY IDOCK:   -6.23 KCAL/MOL
REMARK 923 INTER-LIGAND FREE ENERGY PREDICTED BY IDOCK:   -6.03 KCAL/MOL
REMARK 924 INTRA-LIGAND FREE ENERGY PREDICTED BY IDOCK:   -0.21 KCAL/MOL
REMARK 927      BINDING AFFINITY PREDICTED BY RF-SCORE:    0.00 PKD
ROOT
HETATM    1  C   UNL     1      -5.168  13.542  67.636  1.00  0.00     0.022 C  
HETATM    2  O   UNL     1      -6.308  14.162  67.030  1.00  0.00    -0.019 OA 
ENDROOT
BRANCH   2   3
HETATM    3  C   UNL     1      -7.402  14.329  67.848  1.00  0.00    -0.156 A  
HETATM    4  C   UNL     1      -7.659  15.634  68.341  1.00  0.00    -0.121 A  
HETATM    5  C   UNL     1      -8.857  15.810  69.072  1.00  0.00    -0.236 A  
HETATM    6  C   UNL     1      -8.193  13.218  68.262  1.00  0.00    -0.156 A  
HETATM    7  C   UNL     1      -9.362  13.488  69.012  1.00  0.00     0.321 A  
HETATM    8  C   UNL     1      -9.750  14.780  69.400  1.00  0.00    -0.036 A  
BRANCH   4   9
HETATM    9  C   UNL     1      -6.743  16.875  68.118  1.00  0.00    -0.149 C  
HETATM   10  C   UNL     1      -6.222  17.049  66.672  1.00  0.00    -0.240 C  
HETATM   11  C   UNL     1      -7.516  18.147  68.515  1.00  0.00    -0.289 C  
HETATM   12  C   UNL     1      -5.450  16.814  68.986  1.00  0.00    -0.131 C  
ENDBRANCH   4   9
BRANCH   8  13
HETATM   13  N   UNL     1     -10.993  15.019  70.134  1.00  0.00    -0.242 N  
HETATM   14  C   UNL     1     -11.059  15.976  71.147  1.00  0.00    -0.134 C  
HETATM   15  O   UNL     1     -12.261  13.308  69.073  1.00  0.00    -0.277 OA 
HETATM   16  C   UNL     1     -12.138  16.192  71.901  1.00  0.00    -0.548 C  
HETATM   17  H   UNL     1     -14.162  14.170  70.262  1.00  0.00     0.000 HD 
HETATM   18  C   UNL     1     -13.347  15.409  71.650  1.00  0.00    -0.490 C  
HETATM   19  O   UNL     1     -14.329  15.502  72.375  1.00  0.00    -0.558 OA 
HETATM   20  N   UNL     1     -13.284  14.585  70.571  1.00  0.00    -0.204 N  
HETATM   21  C   UNL     1     -12.157  14.253  69.854  1.00  0.00    -0.347 C  
ENDBRANCH   8  13
BRANCH   6  22
HETATM   22  C   UNL     1      -7.837  11.796  67.954  1.00  0.00    -0.135 A  
HETATM   23  C   UNL     1      -8.980   9.226  65.530  1.00  0.00    -0.251 A  
HETATM   24  C   UNL     1      -8.267  11.194  66.759  1.00  0.00    -0.154 A  
HETATM   25  C   UNL     1      -9.064   7.844  65.410  1.00  0.00     0.135 A  
HETATM   26  C   UNL     1      -8.270   9.802  66.590  1.00  0.00    -0.120 A  
HETATM   27  C   UNL     1      -8.407   7.029  66.324  1.00  0.00    -0.129 A  
HETATM   28  C   UNL     1      -7.020   9.592  68.646  1.00  0.00    -0.064 A  
HETATM   29  C   UNL     1      -7.663   7.586  67.368  1.00  0.00    -0.117 A  
HETATM   30  C   UNL     1      -7.162  10.970  68.871  1.00  0.00    -0.103 A  
HETATM   31  C   UNL     1      -7.629   8.982  67.535  1.00  0.00    -0.089 A  
BRANCH  27  32
HETATM   32  N   UNL     1      -8.469   5.617  66.159  1.00  0.00    -0.123 N  
HETATM   33  H   UNL     1      -7.717   5.105  65.698  1.00  0.00     0.000 HD 
BRANCH  32  34
HETATM   34  S   UNL     1      -9.842   4.818  66.758  1.00  0.00    -0.226 S  
HETATM   35  C   UNL     1      -9.184   3.214  67.160  1.00  0.00    -0.181 C  
HETATM   36  O   UNL     1     -10.713   4.664  65.612  1.00  0.00    -0.295 OA 
HETATM   37  O   UNL     1     -10.294   5.468  67.965  1.00  0.00    -0.185 OA 
ENDBRANCH  32  34
ENDBRANCH  27  32
ENDBRANCH   6  22
ENDBRANCH   2   3
TORSDOF 6
ENDMDL
MODEL       60
REMARK 921   NORMALIZED FREE ENERGY PREDICTED BY IDOCK:   -4.42 KCAL/MOL
REMARK 922        TOTAL FREE ENERGY PREDICTED BY IDOCK:   -6.21 KCAL/MOL
REMARK 923 INTER-LIGAND FREE ENERGY PREDICTED BY IDOCK:   -6.57 KCAL/MOL
REMARK 924 INTRA-LIGAND FREE ENERGY PREDICTED BY IDOCK:    0.36 KCAL/MOL
REMARK 927      BINDING AFFINITY PREDICTED BY RF-SCORE:    0.00 PKD
ROOT
HETATM    1  C   UNL     1      -8.180  10.256  65.280  1.00  0.00    -0.161 C  
HETATM    2  O   UNL     1      -7.244   9.866  66.292  1.00  0.00    -0.096 OA 
ENDROOT
BRANCH   2   3
HETATM    3  C   UNL     1      -7.790   9.315  67.429  1.00  0.00    -0.099 A  
HETATM    4  C   UNL     1      -7.829   7.901  67.520  1.00  0.00    -0.122 A  
HETATM    5  C   UNL     1      -8.274   7.358  68.748  1.00  0.00    -0.129 A  
HETATM    6  C   UNL     1      -8.380  10.134  68.437  1.00  0.00    -0.113 A  
HETATM    7  C   UNL     1      -8.819   9.500  69.623  1.00  0.00    -0.196 A  
HETATM    8  C   UNL     1      -8.742   8.114  69.832  1.00  0.00    -0.138 A  
BRANCH   4   9
HETATM    9  C   UNL     1      -7.402   6.916  66.391  1.00  0.00    -0.073 C  
HETATM   10  C   UNL     1      -7.230   5.445  66.839  1.00  0.00    -0.078 C  
HETATM   11  C   UNL     1      -8.449   6.963  65.261  1.00  0.00    -0.062 C  
HETATM   12  C   UNL     1      -6.021   7.293  65.775  1.00  0.00    -0.037 C  
ENDBRANCH   4   9
BRANCH   8  13
HETATM   13  N   UNL     1      -9.164   7.505  71.094  1.00  0.00    -0.147 N  
HETATM   14  C   UNL     1      -8.227   7.034  72.015  1.00  0.00    -0.101 C  
HETATM   15  O   UNL     1     -11.503   7.607  70.671  1.00  0.00    -0.282 OA 
HETATM   16  C   UNL     1      -8.545   6.405  73.148  1.00  0.00    -0.120 C  
HETATM   17  H   UNL     1     -11.805   6.842  72.927  1.00  0.00     0.000 HD 
HETATM   18  C   UNL     1      -9.955   6.210  73.479  1.00  0.00    -0.191 C  
HETATM   19  O   UNL     1     -10.296   5.557  74.456  1.00  0.00    -0.269 OA 
HETATM   20  N   UNL     1     -10.833   6.800  72.626  1.00  0.00    -0.238 N  
HETATM   21  C   UNL     1     -10.543   7.347  71.396  1.00  0.00    -0.214 C  
ENDBRANCH   8  13
BRANCH   6  22
HETATM   22  C   UNL     1      -8.565  11.612  68.289  1.00  0.00    -0.162 A  
HETATM   23  C   UNL     1     -11.137  13.839  66.800  1.00  0.00    -0.316 A  
HETATM   24  C   UNL     1      -9.816  12.143  67.925  1.00  0.00    -0.199 A  
HETATM   25  C   UNL     1     -11.245  15.102  66.229  1.00  0.00    -0.273 A  
HETATM   26  C   UNL     1      -9.952  13.449  67.434  1.00  0.00    -0.230 A  
HETATM   27  C   UNL     1     -10.185  15.997  66.323  1.00  0.00    -0.316 A  
HETATM   28  C   UNL     1      -7.656  13.876  68.051  1.00  0.00    -0.144 A  
HETATM   29  C   UNL     1      -9.008  15.638  66.985  1.00  0.00    -0.244 A  
HETATM   30  C   UNL     1      -7.499  12.524  68.394  1.00  0.00    -0.127 A  
HETATM   31  C   UNL     1      -8.866  14.339  67.506  1.00  0.00    -0.202 A  
BRANCH  27  32
HETATM   32  N   UNL     1     -10.331  17.300  65.771  1.00  0.00    -0.298 N  
HETATM   33  H   UNL     1     -10.998  17.485  65.022  1.00  0.00     0.000 HD 
BRANCH  32  34
HETATM   34  S   UNL     1      -9.353  18.534  66.407  1.00  0.00    -0.243 S  
HETATM   35  C   UNL     1     -10.096  18.803  68.001  1.00  0.00    -0.369 C  
HETATM   36  O   UNL     1      -9.636  19.693  65.586  1.00  0.00    -0.341 OA 
HETATM   37  O   UNL     1      -8.007  18.044  66.579  1.00  0.00    -0.239 OA 
ENDBRANCH  32  34
ENDBRANCH  27  32
ENDBRANCH   6  22
ENDBRANCH   2   3
TORSDOF 6
ENDMDL
MODEL       61
REMARK 921   NORMALIZED FREE ENERGY PREDICTED BY IDOCK:   -4.40 KCAL/MOL
REMARK 922        TOTAL FREE ENERGY PREDICTED BY IDOCK:   -6.18 KCAL/MOL
REMARK 923 INTER-LIGAND FREE ENERGY PREDICTED BY IDOCK:   -6.28 KCAL/MOL
REMARK 924 INTRA-LIGAND FREE ENERGY PREDICTED BY IDOCK:    0.10 KCAL/MOL
REMARK 927      BINDING AFFINITY PREDICTED BY RF-SCORE:    0.00 PKD
ROOT
HETATM    1  C   UNL     1     -11.158  10.577  66.210  1.00  0.00     0.216 C  
HETATM    2  O   UNL     1     -11.718  11.751  66.810  1.00  0.00    -0.555 OA 
ENDROOT
BRANCH   2   3
HETATM    3  C   UNL     1     -10.836  12.782  67.040  1.00  0.00    -0.257 A  
HETATM    4  C   UNL     1     -10.851  13.872  66.133  1.00  0.00    -0.290 A  
HETATM    5  C   UNL     1     -10.031  14.977  66.459  1.00  0.00    -0.276 A  
HETATM    6  C   UNL     1      -9.879  12.716  68.095  1.00  0.00    -0.226 A  
HETATM    7  C   UNL     1      -9.085  13.862  68.333  1.00  0.00    -0.184 A  
HETATM    8  C   UNL     1      -9.163  15.030  67.559  1.00  0.00    -0.188 A  
BRANCH   4   9
HETATM    9  C   UNL     1     -11.709  13.949  64.835  1.00  0.00    -0.378 C  
HETATM   10  C   UNL     1     -11.735  15.336  64.151  1.00  0.00    -0.115 C  
HETATM   11  C   UNL     1     -11.181  12.915  63.821  1.00  0.00    -0.452 C  
HETATM   12  C   UNL     1     -13.210  13.627  65.104  1.00  0.00     0.077 C  
ENDBRANCH   4   9
BRANCH   8  13
HETATM   13  N   UNL     1      -8.356  16.211  67.870  1.00  0.00    -0.160 N  
HETATM   14  C   UNL     1      -6.986  16.237  67.609  1.00  0.00    -0.144 C  
HETATM   15  O   UNL     1     -10.107  17.473  68.870  1.00  0.00    -0.338 OA 
HETATM   16  C   UNL     1      -6.183  17.251  67.934  1.00  0.00    -0.156 C  
HETATM   17  H   UNL     1      -8.551  19.301  68.962  1.00  0.00     0.000 HD 
HETATM   18  C   UNL     1      -6.756  18.431  68.578  1.00  0.00    -0.244 C  
HETATM   19  O   UNL     1      -6.048  19.345  68.981  1.00  0.00    -0.229 OA 
HETATM   20  N   UNL     1      -8.110  18.423  68.692  1.00  0.00    -0.315 N  
HETATM   21  C   UNL     1      -8.947  17.351  68.479  1.00  0.00    -0.276 C  
ENDBRANCH   8  13
BRANCH   6  22
HETATM   22  C   UNL     1      -9.672  11.497  68.940  1.00  0.00    -0.069 A  
HETATM   23  C   UNL     1      -7.349   8.599  68.912  1.00  0.00    -0.082 A  
HETATM   24  C   UNL     1      -8.494  10.737  68.822  1.00  0.00    -0.148 A  
HETATM   25  C   UNL     1      -7.306   7.271  69.319  1.00  0.00    -0.087 A  
HETATM   26  C   UNL     1      -8.406   9.426  69.310  1.00  0.00    -0.131 A  
HETATM   27  C   UNL     1      -8.295   6.771  70.156  1.00  0.00    -0.135 A  
HETATM   28  C   UNL     1     -10.527   9.742  70.421  1.00  0.00    -0.358 A  
HETATM   29  C   UNL     1      -9.339   7.591  70.593  1.00  0.00    -0.163 A  
HETATM   30  C   UNL     1     -10.666  10.992  69.798  1.00  0.00    -0.135 A  
HETATM   31  C   UNL     1      -9.427   8.917  70.133  1.00  0.00    -0.198 A  
BRANCH  27  32
HETATM   32  N   UNL     1      -8.209   5.421  70.596  1.00  0.00    -0.112 N  
HETATM   33  H   UNL     1      -8.740   5.092  71.403  1.00  0.00     0.000 HD 
BRANCH  32  34
HETATM   34  S   UNL     1      -7.190   4.377  69.727  1.00  0.00    -0.050 S  
HETATM   35  C   UNL     1      -7.663   2.786  70.369  1.00  0.00    -0.043 C  
HETATM   36  O   UNL     1      -5.857   4.670  70.211  1.00  0.00    -0.015 OA 
HETATM   37  O   UNL     1      -7.512   4.444  68.322  1.00  0.00    -0.064 OA 
ENDBRANCH  32  34
ENDBRANCH  27  32
ENDBRANCH   6  22
ENDBRANCH   2   3
TORSDOF 6
ENDMDL
MODEL       62
REMARK 921   NORMALIZED FREE ENERGY PREDICTED BY IDOCK:   -4.28 KCAL/MOL
REMARK 922        TOTAL FREE ENERGY PREDICTED BY IDOCK:   -6.02 KCAL/MOL
REMARK 923 INTER-LIGAND FREE ENERGY PREDICTED BY IDOCK:   -5.70 KCAL/MOL
REMARK 924 INTRA-LIGAND FREE ENERGY PREDICTED BY IDOCK:   -0.31 KCAL/MOL
REMARK 927      BINDING AFFINITY PREDICTED BY RF-SCORE:    0.00 PKD
ROOT
HETATM    1  C   UNL     1      -5.157  12.253  68.836  1.00  0.00    -0.055 C  
HETATM    2  O   UNL     1      -6.441  12.566  69.389  1.00  0.00    -0.111 OA 
ENDROOT
BRANCH   2   3
HETATM    3  C   UNL     1      -7.503  12.480  68.517  1.00  0.00    -0.122 A  
HETATM    4  C   UNL     1      -7.914  13.669  67.864  1.00  0.00    -0.161 A  
HETATM    5  C   UNL     1      -8.919  13.535  66.878  1.00  0.00    -0.219 A  
HETATM    6  C   UNL     1      -8.223  11.261  68.348  1.00  0.00    -0.149 A  
HETATM    7  C   UNL     1      -9.229  11.227  67.354  1.00  0.00    -0.164 A  
HETATM    8  C   UNL     1      -9.577  12.336  66.568  1.00  0.00    -0.238 A  
BRANCH   4   9
HETATM    9  C   UNL     1      -7.330  15.089  68.132  1.00  0.00    -0.119 C  
HETATM   10  C   UNL     1      -5.786  15.181  68.070  1.00  0.00    -0.154 C  
HETATM   11  C   UNL     1      -7.919  16.076  67.106  1.00  0.00    -0.234 C  
HETATM   12  C   UNL     1      -7.689  15.612  69.555  1.00  0.00    -0.185 C  
ENDBRANCH   4   9
BRANCH   8  13
HETATM   13  N   UNL     1     -10.591  12.243  65.516  1.00  0.00    -0.260 N  
HETATM   14  C   UNL     1     -11.779  12.971  65.595  1.00  0.00    -0.375 C  
HETATM   15  O   UNL     1      -9.474  10.594  64.215  1.00  0.00    -0.225 OA 
HETATM   16  C   UNL     1     -12.772  12.876  64.710  1.00  0.00    -0.442 C  
HETATM   17  H   UNL     1     -11.196  10.922  62.573  1.00  0.00     0.000 HD 
HETATM   18  C   UNL     1     -12.618  11.983  63.563  1.00  0.00    -0.507 C  
HETATM   19  O   UNL     1     -13.536  11.790  62.777  1.00  0.00    -0.022 OA 
HETATM   20  N   UNL     1     -11.396  11.398  63.452  1.00  0.00    -0.245 N  
HETATM   21  C   UNL     1     -10.402  11.380  64.404  1.00  0.00    -0.320 C  
ENDBRANCH   8  13
BRANCH   6  22
HETATM   22  C   UNL     1      -7.974  10.039  69.176  1.00  0.00    -0.116 A  
HETATM   23  C   UNL     1      -6.601   6.642  68.568  1.00  0.00    -0.051 A  
HETATM   24  C   UNL     1      -7.157   9.001  68.692  1.00  0.00    -0.071 A  
HETATM   25  C   UNL     1      -6.701   5.351  69.074  1.00  0.00    -0.053 A  
HETATM   26  C   UNL     1      -7.182   7.716  69.252  1.00  0.00    -0.082 A  
HETATM   27  C   UNL     1      -7.347   5.130  70.284  1.00  0.00    -0.062 A  
HETATM   28  C   UNL     1      -8.527   8.577  71.064  1.00  0.00    -0.185 A  
HETATM   29  C   UNL     1      -7.901   6.195  70.999  1.00  0.00    -0.114 A  
HETATM   30  C   UNL     1      -8.617   9.814  70.407  1.00  0.00    -0.099 A  
HETATM   31  C   UNL     1      -7.862   7.494  70.463  1.00  0.00    -0.096 A  
BRANCH  27  32
HETATM   32  N   UNL     1      -7.401   3.808  70.806  1.00  0.00    -0.037 N  
HETATM   33  H   UNL     1      -6.553   3.311  71.078  1.00  0.00     0.000 HD 
BRANCH  32  34
HETATM   34  S   UNL     1      -8.932   3.087  70.958  1.00  0.00    -0.109 S  
HETATM   35  C   UNL     1      -9.379   3.529  72.622  1.00  0.00    -0.110 C  
HETATM   36  O   UNL     1      -8.677   1.663  70.931  1.00  0.00    -0.049 OA 
HETATM   37  O   UNL     1      -9.852   3.705  70.032  1.00  0.00    -0.161 OA 
ENDBRANCH  32  34
ENDBRANCH  27  32
ENDBRANCH   6  22
ENDBRANCH   2   3
TORSDOF 6
ENDMDL
MODEL       63
REMARK 921   NORMALIZED FREE ENERGY PREDICTED BY IDOCK:   -4.21 KCAL/MOL
REMARK 922        TOTAL FREE ENERGY PREDICTED BY IDOCK:   -5.93 KCAL/MOL
REMARK 923 INTER-LIGAND FREE ENERGY PREDICTED BY IDOCK:   -6.44 KCAL/MOL
REMARK 924 INTRA-LIGAND FREE ENERGY PREDICTED BY IDOCK:    0.51 KCAL/MOL
REMARK 927      BINDING AFFINITY PREDICTED BY RF-SCORE:    0.00 PKD
ROOT
HETATM    1  C   UNL     1      -6.343  13.731  70.482  1.00  0.00     0.028 C  
HETATM    2  O   UNL     1      -6.085  13.631  69.077  1.00  0.00    -0.079 OA 
ENDROOT
BRANCH   2   3
HETATM    3  C   UNL     1      -7.186  13.400  68.283  1.00  0.00    -0.111 A  
HETATM    4  C   UNL     1      -7.762  14.513  67.619  1.00  0.00    -0.194 A  
HETATM    5  C   UNL     1      -8.808  14.235  66.710  1.00  0.00    -0.207 A  
HETATM    6  C   UNL     1      -7.783  12.107  68.205  1.00  0.00    -0.135 A  
HETATM    7  C   UNL     1      -8.842  11.928  67.284  1.00  0.00    -0.179 A  
HETATM    8  C   UNL     1      -9.354  12.963  66.486  1.00  0.00    -0.222 A  
BRANCH   4   9
HETATM    9  C   UNL     1      -7.315  15.995  67.798  1.00  0.00    -0.157 C  
HETATM   10  C   UNL     1      -5.802  16.193  68.056  1.00  0.00    -0.130 C  
HETATM   11  C   UNL     1      -7.704  16.792  66.538  1.00  0.00    -0.334 C  
HETATM   12  C   UNL     1      -8.004  16.672  69.021  1.00  0.00    -0.208 C  
ENDBRANCH   4   9
BRANCH   8  13
HETATM   13  N   UNL     1     -10.419  12.723  65.510  1.00  0.00    -0.282 N  
HETATM   14  C   UNL     1     -11.695  13.257  65.690  1.00  0.00    -0.356 C  
HETATM   15  O   UNL     1      -9.163  11.278  64.098  1.00  0.00    -0.155 OA 
HETATM   16  C   UNL     1     -12.726  13.017  64.879  1.00  0.00    -0.456 C  
HETATM   17  H   UNL     1     -11.034  11.349  62.593  1.00  0.00     0.000 HD 
HETATM   18  C   UNL     1     -12.523  12.168  63.706  1.00  0.00    -0.514 C  
HETATM   19  O   UNL     1     -13.457  11.842  62.986  1.00  0.00    -0.300 OA 
HETATM   20  N   UNL     1     -11.238  11.780  63.494  1.00  0.00    -0.418 N  
HETATM   21  C   UNL     1     -10.184  11.908  64.370  1.00  0.00    -0.297 C  
ENDBRANCH   8  13
BRANCH   6  22
HETATM   22  C   UNL     1      -7.354  10.952  69.056  1.00  0.00    -0.113 A  
HETATM   23  C   UNL     1      -8.974   8.741  71.562  1.00  0.00    -0.306 A  
HETATM   24  C   UNL     1      -8.310  10.139  69.693  1.00  0.00    -0.174 A  
HETATM   25  C   UNL     1      -8.641   7.977  72.674  1.00  0.00    -0.237 A  
HETATM   26  C   UNL     1      -7.970   9.294  70.759  1.00  0.00    -0.187 A  
HETATM   27  C   UNL     1      -7.306   7.727  72.969  1.00  0.00    -0.100 A  
HETATM   28  C   UNL     1      -5.638   9.730  70.307  1.00  0.00    -0.045 A  
HETATM   29  C   UNL     1      -6.291   8.240  72.157  1.00  0.00    -0.063 A  
HETATM   30  C   UNL     1      -6.004  10.687  69.348  1.00  0.00    -0.041 A  
HETATM   31  C   UNL     1      -6.617   9.069  71.069  1.00  0.00    -0.080 A  
BRANCH  27  32
HETATM   32  N   UNL     1      -6.988   6.907  74.086  1.00  0.00    -0.085 N  
HETATM   33  H   UNL     1      -6.672   7.312  74.968  1.00  0.00     0.000 HD 
BRANCH  32  34
HETATM   34  S   UNL     1      -7.155   5.227  73.898  1.00  0.00    -0.083 S  
HETATM   35  C   UNL     1      -7.055   5.047  72.131  1.00  0.00    -0.075 C  
HETATM   36  O   UNL     1      -8.517   4.941  74.295  1.00  0.00    -0.105 OA 
HETATM   37  O   UNL     1      -6.035   4.557  74.514  1.00  0.00    -0.037 OA 
ENDBRANCH  32  34
ENDBRANCH  27  32
ENDBRANCH   6  22
ENDBRANCH   2   3
TORSDOF 6
ENDMDL
MODEL       64
REMARK 921   NORMALIZED FREE ENERGY PREDICTED BY IDOCK:   -4.09 KCAL/MOL
REMARK 922        TOTAL FREE ENERGY PREDICTED BY IDOCK:   -5.77 KCAL/MOL
REMARK 923 INTER-LIGAND FREE ENERGY PREDICTED BY IDOCK:   -6.81 KCAL/MOL
REMARK 924 INTRA-LIGAND FREE ENERGY PREDICTED BY IDOCK:    1.04 KCAL/MOL
REMARK 927      BINDING AFFINITY PREDICTED BY RF-SCORE:    0.00 PKD
ROOT
HETATM    1  C   UNL     1     -12.628  11.731  69.872  1.00  0.00     0.104 C  
HETATM    2  O   UNL     1     -11.210  11.859  70.027  1.00  0.00    -0.098 OA 
ENDROOT
BRANCH   2   3
HETATM    3  C   UNL     1     -10.453  11.478  68.942  1.00  0.00    -0.187 A  
HETATM    4  C   UNL     1     -10.127  12.474  67.987  1.00  0.00    -0.220 A  
HETATM    5  C   UNL     1      -9.244  12.091  66.951  1.00  0.00    -0.197 A  
HETATM    6  C   UNL     1     -10.090  10.114  68.737  1.00  0.00    -0.198 A  
HETATM    7  C   UNL     1      -9.221   9.822  67.659  1.00  0.00    -0.143 A  
HETATM    8  C   UNL     1      -8.742  10.795  66.768  1.00  0.00    -0.143 A  
BRANCH   4   9
HETATM    9  C   UNL     1     -10.645  13.943  68.009  1.00  0.00    -0.252 C  
HETATM   10  C   UNL     1     -12.011  14.143  68.708  1.00  0.00    -0.367 C  
HETATM   11  C   UNL     1      -9.602  14.832  68.714  1.00  0.00    -0.215 C  
HETATM   12  C   UNL     1     -10.862  14.511  66.574  1.00  0.00    -0.314 C  
ENDBRANCH   4   9
BRANCH   8  13
HETATM   13  N   UNL     1      -7.806  10.457  65.695  1.00  0.00    -0.151 N  
HETATM   14  C   UNL     1      -6.426  10.539  65.890  1.00  0.00    -0.127 C  
HETATM   15  O   UNL     1      -9.451  10.035  64.029  1.00  0.00    -0.279 OA 
HETATM   16  C   UNL     1      -5.523  10.315  64.935  1.00  0.00    -0.120 C  
HETATM   17  H   UNL     1      -7.646   9.287  62.632  1.00  0.00     0.000 HD 
HETATM   18  C   UNL     1      -5.981   9.931  63.601  1.00  0.00    -0.120 C  
HETATM   19  O   UNL     1      -5.198   9.809  62.668  1.00  0.00    -0.084 OA 
HETATM   20  N   UNL     1      -7.320   9.732  63.489  1.00  0.00    -0.119 N  
HETATM   21  C   UNL     1      -8.283  10.068  64.414  1.00  0.00    -0.165 C  
ENDBRANCH   8  13
BRANCH   6  22
HETATM   22  C   UNL     1     -10.595   8.993  69.591  1.00  0.00    -0.230 A  
HETATM   23  C   UNL     1     -10.095   7.882  73.099  1.00  0.00    -0.362 A  
HETATM   24  C   UNL     1     -10.433   9.029  70.988  1.00  0.00    -0.339 A  
HETATM   25  C   UNL     1     -10.130   6.719  73.859  1.00  0.00    -0.375 A  
HETATM   26  C   UNL     1     -10.557   7.878  71.778  1.00  0.00    -0.276 A  
HETATM   27  C   UNL     1     -10.663   5.555  73.318  1.00  0.00    -0.274 A  
HETATM   28  C   UNL     1     -11.421   6.701  69.854  1.00  0.00    -0.414 A  
HETATM   29  C   UNL     1     -11.163   5.541  72.013  1.00  0.00    -0.222 A  
HETATM   30  C   UNL     1     -11.145   7.817  69.049  1.00  0.00     0.178 A  
HETATM   31  C   UNL     1     -11.070   6.696  71.215  1.00  0.00    -0.312 A  
BRANCH  27  32
HETATM   32  N   UNL     1     -10.730   4.386  74.126  1.00  0.00    -0.265 N  
HETATM   33  H   UNL     1     -11.185   4.399  75.039  1.00  0.00     0.000 HD 
BRANCH  32  34
HETATM   34  S   UNL     1     -10.025   2.968  73.513  1.00  0.00    -0.116 S  
HETATM   35  C   UNL     1     -11.412   1.854  73.482  1.00  0.00    -0.207 C  
HETATM   36  O   UNL     1      -9.122   2.522  74.553  1.00  0.00    -0.076 OA 
HETATM   37  O   UNL     1      -9.564   3.200  72.165  1.00  0.00    -0.119 OA 
ENDBRANCH  32  34
ENDBRANCH  27  32
ENDBRANCH   6  22
ENDBRANCH   2   3
TORSDOF 6
ENDMDL
MODEL       65
REMARK 921   NORMALIZED FREE ENERGY PREDICTED BY IDOCK:   -4.02 KCAL/MOL
REMARK 922        TOTAL FREE ENERGY PREDICTED BY IDOCK:   -5.67 KCAL/MOL
REMARK 923 INTER-LIGAND FREE ENERGY PREDICTED BY IDOCK:   -6.34 KCAL/MOL
REMARK 924 INTRA-LIGAND FREE ENERGY PREDICTED BY IDOCK:    0.67 KCAL/MOL
REMARK 927      BINDING AFFINITY PREDICTED BY RF-SCORE:    0.00 PKD
ROOT
HETATM    1  C   UNL     1      -5.244  10.313  68.734  1.00  0.00    -0.038 C  
HETATM    2  O   UNL     1      -6.397  10.707  69.487  1.00  0.00    -0.052 OA 
ENDROOT
BRANCH   2   3
HETATM    3  C   UNL     1      -7.408  11.299  68.763  1.00  0.00    -0.109 A  
HETATM    4  C   UNL     1      -7.351  12.704  68.584  1.00  0.00    -0.101 A  
HETATM    5  C   UNL     1      -8.325  13.273  67.731  1.00  0.00    -0.171 A  
HETATM    6  C   UNL     1      -8.520  10.541  68.290  1.00  0.00    -0.123 A  
HETATM    7  C   UNL     1      -9.458  11.201  67.462  1.00  0.00    -0.178 A  
HETATM    8  C   UNL     1      -9.370  12.560  67.125  1.00  0.00    -0.201 A  
BRANCH   4   9
HETATM    9  C   UNL     1      -6.295  13.650  69.230  1.00  0.00    -0.108 C  
HETATM   10  C   UNL     1      -5.154  14.096  68.285  1.00  0.00    -0.111 C  
HETATM   11  C   UNL     1      -7.007  14.908  69.763  1.00  0.00    -0.175 C  
HETATM   12  C   UNL     1      -5.559  12.977  70.428  1.00  0.00    -0.159 C  
ENDBRANCH   4   9
BRANCH   8  13
HETATM   13  N   UNL     1     -10.336  13.192  66.225  1.00  0.00    -0.282 N  
HETATM   14  C   UNL     1     -11.513  12.537  65.858  1.00  0.00    -0.373 C  
HETATM   15  O   UNL     1      -9.063  15.156  65.804  1.00  0.00    -0.198 OA 
HETATM   16  C   UNL     1     -12.397  13.026  64.987  1.00  0.00    -0.526 C  
HETATM   17  H   UNL     1     -10.982  15.980  64.618  1.00  0.00     0.000 HD 
HETATM   18  C   UNL     1     -12.155  14.337  64.390  1.00  0.00    -0.468 C  
HETATM   19  O   UNL     1     -12.886  14.785  63.516  1.00  0.00    -0.486 OA 
HETATM   20  N   UNL     1     -11.071  14.998  64.874  1.00  0.00    -0.408 N  
HETATM   21  C   UNL     1     -10.080  14.477  65.676  1.00  0.00    -0.359 C  
ENDBRANCH   8  13
BRANCH   6  22
HETATM   22  C   UNL     1      -8.741   9.102  68.641  1.00  0.00    -0.129 A  
HETATM   23  C   UNL     1      -9.713   7.223  71.693  1.00  0.00    -0.166 A  
HETATM   24  C   UNL     1      -9.399   8.750  69.834  1.00  0.00    -0.165 A  
HETATM   25  C   UNL     1      -9.547   5.965  72.262  1.00  0.00    -0.165 A  
HETATM   26  C   UNL     1      -9.315   7.458  70.372  1.00  0.00    -0.161 A  
HETATM   27  C   UNL     1      -9.020   4.927  71.504  1.00  0.00    -0.135 A  
HETATM   28  C   UNL     1      -8.264   6.719  68.327  1.00  0.00    -0.115 A  
HETATM   29  C   UNL     1      -8.651   5.134  70.172  1.00  0.00    -0.116 A  
HETATM   30  C   UNL     1      -8.220   8.046  67.871  1.00  0.00    -0.129 A  
HETATM   31  C   UNL     1      -8.753   6.419  69.609  1.00  0.00    -0.138 A  
BRANCH  27  32
HETATM   32  N   UNL     1      -8.899   3.637  72.091  1.00  0.00    -0.091 N  
HETATM   33  H   UNL     1      -9.504   2.867  71.807  1.00  0.00     0.000 HD 
BRANCH  32  34
HETATM   34  S   UNL     1      -7.708   3.428  73.284  1.00  0.00    -0.066 S  
HETATM   35  C   UNL     1      -6.211   3.556  72.331  1.00  0.00    -0.013 C  
HETATM   36  O   UNL     1      -7.845   2.051  73.710  1.00  0.00    -0.041 OA 
HETATM   37  O   UNL     1      -7.772   4.517  74.228  1.00  0.00    -0.086 OA 
ENDBRANCH  32  34
ENDBRANCH  27  32
ENDBRANCH   6  22
ENDBRANCH   2   3
TORSDOF 6
ENDMDL
MODEL       66
REMARK 921   NORMALIZED FREE ENERGY PREDICTED BY IDOCK:   -3.90 KCAL/MOL
REMARK 922        TOTAL FREE ENERGY PREDICTED BY IDOCK:   -5.51 KCAL/MOL
REMARK 923 INTER-LIGAND FREE ENERGY PREDICTED BY IDOCK:   -6.69 KCAL/MOL
REMARK 924 INTRA-LIGAND FREE ENERGY PREDICTED BY IDOCK:    1.18 KCAL/MOL
REMARK 927      BINDING AFFINITY PREDICTED BY RF-SCORE:    0.00 PKD
ROOT
HETATM    1  C   UNL     1      -6.341  15.440  69.764  1.00  0.00    -0.163 C  
HETATM    2  O   UNL     1      -6.151  15.091  68.388  1.00  0.00    -0.091 OA 
ENDROOT
BRANCH   2   3
HETATM    3  C   UNL     1      -7.254  14.573  67.747  1.00  0.00    -0.177 A  
HETATM    4  C   UNL     1      -8.130  15.486  67.108  1.00  0.00    -0.249 A  
HETATM    5  C   UNL     1      -9.183  14.926  66.347  1.00  0.00    -0.317 A  
HETATM    6  C   UNL     1      -7.555  13.180  67.802  1.00  0.00    -0.155 A  
HETATM    7  C   UNL     1      -8.642  12.713  67.027  1.00  0.00    -0.181 A  
HETATM    8  C   UNL     1      -9.455  13.553  66.251  1.00  0.00    -0.184 A  
BRANCH   4   9
HETATM    9  C   UNL     1      -8.006  17.038  67.162  1.00  0.00    -0.214 C  
HETATM   10  C   UNL     1      -8.227  17.662  68.560  1.00  0.00    -0.292 C  
HETATM   11  C   UNL     1      -6.607  17.447  66.661  1.00  0.00    -0.264 C  
HETATM   12  C   UNL     1      -9.060  17.744  66.256  1.00  0.00    -0.198 C  
ENDBRANCH   4   9
BRANCH   8  13
HETATM   13  N   UNL     1     -10.541  13.022  65.425  1.00  0.00    -0.286 N  
HETATM   14  C   UNL     1     -10.273  12.243  64.299  1.00  0.00    -0.330 C  
HETATM   15  O   UNL     1     -12.316  14.061  66.620  1.00  0.00    -0.451 OA 
HETATM   16  C   UNL     1     -11.211  11.790  63.466  1.00  0.00    -0.494 C  
HETATM   17  H   UNL     1     -13.809  12.792  65.230  1.00  0.00     0.000 HD 
HETATM   18  C   UNL     1     -12.614  12.091  63.744  1.00  0.00    -0.454 C  
HETATM   19  O   UNL     1     -13.501  11.780  62.961  1.00  0.00    -0.300 OA 
HETATM   20  N   UNL     1     -12.840  12.735  64.920  1.00  0.00    -0.413 N  
HETATM   21  C   UNL     1     -11.896  13.317  65.734  1.00  0.00    -0.387 C  
ENDBRANCH   8  13
BRANCH   6  22
HETATM   22  C   UNL     1      -6.791  12.208  68.646  1.00  0.00    -0.089 A  
HETATM   23  C   UNL     1      -6.731   8.519  69.071  1.00  0.00    -0.052 A  
HETATM   24  C   UNL     1      -6.806  10.833  68.346  1.00  0.00    -0.068 A  
HETATM   25  C   UNL     1      -6.430   7.567  70.038  1.00  0.00    -0.034 A  
HETATM   26  C   UNL     1      -6.418   9.866  69.283  1.00  0.00    -0.048 A  
HETATM   27  C   UNL     1      -5.780   7.948  71.206  1.00  0.00    -0.034 A  
HETATM   28  C   UNL     1      -5.587  11.635  70.703  1.00  0.00    -0.143 A  
HETATM   29  C   UNL     1      -5.426   9.283  71.419  1.00  0.00    -0.059 A  
HETATM   30  C   UNL     1      -6.121  12.590  69.823  1.00  0.00    -0.134 A  
HETATM   31  C   UNL     1      -5.786  10.262  70.476  1.00  0.00    -0.094 A  
BRANCH  27  32
HETATM   32  N   UNL     1      -5.442   6.953  72.164  1.00  0.00    -0.036 N  
HETATM   33  H   UNL     1      -4.470   6.763  72.409  1.00  0.00     0.000 HD 
BRANCH  32  34
HETATM   34  S   UNL     1      -6.717   6.092  72.882  1.00  0.00    -0.071 S  
HETATM   35  C   UNL     1      -8.035   7.287  72.836  1.00  0.00    -0.101 C  
HETATM   36  O   UNL     1      -6.321   5.924  74.264  1.00  0.00    -0.067 OA 
HETATM   37  O   UNL     1      -7.064   4.961  72.056  1.00  0.00    -0.062 OA 
ENDBRANCH  32  34
ENDBRANCH  27  32
ENDBRANCH   6  22
ENDBRANCH   2   3
TORSDOF 6
ENDMDL
MODEL       67
REMARK 921   NORMALIZED FREE ENERGY PREDICTED BY IDOCK:   -3.86 KCAL/MOL
REMARK 922        TOTAL FREE ENERGY PREDICTED BY IDOCK:   -5.46 KCAL/MOL
REMARK 923 INTER-LIGAND FREE ENERGY PREDICTED BY IDOCK:   -5.67 KCAL/MOL
REMARK 924 INTRA-LIGAND FREE ENERGY PREDICTED BY IDOCK:    0.20 KCAL/MOL
REMARK 927      BINDING AFFINITY PREDICTED BY RF-SCORE:    0.00 PKD
ROOT
HETATM    1  C   UNL     1      -8.189   7.876  71.559  1.00  0.00    -0.109 C  
HETATM    2  O   UNL     1      -9.366   7.354  70.931  1.00  0.00    -0.155 OA 
ENDROOT
BRANCH   2   3
HETATM    3  C   UNL     1      -9.159   6.642  69.772  1.00  0.00    -0.143 A  
HETATM    4  C   UNL     1      -9.129   5.228  69.866  1.00  0.00    -0.165 A  
HETATM    5  C   UNL     1      -9.045   4.514  68.648  1.00  0.00    -0.164 A  
HETATM    6  C   UNL     1      -8.889   7.303  68.537  1.00  0.00    -0.129 A  
HETATM    7  C   UNL     1      -8.797   6.505  67.373  1.00  0.00    -0.115 A  
HETATM    8  C   UNL     1      -8.912   5.106  67.384  1.00  0.00    -0.109 A  
BRANCH   4   9
HETATM    9  C   UNL     1      -9.207   4.415  71.193  1.00  0.00    -0.199 C  
HETATM   10  C   UNL     1      -9.567   2.920  71.021  1.00  0.00    -0.219 C  
HETATM   11  C   UNL     1      -7.851   4.509  71.920  1.00  0.00    -0.097 C  
HETATM   12  C   UNL     1     -10.302   4.965  72.156  1.00  0.00    -0.263 C  
ENDBRANCH   4   9
BRANCH   8  13
HETATM   13  N   UNL     1      -8.858   4.322  66.149  1.00  0.00    -0.114 N  
HETATM   14  C   UNL     1      -9.962   4.241  65.298  1.00  0.00    -0.219 C  
HETATM   15  O   UNL     1      -6.662   3.467  66.473  1.00  0.00    -0.049 OA 
HETATM   16  C   UNL     1     -10.002   3.488  64.198  1.00  0.00    -0.188 C  
HETATM   17  H   UNL     1      -6.843   2.547  64.261  1.00  0.00     0.000 HD 
HETATM   18  C   UNL     1      -8.820   2.713  63.825  1.00  0.00    -0.086 C  
HETATM   19  O   UNL     1      -8.840   1.935  62.880  1.00  0.00    -0.079 OA 
HETATM   20  N   UNL     1      -7.726   2.924  64.603  1.00  0.00    -0.076 N  
HETATM   21  C   UNL     1      -7.687   3.595  65.804  1.00  0.00    -0.085 C  
ENDBRANCH   8  13
BRANCH   6  22
HETATM   22  C   UNL     1      -8.687   8.782  68.424  1.00  0.00    -0.135 A  
HETATM   23  C   UNL     1     -10.888  11.751  68.054  1.00  0.00    -0.256 A  
HETATM   24  C   UNL     1      -9.769   9.666  68.592  1.00  0.00    -0.162 A  
HETATM   25  C   UNL     1     -10.852  13.040  67.533  1.00  0.00    -0.264 A  
HETATM   26  C   UNL     1      -9.713  10.997  68.153  1.00  0.00    -0.180 A  
HETATM   27  C   UNL     1      -9.638  13.596  67.146  1.00  0.00    -0.241 A  
HETATM   28  C   UNL     1      -7.348  10.720  67.747  1.00  0.00    -0.093 A  
HETATM   29  C   UNL     1      -8.451  12.871  67.272  1.00  0.00    -0.197 A  
HETATM   30  C   UNL     1      -7.459   9.352  68.044  1.00  0.00    -0.080 A  
HETATM   31  C   UNL     1      -8.487  11.544  67.735  1.00  0.00    -0.137 A  
BRANCH  27  32
HETATM   32  N   UNL     1      -9.617  14.932  66.656  1.00  0.00    -0.252 N  
HETATM   33  H   UNL     1     -10.344  15.277  66.028  1.00  0.00     0.000 HD 
BRANCH  32  34
HETATM   34  S   UNL     1      -8.337  15.929  67.155  1.00  0.00    -0.223 S  
HETATM   35  C   UNL     1      -8.695  16.143  68.885  1.00  0.00    -0.248 C  
HETATM   36  O   UNL     1      -8.571  17.195  66.494  1.00  0.00    -0.235 OA 
HETATM   37  O   UNL     1      -7.087  15.223  67.007  1.00  0.00    -0.203 OA 
ENDBRANCH  32  34
ENDBRANCH  27  32
ENDBRANCH   6  22
ENDBRANCH   2   3
TORSDOF 6
ENDMDL
MODEL       68
REMARK 921   NORMALIZED FREE ENERGY PREDICTED BY IDOCK:   -3.79 KCAL/MOL
REMARK 922        TOTAL FREE ENERGY PREDICTED BY IDOCK:   -5.36 KCAL/MOL
REMARK 923 INTER-LIGAND FREE ENERGY PREDICTED BY IDOCK:   -5.85 KCAL/MOL
REMARK 924 INTRA-LIGAND FREE ENERGY PREDICTED BY IDOCK:    0.49 KCAL/MOL
REMARK 927      BINDING AFFINITY PREDICTED BY RF-SCORE:    0.00 PKD
ROOT
HETATM    1  C   UNL     1      -8.811  12.463  65.684  1.00  0.00     0.534 C  
HETATM    2  O   UNL     1      -7.956  11.479  66.277  1.00  0.00    -0.103 OA 
ENDROOT
BRANCH   2   3
HETATM    3  C   UNL     1      -8.543  10.672  67.225  1.00  0.00    -0.126 A  
HETATM    4  C   UNL     1      -8.788   9.320  66.875  1.00  0.00    -0.141 A  
HETATM    5  C   UNL     1      -9.271   8.478  67.904  1.00  0.00    -0.148 A  
HETATM    6  C   UNL     1      -8.976  11.197  68.478  1.00  0.00    -0.168 A  
HETATM    7  C   UNL     1      -9.468  10.282  69.438  1.00  0.00    -0.225 A  
HETATM    8  C   UNL     1      -9.591   8.904  69.200  1.00  0.00    -0.162 A  
BRANCH   4   9
HETATM    9  C   UNL     1      -8.544   8.698  65.468  1.00  0.00    -0.200 C  
HETATM   10  C   UNL     1      -9.182   9.476  64.292  1.00  0.00    -0.166 C  
HETATM   11  C   UNL     1      -7.027   8.597  65.220  1.00  0.00    -0.075 C  
HETATM   12  C   UNL     1      -9.142   7.264  65.347  1.00  0.00     0.271 C  
ENDBRANCH   4   9
BRANCH   8  13
HETATM   13  N   UNL     1     -10.061   7.986  70.239  1.00  0.00    -0.191 N  
HETATM   14  C   UNL     1      -9.677   8.147  71.571  1.00  0.00    -0.176 C  
HETATM   15  O   UNL     1     -11.251   6.527  68.785  1.00  0.00    -0.293 OA 
HETATM   16  C   UNL     1     -10.009   7.306  72.550  1.00  0.00    -0.213 C  
HETATM   17  H   UNL     1     -12.045   5.425  70.766  1.00  0.00     0.000 HD 
HETATM   18  C   UNL     1     -10.851   6.152  72.240  1.00  0.00    -0.244 C  
HETATM   19  O   UNL     1     -11.104   5.301  73.082  1.00  0.00    -0.282 OA 
HETATM   20  N   UNL     1     -11.313   6.106  70.962  1.00  0.00    -0.303 N  
HETATM   21  C   UNL     1     -10.894   6.884  69.907  1.00  0.00    -0.257 C  
ENDBRANCH   8  13
BRANCH   6  22
HETATM   22  C   UNL     1      -8.946  12.657  68.811  1.00  0.00     0.170 A  
HETATM   23  C   UNL     1     -11.278  15.523  68.440  1.00  0.00    -0.341 A  
HETATM   24  C   UNL     1     -10.130  13.416  68.804  1.00  0.00    -0.094 A  
HETATM   25  C   UNL     1     -11.245  16.906  68.298  1.00  0.00    -0.105 A  
HETATM   26  C   UNL     1     -10.111  14.817  68.754  1.00  0.00    -0.237 A  
HETATM   27  C   UNL     1     -10.057  17.595  68.507  1.00  0.00    -0.375 A  
HETATM   28  C   UNL     1      -7.727  14.757  69.140  1.00  0.00    -0.144 A  
HETATM   29  C   UNL     1      -8.890  16.911  68.857  1.00  0.00    -0.216 A  
HETATM   30  C   UNL     1      -7.747  13.358  69.034  1.00  0.00     0.146 A  
HETATM   31  C   UNL     1      -8.899  15.507  68.937  1.00  0.00    -0.217 A  
BRANCH  27  32
HETATM   32  N   UNL     1     -10.054  19.013  68.400  1.00  0.00    -0.389 N  
HETATM   33  H   UNL     1     -10.328  19.604  69.186  1.00  0.00     0.000 HD 
BRANCH  32  34
HETATM   34  S   UNL     1      -9.579  19.686  66.915  1.00  0.00    -0.388 S  
HETATM   35  C   UNL     1      -8.348  18.524  66.366  1.00  0.00    -0.259 C  
HETATM   36  O   UNL     1      -8.901  20.917  67.264  1.00  0.00    -0.249 OA 
HETATM   37  O   UNL     1     -10.694  19.675  65.999  1.00  0.00    -0.479 OA 
ENDBRANCH  32  34
ENDBRANCH  27  32
ENDBRANCH   6  22
ENDBRANCH   2   3
TORSDOF 6
ENDMDL
MODEL       69
REMARK 921   NORMALIZED FREE ENERGY PREDICTED BY IDOCK:   -3.69 KCAL/MOL
REMARK 922        TOTAL FREE ENERGY PREDICTED BY IDOCK:   -5.22 KCAL/MOL
REMARK 923 INTER-LIGAND FREE ENERGY PREDICTED BY IDOCK:   -5.01 KCAL/MOL
REMARK 924 INTRA-LIGAND FREE ENERGY PREDICTED BY IDOCK:   -0.21 KCAL/MOL
REMARK 927      BINDING AFFINITY PREDICTED BY RF-SCORE:    0.00 PKD
ROOT
HETATM    1  C   UNL     1     -12.220  11.911  67.954  1.00  0.00     0.366 C  
HETATM    2  O   UNL     1     -11.827  11.936  69.331  1.00  0.00    -0.301 OA 
ENDROOT
BRANCH   2   3
HETATM    3  C   UNL     1     -10.816  11.069  69.678  1.00  0.00    -0.183 A  
HETATM    4  C   UNL     1     -11.108  10.074  70.645  1.00  0.00    -0.408 A  
HETATM    5  C   UNL     1     -10.098   9.115  70.891  1.00  0.00    -0.356 A  
HETATM    6  C   UNL     1      -9.498  11.222  69.156  1.00  0.00     0.064 A  
HETATM    7  C   UNL     1      -8.545  10.227  69.475  1.00  0.00    -0.153 A  
HETATM    8  C   UNL     1      -8.823   9.132  70.309  1.00  0.00    -0.213 A  
BRANCH   4   9
HETATM    9  C   UNL     1     -12.450   9.948  71.427  1.00  0.00    -0.495 C  
HETATM   10  C   UNL     1     -12.983  11.272  72.024  1.00  0.00    -0.379 C  
HETATM   11  C   UNL     1     -13.526   9.369  70.487  1.00  0.00     0.408 C  
HETATM   12  C   UNL     1     -12.327   8.995  72.654  1.00  0.00    -0.150 C  
ENDBRANCH   4   9
BRANCH   8  13
HETATM   13  N   UNL     1      -7.821   8.097  70.574  1.00  0.00    -0.084 N  
HETATM   14  C   UNL     1      -7.960   6.810  70.054  1.00  0.00    -0.116 C  
HETATM   15  O   UNL     1      -6.462   9.409  72.021  1.00  0.00    -0.293 OA 
HETATM   16  C   UNL     1      -7.124   5.805  70.318  1.00  0.00    -0.070 C  
HETATM   17  H   UNL     1      -4.907   7.579  71.993  1.00  0.00     0.000 HD 
HETATM   18  C   UNL     1      -5.968   6.050  71.178  1.00  0.00    -0.030 C  
HETATM   19  O   UNL     1      -5.227   5.141  71.526  1.00  0.00    -0.004 OA 
HETATM   20  N   UNL     1      -5.796   7.345  71.553  1.00  0.00    -0.036 N  
HETATM   21  C   UNL     1      -6.699   8.373  71.400  1.00  0.00    -0.063 C  
ENDBRANCH   8  13
BRANCH   6  22
HETATM   22  C   UNL     1      -9.081  12.385  68.308  1.00  0.00    -0.183 A  
HETATM   23  C   UNL     1      -8.161  15.931  68.916  1.00  0.00    -0.214 A  
HETATM   24  C   UNL     1      -8.513  13.530  68.896  1.00  0.00     0.194 A  
HETATM   25  C   UNL     1      -8.178  17.158  68.264  1.00  0.00    -0.230 A  
HETATM   26  C   UNL     1      -8.441  14.753  68.214  1.00  0.00    -0.151 A  
HETATM   27  C   UNL     1      -8.437  17.213  66.899  1.00  0.00    -0.222 A  
HETATM   28  C   UNL     1      -9.117  13.619  66.192  1.00  0.00     0.097 A  
HETATM   29  C   UNL     1      -8.682  16.044  66.175  1.00  0.00    -0.348 A  
HETATM   30  C   UNL     1      -9.329  12.441  66.925  1.00  0.00    -0.213 A  
HETATM   31  C   UNL     1      -8.732  14.806  66.839  1.00  0.00    -0.264 A  
BRANCH  27  32
HETATM   32  N   UNL     1      -8.407  18.474  66.242  1.00  0.00    -0.252 N  
HETATM   33  H   UNL     1      -9.206  18.809  65.704  1.00  0.00     0.000 HD 
BRANCH  32  34
HETATM   34  S   UNL     1      -6.990  19.400  66.386  1.00  0.00    -0.229 S  
HETATM   35  C   UNL     1      -6.970  20.278  64.839  1.00  0.00    -0.094 C  
HETATM   36  O   UNL     1      -5.911  18.435  66.361  1.00  0.00    -0.148 OA 
HETATM   37  O   UNL     1      -7.135  20.340  67.471  1.00  0.00    -0.259 OA 
ENDBRANCH  32  34
ENDBRANCH  27  32
ENDBRANCH   6  22
ENDBRANCH   2   3
TORSDOF 6
ENDMDL
MODEL       70
REMARK 921   NORMALIZED FREE ENERGY PREDICTED BY IDOCK:   -3.25 KCAL/MOL
REMARK 922        TOTAL FREE ENERGY PREDICTED BY IDOCK:   -4.63 KCAL/MOL
REMARK 923 INTER-LIGAND FREE ENERGY PREDICTED BY IDOCK:   -5.88 KCAL/MOL
REMARK 924 INTRA-LIGAND FREE ENERGY PREDICTED BY IDOCK:    1.24 KCAL/MOL
REMARK 927      BINDING AFFINITY PREDICTED BY RF-SCORE:    0.00 PKD
ROOT
HETATM    1  C   UNL     1      -8.140   9.165  64.740  1.00  0.00    -0.140 C  
HETATM    2  O   UNL     1      -9.192   8.380  65.314  1.00  0.00    -0.021 OA 
ENDROOT
BRANCH   2   3
HETATM    3  C   UNL     1      -9.028   8.040  66.638  1.00  0.00    -0.150 A  
HETATM    4  C   UNL     1      -8.540   6.740  66.926  1.00  0.00    -0.116 A  
HETATM    5  C   UNL     1      -8.257   6.456  68.282  1.00  0.00    -0.116 A  
HETATM    6  C   UNL     1      -9.422   8.926  67.683  1.00  0.00    -0.164 A  
HETATM    7  C   UNL     1      -9.120   8.547  69.012  1.00  0.00    -0.146 A  
HETATM    8  C   UNL     1      -8.497   7.335  69.348  1.00  0.00    -0.133 A  
BRANCH   4   9
HETATM    9  C   UNL     1      -8.275   5.626  65.869  1.00  0.00    -0.119 C  
HETATM   10  C   UNL     1      -9.546   4.989  65.259  1.00  0.00    -0.024 C  
HETATM   11  C   UNL     1      -7.426   6.212  64.724  1.00  0.00    -0.084 C  
HETATM   12  C   UNL     1      -7.492   4.420  66.471  1.00  0.00    -0.082 C  
ENDBRANCH   4   9
BRANCH   8  13
HETATM   13  N   UNL     1      -8.158   7.005  70.733  1.00  0.00    -0.112 N  
HETATM   14  C   UNL     1      -7.111   6.131  71.030  1.00  0.00    -0.070 C  
HETATM   15  O   UNL     1      -9.921   8.244  71.740  1.00  0.00    -0.181 OA 
HETATM   16  C   UNL     1      -6.799   5.733  72.264  1.00  0.00    -0.073 C  
HETATM   17  H   UNL     1      -8.902   7.714  73.850  1.00  0.00     0.000 HD 
HETATM   18  C   UNL     1      -7.567   6.254  73.393  1.00  0.00    -0.095 C  
HETATM   19  O   UNL     1      -7.381   5.847  74.532  1.00  0.00    -0.091 OA 
HETATM   20  N   UNL     1      -8.486   7.202  73.074  1.00  0.00    -0.118 N  
HETATM   21  C   UNL     1      -8.912   7.543  71.810  1.00  0.00    -0.122 C  
ENDBRANCH   8  13
BRANCH   6  22
HETATM   22  C   UNL     1     -10.147  10.213  67.439  1.00  0.00    -0.251 A  
HETATM   23  C   UNL     1      -9.814  13.048  65.063  1.00  0.00    -0.059 A  
HETATM   24  C   UNL     1      -9.940  10.935  66.249  1.00  0.00    -0.274 A  
HETATM   25  C   UNL     1     -10.094  14.408  64.988  1.00  0.00    -0.322 A  
HETATM   26  C   UNL     1     -10.303  12.284  66.129  1.00  0.00    -0.269 A  
HETATM   27  C   UNL     1     -10.897  15.003  65.954  1.00  0.00    -0.337 A  
HETATM   28  C   UNL     1     -11.471  12.115  68.236  1.00  0.00    -0.360 A  
HETATM   29  C   UNL     1     -11.424  14.248  67.005  1.00  0.00    -0.377 A  
HETATM   30  C   UNL     1     -10.969  10.815  68.408  1.00  0.00    -0.299 A  
HETATM   31  C   UNL     1     -11.091  12.887  67.125  1.00  0.00    -0.309 A  
BRANCH  27  32
HETATM   32  N   UNL     1     -11.208  16.386  65.835  1.00  0.00     0.162 N  
HETATM   33  H   UNL     1     -11.857  16.724  65.124  1.00  0.00     0.000 HD 
BRANCH  32  34
HETATM   34  S   UNL     1     -10.458  17.454  66.922  1.00  0.00    -0.234 S  
HETATM   35  C   UNL     1     -10.482  18.981  66.008  1.00  0.00    -0.458 C  
HETATM   36  O   UNL     1      -9.084  17.005  66.998  1.00  0.00    -0.211 OA 
HETATM   37  O   UNL     1     -11.272  17.590  68.106  1.00  0.00    -0.121 OA 
ENDBRANCH  32  34
ENDBRANCH  27  32
ENDBRANCH   6  22
ENDBRANCH   2   3
TORSDOF 6
ENDMDL
MODEL       71
REMARK 921   NORMALIZED FREE ENERGY PREDICTED BY IDOCK:   -3.07 KCAL/MOL
REMARK 922        TOTAL FREE ENERGY PREDICTED BY IDOCK:   -4.39 KCAL/MOL
REMARK 923 INTER-LIGAND FREE ENERGY PREDICTED BY IDOCK:   -5.01 KCAL/MOL
REMARK 924 INTRA-LIGAND FREE ENERGY PREDICTED BY IDOCK:    0.62 KCAL/MOL
REMARK 927      BINDING AFFINITY PREDICTED BY RF-SCORE:    0.00 PKD
ROOT
HETATM    1  C   UNL     1      -8.663   8.319  71.505  1.00  0.00    -0.163 C  
HETATM    2  O   UNL     1      -9.659   7.372  71.101  1.00  0.00    -0.160 OA 
ENDROOT
BRANCH   2   3
HETATM    3  C   UNL     1      -9.334   6.593  70.014  1.00  0.00    -0.158 A  
HETATM    4  C   UNL     1      -8.831   5.291  70.267  1.00  0.00    -0.145 A  
HETATM    5  C   UNL     1      -8.627   4.462  69.140  1.00  0.00    -0.106 A  
HETATM    6  C   UNL     1      -9.412   7.106  68.686  1.00  0.00    -0.140 A  
HETATM    7  C   UNL     1      -9.167   6.209  67.621  1.00  0.00    -0.107 A  
HETATM    8  C   UNL     1      -8.813   4.864  67.809  1.00  0.00    -0.104 A  
BRANCH   4   9
HETATM    9  C   UNL     1      -8.514   4.709  71.677  1.00  0.00    -0.117 C  
HETATM   10  C   UNL     1      -7.532   5.552  72.525  1.00  0.00    -0.097 C  
HETATM   11  C   UNL     1      -9.830   4.557  72.464  1.00  0.00    -0.212 C  
HETATM   12  C   UNL     1      -7.844   3.305  71.596  1.00  0.00    -0.057 C  
ENDBRANCH   4   9
BRANCH   8  13
HETATM   13  N   UNL     1      -8.616   3.956  66.678  1.00  0.00    -0.108 N  
HETATM   14  C   UNL     1      -8.102   4.418  65.465  1.00  0.00    -0.105 C  
HETATM   15  O   UNL     1      -9.534   2.026  67.722  1.00  0.00    -0.174 OA 
HETATM   16  C   UNL     1      -7.967   3.660  64.376  1.00  0.00    -0.086 C  
HETATM   17  H   UNL     1      -8.806   0.802  65.788  1.00  0.00     0.000 HD 
HETATM   18  C   UNL     1      -8.348   2.251  64.439  1.00  0.00    -0.083 C  
HETATM   19  O   UNL     1      -8.332   1.540  63.443  1.00  0.00    -0.064 OA 
HETATM   20  N   UNL     1      -8.716   1.811  65.671  1.00  0.00    -0.111 N  
HETATM   21  C   UNL     1      -8.979   2.586  66.778  1.00  0.00    -0.131 C  
ENDBRANCH   8  13
BRANCH   6  22
HETATM   22  C   UNL     1      -9.721   8.538  68.377  1.00  0.00    -0.169 A  
HETATM   23  C   UNL     1      -7.758  11.670  68.013  1.00  0.00    -0.121 A  
HETATM   24  C   UNL     1      -8.694   9.431  68.021  1.00  0.00    -0.124 A  
HETATM   25  C   UNL     1      -7.917  13.044  68.156  1.00  0.00    -0.154 A  
HETATM   26  C   UNL     1      -8.869  10.821  68.072  1.00  0.00    -0.132 A  
HETATM   27  C   UNL     1      -9.188  13.581  68.319  1.00  0.00    -0.195 A  
HETATM   28  C   UNL     1     -11.231  10.467  68.431  1.00  0.00    -0.339 A  
HETATM   29  C   UNL     1     -10.312  12.751  68.343  1.00  0.00    -0.248 A  
HETATM   30  C   UNL     1     -11.008   9.085  68.529  1.00  0.00     0.036 A  
HETATM   31  C   UNL     1     -10.155  11.356  68.266  1.00  0.00    -0.204 A  
BRANCH  27  32
HETATM   32  N   UNL     1      -9.333  14.992  68.420  1.00  0.00    -0.188 N  
HETATM   33  H   UNL     1      -9.912  15.414  69.145  1.00  0.00     0.000 HD 
BRANCH  32  34
HETATM   34  S   UNL     1      -8.505  15.948  67.285  1.00  0.00    -0.199 S  
HETATM   35  C   UNL     1      -9.224  15.400  65.753  1.00  0.00    -0.137 C  
HETATM   36  O   UNL     1      -7.138  15.474  67.327  1.00  0.00    -0.195 OA 
HETATM   37  O   UNL     1      -8.826  17.339  67.498  1.00  0.00    -0.215 OA 
ENDBRANCH  32  34
ENDBRANCH  27  32
ENDBRANCH   6  22
ENDBRANCH   2   3
TORSDOF 6
ENDMDL
MODEL       72
REMARK 921   NORMALIZED FREE ENERGY PREDICTED BY IDOCK:   -2.97 KCAL/MOL
REMARK 922        TOTAL FREE ENERGY PREDICTED BY IDOCK:   -4.26 KCAL/MOL
REMARK 923 INTER-LIGAND FREE ENERGY PREDICTED BY IDOCK:   -4.09 KCAL/MOL
REMARK 924 INTRA-LIGAND FREE ENERGY PREDICTED BY IDOCK:   -0.17 KCAL/MOL
REMARK 927      BINDING AFFINITY PREDICTED BY RF-SCORE:    0.00 PKD
ROOT
HETATM    1  C   UNL     1      -7.459  11.449  65.817  1.00  0.00     0.400 C  
HETATM    2  O   UNL     1      -7.279  11.369  67.236  1.00  0.00    -0.103 OA 
ENDROOT
BRANCH   2   3
HETATM    3  C   UNL     1      -8.279  11.932  67.997  1.00  0.00    -0.157 A  
HETATM    4  C   UNL     1      -8.065  13.242  68.497  1.00  0.00    -0.094 A  
HETATM    5  C   UNL     1      -9.153  13.850  69.164  1.00  0.00     0.350 A  
HETATM    6  C   UNL     1      -9.446  11.192  68.348  1.00  0.00    -0.189 A  
HETATM    7  C   UNL     1     -10.474  11.877  69.038  1.00  0.00    -0.103 A  
HETATM    8  C   UNL     1     -10.380  13.223  69.426  1.00  0.00     0.418 A  
BRANCH   4   9
HETATM    9  C   UNL     1      -6.746  14.056  68.345  1.00  0.00    -0.099 C  
HETATM   10  C   UNL     1      -5.463  13.201  68.207  1.00  0.00    -0.089 C  
HETATM   11  C   UNL     1      -6.858  14.969  67.108  1.00  0.00     0.142 C  
HETATM   12  C   UNL     1      -6.470  14.964  69.581  1.00  0.00    -0.154 C  
ENDBRANCH   4   9
BRANCH   8  13
HETATM   13  N   UNL     1     -11.487  13.906  70.096  1.00  0.00    -0.162 N  
HETATM   14  C   UNL     1     -11.581  15.299  70.094  1.00  0.00    -0.299 C  
HETATM   15  O   UNL     1     -12.506  11.951  70.989  1.00  0.00    -0.369 OA 
HETATM   16  C   UNL     1     -12.522  15.984  70.745  1.00  0.00    -0.129 C  
HETATM   17  H   UNL     1     -14.300  13.379  71.705  1.00  0.00     0.000 HD 
HETATM   18  C   UNL     1     -13.546  15.253  71.489  1.00  0.00    -0.504 C  
HETATM   19  O   UNL     1     -14.371  15.836  72.179  1.00  0.00    -0.462 OA 
HETATM   20  N   UNL     1     -13.498  13.902  71.355  1.00  0.00    -0.295 N  
HETATM   21  C   UNL     1     -12.478  13.166  70.795  1.00  0.00    -0.308 C  
ENDBRANCH   8  13
BRANCH   6  22
HETATM   22  C   UNL     1      -9.621   9.738  68.037  1.00  0.00    -0.160 A  
HETATM   23  C   UNL     1      -8.171   6.553  69.281  1.00  0.00    -0.123 A  
HETATM   24  C   UNL     1      -9.123   8.754  68.911  1.00  0.00    -0.141 A  
HETATM   25  C   UNL     1      -7.913   5.261  68.838  1.00  0.00    -0.086 A  
HETATM   26  C   UNL     1      -8.943   7.425  68.505  1.00  0.00    -0.128 A  
HETATM   27  C   UNL     1      -8.456   4.819  67.638  1.00  0.00    -0.104 A  
HETATM   28  C   UNL     1     -10.147   7.927  66.472  1.00  0.00    -0.246 A  
HETATM   29  C   UNL     1      -9.260   5.663  66.868  1.00  0.00    -0.120 A  
HETATM   30  C   UNL     1     -10.181   9.284  66.829  1.00  0.00    -0.325 A  
HETATM   31  C   UNL     1      -9.471   6.992  67.275  1.00  0.00    -0.165 A  
BRANCH  27  32
HETATM   32  N   UNL     1      -8.216   3.479  67.225  1.00  0.00    -0.090 N  
HETATM   33  H   UNL     1      -8.749   2.701  67.615  1.00  0.00     0.000 HD 
BRANCH  32  34
HETATM   34  S   UNL     1      -7.010   3.224  66.057  1.00  0.00    -0.058 S  
HETATM   35  C   UNL     1      -7.932   3.365  64.542  1.00  0.00    -0.086 C  
HETATM   36  O   UNL     1      -6.626   1.837  66.215  1.00  0.00    -0.026 OA 
HETATM   37  O   UNL     1      -6.035   4.287  66.127  1.00  0.00    -0.025 OA 
ENDBRANCH  32  34
ENDBRANCH  27  32
ENDBRANCH   6  22
ENDBRANCH   2   3
TORSDOF 6
ENDMDL
MODEL       73
REMARK 921   NORMALIZED FREE ENERGY PREDICTED BY IDOCK:   -2.93 KCAL/MOL
REMARK 922        TOTAL FREE ENERGY PREDICTED BY IDOCK:   -4.20 KCAL/MOL
REMARK 923 INTER-LIGAND FREE ENERGY PREDICTED BY IDOCK:   -4.51 KCAL/MOL
REMARK 924 INTRA-LIGAND FREE ENERGY PREDICTED BY IDOCK:    0.31 KCAL/MOL
REMARK 927      BINDING AFFINITY PREDICTED BY RF-SCORE:    0.00 PKD
ROOT
HETATM    1  C   UNL     1     -11.282  10.118  68.086  1.00  0.00    -0.180 C  
HETATM    2  O   UNL     1     -11.026  10.551  69.428  1.00  0.00    -0.216 OA 
ENDROOT
BRANCH   2   3
HETATM    3  C   UNL     1     -10.222   9.724  70.178  1.00  0.00    -0.275 A  
HETATM    4  C   UNL     1     -10.855   8.857  71.104  1.00  0.00    -0.352 A  
HETATM    5  C   UNL     1     -10.024   7.926  71.770  1.00  0.00    -0.228 A  
HETATM    6  C   UNL     1      -8.800   9.801  70.096  1.00  0.00    -0.226 A  
HETATM    7  C   UNL     1      -8.049   8.843  70.816  1.00  0.00    -0.179 A  
HETATM    8  C   UNL     1      -8.630   7.861  71.633  1.00  0.00    -0.120 A  
BRANCH   4   9
HETATM    9  C   UNL     1     -12.381   8.839  71.420  1.00  0.00    -0.353 C  
HETATM   10  C   UNL     1     -13.204   9.945  70.719  1.00  0.00    -0.231 C  
HETATM   11  C   UNL     1     -12.961   7.469  71.015  1.00  0.00    -0.160 C  
HETATM   12  C   UNL     1     -12.670   9.048  72.937  1.00  0.00     0.138 C  
ENDBRANCH   4   9
BRANCH   8  13
HETATM   13  N   UNL     1      -7.816   6.858  72.322  1.00  0.00    -0.093 N  
HETATM   14  C   UNL     1      -7.722   5.551  71.841  1.00  0.00    -0.104 C  
HETATM   15  O   UNL     1      -7.173   8.245  74.145  1.00  0.00    -0.152 OA 
HETATM   16  C   UNL     1      -7.059   4.574  72.461  1.00  0.00    -0.074 C  
HETATM   17  H   UNL     1      -5.728   6.450  74.822  1.00  0.00     0.000 HD 
HETATM   18  C   UNL     1      -6.355   4.873  73.707  1.00  0.00    -0.060 C  
HETATM   19  O   UNL     1      -5.814   3.991  74.360  1.00  0.00    -0.011 OA 
HETATM   20  N   UNL     1      -6.360   6.183  74.068  1.00  0.00    -0.069 N  
HETATM   21  C   UNL     1      -7.129   7.185  73.522  1.00  0.00    -0.072 C  
ENDBRANCH   8  13
BRANCH   6  22
HETATM   22  C   UNL     1      -8.080  10.847  69.304  1.00  0.00    -0.062 A  
HETATM   23  C   UNL     1      -6.293  14.011  70.072  1.00  0.00    -0.118 A  
HETATM   24  C   UNL     1      -7.250  11.785  69.946  1.00  0.00     0.606 A  
HETATM   25  C   UNL     1      -5.980  15.225  69.472  1.00  0.00    -0.116 A  
HETATM   26  C   UNL     1      -6.850  12.973  69.317  1.00  0.00    -0.019 A  
HETATM   27  C   UNL     1      -6.184  15.396  68.108  1.00  0.00    -0.127 A  
HETATM   28  C   UNL     1      -7.749  12.128  67.241  1.00  0.00    -0.168 A  
HETATM   29  C   UNL     1      -6.706  14.358  67.331  1.00  0.00    -0.002 A  
HETATM   30  C   UNL     1      -8.274  11.018  67.921  1.00  0.00    -0.119 A  
HETATM   31  C   UNL     1      -7.087  13.150  67.942  1.00  0.00    -0.129 A  
BRANCH  27  32
HETATM   32  N   UNL     1      -5.816  16.631  67.504  1.00  0.00    -0.140 N  
HETATM   33  H   UNL     1      -4.839  16.864  67.329  1.00  0.00     0.000 HD 
BRANCH  32  34
HETATM   34  S   UNL     1      -7.067  17.703  67.088  1.00  0.00    -0.181 S  
HETATM   35  C   UNL     1      -6.402  19.263  67.626  1.00  0.00    -0.207 C  
HETATM   36  O   UNL     1      -8.161  17.359  67.972  1.00  0.00    -0.214 OA 
HETATM   37  O   UNL     1      -7.233  17.719  65.655  1.00  0.00    -0.494 OA 
ENDBRANCH  32  34
ENDBRANCH  27  32
ENDBRANCH   6  22
ENDBRANCH   2   3
TORSDOF 6
ENDMDL
MODEL       74
REMARK 921   NORMALIZED FREE ENERGY PREDICTED BY IDOCK:   -2.88 KCAL/MOL
REMARK 922        TOTAL FREE ENERGY PREDICTED BY IDOCK:   -4.14 KCAL/MOL
REMARK 923 INTER-LIGAND FREE ENERGY PREDICTED BY IDOCK:   -4.55 KCAL/MOL
REMARK 924 INTRA-LIGAND FREE ENERGY PREDICTED BY IDOCK:    0.41 KCAL/MOL
REMARK 927      BINDING AFFINITY PREDICTED BY RF-SCORE:    0.00 PKD
ROOT
HETATM    1  C   UNL     1      -8.326  12.901  66.433  1.00  0.00     0.448 C  
HETATM    2  O   UNL     1      -7.630  11.649  66.419  1.00  0.00    -0.056 OA 
ENDROOT
BRANCH   2   3
HETATM    3  C   UNL     1      -7.675  10.930  67.592  1.00  0.00    -0.108 A  
HETATM    4  C   UNL     1      -8.214   9.619  67.538  1.00  0.00    -0.114 A  
HETATM    5  C   UNL     1      -8.131   8.852  68.723  1.00  0.00    -0.114 A  
HETATM    6  C   UNL     1      -7.280  11.512  68.832  1.00  0.00    -0.117 A  
HETATM    7  C   UNL     1      -7.251  10.673  69.971  1.00  0.00    -0.043 A  
HETATM    8  C   UNL     1      -7.630   9.322  69.945  1.00  0.00    -0.093 A  
BRANCH   4   9
HETATM    9  C   UNL     1      -8.860   8.965  66.280  1.00  0.00    -0.187 C  
HETATM   10  C   UNL     1      -9.214   7.467  66.433  1.00  0.00    -0.203 C  
HETATM   11  C   UNL     1     -10.145   9.735  65.918  1.00  0.00    -0.314 C  
HETATM   12  C   UNL     1      -7.913   9.011  65.043  1.00  0.00    -0.123 C  
ENDBRANCH   4   9
BRANCH   8  13
HETATM   13  N   UNL     1      -7.539   8.477  71.137  1.00  0.00    -0.086 N  
HETATM   14  C   UNL     1      -6.459   7.614  71.327  1.00  0.00    -0.038 C  
HETATM   15  O   UNL     1      -9.634   9.107  72.070  1.00  0.00    -0.300 OA 
HETATM   16  C   UNL     1      -6.352   6.767  72.351  1.00  0.00    -0.053 C  
HETATM   17  H   UNL     1      -9.005   7.822  74.000  1.00  0.00     0.000 HD 
HETATM   18  C   UNL     1      -7.404   6.744  73.366  1.00  0.00    -0.079 C  
HETATM   19  O   UNL     1      -7.398   5.921  74.271  1.00  0.00    -0.088 OA 
HETATM   20  N   UNL     1      -8.367   7.691  73.216  1.00  0.00    -0.132 N  
HETATM   21  C   UNL     1      -8.569   8.492  72.115  1.00  0.00    -0.173 C  
ENDBRANCH   8  13
BRANCH   6  22
HETATM   22  C   UNL     1      -6.916  12.957  68.982  1.00  0.00    -0.058 A  
HETATM   23  C   UNL     1      -8.763  16.178  69.048  1.00  0.00    -0.254 A  
HETATM   24  C   UNL     1      -7.904  13.918  69.261  1.00  0.00     0.254 A  
HETATM   25  C   UNL     1      -8.562  17.522  68.756  1.00  0.00    -0.209 A  
HETATM   26  C   UNL     1      -7.683  15.288  69.058  1.00  0.00    -0.183 A  
HETATM   27  C   UNL     1      -7.278  17.993  68.513  1.00  0.00    -0.263 A  
HETATM   28  C   UNL     1      -5.343  14.814  68.693  1.00  0.00    -0.095 A  
HETATM   29  C   UNL     1      -6.183  17.126  68.555  1.00  0.00    -0.151 A  
HETATM   30  C   UNL     1      -5.615  13.438  68.747  1.00  0.00    -0.074 A  
HETATM   31  C   UNL     1      -6.385  15.753  68.783  1.00  0.00    -0.109 A  
BRANCH  27  32
HETATM   32  N   UNL     1      -7.088  19.380  68.260  1.00  0.00    -0.273 N  
HETATM   33  H   UNL     1      -6.748  20.009  68.988  1.00  0.00     0.000 HD 
BRANCH  32  34
HETATM   34  S   UNL     1      -7.448  19.948  66.700  1.00  0.00    -0.272 S  
HETATM   35  C   UNL     1      -6.361  18.963  65.693  1.00  0.00    -0.256 C  
HETATM   36  O   UNL     1      -6.958  21.310  66.678  1.00  0.00    -0.286 OA 
HETATM   37  O   UNL     1      -8.819  19.636  66.376  1.00  0.00    -0.348 OA 
ENDBRANCH  32  34
ENDBRANCH  27  32
ENDBRANCH   6  22
ENDBRANCH   2   3
TORSDOF 6
ENDMDL
MODEL       75
REMARK 921   NORMALIZED FREE ENERGY PREDICTED BY IDOCK:   -2.87 KCAL/MOL
REMARK 922        TOTAL FREE ENERGY PREDICTED BY IDOCK:   -4.11 KCAL/MOL
REMARK 923 INTER-LIGAND FREE ENERGY PREDICTED BY IDOCK:   -4.68 KCAL/MOL
REMARK 924 INTRA-LIGAND FREE ENERGY PREDICTED BY IDOCK:    0.56 KCAL/MOL
REMARK 927      BINDING AFFINITY PREDICTED BY RF-SCORE:    0.00 PKD
ROOT
HETATM    1  C   UNL     1      -6.678  13.467  67.048  1.00  0.00     0.650 C  
HETATM    2  O   UNL     1      -7.907  14.120  66.710  1.00  0.00     0.133 OA 
ENDROOT
BRANCH   2   3
HETATM    3  C   UNL     1      -8.767  14.354  67.759  1.00  0.00    -0.180 A  
HETATM    4  C   UNL     1      -8.656  15.596  68.434  1.00  0.00    -0.173 A  
HETATM    5  C   UNL     1      -9.631  15.869  69.421  1.00  0.00    -0.265 A  
HETATM    6  C   UNL     1      -9.671  13.349  68.212  1.00  0.00    -0.226 A  
HETATM    7  C   UNL     1     -10.595  13.706  69.222  1.00  0.00     0.008 A  
HETATM    8  C   UNL     1     -10.633  14.974  69.822  1.00  0.00    -0.215 A  
BRANCH   4   9
HETATM    9  C   UNL     1      -7.569  16.677  68.153  1.00  0.00    -0.171 C  
HETATM   10  C   UNL     1      -7.984  18.126  68.503  1.00  0.00    -0.312 C  
HETATM   11  C   UNL     1      -6.297  16.328  68.950  1.00  0.00    -0.139 C  
HETATM   12  C   UNL     1      -7.182  16.743  66.645  1.00  0.00    -0.289 C  
ENDBRANCH   4   9
BRANCH   8  13
HETATM   13  N   UNL     1     -11.638  15.316  70.830  1.00  0.00    -0.304 N  
HETATM   14  C   UNL     1     -11.368  16.254  71.827  1.00  0.00    -0.056 C  
HETATM   15  O   UNL     1     -13.282  13.757  70.104  1.00  0.00     0.171 OA 
HETATM   16  C   UNL     1     -12.212  16.556  72.815  1.00  0.00    -0.374 C  
HETATM   17  H   UNL     1     -14.754  14.773  71.708  1.00  0.00     0.000 HD 
HETATM   18  C   UNL     1     -13.516  15.898  72.860  1.00  0.00    -0.554 C  
HETATM   19  O   UNL     1     -14.285  16.070  73.797  1.00  0.00     0.456 OA 
HETATM   20  N   UNL     1     -13.791  15.095  71.799  1.00  0.00    -0.456 N  
HETATM   21  C   UNL     1     -12.904  14.672  70.835  1.00  0.00    -0.365 C  
ENDBRANCH   8  13
BRANCH   6  22
HETATM   22  C   UNL     1      -9.674  11.948  67.683  1.00  0.00    -0.186 A  
HETATM   23  C   UNL     1      -7.175   9.221  67.351  1.00  0.00    -0.080 A  
HETATM   24  C   UNL     1      -8.615  11.070  67.979  1.00  0.00    -0.134 A  
HETATM   25  C   UNL     1      -6.912   8.115  66.550  1.00  0.00    -0.068 A  
HETATM   26  C   UNL     1      -8.393   9.902  67.237  1.00  0.00    -0.121 A  
HETATM   27  C   UNL     1      -7.878   7.659  65.661  1.00  0.00    -0.109 A  
HETATM   28  C   UNL     1     -10.525  10.235  66.152  1.00  0.00    -0.200 A  
HETATM   29  C   UNL     1      -9.113   8.304  65.561  1.00  0.00    -0.065 A  
HETATM   30  C   UNL     1     -10.655  11.477  66.792  1.00  0.00    -0.289 A  
HETATM   31  C   UNL     1      -9.362   9.463  66.317  1.00  0.00    -0.253 A  
BRANCH  27  32
HETATM   32  N   UNL     1      -7.606   6.499  64.883  1.00  0.00    -0.090 N  
HETATM   33  H   UNL     1      -7.150   6.568  63.973  1.00  0.00     0.000 HD 
BRANCH  32  34
HETATM   34  S   UNL     1      -8.071   4.998  65.526  1.00  0.00    -0.119 S  
HETATM   35  C   UNL     1      -6.616   4.013  65.241  1.00  0.00    -0.047 C  
HETATM   36  O   UNL     1      -9.110   4.519  64.639  1.00  0.00    -0.149 OA 
HETATM   37  O   UNL     1      -8.294   5.127  66.946  1.00  0.00    -0.108 OA 
ENDBRANCH  32  34
ENDBRANCH  27  32
ENDBRANCH   6  22
ENDBRANCH   2   3
TORSDOF 6
ENDMDL
MODEL       76
REMARK 921   NORMALIZED FREE ENERGY PREDICTED BY IDOCK:   -2.84 KCAL/MOL
REMARK 922        TOTAL FREE ENERGY PREDICTED BY IDOCK:   -4.08 KCAL/MOL
REMARK 923 INTER-LIGAND FREE ENERGY PREDICTED BY IDOCK:   -4.90 KCAL/MOL
REMARK 924 INTRA-LIGAND FREE ENERGY PREDICTED BY IDOCK:    0.82 KCAL/MOL
REMARK 927      BINDING AFFINITY PREDICTED BY RF-SCORE:    0.00 PKD
ROOT
HETATM    1  C   UNL     1      -6.289  12.133  70.579  1.00  0.00     0.428 C  
HETATM    2  O   UNL     1      -6.007  12.597  69.254  1.00  0.00    -0.079 OA 
ENDROOT
BRANCH   2   3
HETATM    3  C   UNL     1      -7.099  12.989  68.514  1.00  0.00    -0.105 A  
HETATM    4  C   UNL     1      -7.258  14.376  68.264  1.00  0.00    -0.122 A  
HETATM    5  C   UNL     1      -8.311  14.746  67.395  1.00  0.00    -0.218 A  
HETATM    6  C   UNL     1      -8.085  12.048  68.094  1.00  0.00    -0.160 A  
HETATM    7  C   UNL     1      -9.116  12.514  67.246  1.00  0.00    -0.189 A  
HETATM    8  C   UNL     1      -9.238  13.852  66.839  1.00  0.00    -0.259 A  
BRANCH   4   9
HETATM    9  C   UNL     1      -6.355  15.504  68.848  1.00  0.00    -0.108 C  
HETATM   10  C   UNL     1      -5.809  15.230  70.270  1.00  0.00    -0.141 C  
HETATM   11  C   UNL     1      -5.160  15.731  67.902  1.00  0.00    -0.137 C  
HETATM   12  C   UNL     1      -7.118  16.856  68.984  1.00  0.00    -0.232 C  
ENDBRANCH   4   9
BRANCH   8  13
HETATM   13  N   UNL     1     -10.294  14.282  65.921  1.00  0.00    -0.301 N  
HETATM   14  C   UNL     1     -10.302  15.570  65.385  1.00  0.00    -0.394 C  
HETATM   15  O   UNL     1     -11.570  12.277  66.027  1.00  0.00    -0.368 OA 
HETATM   16  C   UNL     1     -11.272  16.046  64.603  1.00  0.00    -0.340 C  
HETATM   17  H   UNL     1     -12.938  13.219  64.292  1.00  0.00     0.000 HD 
HETATM   18  C   UNL     1     -12.390  15.174  64.247  1.00  0.00    -0.178 C  
HETATM   19  O   UNL     1     -13.348  15.593  63.612  1.00  0.00     0.318 OA 
HETATM   20  N   UNL     1     -12.275  13.890  64.678  1.00  0.00    -0.418 N  
HETATM   21  C   UNL     1     -11.357  13.403  65.580  1.00  0.00    -0.298 C  
ENDBRANCH   8  13
BRANCH   6  22
HETATM   22  C   UNL     1      -8.083  10.613  68.519  1.00  0.00    -0.125 A  
HETATM   23  C   UNL     1      -6.758   7.427  67.145  1.00  0.00    -0.069 A  
HETATM   24  C   UNL     1      -7.224   9.685  67.902  1.00  0.00    -0.081 A  
HETATM   25  C   UNL     1      -7.026   6.064  67.180  1.00  0.00    -0.069 A  
HETATM   26  C   UNL     1      -7.430   8.302  68.006  1.00  0.00    -0.097 A  
HETATM   27  C   UNL     1      -7.938   5.561  68.101  1.00  0.00    -0.096 A  
HETATM   28  C   UNL     1      -9.110   8.721  69.690  1.00  0.00    -0.149 A  
HETATM   29  C   UNL     1      -8.591   6.416  68.993  1.00  0.00    -0.124 A  
HETATM   30  C   UNL     1      -8.995  10.101  69.459  1.00  0.00    -0.205 A  
HETATM   31  C   UNL     1      -8.375   7.803  68.919  1.00  0.00    -0.128 A  
BRANCH  27  32
HETATM   32  N   UNL     1      -8.166   4.158  68.150  1.00  0.00    -0.091 N  
HETATM   33  H   UNL     1      -7.957   3.617  68.989  1.00  0.00     0.000 HD 
BRANCH  32  34
HETATM   34  S   UNL     1      -8.798   3.418  66.759  1.00  0.00    -0.148 S  
HETATM   35  C   UNL     1      -9.763   4.735  66.052  1.00  0.00    -0.195 C  
HETATM   36  O   UNL     1      -9.716   2.414  67.255  1.00  0.00     0.057 OA 
HETATM   37  O   UNL     1      -7.721   3.075  65.861  1.00  0.00    -0.076 OA 
ENDBRANCH  32  34
ENDBRANCH  27  32
ENDBRANCH   6  22
ENDBRANCH   2   3
TORSDOF 6
ENDMDL
MODEL       77
REMARK 921   NORMALIZED FREE ENERGY PREDICTED BY IDOCK:   -2.77 KCAL/MOL
REMARK 922        TOTAL FREE ENERGY PREDICTED BY IDOCK:   -3.98 KCAL/MOL
REMARK 923 INTER-LIGAND FREE ENERGY PREDICTED BY IDOCK:   -4.88 KCAL/MOL
REMARK 924 INTRA-LIGAND FREE ENERGY PREDICTED BY IDOCK:    0.90 KCAL/MOL
REMARK 927      BINDING AFFINITY PREDICTED BY RF-SCORE:    0.00 PKD
ROOT
HETATM    1  C   UNL     1      -7.758  11.087  65.814  1.00  0.00     0.037 C  
HETATM    2  O   UNL     1      -8.676  10.032  65.506  1.00  0.00    -0.143 OA 
ENDROOT
BRANCH   2   3
HETATM    3  C   UNL     1      -8.419   8.822  66.109  1.00  0.00    -0.131 A  
HETATM    4  C   UNL     1      -7.581   7.909  65.418  1.00  0.00    -0.084 A  
HETATM    5  C   UNL     1      -7.225   6.729  66.111  1.00  0.00    -0.067 A  
HETATM    6  C   UNL     1      -9.045   8.460  67.338  1.00  0.00    -0.152 A  
HETATM    7  C   UNL     1      -8.644   7.248  67.946  1.00  0.00    -0.120 A  
HETATM    8  C   UNL     1      -7.702   6.374  67.381  1.00  0.00    -0.104 A  
BRANCH   4   9
HETATM    9  C   UNL     1      -7.013   8.121  63.983  1.00  0.00    -0.071 C  
HETATM   10  C   UNL     1      -6.104   6.981  63.467  1.00  0.00    -0.044 C  
HETATM   11  C   UNL     1      -8.187   8.293  62.999  1.00  0.00    -0.118 C  
HETATM   12  C   UNL     1      -6.122   9.396  63.887  1.00  0.00    -0.091 C  
ENDBRANCH   4   9
BRANCH   8  13
HETATM   13  N   UNL     1      -7.279   5.153  68.069  1.00  0.00    -0.066 N  
HETATM   14  C   UNL     1      -5.955   4.973  68.469  1.00  0.00    -0.025 C  
HETATM   15  O   UNL     1      -9.379   4.040  67.948  1.00  0.00    -0.146 OA 
HETATM   16  C   UNL     1      -5.491   3.857  69.033  1.00  0.00    -0.013 C  
HETATM   17  H   UNL     1      -8.402   2.341  69.337  1.00  0.00     0.000 HD 
HETATM   18  C   UNL     1      -6.413   2.752  69.283  1.00  0.00    -0.029 C  
HETATM   19  O   UNL     1      -6.018   1.675  69.709  1.00  0.00    -0.021 OA 
HETATM   20  N   UNL     1      -7.716   3.017  69.003  1.00  0.00    -0.047 N  
HETATM   21  C   UNL     1      -8.205   4.104  68.314  1.00  0.00    -0.088 C  
ENDBRANCH   8  13
BRANCH   6  22
HETATM   22  C   UNL     1     -10.106   9.288  67.993  1.00  0.00    -0.234 A  
HETATM   23  C   UNL     1     -11.257  12.812  67.763  1.00  0.00    -0.317 A  
HETATM   24  C   UNL     1     -10.472  10.536  67.457  1.00  0.00    -0.284 A  
HETATM   25  C   UNL     1     -11.876  13.779  68.547  1.00  0.00    -0.406 A  
HETATM   26  C   UNL     1     -11.178  11.487  68.208  1.00  0.00    -0.322 A  
HETATM   27  C   UNL     1     -12.454  13.422  69.760  1.00  0.00    -0.054 A  
HETATM   28  C   UNL     1     -11.540   9.813  69.910  1.00  0.00    -0.132 A  
HETATM   29  C   UNL     1     -12.417  12.097  70.202  1.00  0.00    -0.108 A  
HETATM   30  C   UNL     1     -10.703   8.926  69.215  1.00  0.00    -0.177 A  
HETATM   31  C   UNL     1     -11.735  11.126  69.447  1.00  0.00    -0.402 A  
BRANCH  27  32
HETATM   32  N   UNL     1     -13.120  14.418  70.526  1.00  0.00    -0.461 N  
HETATM   33  H   UNL     1     -14.138  14.483  70.539  1.00  0.00     0.000 HD 
BRANCH  32  34
HETATM   34  S   UNL     1     -12.157  15.494  71.419  1.00  0.00    -0.441 S  
HETATM   35  C   UNL     1     -11.512  16.552  70.142  1.00  0.00     0.060 C  
HETATM   36  O   UNL     1     -11.063  14.688  71.920  1.00  0.00     0.236 OA 
HETATM   37  O   UNL     1     -12.991  16.267  72.308  1.00  0.00    -0.311 OA 
ENDBRANCH  32  34
ENDBRANCH  27  32
ENDBRANCH   6  22
ENDBRANCH   2   3
TORSDOF 6
ENDMDL
MODEL       78
REMARK 921   NORMALIZED FREE ENERGY PREDICTED BY IDOCK:   -2.59 KCAL/MOL
REMARK 922        TOTAL FREE ENERGY PREDICTED BY IDOCK:   -3.74 KCAL/MOL
REMARK 923 INTER-LIGAND FREE ENERGY PREDICTED BY IDOCK:   -3.60 KCAL/MOL
REMARK 924 INTRA-LIGAND FREE ENERGY PREDICTED BY IDOCK:   -0.14 KCAL/MOL
REMARK 927      BINDING AFFINITY PREDICTED BY RF-SCORE:    0.00 PKD
ROOT
HETATM    1  C   UNL     1      -9.132   8.572  64.153  1.00  0.00     0.707 C  
HETATM    2  O   UNL     1      -7.833   8.501  64.750  1.00  0.00    -0.110 OA 
ENDROOT
BRANCH   2   3
HETATM    3  C   UNL     1      -7.768   7.848  65.960  1.00  0.00    -0.092 A  
HETATM    4  C   UNL     1      -7.478   6.460  65.942  1.00  0.00    -0.082 A  
HETATM    5  C   UNL     1      -7.288   5.837  67.197  1.00  0.00    -0.077 A  
HETATM    6  C   UNL     1      -8.072   8.520  67.181  1.00  0.00    -0.104 A  
HETATM    7  C   UNL     1      -7.875   7.809  68.387  1.00  0.00    -0.121 A  
HETATM    8  C   UNL     1      -7.442   6.475  68.436  1.00  0.00    -0.088 A  
BRANCH   4   9
HETATM    9  C   UNL     1      -7.333   5.589  64.658  1.00  0.00    -0.064 C  
HETATM   10  C   UNL     1      -6.542   6.254  63.506  1.00  0.00    -0.033 C  
HETATM   11  C   UNL     1      -6.638   4.264  65.025  1.00  0.00    -0.044 C  
HETATM   12  C   UNL     1      -8.714   5.242  64.024  1.00  0.00    -0.008 C  
ENDBRANCH   4   9
BRANCH   8  13
HETATM   13  N   UNL     1      -7.205   5.792  69.709  1.00  0.00    -0.067 N  
HETATM   14  C   UNL     1      -5.938   5.779  70.295  1.00  0.00    -0.025 C  
HETATM   15  O   UNL     1      -9.402   4.912  69.952  1.00  0.00    -0.121 OA 
HETATM   16  C   UNL     1      -5.640   5.116  71.413  1.00  0.00    -0.005 C  
HETATM   17  H   UNL     1      -8.715   4.171  72.131  1.00  0.00     0.000 HD 
HETATM   18  C   UNL     1      -6.694   4.373  72.100  1.00  0.00    -0.034 C  
HETATM   19  O   UNL     1      -6.450   3.673  73.073  1.00  0.00    -0.022 OA 
HETATM   20  N   UNL     1      -7.938   4.521  71.573  1.00  0.00    -0.093 N  
HETATM   21  C   UNL     1      -8.256   5.093  70.362  1.00  0.00    -0.098 C  
ENDBRANCH   8  13
BRANCH   6  22
HETATM   22  C   UNL     1      -8.599   9.920  67.237  1.00  0.00    -0.125 A  
HETATM   23  C   UNL     1      -7.163  13.283  67.890  1.00  0.00    -0.137 A  
HETATM   24  C   UNL     1      -7.717  11.017  67.221  1.00  0.00    -0.118 A  
HETATM   25  C   UNL     1      -7.551  14.525  68.379  1.00  0.00    -0.122 A  
HETATM   26  C   UNL     1      -8.121  12.297  67.625  1.00  0.00    -0.165 A  
HETATM   27  C   UNL     1      -8.899  14.804  68.568  1.00  0.00    -0.176 A  
HETATM   28  C   UNL     1     -10.406  11.517  67.672  1.00  0.00    -0.209 A  
HETATM   29  C   UNL     1      -9.872  13.845  68.273  1.00  0.00    -0.231 A  
HETATM   30  C   UNL     1      -9.963  10.209  67.417  1.00  0.00    -0.238 A  
HETATM   31  C   UNL     1      -9.484  12.564  67.843  1.00  0.00    -0.196 A  
BRANCH  27  32
HETATM   32  N   UNL     1      -9.278  16.096  69.027  1.00  0.00    -0.242 N  
HETATM   33  H   UNL     1      -9.863  16.213  69.854  1.00  0.00     0.000 HD 
BRANCH  32  34
HETATM   34  S   UNL     1      -8.720  17.436  68.145  1.00  0.00    -0.263 S  
HETATM   35  C   UNL     1     -10.240  18.277  67.758  1.00  0.00    -0.385 C  
HETATM   36  O   UNL     1      -8.196  16.880  66.915  1.00  0.00    -0.182 OA 
HETATM   37  O   UNL     1      -7.910  18.274  68.998  1.00  0.00    -0.232 OA 
ENDBRANCH  32  34
ENDBRANCH  27  32
ENDBRANCH   6  22
ENDBRANCH   2   3
TORSDOF 6
ENDMDL
MODEL       79
REMARK 921   NORMALIZED FREE ENERGY PREDICTED BY IDOCK:   -2.58 KCAL/MOL
REMARK 922        TOTAL FREE ENERGY PREDICTED BY IDOCK:   -3.73 KCAL/MOL
REMARK 923 INTER-LIGAND FREE ENERGY PREDICTED BY IDOCK:   -5.70 KCAL/MOL
REMARK 924 INTRA-LIGAND FREE ENERGY PREDICTED BY IDOCK:    1.97 KCAL/MOL
REMARK 927      BINDING AFFINITY PREDICTED BY RF-SCORE:    0.00 PKD
ROOT
HETATM    1  C   UNL     1      -7.546  10.016  64.311  1.00  0.00    -0.141 C  
HETATM    2  O   UNL     1      -7.942   8.675  64.003  1.00  0.00    -0.142 OA 
ENDROOT
BRANCH   2   3
HETATM    3  C   UNL     1      -8.262   7.884  65.083  1.00  0.00    -0.141 A  
HETATM    4  C   UNL     1      -8.265   6.479  64.889  1.00  0.00    -0.097 A  
HETATM    5  C   UNL     1      -8.468   5.682  66.039  1.00  0.00    -0.132 A  
HETATM    6  C   UNL     1      -8.665   8.456  66.325  1.00  0.00    -0.164 A  
HETATM    7  C   UNL     1      -8.870   7.578  67.415  1.00  0.00    -0.127 A  
HETATM    8  C   UNL     1      -8.739   6.184  67.321  1.00  0.00    -0.108 A  
BRANCH   4   9
HETATM    9  C   UNL     1      -8.041   5.760  63.525  1.00  0.00    -0.106 C  
HETATM   10  C   UNL     1      -6.587   5.804  62.996  1.00  0.00    -0.032 C  
HETATM   11  C   UNL     1      -8.467   4.285  63.659  1.00  0.00    -0.105 C  
HETATM   12  C   UNL     1      -8.885   6.397  62.380  1.00  0.00     0.341 C  
ENDBRANCH   4   9
BRANCH   8  13
HETATM   13  N   UNL     1      -8.912   5.316  68.487  1.00  0.00    -0.107 N  
HETATM   14  C   UNL     1      -7.841   4.591  69.011  1.00  0.00    -0.070 C  
HETATM   15  O   UNL     1     -11.258   5.642  68.713  1.00  0.00    -0.060 OA 
HETATM   16  C   UNL     1      -7.948   3.730  70.023  1.00  0.00    -0.054 C  
HETATM   17  H   UNL     1     -11.097   4.381  70.751  1.00  0.00     0.000 HD 
HETATM   18  C   UNL     1      -9.251   3.538  70.657  1.00  0.00    -0.137 C  
HETATM   19  O   UNL     1      -9.420   2.691  71.525  1.00  0.00    -0.118 OA 
HETATM   20  N   UNL     1     -10.235   4.360  70.207  1.00  0.00    -0.101 N  
HETATM   21  C   UNL     1     -10.188   5.166  69.092  1.00  0.00    -0.189 C  
ENDBRANCH   8  13
BRANCH   6  22
HETATM   22  C   UNL     1      -8.894   9.923  66.517  1.00  0.00    -0.154 A  
HETATM   23  C   UNL     1     -11.286  12.441  65.202  1.00  0.00    -0.367 A  
HETATM   24  C   UNL     1     -10.091  10.523  66.085  1.00  0.00    -0.306 A  
HETATM   25  C   UNL     1     -11.358  13.807  64.952  1.00  0.00    -0.353 A  
HETATM   26  C   UNL     1     -10.206  11.910  65.915  1.00  0.00    -0.270 A  
HETATM   27  C   UNL     1     -10.372  14.654  65.445  1.00  0.00    -0.383 A  
HETATM   28  C   UNL     1      -8.067  12.177  67.006  1.00  0.00    -0.154 A  
HETATM   29  C   UNL     1      -9.306  14.145  66.191  1.00  0.00    -0.166 A  
HETATM   30  C   UNL     1      -7.905  10.783  67.027  1.00  0.00    -0.121 A  
HETATM   31  C   UNL     1      -9.190  12.758  66.392  1.00  0.00    -0.149 A  
BRANCH  27  32
HETATM   32  N   UNL     1     -10.487  16.053  65.216  1.00  0.00    -0.391 N  
HETATM   33  H   UNL     1     -10.966  16.416  64.391  1.00  0.00     0.000 HD 
BRANCH  32  34
HETATM   34  S   UNL     1      -9.796  17.095  66.365  1.00  0.00    -0.301 S  
HETATM   35  C   UNL     1     -10.836  18.532  66.226  1.00  0.00    -0.020 C  
HETATM   36  O   UNL     1      -8.496  17.435  65.825  1.00  0.00    -0.532 OA 
HETATM   37  O   UNL     1      -9.937  16.524  67.683  1.00  0.00    -0.245 OA 
ENDBRANCH  32  34
ENDBRANCH  27  32
ENDBRANCH   6  22
ENDBRANCH   2   3
TORSDOF 6
ENDMDL
MODEL       80
REMARK 921   NORMALIZED FREE ENERGY PREDICTED BY IDOCK:   -2.51 KCAL/MOL
REMARK 922        TOTAL FREE ENERGY PREDICTED BY IDOCK:   -3.63 KCAL/MOL
REMARK 923 INTER-LIGAND FREE ENERGY PREDICTED BY IDOCK:   -4.83 KCAL/MOL
REMARK 924 INTRA-LIGAND FREE ENERGY PREDICTED BY IDOCK:    1.20 KCAL/MOL
REMARK 927      BINDING AFFINITY PREDICTED BY RF-SCORE:    0.00 PKD
ROOT
HETATM    1  C   UNL     1     -11.607  11.201  64.576  1.00  0.00     0.391 C  
HETATM    2  O   UNL     1     -11.784  11.593  65.942  1.00  0.00    -0.348 OA 
ENDROOT
BRANCH   2   3
HETATM    3  C   UNL     1     -10.739  12.292  66.502  1.00  0.00    -0.246 A  
HETATM    4  C   UNL     1     -10.623  13.669  66.182  1.00  0.00    -0.291 A  
HETATM    5  C   UNL     1      -9.623  14.396  66.867  1.00  0.00    -0.263 A  
HETATM    6  C   UNL     1      -9.754  11.637  67.299  1.00  0.00    -0.192 A  
HETATM    7  C   UNL     1      -8.776  12.443  67.927  1.00  0.00    -0.175 A  
HETATM    8  C   UNL     1      -8.705  13.836  67.768  1.00  0.00    -0.182 A  
BRANCH   4   9
HETATM    9  C   UNL     1     -11.521  14.432  65.162  1.00  0.00    -0.362 C  
HETATM   10  C   UNL     1     -12.968  14.700  65.641  1.00  0.00     0.163 C  
HETATM   11  C   UNL     1     -10.860  15.783  64.825  1.00  0.00    -0.365 C  
HETATM   12  C   UNL     1     -11.697  13.643  63.830  1.00  0.00    -0.292 C  
ENDBRANCH   4   9
BRANCH   8  13
HETATM   13  N   UNL     1      -7.706  14.638  68.475  1.00  0.00    -0.119 N  
HETATM   14  C   UNL     1      -7.640  14.643  69.869  1.00  0.00     0.183 C  
HETATM   15  O   UNL     1      -6.770  15.662  66.542  1.00  0.00     0.075 OA 
HETATM   16  C   UNL     1      -6.804  15.405  70.574  1.00  0.00     0.398 C  
HETATM   17  H   UNL     1      -5.111  16.595  68.008  1.00  0.00     0.000 HD 
HETATM   18  C   UNL     1      -5.869  16.277  69.866  1.00  0.00    -0.187 C  
HETATM   19  O   UNL     1      -5.150  17.064  70.466  1.00  0.00    -0.200 OA 
HETATM   20  N   UNL     1      -5.873  16.143  68.513  1.00  0.00    -0.106 N  
HETATM   21  C   UNL     1      -6.798  15.462  67.756  1.00  0.00    -0.167 C  
ENDBRANCH   8  13
BRANCH   6  22
HETATM   22  C   UNL     1      -9.703  10.152  67.484  1.00  0.00    -0.190 A  
HETATM   23  C   UNL     1      -8.530   7.256  65.477  1.00  0.00    -0.119 A  
HETATM   24  C   UNL     1      -8.915   9.353  66.636  1.00  0.00    -0.170 A  
HETATM   25  C   UNL     1      -8.791   5.899  65.320  1.00  0.00    -0.029 A  
HETATM   26  C   UNL     1      -9.106   7.967  66.536  1.00  0.00    -0.213 A  
HETATM   27  C   UNL     1      -9.595   5.237  66.240  1.00  0.00    -0.161 A  
HETATM   28  C   UNL     1     -10.593   8.077  68.436  1.00  0.00    -0.150 A  
HETATM   29  C   UNL     1     -10.148   5.924  67.324  1.00  0.00    -0.208 A  
HETATM   30  C   UNL     1     -10.506   9.478  68.422  1.00  0.00    -0.261 A  
HETATM   31  C   UNL     1      -9.945   7.309  67.453  1.00  0.00    -0.228 A  
BRANCH  27  32
HETATM   32  N   UNL     1      -9.814   3.840  66.086  1.00  0.00    -0.395 N  
HETATM   33  H   UNL     1     -10.640   3.484  65.605  1.00  0.00     0.000 HD 
BRANCH  32  34
HETATM   34  S   UNL     1      -8.648   2.789  66.733  1.00  0.00    -0.117 S  
HETATM   35  C   UNL     1      -7.568   3.919  67.582  1.00  0.00    -0.068 C  
HETATM   36  O   UNL     1      -7.934   2.272  65.585  1.00  0.00    -0.079 OA 
HETATM   37  O   UNL     1      -9.271   1.907  67.692  1.00  0.00    -0.153 OA 
ENDBRANCH  32  34
ENDBRANCH  27  32
ENDBRANCH   6  22
ENDBRANCH   2   3
TORSDOF 6
ENDMDL
MODEL       81
REMARK 921   NORMALIZED FREE ENERGY PREDICTED BY IDOCK:   -2.35 KCAL/MOL
REMARK 922        TOTAL FREE ENERGY PREDICTED BY IDOCK:   -3.42 KCAL/MOL
REMARK 923 INTER-LIGAND FREE ENERGY PREDICTED BY IDOCK:   -4.25 KCAL/MOL
REMARK 924 INTRA-LIGAND FREE ENERGY PREDICTED BY IDOCK:    0.83 KCAL/MOL
REMARK 927      BINDING AFFINITY PREDICTED BY RF-SCORE:    0.00 PKD
ROOT
HETATM    1  C   UNL     1     -12.001  11.066  63.705  1.00  0.00     1.177 C  
HETATM    2  O   UNL     1     -12.132  11.452  65.078  1.00  0.00     0.107 OA 
ENDROOT
BRANCH   2   3
HETATM    3  C   UNL     1     -11.045  12.100  65.622  1.00  0.00    -0.316 A  
HETATM    4  C   UNL     1     -11.009  13.514  65.526  1.00  0.00    -0.295 A  
HETATM    5  C   UNL     1      -9.952  14.167  66.202  1.00  0.00    -0.328 A  
HETATM    6  C   UNL     1      -9.951  11.372  66.176  1.00  0.00    -0.265 A  
HETATM    7  C   UNL     1      -8.927  12.111  66.812  1.00  0.00    -0.203 A  
HETATM    8  C   UNL     1      -8.915  13.513  66.882  1.00  0.00    -0.209 A  
BRANCH   4   9
HETATM    9  C   UNL     1     -12.047  14.389  64.761  1.00  0.00    -0.462 C  
HETATM   10  C   UNL     1     -13.398  14.583  65.490  1.00  0.00     0.636 C  
HETATM   11  C   UNL     1     -11.433  15.777  64.494  1.00  0.00    -0.292 C  
HETATM   12  C   UNL     1     -12.438  13.769  63.386  1.00  0.00     0.067 C  
ENDBRANCH   4   9
BRANCH   8  13
HETATM   13  N   UNL     1      -7.859  14.236  67.592  1.00  0.00    -0.163 N  
HETATM   14  C   UNL     1      -7.152  13.638  68.635  1.00  0.00    -0.105 C  
HETATM   15  O   UNL     1      -8.130  16.300  66.440  1.00  0.00    -0.291 OA 
HETATM   16  C   UNL     1      -6.231  14.265  69.369  1.00  0.00    -0.111 C  
HETATM   17  H   UNL     1      -6.171  17.052  67.609  1.00  0.00     0.000 HD 
HETATM   18  C   UNL     1      -5.905  15.656  69.060  1.00  0.00    -0.105 C  
HETATM   19  O   UNL     1      -5.138  16.302  69.762  1.00  0.00    -0.116 OA 
HETATM   20  N   UNL     1      -6.516  16.157  67.955  1.00  0.00    -0.130 N  
HETATM   21  C   UNL     1      -7.552  15.582  67.255  1.00  0.00    -0.218 C  
ENDBRANCH   8  13
BRANCH   6  22
HETATM   22  C   UNL     1      -9.836   9.881  66.102  1.00  0.00    -0.324 A  
HETATM   23  C   UNL     1     -10.874   7.018  68.228  1.00  0.00    -0.198 A  
HETATM   24  C   UNL     1     -10.608   9.061  66.945  1.00  0.00    -0.243 A  
HETATM   25  C   UNL     1     -10.492   5.711  68.507  1.00  0.00    -0.273 A  
HETATM   26  C   UNL     1     -10.286   7.714  67.165  1.00  0.00    -0.360 A  
HETATM   27  C   UNL     1      -9.550   5.079  67.705  1.00  0.00    -0.146 A  
HETATM   28  C   UNL     1      -8.663   7.853  65.382  1.00  0.00    -0.078 A  
HETATM   29  C   UNL     1      -8.979   5.746  66.618  1.00  0.00    -0.123 A  
HETATM   30  C   UNL     1      -8.892   9.234  65.283  1.00  0.00    -0.237 A  
HETATM   31  C   UNL     1      -9.310   7.089  66.368  1.00  0.00    -0.182 A  
BRANCH  27  32
HETATM   32  N   UNL     1      -9.204   3.727  67.982  1.00  0.00    -0.152 N  
HETATM   33  H   UNL     1      -9.417   2.980  67.320  1.00  0.00     0.000 HD 
BRANCH  32  34
HETATM   34  S   UNL     1      -8.423   3.403  69.455  1.00  0.00    -0.065 S  
HETATM   35  C   UNL     1      -7.899   1.718  69.227  1.00  0.00    -0.042 C  
HETATM   36  O   UNL     1      -9.479   3.409  70.445  1.00  0.00    -0.158 OA 
HETATM   37  O   UNL     1      -7.264   4.254  69.585  1.00  0.00    -0.049 OA 
ENDBRANCH  32  34
ENDBRANCH  27  32
ENDBRANCH   6  22
ENDBRANCH   2   3
TORSDOF 6
ENDMDL
MODEL       82
REMARK 921   NORMALIZED FREE ENERGY PREDICTED BY IDOCK:   -2.23 KCAL/MOL
REMARK 922        TOTAL FREE ENERGY PREDICTED BY IDOCK:   -3.26 KCAL/MOL
REMARK 923 INTER-LIGAND FREE ENERGY PREDICTED BY IDOCK:   -5.69 KCAL/MOL
REMARK 924 INTRA-LIGAND FREE ENERGY PREDICTED BY IDOCK:    2.43 KCAL/MOL
REMARK 927      BINDING AFFINITY PREDICTED BY RF-SCORE:    0.00 PKD
ROOT
HETATM    1  C   UNL     1      -9.362  12.166  63.408  1.00  0.00     0.411 C  
HETATM    2  O   UNL     1     -10.270  11.258  64.042  1.00  0.00    -0.284 OA 
ENDROOT
BRANCH   2   3
HETATM    3  C   UNL     1     -10.611  11.565  65.340  1.00  0.00    -0.282 A  
HETATM    4  C   UNL     1     -11.416  12.713  65.553  1.00  0.00    -0.375 A  
HETATM    5  C   UNL     1     -11.862  12.936  66.875  1.00  0.00    -0.444 A  
HETATM    6  C   UNL     1     -10.098  10.812  66.438  1.00  0.00    -0.278 A  
HETATM    7  C   UNL     1     -10.584  11.123  67.729  1.00  0.00    -0.248 A  
HETATM    8  C   UNL     1     -11.502  12.154  67.982  1.00  0.00    -0.319 A  
BRANCH   4   9
HETATM    9  C   UNL     1     -11.858  13.717  64.446  1.00  0.00    -0.458 C  
HETATM   10  C   UNL     1     -13.093  14.578  64.802  1.00  0.00     0.522 C  
HETATM   11  C   UNL     1     -10.682  14.661  64.126  1.00  0.00     0.628 C  
HETATM   12  C   UNL     1     -12.261  12.995  63.125  1.00  0.00    -0.305 C  
ENDBRANCH   4   9
BRANCH   8  13
HETATM   13  N   UNL     1     -12.015  12.410  69.329  1.00  0.00    -0.285 N  
HETATM   14  C   UNL     1     -12.287  11.361  70.208  1.00  0.00    -0.297 C  
HETATM   15  O   UNL     1     -12.201  14.771  69.098  1.00  0.00    -0.262 OA 
HETATM   16  C   UNL     1     -12.823  11.522  71.418  1.00  0.00    -0.489 C  
HETATM   17  H   UNL     1     -12.751  14.818  71.435  1.00  0.00     0.000 HD 
HETATM   18  C   UNL     1     -13.127  12.873  71.886  1.00  0.00    -0.373 C  
HETATM   19  O   UNL     1     -13.706  13.066  72.947  1.00  0.00    -0.479 OA 
HETATM   20  N   UNL     1     -12.724  13.872  71.057  1.00  0.00    -0.350 N  
HETATM   21  C   UNL     1     -12.283  13.737  69.761  1.00  0.00    -0.310 C  
ENDBRANCH   8  13
BRANCH   6  22
HETATM   22  C   UNL     1      -9.071   9.734  66.285  1.00  0.00    -0.192 A  
HETATM   23  C   UNL     1      -9.100   6.022  66.176  1.00  0.00    -0.159 A  
HETATM   24  C   UNL     1      -9.458   8.414  65.987  1.00  0.00    -0.224 A  
HETATM   25  C   UNL     1      -8.268   4.946  66.462  1.00  0.00    -0.107 A  
HETATM   26  C   UNL     1      -8.595   7.327  66.185  1.00  0.00    -0.156 A  
HETATM   27  C   UNL     1      -6.920   5.163  66.720  1.00  0.00    -0.064 A  
HETATM   28  C   UNL     1      -6.792   8.884  66.584  1.00  0.00    -0.076 A  
HETATM   29  C   UNL     1      -6.391   6.456  66.697  1.00  0.00    -0.042 A  
HETATM   30  C   UNL     1      -7.703   9.950  66.533  1.00  0.00    -0.107 A  
HETATM   31  C   UNL     1      -7.238   7.555  66.474  1.00  0.00    -0.076 A  
BRANCH  27  32
HETATM   32  N   UNL     1      -6.076   4.044  66.967  1.00  0.00    -0.027 N  
HETATM   33  H   UNL     1      -5.094   4.166  67.213  1.00  0.00     0.000 HD 
BRANCH  32  34
HETATM   34  S   UNL     1      -6.767   2.498  66.838  1.00  0.00    -0.040 S  
HETATM   35  C   UNL     1      -7.124   2.403  65.097  1.00  0.00    -0.056 C  
HETATM   36  O   UNL     1      -8.027   2.593  67.544  1.00  0.00    -0.068 OA 
HETATM   37  O   UNL     1      -5.784   1.499  67.183  1.00  0.00    -0.017 OA 
ENDBRANCH  32  34
ENDBRANCH  27  32
ENDBRANCH   6  22
ENDBRANCH   2   3
TORSDOF 6
ENDMDL
MODEL       83
REMARK 921   NORMALIZED FREE ENERGY PREDICTED BY IDOCK:   -2.10 KCAL/MOL
REMARK 922        TOTAL FREE ENERGY PREDICTED BY IDOCK:   -3.08 KCAL/MOL
REMARK 923 INTER-LIGAND FREE ENERGY PREDICTED BY IDOCK:   -3.61 KCAL/MOL
REMARK 924 INTRA-LIGAND FREE ENERGY PREDICTED BY IDOCK:    0.53 KCAL/MOL
REMARK 927      BINDING AFFINITY PREDICTED BY RF-SCORE:    0.00 PKD
ROOT
HETATM    1  C   UNL     1      -9.369  14.901  65.068  1.00  0.00     1.030 C  
HETATM    2  O   UNL     1     -10.560  14.594  65.802  1.00  0.00    -0.292 OA 
ENDROOT
BRANCH   2   3
HETATM    3  C   UNL     1     -10.587  13.357  66.406  1.00  0.00    -0.285 A  
HETATM    4  C   UNL     1     -11.478  12.388  65.878  1.00  0.00    -0.422 A  
HETATM    5  C   UNL     1     -11.396  11.088  66.428  1.00  0.00     0.097 A  
HETATM    6  C   UNL     1      -9.817  13.089  67.575  1.00  0.00    -0.209 A  
HETATM    7  C   UNL     1      -9.815  11.763  68.069  1.00  0.00    -0.184 A  
HETATM    8  C   UNL     1     -10.562  10.723  67.494  1.00  0.00    -0.237 A  
BRANCH   4   9
HETATM    9  C   UNL     1     -12.508  12.642  64.737  1.00  0.00    -0.555 C  
HETATM   10  C   UNL     1     -13.279  11.387  64.263  1.00  0.00     1.656 C  
HETATM   11  C   UNL     1     -13.531  13.694  65.209  1.00  0.00     0.670 C  
HETATM   12  C   UNL     1     -11.829  13.186  63.444  1.00  0.00    -0.490 C  
ENDBRANCH   4   9
BRANCH   8  13
HETATM   13  N   UNL     1     -10.492   9.355  68.009  1.00  0.00    -0.220 N  
HETATM   14  C   UNL     1     -10.470   8.260  67.143  1.00  0.00    -0.316 C  
HETATM   15  O   UNL     1     -10.595   9.932  70.314  1.00  0.00    -0.265 OA 
HETATM   16  C   UNL     1     -10.481   6.989  67.547  1.00  0.00    -0.320 C  
HETATM   17  H   UNL     1     -10.188   7.609  70.772  1.00  0.00     0.000 HD 
HETATM   18  C   UNL     1     -10.488   6.700  68.980  1.00  0.00    -0.214 C  
HETATM   19  O   UNL     1     -10.594   5.555  69.399  1.00  0.00    -0.284 OA 
HETATM   20  N   UNL     1     -10.373   7.788  69.786  1.00  0.00    -0.216 N  
HETATM   21  C   UNL     1     -10.481   9.108  69.408  1.00  0.00    -0.219 C  
ENDBRANCH   8  13
BRANCH   6  22
HETATM   22  C   UNL     1      -9.034  14.139  68.302  1.00  0.00    -0.188 A  
HETATM   23  C   UNL     1      -9.227  17.829  68.667  1.00  0.00    -0.264 A  
HETATM   24  C   UNL     1      -9.558  15.434  68.468  1.00  0.00    -0.201 A  
HETATM   25  C   UNL     1      -8.395  18.915  68.917  1.00  0.00    -0.273 A  
HETATM   26  C   UNL     1      -8.744  16.523  68.810  1.00  0.00    -0.259 A  
HETATM   27  C   UNL     1      -7.091  18.704  69.348  1.00  0.00    -0.085 A  
HETATM   28  C   UNL     1      -6.935  14.983  69.242  1.00  0.00    -0.156 A  
HETATM   29  C   UNL     1      -6.604  17.407  69.532  1.00  0.00    -0.172 A  
HETATM   30  C   UNL     1      -7.718  13.927  68.750  1.00  0.00    -0.096 A  
HETATM   31  C   UNL     1      -7.417  16.303  69.217  1.00  0.00    -0.217 A  
BRANCH  27  32
HETATM   32  N   UNL     1      -6.271  19.829  69.640  1.00  0.00    -0.311 N  
HETATM   33  H   UNL     1      -5.851  20.386  68.896  1.00  0.00     0.000 HD 
BRANCH  32  34
HETATM   34  S   UNL     1      -6.015  20.208  71.276  1.00  0.00    -0.201 S  
HETATM   35  C   UNL     1      -5.127  18.776  71.848  1.00  0.00     0.002 C  
HETATM   36  O   UNL     1      -7.332  20.181  71.875  1.00  0.00     0.512 OA 
HETATM   37  O   UNL     1      -5.166  21.372  71.376  1.00  0.00    -0.428 OA 
ENDBRANCH  32  34
ENDBRANCH  27  32
ENDBRANCH   6  22
ENDBRANCH   2   3
TORSDOF 6
ENDMDL
MODEL       84
REMARK 921   NORMALIZED FREE ENERGY PREDICTED BY IDOCK:   -1.97 KCAL/MOL
REMARK 922        TOTAL FREE ENERGY PREDICTED BY IDOCK:   -2.90 KCAL/MOL
REMARK 923 INTER-LIGAND FREE ENERGY PREDICTED BY IDOCK:   -4.07 KCAL/MOL
REMARK 924 INTRA-LIGAND FREE ENERGY PREDICTED BY IDOCK:    1.17 KCAL/MOL
REMARK 927      BINDING AFFINITY PREDICTED BY RF-SCORE:    0.00 PKD
ROOT
HETATM    1  C   UNL     1     -13.257  12.887  66.255  1.00  0.00     2.259 C  
HETATM    2  O   UNL     1     -11.978  12.412  66.691  1.00  0.00    -0.562 OA 
ENDROOT
BRANCH   2   3
HETATM    3  C   UNL     1     -11.112  13.375  67.157  1.00  0.00    -0.286 A  
HETATM    4  C   UNL     1     -10.703  14.385  66.249  1.00  0.00    -0.307 A  
HETATM    5  C   UNL     1      -9.919  15.434  66.781  1.00  0.00    -0.256 A  
HETATM    6  C   UNL     1     -10.571  13.309  68.475  1.00  0.00    -0.270 A  
HETATM    7  C   UNL     1      -9.776  14.394  68.913  1.00  0.00    -0.145 A  
HETATM    8  C   UNL     1      -9.463  15.498  68.106  1.00  0.00    -0.198 A  
BRANCH   4   9
HETATM    9  C   UNL     1     -11.071  14.434  64.736  1.00  0.00    -0.402 C  
HETATM   10  C   UNL     1     -12.588  14.465  64.434  1.00  0.00    -0.196 C  
HETATM   11  C   UNL     1     -10.421  15.679  64.101  1.00  0.00     1.629 C  
HETATM   12  C   UNL     1     -10.552  13.182  63.965  1.00  0.00    -0.303 C  
ENDBRANCH   4   9
BRANCH   8  13
HETATM   13  N   UNL     1      -8.677  16.623  68.616  1.00  0.00    -0.241 N  
HETATM   14  C   UNL     1      -9.158  17.930  68.540  1.00  0.00    -0.285 C  
HETATM   15  O   UNL     1      -6.762  15.352  69.229  1.00  0.00    -0.128 OA 
HETATM   16  C   UNL     1      -8.463  19.004  68.919  1.00  0.00    -0.295 C  
HETATM   17  H   UNL     1      -5.908  17.370  70.212  1.00  0.00     0.000 HD 
HETATM   18  C   UNL     1      -7.125  18.822  69.477  1.00  0.00    -0.007 C  
HETATM   19  O   UNL     1      -6.412  19.779  69.750  1.00  0.00    -0.330 OA 
HETATM   20  N   UNL     1      -6.749  17.529  69.658  1.00  0.00    -0.117 N  
HETATM   21  C   UNL     1      -7.387  16.410  69.170  1.00  0.00    -0.225 C  
ENDBRANCH   8  13
BRANCH   6  22
HETATM   22  C   UNL     1     -10.792  12.148  69.395  1.00  0.00    -0.032 A  
HETATM   23  C   UNL     1      -9.788   8.573  69.465  1.00  0.00    -0.187 A  
HETATM   24  C   UNL     1     -10.015  10.982  69.275  1.00  0.00    -0.088 A  
HETATM   25  C   UNL     1     -10.235   7.356  69.965  1.00  0.00    -0.211 A  
HETATM   26  C   UNL     1     -10.409   9.767  69.853  1.00  0.00    -0.291 A  
HETATM   27  C   UNL     1     -11.277   7.325  70.885  1.00  0.00    -0.272 A  
HETATM   28  C   UNL     1     -12.151  10.944  71.041  1.00  0.00    -0.425 A  
HETATM   29  C   UNL     1     -11.884   8.510  71.311  1.00  0.00    -0.335 A  
HETATM   30  C   UNL     1     -11.838  12.116  70.336  1.00  0.00    -0.277 A  
HETATM   31  C   UNL     1     -11.483   9.740  70.760  1.00  0.00    -0.417 A  
BRANCH  27  32
HETATM   32  N   UNL     1     -11.691   6.073  71.417  1.00  0.00    -0.165 N  
HETATM   33  H   UNL     1     -12.663   5.769  71.361  1.00  0.00     0.000 HD 
BRANCH  32  34
HETATM   34  S   UNL     1     -10.505   5.103  72.151  1.00  0.00    -0.210 S  
HETATM   35  C   UNL     1     -11.434   4.302  73.439  1.00  0.00    -0.171 C  
HETATM   36  O   UNL     1      -9.595   6.039  72.778  1.00  0.00    -0.156 OA 
HETATM   37  O   UNL     1     -10.037   4.115  71.209  1.00  0.00    -0.169 OA 
ENDBRANCH  32  34
ENDBRANCH  27  32
ENDBRANCH   6  22
ENDBRANCH   2   3
TORSDOF 6
ENDMDL
MODEL       85
REMARK 921   NORMALIZED FREE ENERGY PREDICTED BY IDOCK:   -1.90 KCAL/MOL
REMARK 922        TOTAL FREE ENERGY PREDICTED BY IDOCK:   -2.81 KCAL/MOL
REMARK 923 INTER-LIGAND FREE ENERGY PREDICTED BY IDOCK:   -3.44 KCAL/MOL
REMARK 924 INTRA-LIGAND FREE ENERGY PREDICTED BY IDOCK:    0.64 KCAL/MOL
REMARK 927      BINDING AFFINITY PREDICTED BY RF-SCORE:    0.00 PKD
ROOT
HETATM    1  C   UNL     1      -6.388  16.785  70.081  1.00  0.00     0.160 C  
HETATM    2  O   UNL     1      -6.127  16.596  68.686  1.00  0.00    -0.134 OA 
ENDROOT
BRANCH   2   3
HETATM    3  C   UNL     1      -7.191  16.149  67.935  1.00  0.00    -0.130 A  
HETATM    4  C   UNL     1      -7.986  17.122  67.278  1.00  0.00    -0.200 A  
HETATM    5  C   UNL     1      -8.992  16.637  66.411  1.00  0.00    -0.326 A  
HETATM    6  C   UNL     1      -7.539  14.766  67.896  1.00  0.00    -0.149 A  
HETATM    7  C   UNL     1      -8.575  14.376  67.016  1.00  0.00    -0.226 A  
HETATM    8  C   UNL     1      -9.298  15.281  66.223  1.00  0.00    -0.310 A  
BRANCH   4   9
HETATM    9  C   UNL     1      -7.818  18.665  67.421  1.00  0.00    -0.242 C  
HETATM   10  C   UNL     1      -6.365  19.178  67.278  1.00  0.00    -0.189 C  
HETATM   11  C   UNL     1      -8.690  19.365  66.362  1.00  0.00    -0.376 C  
HETATM   12  C   UNL     1      -8.268  19.177  68.823  1.00  0.00    -0.382 C  
ENDBRANCH   4   9
BRANCH   8  13
HETATM   13  N   UNL     1     -10.331  14.829  65.290  1.00  0.00    -0.379 N  
HETATM   14  C   UNL     1     -10.534  13.470  65.044  1.00  0.00    -0.376 C  
HETATM   15  O   UNL     1     -11.029  16.994  64.596  1.00  0.00    -0.968 OA 
HETATM   16  C   UNL     1     -11.406  12.996  64.153  1.00  0.00    -0.442 C  
HETATM   17  H   UNL     1     -12.788  15.890  63.389  1.00  0.00     0.000 HD 
HETATM   18  C   UNL     1     -12.232  13.936  63.398  1.00  0.00     0.059 C  
HETATM   19  O   UNL     1     -12.976  13.556  62.504  1.00  0.00     0.365 OA 
HETATM   20  N   UNL     1     -12.099  15.238  63.763  1.00  0.00     0.165 N  
HETATM   21  C   UNL     1     -11.130  15.768  64.584  1.00  0.00    -0.361 C  
ENDBRANCH   8  13
BRANCH   6  22
HETATM   22  C   UNL     1      -6.874  13.728  68.745  1.00  0.00    -0.106 A  
HETATM   23  C   UNL     1      -5.530  10.308  68.209  1.00  0.00    -0.034 A  
HETATM   24  C   UNL     1      -6.215  12.635  68.153  1.00  0.00    -0.083 A  
HETATM   25  C   UNL     1      -5.304   9.134  68.919  1.00  0.00    -0.037 A  
HETATM   26  C   UNL     1      -5.898  11.479  68.881  1.00  0.00    -0.047 A  
HETATM   27  C   UNL     1      -5.405   9.132  70.305  1.00  0.00    -0.027 A  
HETATM   28  C   UNL     1      -6.509  12.639  70.910  1.00  0.00     1.333 A  
HETATM   29  C   UNL     1      -5.736  10.301  70.995  1.00  0.00    -0.068 A  
HETATM   30  C   UNL     1      -6.963  13.727  70.149  1.00  0.00     0.433 A  
HETATM   31  C   UNL     1      -6.031  11.476  70.281  1.00  0.00    -0.160 A  
BRANCH  27  32
HETATM   32  N   UNL     1      -5.127   7.931  71.015  1.00  0.00    -0.026 N  
HETATM   33  H   UNL     1      -4.195   7.736  71.380  1.00  0.00     0.000 HD 
BRANCH  32  34
HETATM   34  S   UNL     1      -6.407   6.836  71.232  1.00  0.00    -0.042 S  
HETATM   35  C   UNL     1      -5.536   5.328  71.600  1.00  0.00    -0.009 C  
HETATM   36  O   UNL     1      -7.002   6.694  69.921  1.00  0.00    -0.059 OA 
HETATM   37  O   UNL     1      -7.192   7.229  72.378  1.00  0.00    -0.070 OA 
ENDBRANCH  32  34
ENDBRANCH  27  32
ENDBRANCH   6  22
ENDBRANCH   2   3
TORSDOF 6
ENDMDL
MODEL       86
REMARK 921   NORMALIZED FREE ENERGY PREDICTED BY IDOCK:   -1.33 KCAL/MOL
REMARK 922        TOTAL FREE ENERGY PREDICTED BY IDOCK:   -2.04 KCAL/MOL
REMARK 923 INTER-LIGAND FREE ENERGY PREDICTED BY IDOCK:   -2.60 KCAL/MOL
REMARK 924 INTRA-LIGAND FREE ENERGY PREDICTED BY IDOCK:    0.56 KCAL/MOL
REMARK 927      BINDING AFFINITY PREDICTED BY RF-SCORE:    0.00 PKD
ROOT
HETATM    1  C   UNL     1      -7.969  12.519  68.733  1.00  0.00     0.060 C  
HETATM    2  O   UNL     1      -8.338  11.311  69.408  1.00  0.00     0.087 OA 
ENDROOT
BRANCH   2   3
HETATM    3  C   UNL     1      -8.535  10.213  68.602  1.00  0.00    -0.122 A  
HETATM    4  C   UNL     1      -7.713   9.079  68.824  1.00  0.00    -0.095 A  
HETATM    5  C   UNL     1      -8.018   7.920  68.074  1.00  0.00    -0.128 A  
HETATM    6  C   UNL     1      -9.466  10.247  67.522  1.00  0.00    -0.171 A  
HETATM    7  C   UNL     1      -9.689   9.044  66.811  1.00  0.00    -0.279 A  
HETATM    8  C   UNL     1      -9.013   7.846  67.087  1.00  0.00    -0.129 A  
BRANCH   4   9
HETATM    9  C   UNL     1      -6.531   9.012  69.837  1.00  0.00    -0.038 C  
HETATM   10  C   UNL     1      -5.539   7.847  69.605  1.00  0.00    -0.023 C  
HETATM   11  C   UNL     1      -5.748  10.338  69.784  1.00  0.00    -0.044 C  
HETATM   12  C   UNL     1      -7.024   8.809  71.301  1.00  0.00    -0.088 C  
ENDBRANCH   4   9
BRANCH   8  13
HETATM   13  N   UNL     1      -9.310   6.612  66.359  1.00  0.00    -0.159 N  
HETATM   14  C   UNL     1     -10.498   5.914  66.578  1.00  0.00    -0.190 C  
HETATM   15  O   UNL     1      -7.244   6.493  65.185  1.00  0.00    -0.065 OA 
HETATM   16  C   UNL     1     -10.796   4.749  66.002  1.00  0.00    -0.068 C  
HETATM   17  H   UNL     1      -8.190   4.640  63.985  1.00  0.00     0.000 HD 
HETATM   18  C   UNL     1      -9.847   4.161  65.058  1.00  0.00    -0.201 C  
HETATM   19  O   UNL     1     -10.031   3.050  64.578  1.00  0.00    -0.138 OA 
HETATM   20  N   UNL     1      -8.768   4.935  64.771  1.00  0.00    -0.152 N  
HETATM   21  C   UNL     1      -8.374   6.076  65.433  1.00  0.00    -0.150 C  
ENDBRANCH   8  13
BRANCH   6  22
HETATM   22  C   UNL     1     -10.195  11.486  67.104  1.00  0.00    -0.233 A  
HETATM   23  C   UNL     1      -9.385  14.506  65.100  1.00  0.00     0.784 A  
HETATM   24  C   UNL     1      -9.682  12.308  66.084  1.00  0.00    -0.256 A  
HETATM   25  C   UNL     1      -9.760  15.841  64.993  1.00  0.00     0.414 A  
HETATM   26  C   UNL     1     -10.118  13.629  65.907  1.00  0.00    -0.320 A  
HETATM   27  C   UNL     1     -10.891  16.297  65.660  1.00  0.00    -0.208 A  
HETATM   28  C   UNL     1     -11.891  13.212  67.494  1.00  0.00    -0.409 A  
HETATM   29  C   UNL     1     -11.656  15.427  66.441  1.00  0.00     0.105 A  
HETATM   30  C   UNL     1     -11.346  11.948  67.768  1.00  0.00    -0.361 A  
HETATM   31  C   UNL     1     -11.246  14.092  66.608  1.00  0.00    -0.330 A  
BRANCH  27  32
HETATM   32  N   UNL     1     -11.282  17.656  65.503  1.00  0.00     0.422 N  
HETATM   33  H   UNL     1     -11.908  17.943  64.750  1.00  0.00     0.000 HD 
BRANCH  32  34
HETATM   34  S   UNL     1     -10.668  18.782  66.616  1.00  0.00    -0.189 S  
HETATM   35  C   UNL     1     -10.806  20.305  65.707  1.00  0.00     0.086 C  
HETATM   36  O   UNL     1      -9.261  18.462  66.731  1.00  0.00    -0.275 OA 
HETATM   37  O   UNL     1     -11.525  18.834  67.776  1.00  0.00     0.262 OA 
ENDBRANCH  32  34
ENDBRANCH  27  32
ENDBRANCH   6  22
ENDBRANCH   2   3
TORSDOF 6
ENDMDL
MODEL       87
REMARK 921   NORMALIZED FREE ENERGY PREDICTED BY IDOCK:   -0.19 KCAL/MOL
REMARK 922        TOTAL FREE ENERGY PREDICTED BY IDOCK:   -0.50 KCAL/MOL
REMARK 923 INTER-LIGAND FREE ENERGY PREDICTED BY IDOCK:   -4.62 KCAL/MOL
REMARK 924 INTRA-LIGAND FREE ENERGY PREDICTED BY IDOCK:    4.12 KCAL/MOL
REMARK 927      BINDING AFFINITY PREDICTED BY RF-SCORE:    0.00 PKD
ROOT
HETATM    1  C   UNL     1     -11.861  10.713  70.490  1.00  0.00    -0.357 C  
HETATM    2  O   UNL     1     -10.429  10.698  70.537  1.00  0.00     0.118 OA 
ENDROOT
BRANCH   2   3
HETATM    3  C   UNL     1      -9.795  10.478  69.335  1.00  0.00    -0.182 A  
HETATM    4  C   UNL     1      -9.886  11.493  68.349  1.00  0.00    -0.204 A  
HETATM    5  C   UNL     1      -9.123  11.303  67.174  1.00  0.00    -0.160 A  
HETATM    6  C   UNL     1      -9.151   9.237  69.056  1.00  0.00    -0.147 A  
HETATM    7  C   UNL     1      -8.430   9.130  67.843  1.00  0.00    -0.117 A  
HETATM    8  C   UNL     1      -8.358  10.162  66.894  1.00  0.00    -0.122 A  
BRANCH   4   9
HETATM    9  C   UNL     1     -10.735  12.793  68.475  1.00  0.00    -0.275 C  
HETATM   10  C   UNL     1     -10.993  13.266  69.925  1.00  0.00     0.335 C  
HETATM   11  C   UNL     1     -10.028  13.930  67.710  1.00  0.00    -0.241 C  
HETATM   12  C   UNL     1     -12.160  12.626  67.867  1.00  0.00    -0.158 C  
ENDBRANCH   4   9
BRANCH   8  13
HETATM   13  N   UNL     1      -7.560  10.027  65.674  1.00  0.00    -0.130 N  
HETATM   14  C   UNL     1      -8.056   9.349  64.560  1.00  0.00    -0.136 C  
HETATM   15  O   UNL     1      -5.607  11.093  66.516  1.00  0.00    -0.096 OA 
HETATM   16  C   UNL     1      -7.355   9.129  63.448  1.00  0.00    -0.096 C  
HETATM   17  H   UNL     1      -4.728  10.935  64.286  1.00  0.00     0.000 HD 
HETATM   18  C   UNL     1      -5.990   9.645  63.355  1.00  0.00    -0.102 C  
HETATM   19  O   UNL     1      -5.275   9.388  62.396  1.00  0.00    -0.082 OA 
HETATM   20  N   UNL     1      -5.594  10.412  64.404  1.00  0.00    -0.133 N  
HETATM   21  C   UNL     1      -6.243  10.556  65.609  1.00  0.00    -0.129 C  
ENDBRANCH   8  13
BRANCH   6  22
HETATM   22  C   UNL     1      -9.216   8.053  69.971  1.00  0.00    -0.156 A  
HETATM   23  C   UNL     1      -8.790   4.381  69.614  1.00  0.00    -0.133 A  
HETATM   24  C   UNL     1      -8.708   6.806  69.565  1.00  0.00    -0.133 A  
HETATM   25  C   UNL     1      -9.216   3.201  70.212  1.00  0.00    -0.217 A  
HETATM   26  C   UNL     1      -9.058   5.616  70.217  1.00  0.00    -0.163 A  
HETATM   27  C   UNL     1      -9.877   3.243  71.433  1.00  0.00    -0.124 A  
HETATM   28  C   UNL     1     -10.101   6.925  71.959  1.00  0.00    -0.201 A  
HETATM   29  C   UNL     1     -10.121   4.464  72.068  1.00  0.00    -0.256 A  
HETATM   30  C   UNL     1      -9.875   8.093  71.214  1.00  0.00    -0.207 A  
HETATM   31  C   UNL     1      -9.753   5.666  71.439  1.00  0.00    -0.204 A  
BRANCH  27  32
HETATM   32  N   UNL     1     -10.267   2.022  72.049  1.00  0.00    -0.155 N  
HETATM   33  H   UNL     1      -9.922   1.124  71.709  1.00  0.00     0.000 HD 
BRANCH  32  34
HETATM   34  S   UNL     1     -11.328   2.115  73.372  1.00  0.00    -0.145 S  
HETATM   35  C   UNL     1     -11.472   3.873  73.601  1.00  0.00    -0.078 C  
HETATM   36  O   UNL     1     -10.577   1.583  74.490  1.00  0.00    -0.116 OA 
HETATM   37  O   UNL     1     -12.613   1.571  73.002  1.00  0.00     0.080 OA 
ENDBRANCH  32  34
ENDBRANCH  27  32
ENDBRANCH   6  22
ENDBRANCH   2   3
TORSDOF 6
ENDMDL
MODEL       88
REMARK 921   NORMALIZED FREE ENERGY PREDICTED BY IDOCK:    0.27 KCAL/MOL
REMARK 922        TOTAL FREE ENERGY PREDICTED BY IDOCK:    0.13 KCAL/MOL
REMARK 923 INTER-LIGAND FREE ENERGY PREDICTED BY IDOCK:   -4.96 KCAL/MOL
REMARK 924 INTRA-LIGAND FREE ENERGY PREDICTED BY IDOCK:    5.09 KCAL/MOL
REMARK 927      BINDING AFFINITY PREDICTED BY RF-SCORE:    0.00 PKD
ROOT
HETATM    1  C   UNL     1     -12.522  10.382  70.561  1.00  0.00    -0.317 C  
HETATM    2  O   UNL     1     -11.091  10.386  70.615  1.00  0.00    -0.313 OA 
ENDROOT
BRANCH   2   3
HETATM    3  C   UNL     1     -10.448  10.341  69.398  1.00  0.00    -0.236 A  
HETATM    4  C   UNL     1     -10.585  11.463  68.542  1.00  0.00    -0.225 A  
HETATM    5  C   UNL     1      -9.814  11.451  67.357  1.00  0.00    -0.199 A  
HETATM    6  C   UNL     1      -9.747   9.173  68.975  1.00  0.00    -0.166 A  
HETATM    7  C   UNL     1      -9.023   9.247  67.762  1.00  0.00    -0.131 A  
HETATM    8  C   UNL     1      -8.998  10.387  66.945  1.00  0.00    -0.139 A  
BRANCH   4   9
HETATM    9  C   UNL     1     -11.491  12.699  68.819  1.00  0.00    -0.349 C  
HETATM   10  C   UNL     1     -10.795  13.865  69.561  1.00  0.00    -0.045 C  
HETATM   11  C   UNL     1     -12.039  13.231  67.480  1.00  0.00    -0.312 C  
HETATM   12  C   UNL     1     -12.710  12.343  69.723  1.00  0.00     0.470 C  
ENDBRANCH   4   9
BRANCH   8  13
HETATM   13  N   UNL     1      -8.195  10.437  65.722  1.00  0.00    -0.151 N  
HETATM   14  C   UNL     1      -8.794  10.369  64.464  1.00  0.00    -0.207 C  
HETATM   15  O   UNL     1      -6.075  10.492  66.799  1.00  0.00    -0.059 OA 
HETATM   16  C   UNL     1      -8.117  10.336  63.315  1.00  0.00    -0.157 C  
HETATM   17  H   UNL     1      -5.130  10.840  64.618  1.00  0.00     0.000 HD 
HETATM   18  C   UNL     1      -6.657  10.403  63.351  1.00  0.00    -0.054 C  
HETATM   19  O   UNL     1      -5.988  10.281  62.333  1.00  0.00    -0.104 OA 
HETATM   20  N   UNL     1      -6.121  10.604  64.583  1.00  0.00    -0.038 N  
HETATM   21  C   UNL     1      -6.779  10.522  65.790  1.00  0.00    -0.123 C  
ENDBRANCH   8  13
BRANCH   6  22
HETATM   22  C   UNL     1      -9.760   7.886  69.740  1.00  0.00    -0.176 A  
HETATM   23  C   UNL     1     -10.150   6.907  73.301  1.00  0.00    -0.260 A  
HETATM   24  C   UNL     1     -10.230   7.847  71.065  1.00  0.00    -0.217 A  
HETATM   25  C   UNL     1      -9.775   5.887  74.168  1.00  0.00    -0.191 A  
HETATM   26  C   UNL     1      -9.936   6.778  71.924  1.00  0.00    -0.187 A  
HETATM   27  C   UNL     1      -9.222   4.716  73.662  1.00  0.00    -0.114 A  
HETATM   28  C   UNL     1      -9.049   5.559  70.037  1.00  0.00    -0.160 A  
HETATM   29  C   UNL     1      -9.036   4.555  72.286  1.00  0.00    -0.141 A  
HETATM   30  C   UNL     1      -9.211   6.696  69.229  1.00  0.00    -0.140 A  
HETATM   31  C   UNL     1      -9.350   5.608  71.409  1.00  0.00    -0.169 A  
BRANCH  27  32
HETATM   32  N   UNL     1      -8.886   3.667  74.561  1.00  0.00    -0.090 N  
HETATM   33  H   UNL     1      -8.652   3.859  75.535  1.00  0.00     0.000 HD 
BRANCH  32  34
HETATM   34  S   UNL     1      -8.890   2.082  73.952  1.00  0.00    -0.062 S  
HETATM   35  C   UNL     1      -9.175   2.358  72.217  1.00  0.00    -0.087 C  
HETATM   36  O   UNL     1     -10.081   1.473  74.504  1.00  0.00    -0.085 OA 
HETATM   37  O   UNL     1      -7.587   1.489  74.137  1.00  0.00    -0.028 OA 
ENDBRANCH  32  34
ENDBRANCH  27  32
ENDBRANCH   6  22
ENDBRANCH   2   3
TORSDOF 6
ENDMDL
MODEL       89
REMARK 921   NORMALIZED FREE ENERGY PREDICTED BY IDOCK:    0.32 KCAL/MOL
REMARK 922        TOTAL FREE ENERGY PREDICTED BY IDOCK:    0.19 KCAL/MOL
REMARK 923 INTER-LIGAND FREE ENERGY PREDICTED BY IDOCK:   -1.61 KCAL/MOL
REMARK 924 INTRA-LIGAND FREE ENERGY PREDICTED BY IDOCK:    1.80 KCAL/MOL
REMARK 927      BINDING AFFINITY PREDICTED BY RF-SCORE:    0.00 PKD
ROOT
HETATM    1  C   UNL     1     -12.246  12.172  69.826  1.00  0.00    -0.144 C  
HETATM    2  O   UNL     1     -12.054  11.021  68.995  1.00  0.00    -0.426 OA 
ENDROOT
BRANCH   2   3
HETATM    3  C   UNL     1     -11.186  10.071  69.483  1.00  0.00    -0.208 A  
HETATM    4  C   UNL     1     -11.711   9.098  70.372  1.00  0.00    -0.124 A  
HETATM    5  C   UNL     1     -10.836   8.057  70.759  1.00  0.00    -0.244 A  
HETATM    6  C   UNL     1      -9.793  10.116  69.183  1.00  0.00    -0.225 A  
HETATM    7  C   UNL     1      -8.989   9.043  69.633  1.00  0.00    -0.153 A  
HETATM    8  C   UNL     1      -9.486   7.970  70.390  1.00  0.00    -0.166 A  
BRANCH   4   9
HETATM    9  C   UNL     1     -13.168   9.081  70.925  1.00  0.00     0.090 C  
HETATM   10  C   UNL     1     -13.333   9.670  72.346  1.00  0.00    -0.426 C  
HETATM   11  C   UNL     1     -14.080   9.866  69.963  1.00  0.00     2.004 C  
HETATM   12  C   UNL     1     -13.734   7.633  71.042  1.00  0.00    -0.091 C  
ENDBRANCH   4   9
BRANCH   8  13
HETATM   13  N   UNL     1      -8.629   6.855  70.793  1.00  0.00    -0.143 N  
HETATM   14  C   UNL     1      -8.250   6.682  72.125  1.00  0.00    -0.105 C  
HETATM   15  O   UNL     1      -8.277   5.986  68.607  1.00  0.00    -0.106 OA 
HETATM   16  C   UNL     1      -7.414   5.732  72.546  1.00  0.00    -0.096 C  
HETATM   17  H   UNL     1      -7.156   4.146  69.668  1.00  0.00     0.000 HD 
HETATM   18  C   UNL     1      -6.872   4.783  71.576  1.00  0.00    -0.043 C  
HETATM   19  O   UNL     1      -6.030   3.955  71.896  1.00  0.00    -0.012 OA 
HETATM   20  N   UNL     1      -7.370   4.902  70.317  1.00  0.00    -0.054 N  
HETATM   21  C   UNL     1      -8.133   5.938  69.828  1.00  0.00    -0.105 C  
ENDBRANCH   8  13
BRANCH   6  22
HETATM   22  C   UNL     1      -9.151  11.244  68.436  1.00  0.00    -0.170 A  
HETATM   23  C   UNL     1      -8.998  14.937  68.801  1.00  0.00    -0.188 A  
HETATM   24  C   UNL     1      -9.047  12.521  69.019  1.00  0.00     0.477 A  
HETATM   25  C   UNL     1      -8.835  16.074  68.019  1.00  0.00    -0.175 A  
HETATM   26  C   UNL     1      -8.792  13.666  68.252  1.00  0.00    -0.179 A  
HETATM   27  C   UNL     1      -8.428  15.952  66.696  1.00  0.00    -0.287 A  
HETATM   28  C   UNL     1      -8.318  12.243  66.359  1.00  0.00     0.157 A  
HETATM   29  C   UNL     1      -8.181  14.693  66.141  1.00  0.00     1.107 A  
HETATM   30  C   UNL     1      -8.726  11.123  67.100  1.00  0.00    -0.141 A  
HETATM   31  C   UNL     1      -8.408  13.535  66.905  1.00  0.00    -0.012 A  
BRANCH  27  32
HETATM   32  N   UNL     1      -8.224  17.130  65.925  1.00  0.00    -0.127 N  
HETATM   33  H   UNL     1      -7.908  17.081  64.956  1.00  0.00     0.000 HD 
BRANCH  32  34
HETATM   34  S   UNL     1      -8.528  18.621  66.678  1.00  0.00    -0.298 S  
HETATM   35  C   UNL     1     -10.224  18.435  67.185  1.00  0.00    -0.374 C  
HETATM   36  O   UNL     1      -8.491  19.594  65.607  1.00  0.00    -0.369 OA 
HETATM   37  O   UNL     1      -7.689  18.754  67.846  1.00  0.00    -0.248 OA 
ENDBRANCH  32  34
ENDBRANCH  27  32
ENDBRANCH   6  22
ENDBRANCH   2   3
TORSDOF 6
ENDMDL
MODEL       90
REMARK 921   NORMALIZED FREE ENERGY PREDICTED BY IDOCK:    1.04 KCAL/MOL
REMARK 922        TOTAL FREE ENERGY PREDICTED BY IDOCK:    1.16 KCAL/MOL
REMARK 923 INTER-LIGAND FREE ENERGY PREDICTED BY IDOCK:   -1.90 KCAL/MOL
REMARK 924 INTRA-LIGAND FREE ENERGY PREDICTED BY IDOCK:    3.06 KCAL/MOL
REMARK 927      BINDING AFFINITY PREDICTED BY RF-SCORE:    0.00 PKD
ROOT
HETATM    1  C   UNL     1      -8.631  13.171  66.492  1.00  0.00     0.172 C  
HETATM    2  O   UNL     1      -8.866  11.784  66.219  1.00  0.00    -0.195 OA 
ENDROOT
BRANCH   2   3
HETATM    3  C   UNL     1      -8.700  10.930  67.286  1.00  0.00    -0.131 A  
HETATM    4  C   UNL     1      -8.880   9.543  67.050  1.00  0.00    -0.139 A  
HETATM    5  C   UNL     1      -8.579   8.675  68.124  1.00  0.00    -0.141 A  
HETATM    6  C   UNL     1      -8.449  11.426  68.599  1.00  0.00    -0.131 A  
HETATM    7  C   UNL     1      -8.182  10.482  69.617  1.00  0.00    -0.031 A  
HETATM    8  C   UNL     1      -8.196   9.094  69.407  1.00  0.00    -0.118 A  
BRANCH   4   9
HETATM    9  C   UNL     1      -9.354   8.915  65.705  1.00  0.00    -0.286 C  
HETATM   10  C   UNL     1      -9.821   7.443  65.802  1.00  0.00     0.651 C  
HETATM   11  C   UNL     1     -10.514   9.758  65.139  1.00  0.00     0.606 C  
HETATM   12  C   UNL     1      -8.220   8.889  64.637  1.00  0.00    -0.163 C  
ENDBRANCH   4   9
BRANCH   8  13
HETATM   13  N   UNL     1      -7.866   8.153  70.478  1.00  0.00    -0.084 N  
HETATM   14  C   UNL     1      -8.312   8.362  71.783  1.00  0.00    -0.160 C  
HETATM   15  O   UNL     1      -6.491   6.725  69.162  1.00  0.00    -0.034 OA 
HETATM   16  C   UNL     1      -7.986   7.583  72.816  1.00  0.00    -0.125 C  
HETATM   17  H   UNL     1      -6.405   5.274  71.074  1.00  0.00     0.000 HD 
HETATM   18  C   UNL     1      -7.136   6.417  72.586  1.00  0.00    -0.075 C  
HETATM   19  O   UNL     1      -6.732   5.729  73.514  1.00  0.00    -0.076 OA 
HETATM   20  N   UNL     1      -6.835   6.174  71.283  1.00  0.00    -0.065 N  
HETATM   21  C   UNL     1      -7.052   7.018  70.217  1.00  0.00    -0.067 C  
ENDBRANCH   8  13
BRANCH   6  22
HETATM   22  C   UNL     1      -8.472  12.883  68.944  1.00  0.00     0.294 A  
HETATM   23  C   UNL     1     -10.950  15.640  68.706  1.00  0.00    -0.281 A  
HETATM   24  C   UNL     1      -9.690  13.587  68.997  1.00  0.00     0.214 A  
HETATM   25  C   UNL     1     -10.988  17.023  68.576  1.00  0.00    -0.247 A  
HETATM   26  C   UNL     1      -9.738  14.987  68.960  1.00  0.00    -0.229 A  
HETATM   27  C   UNL     1      -9.825  17.766  68.739  1.00  0.00    -0.343 A  
HETATM   28  C   UNL     1      -7.340  15.036  69.240  1.00  0.00    -0.184 A  
HETATM   29  C   UNL     1      -8.613  17.135  69.030  1.00  0.00    -0.101 A  
HETATM   30  C   UNL     1      -7.299  13.638  69.121  1.00  0.00     0.047 A  
HETATM   31  C   UNL     1      -8.553  15.731  69.096  1.00  0.00    -0.256 A  
BRANCH  27  32
HETATM   32  N   UNL     1      -9.893  19.184  68.646  1.00  0.00    -0.400 N  
HETATM   33  H   UNL     1      -9.578  19.780  69.411  1.00  0.00     0.000 HD 
BRANCH  32  34
HETATM   34  S   UNL     1     -10.520  19.846  67.213  1.00  0.00    -0.387 S  
HETATM   35  C   UNL     1      -9.975  18.665  65.997  1.00  0.00    -0.242 C  
HETATM   36  O   UNL     1      -9.772  21.068  67.009  1.00  0.00    -0.308 OA 
HETATM   37  O   UNL     1     -11.962  19.846  67.270  1.00  0.00     1.115 OA 
ENDBRANCH  32  34
ENDBRANCH  27  32
ENDBRANCH   6  22
ENDBRANCH   2   3
TORSDOF 6
ENDMDL
MODEL       91
REMARK 921   NORMALIZED FREE ENERGY PREDICTED BY IDOCK:    1.13 KCAL/MOL
REMARK 922        TOTAL FREE ENERGY PREDICTED BY IDOCK:    1.28 KCAL/MOL
REMARK 923 INTER-LIGAND FREE ENERGY PREDICTED BY IDOCK:    0.63 KCAL/MOL
REMARK 924 INTRA-LIGAND FREE ENERGY PREDICTED BY IDOCK:    0.65 KCAL/MOL
REMARK 927      BINDING AFFINITY PREDICTED BY RF-SCORE:    0.00 PKD
ROOT
HETATM    1  C   UNL     1     -11.100  12.990  64.556  1.00  0.00    -0.351 C  
HETATM    2  O   UNL     1     -11.413  13.480  65.865  1.00  0.00    -0.310 OA 
ENDROOT
BRANCH   2   3
HETATM    3  C   UNL     1     -10.434  14.235  66.470  1.00  0.00    -0.287 A  
HETATM    4  C   UNL     1     -10.542  15.646  66.376  1.00  0.00    -0.308 A  
HETATM    5  C   UNL     1      -9.600  16.402  67.111  1.00  0.00    -0.239 A  
HETATM    6  C   UNL     1      -9.303  13.623  67.087  1.00  0.00    -0.240 A  
HETATM    7  C   UNL     1      -8.400  14.462  67.780  1.00  0.00    -0.172 A  
HETATM    8  C   UNL     1      -8.540  15.857  67.850  1.00  0.00    -0.163 A  
BRANCH   4   9
HETATM    9  C   UNL     1     -11.621  16.411  65.553  1.00  0.00     0.717 C  
HETATM   10  C   UNL     1     -11.485  16.279  64.017  1.00  0.00     0.407 C  
HETATM   11  C   UNL     1     -13.018  15.906  65.964  1.00  0.00     3.296 C  
HETATM   12  C   UNL     1     -11.576  17.947  65.811  1.00  0.00     2.202 C  
ENDBRANCH   4   9
BRANCH   8  13
HETATM   13  N   UNL     1      -7.609  16.684  68.619  1.00  0.00    -0.202 N  
HETATM   14  C   UNL     1      -6.558  16.109  69.335  1.00  0.00    -0.197 C  
HETATM   15  O   UNL     1      -8.692  18.761  68.204  1.00  0.00    -0.288 OA 
HETATM   16  C   UNL     1      -5.721  16.797  70.112  1.00  0.00    -0.207 C  
HETATM   17  H   UNL     1      -6.828  19.797  69.309  1.00  0.00     0.000 HD 
HETATM   18  C   UNL     1      -5.876  18.247  70.214  1.00  0.00    -0.144 C  
HETATM   19  O   UNL     1      -5.195  18.909  70.986  1.00  0.00    -0.248 OA 
HETATM   20  N   UNL     1      -6.823  18.781  69.399  1.00  0.00    -0.237 N  
HETATM   21  C   UNL     1      -7.776  18.093  68.683  1.00  0.00    -0.297 C  
ENDBRANCH   8  13
BRANCH   6  22
HETATM   22  C   UNL     1      -9.027  12.153  67.019  1.00  0.00    -0.201 A  
HETATM   23  C   UNL     1      -7.896   9.771  64.404  1.00  0.00    -0.137 A  
HETATM   24  C   UNL     1      -8.319  11.607  65.933  1.00  0.00     0.198 A  
HETATM   25  C   UNL     1      -8.004   8.424  64.077  1.00  0.00    -0.151 A  
HETATM   26  C   UNL     1      -8.346  10.235  65.645  1.00  0.00    -0.159 A  
HETATM   27  C   UNL     1      -8.526   7.528  65.002  1.00  0.00     0.005 A  
HETATM   28  C   UNL     1      -9.444   9.855  67.762  1.00  0.00    -0.158 A  
HETATM   29  C   UNL     1      -8.946   7.967  66.260  1.00  0.00    -0.208 A  
HETATM   30  C   UNL     1      -9.543  11.241  67.958  1.00  0.00    -0.182 A  
HETATM   31  C   UNL     1      -8.902   9.337  66.573  1.00  0.00    -0.154 A  
BRANCH  27  32
HETATM   32  N   UNL     1      -8.589   6.147  64.664  1.00  0.00    -0.345 N  
HETATM   33  H   UNL     1      -8.358   5.821  63.726  1.00  0.00     0.000 HD 
BRANCH  32  34
HETATM   34  S   UNL     1      -9.062   5.063  65.883  1.00  0.00    -0.154 S  
HETATM   35  C   UNL     1      -8.706   3.490  65.131  1.00  0.00    -0.118 C  
HETATM   36  O   UNL     1     -10.500   5.200  65.965  1.00  0.00    -0.231 OA 
HETATM   37  O   UNL     1      -8.221   5.242  67.043  1.00  0.00    -0.108 OA 
ENDBRANCH  32  34
ENDBRANCH  27  32
ENDBRANCH   6  22
ENDBRANCH   2   3
TORSDOF 6
ENDMDL
MODEL       92
REMARK 921   NORMALIZED FREE ENERGY PREDICTED BY IDOCK:    1.30 KCAL/MOL
REMARK 922        TOTAL FREE ENERGY PREDICTED BY IDOCK:    1.51 KCAL/MOL
REMARK 923 INTER-LIGAND FREE ENERGY PREDICTED BY IDOCK:    1.00 KCAL/MOL
REMARK 924 INTRA-LIGAND FREE ENERGY PREDICTED BY IDOCK:    0.51 KCAL/MOL
REMARK 927      BINDING AFFINITY PREDICTED BY RF-SCORE:    0.00 PKD
ROOT
HETATM    1  C   UNL     1     -11.100  12.990  64.556  1.00  0.00    -0.351 C  
HETATM    2  O   UNL     1     -11.428  13.484  65.860  1.00  0.00    -0.310 OA 
ENDROOT
BRANCH   2   3
HETATM    3  C   UNL     1     -10.457  14.245  66.470  1.00  0.00    -0.287 A  
HETATM    4  C   UNL     1     -10.568  15.656  66.369  1.00  0.00    -0.308 A  
HETATM    5  C   UNL     1      -9.636  16.418  67.110  1.00  0.00    -0.239 A  
HETATM    6  C   UNL     1      -9.330  13.640  67.101  1.00  0.00    -0.240 A  
HETATM    7  C   UNL     1      -8.437  14.485  67.799  1.00  0.00    -0.176 A  
HETATM    8  C   UNL     1      -8.582  15.880  67.862  1.00  0.00    -0.163 A  
BRANCH   4   9
HETATM    9  C   UNL     1     -11.642  16.414  65.532  1.00  0.00     0.717 C  
HETATM   10  C   UNL     1     -11.780  15.940  64.066  1.00  0.00     0.137 C  
HETATM   11  C   UNL     1     -13.012  16.268  66.223  1.00  0.00     4.783 C  
HETATM   12  C   UNL     1     -11.328  17.936  65.415  1.00  0.00     1.229 C  
ENDBRANCH   4   9
BRANCH   8  13
HETATM   13  N   UNL     1      -7.661  16.713  68.636  1.00  0.00    -0.202 N  
HETATM   14  C   UNL     1      -6.615  16.145  69.365  1.00  0.00    -0.197 C  
HETATM   15  O   UNL     1      -8.746  18.785  68.201  1.00  0.00    -0.288 OA 
HETATM   16  C   UNL     1      -5.787  16.839  70.147  1.00  0.00    -0.178 C  
HETATM   17  H   UNL     1      -6.896  19.832  69.319  1.00  0.00     0.000 HD 
HETATM   18  C   UNL     1      -5.948  18.289  70.241  1.00  0.00    -0.072 C  
HETATM   19  O   UNL     1      -5.277  18.957  71.016  1.00  0.00    -0.248 OA 
HETATM   20  N   UNL     1      -6.889  18.817  69.414  1.00  0.00    -0.237 N  
HETATM   21  C   UNL     1      -7.833  18.122  68.692  1.00  0.00    -0.295 C  
ENDBRANCH   8  13
BRANCH   6  22
HETATM   22  C   UNL     1      -9.048  12.171  67.043  1.00  0.00    -0.198 A  
HETATM   23  C   UNL     1     -10.551   9.109  68.513  1.00  0.00    -0.209 A  
HETATM   24  C   UNL     1     -10.005  11.241  67.491  1.00  0.00    -0.203 A  
HETATM   25  C   UNL     1     -10.183   7.823  68.891  1.00  0.00    -0.220 A  
HETATM   26  C   UNL     1      -9.665   9.914  67.788  1.00  0.00    -0.175 A  
HETATM   27  C   UNL     1      -8.944   7.319  68.513  1.00  0.00    -0.130 A  
HETATM   28  C   UNL     1      -7.494  10.292  66.800  1.00  0.00    -0.107 A  
HETATM   29  C   UNL     1      -8.061   8.094  67.758  1.00  0.00    -0.127 A  
HETATM   30  C   UNL     1      -7.800  11.654  66.651  1.00  0.00    -0.083 A  
HETATM   31  C   UNL     1      -8.398   9.419  67.429  1.00  0.00    -0.125 A  
BRANCH  27  32
HETATM   32  N   UNL     1      -8.604   5.985  68.872  1.00  0.00    -0.115 N  
HETATM   33  H   UNL     1      -8.616   5.232  68.183  1.00  0.00     0.000 HD 
BRANCH  32  34
HETATM   34  S   UNL     1      -8.178   5.693  70.490  1.00  0.00    -0.118 S  
HETATM   35  C   UNL     1      -6.671   4.764  70.309  1.00  0.00    -0.036 C  
HETATM   36  O   UNL     1      -9.197   4.792  70.986  1.00  0.00    -0.131 OA 
HETATM   37  O   UNL     1      -7.895   6.945  71.149  1.00  0.00    -0.098 OA 
ENDBRANCH  32  34
ENDBRANCH  27  32
ENDBRANCH   6  22
ENDBRANCH   2   3
TORSDOF 6
ENDMDL
MODEL       93
REMARK 921   NORMALIZED FREE ENERGY PREDICTED BY IDOCK:    1.34 KCAL/MOL
REMARK 922        TOTAL FREE ENERGY PREDICTED BY IDOCK:    1.57 KCAL/MOL
REMARK 923 INTER-LIGAND FREE ENERGY PREDICTED BY IDOCK:   -0.32 KCAL/MOL
REMARK 924 INTRA-LIGAND FREE ENERGY PREDICTED BY IDOCK:    1.89 KCAL/MOL
REMARK 927      BINDING AFFINITY PREDICTED BY RF-SCORE:    0.00 PKD
ROOT
HETATM    1  C   UNL     1     -11.534  15.443  66.315  1.00  0.00     0.009 C  
HETATM    2  O   UNL     1     -10.155  15.488  65.927  1.00  0.00    -0.298 OA 
ENDROOT
BRANCH   2   3
HETATM    3  C   UNL     1      -9.325  16.208  66.756  1.00  0.00    -0.234 A  
HETATM    4  C   UNL     1      -9.517  17.611  66.819  1.00  0.00    -0.285 A  
HETATM    5  C   UNL     1      -8.743  18.314  67.771  1.00  0.00    -0.263 A  
HETATM    6  C   UNL     1      -8.252  15.580  67.455  1.00  0.00    -0.199 A  
HETATM    7  C   UNL     1      -7.516  16.368  68.370  1.00  0.00    -0.171 A  
HETATM    8  C   UNL     1      -7.761  17.733  68.587  1.00  0.00    -0.283 A  
BRANCH   4   9
HETATM    9  C   UNL     1     -10.522  18.421  65.944  1.00  0.00    -0.346 C  
HETATM   10  C   UNL     1     -11.150  17.629  64.773  1.00  0.00     1.232 C  
HETATM   11  C   UNL     1     -11.658  18.948  66.842  1.00  0.00     1.239 C  
HETATM   12  C   UNL     1      -9.848  19.648  65.260  1.00  0.00     0.802 C  
ENDBRANCH   4   9
BRANCH   8  13
HETATM   13  N   UNL     1      -7.007  18.500  69.579  1.00  0.00    -0.104 N  
HETATM   14  C   UNL     1      -6.122  17.870  70.456  1.00  0.00     0.343 C  
HETATM   15  O   UNL     1      -7.985  20.611  69.084  1.00  0.00     0.720 OA 
HETATM   16  C   UNL     1      -5.461  18.499  71.428  1.00  0.00    -0.093 C  
HETATM   17  H   UNL     1      -6.385  21.555  70.606  1.00  0.00     0.000 HD 
HETATM   18  C   UNL     1      -5.635  19.942  71.587  1.00  0.00    -0.388 C  
HETATM   19  O   UNL     1      -5.126  20.547  72.521  1.00  0.00    -0.187 OA 
HETATM   20  N   UNL     1      -6.398  20.536  70.632  1.00  0.00    -0.067 N  
HETATM   21  C   UNL     1      -7.184  19.905  69.696  1.00  0.00    -0.046 C  
ENDBRANCH   8  13
BRANCH   6  22
HETATM   22  C   UNL     1      -7.867  14.148  67.252  1.00  0.00    -0.154 A  
HETATM   23  C   UNL     1      -9.625  10.877  67.343  1.00  0.00    -0.181 A  
HETATM   24  C   UNL     1      -8.854  13.161  67.067  1.00  0.00    -0.212 A  
HETATM   25  C   UNL     1      -9.359   9.537  67.597  1.00  0.00    -0.141 A  
HETATM   26  C   UNL     1      -8.576  11.797  67.230  1.00  0.00    -0.162 A  
HETATM   27  C   UNL     1      -8.044   9.099  67.699  1.00  0.00    -0.104 A  
HETATM   28  C   UNL     1      -6.224  12.332  67.353  1.00  0.00    -0.153 A  
HETATM   29  C   UNL     1      -6.983   9.997  67.552  1.00  0.00    -0.086 A  
HETATM   30  C   UNL     1      -6.537  13.701  67.343  1.00  0.00     0.011 A  
HETATM   31  C   UNL     1      -7.244  11.365  67.362  1.00  0.00    -0.115 A  
BRANCH  27  32
HETATM   32  N   UNL     1      -7.791   7.716  67.915  1.00  0.00    -0.115 N  
HETATM   33  H   UNL     1      -7.932   7.030  67.173  1.00  0.00     0.000 HD 
BRANCH  32  34
HETATM   34  S   UNL     1      -7.247   7.250  69.454  1.00  0.00    -0.086 S  
HETATM   35  C   UNL     1      -8.043   5.672  69.660  1.00  0.00    -0.102 C  
HETATM   36  O   UNL     1      -7.872   8.183  70.368  1.00  0.00    -0.085 OA 
HETATM   37  O   UNL     1      -5.816   7.067  69.427  1.00  0.00    -0.018 OA 
ENDBRANCH  32  34
ENDBRANCH  27  32
ENDBRANCH   6  22
ENDBRANCH   2   3
TORSDOF 6
ENDMDL
MODEL       94
REMARK 921   NORMALIZED FREE ENERGY PREDICTED BY IDOCK:    1.62 KCAL/MOL
REMARK 922        TOTAL FREE ENERGY PREDICTED BY IDOCK:    1.94 KCAL/MOL
REMARK 923 INTER-LIGAND FREE ENERGY PREDICTED BY IDOCK:   -1.08 KCAL/MOL
REMARK 924 INTRA-LIGAND FREE ENERGY PREDICTED BY IDOCK:    3.03 KCAL/MOL
REMARK 927      BINDING AFFINITY PREDICTED BY RF-SCORE:    0.00 PKD
ROOT
HETATM    1  C   UNL     1      -8.814  13.429  65.920  1.00  0.00     0.735 C  
HETATM    2  O   UNL     1      -8.827  12.156  65.265  1.00  0.00     0.352 OA 
ENDROOT
BRANCH   2   3
HETATM    3  C   UNL     1      -8.509  11.075  66.055  1.00  0.00    -0.158 A  
HETATM    4  C   UNL     1      -8.429   9.805  65.429  1.00  0.00    -0.154 A  
HETATM    5  C   UNL     1      -7.976   8.732  66.231  1.00  0.00    -0.106 A  
HETATM    6  C   UNL     1      -8.359  11.209  67.467  1.00  0.00    -0.122 A  
HETATM    7  C   UNL     1      -7.926  10.075  68.192  1.00  0.00    -0.100 A  
HETATM    8  C   UNL     1      -7.682   8.826  67.599  1.00  0.00    -0.101 A  
BRANCH   4   9
HETATM    9  C   UNL     1      -8.774   9.515  63.938  1.00  0.00    -0.238 C  
HETATM   10  C   UNL     1     -10.217   9.887  63.519  1.00  0.00     1.206 C  
HETATM   11  C   UNL     1      -7.791  10.286  63.036  1.00  0.00    -0.148 C  
HETATM   12  C   UNL     1      -8.652   8.001  63.590  1.00  0.00     0.287 C  
ENDBRANCH   4   9
BRANCH   8  13
HETATM   13  N   UNL     1      -7.187   7.690  68.379  1.00  0.00    -0.087 N  
HETATM   14  C   UNL     1      -5.837   7.339  68.363  1.00  0.00    -0.023 C  
HETATM   15  O   UNL     1      -9.307   6.990  69.202  1.00  0.00    -0.142 OA 
HETATM   16  C   UNL     1      -5.335   6.275  68.992  1.00  0.00    -0.011 C  
HETATM   17  H   UNL     1      -8.105   5.414  70.559  1.00  0.00     0.000 HD 
HETATM   18  C   UNL     1      -6.231   5.426  69.775  1.00  0.00    -0.025 C  
HETATM   19  O   UNL     1      -5.837   4.388  70.290  1.00  0.00    -0.013 OA 
HETATM   20  N   UNL     1      -7.509   5.877  69.874  1.00  0.00    -0.078 N  
HETATM   21  C   UNL     1      -8.081   6.895  69.145  1.00  0.00    -0.121 C  
ENDBRANCH   8  13
BRANCH   6  22
HETATM   22  C   UNL     1      -8.653  12.478  68.206  1.00  0.00    -0.173 A  
HETATM   23  C   UNL     1     -11.333  15.048  68.130  1.00  0.00    -0.343 A  
HETATM   24  C   UNL     1      -9.927  13.070  68.133  1.00  0.00    -0.231 A  
HETATM   25  C   UNL     1     -11.517  16.397  68.409  1.00  0.00    -0.181 A  
HETATM   26  C   UNL     1     -10.145  14.406  68.499  1.00  0.00    -0.244 A  
HETATM   27  C   UNL     1     -10.533  17.104  69.091  1.00  0.00    -0.296 A  
HETATM   28  C   UNL     1      -7.912  14.476  69.417  1.00  0.00     0.067 A  
HETATM   29  C   UNL     1      -9.356  16.470  69.498  1.00  0.00     0.094 A  
HETATM   30  C   UNL     1      -7.664  13.192  68.908  1.00  0.00     0.080 A  
HETATM   31  C   UNL     1      -9.134  15.123  69.162  1.00  0.00    -0.215 A  
BRANCH  27  32
HETATM   32  N   UNL     1     -10.759  18.472  69.404  1.00  0.00     0.139 N  
HETATM   33  H   UNL     1     -11.321  18.745  70.211  1.00  0.00     0.000 HD 
BRANCH  32  34
HETATM   34  S   UNL     1     -10.058  19.636  68.384  1.00  0.00    -0.448 S  
HETATM   35  C   UNL     1     -10.982  19.407  66.881  1.00  0.00    -0.301 C  
HETATM   36  O   UNL     1      -8.710  19.163  68.152  1.00  0.00    -0.301 OA 
HETATM   37  O   UNL     1     -10.313  20.956  68.909  1.00  0.00     0.316 OA 
ENDBRANCH  32  34
ENDBRANCH  27  32
ENDBRANCH   6  22
ENDBRANCH   2   3
TORSDOF 6
ENDMDL
MODEL       95
REMARK 921   NORMALIZED FREE ENERGY PREDICTED BY IDOCK:    1.70 KCAL/MOL
REMARK 922        TOTAL FREE ENERGY PREDICTED BY IDOCK:    2.05 KCAL/MOL
REMARK 923 INTER-LIGAND FREE ENERGY PREDICTED BY IDOCK:   -0.13 KCAL/MOL
REMARK 924 INTRA-LIGAND FREE ENERGY PREDICTED BY IDOCK:    2.18 KCAL/MOL
REMARK 927      BINDING AFFINITY PREDICTED BY RF-SCORE:    0.00 PKD
ROOT
HETATM    1  C   UNL     1     -12.213  14.427  72.624  1.00  0.00    -0.023 C  
HETATM    2  O   UNL     1     -11.076  14.032  71.847  1.00  0.00     1.685 OA 
ENDROOT
BRANCH   2   3
HETATM    3  C   UNL     1     -11.316  13.811  70.510  1.00  0.00     0.292 A  
HETATM    4  C   UNL     1     -11.295  14.935  69.645  1.00  0.00    -0.311 A  
HETATM    5  C   UNL     1     -11.414  14.670  68.261  1.00  0.00    -0.337 A  
HETATM    6  C   UNL     1     -11.666  12.517  70.025  1.00  0.00    -0.297 A  
HETATM    7  C   UNL     1     -11.788  12.351  68.625  1.00  0.00    -0.348 A  
HETATM    8  C   UNL     1     -11.626  13.400  67.706  1.00  0.00    -0.340 A  
BRANCH   4   9
HETATM    9  C   UNL     1     -11.127  16.416  70.100  1.00  0.00    -0.285 C  
HETATM   10  C   UNL     1     -11.732  17.466  69.138  1.00  0.00     1.908 C  
HETATM   11  C   UNL     1     -11.778  16.591  71.486  1.00  0.00    -0.160 C  
HETATM   12  C   UNL     1      -9.629  16.826  70.223  1.00  0.00     1.622 C  
ENDBRANCH   4   9
BRANCH   8  13
HETATM   13  N   UNL     1     -11.714  13.174  66.263  1.00  0.00    -0.357 N  
HETATM   14  C   UNL     1     -12.904  13.395  65.570  1.00  0.00    -0.299 C  
HETATM   15  O   UNL     1      -9.500  12.348  65.989  1.00  0.00    -0.232 OA 
HETATM   16  C   UNL     1     -13.070  13.140  64.271  1.00  0.00     0.334 C  
HETATM   17  H   UNL     1      -9.929  12.376  63.626  1.00  0.00     0.000 HD 
HETATM   18  C   UNL     1     -11.941  12.625  63.499  1.00  0.00    -0.548 C  
HETATM   19  O   UNL     1     -12.069  12.286  62.330  1.00  0.00     1.165 OA 
HETATM   20  N   UNL     1     -10.767  12.552  64.179  1.00  0.00    -0.360 N  
HETATM   21  C   UNL     1     -10.592  12.691  65.537  1.00  0.00    -0.276 C  
ENDBRANCH   8  13
BRANCH   6  22
HETATM   22  C   UNL     1     -11.921  11.346  70.922  1.00  0.00    -0.271 A  
HETATM   23  C   UNL     1     -10.309   8.056  71.534  1.00  0.00    -0.258 A  
HETATM   24  C   UNL     1     -10.932  10.364  71.115  1.00  0.00     0.369 A  
HETATM   25  C   UNL     1     -10.639   6.778  71.970  1.00  0.00    -0.239 A  
HETATM   26  C   UNL     1     -11.236   9.100  71.640  1.00  0.00    -0.447 A  
HETATM   27  C   UNL     1     -11.881   6.543  72.549  1.00  0.00    -0.123 A  
HETATM   28  C   UNL     1     -13.447   9.904  72.187  1.00  0.00    -0.454 A  
HETATM   29  C   UNL     1     -12.804   7.581  72.697  1.00  0.00     0.399 A  
HETATM   30  C   UNL     1     -13.172  11.108  71.521  1.00  0.00    -0.380 A  
HETATM   31  C   UNL     1     -12.504   8.861  72.198  1.00  0.00    -0.459 A  
BRANCH  27  32
HETATM   32  N   UNL     1     -12.182   5.238  73.028  1.00  0.00    -0.419 N  
HETATM   33  H   UNL     1     -13.131   4.980  73.301  1.00  0.00     0.000 HD 
BRANCH  32  34
HETATM   34  S   UNL     1     -10.904   4.125  73.128  1.00  0.00    -0.181 S  
HETATM   35  C   UNL     1      -9.769   4.969  74.208  1.00  0.00    -0.152 C  
HETATM   36  O   UNL     1     -10.321   4.106  71.803  1.00  0.00    -0.130 OA 
HETATM   37  O   UNL     1     -11.364   2.914  73.765  1.00  0.00    -0.216 OA 
ENDBRANCH  32  34
ENDBRANCH  27  32
ENDBRANCH   6  22
ENDBRANCH   2   3
TORSDOF 6
ENDMDL
MODEL       96
REMARK 921   NORMALIZED FREE ENERGY PREDICTED BY IDOCK:    1.94 KCAL/MOL
REMARK 922        TOTAL FREE ENERGY PREDICTED BY IDOCK:    2.38 KCAL/MOL
REMARK 923 INTER-LIGAND FREE ENERGY PREDICTED BY IDOCK:    0.82 KCAL/MOL
REMARK 924 INTRA-LIGAND FREE ENERGY PREDICTED BY IDOCK:    1.56 KCAL/MOL
REMARK 927      BINDING AFFINITY PREDICTED BY RF-SCORE:    0.00 PKD
ROOT
HETATM    1  C   UNL     1      -9.081  14.071  64.279  1.00  0.00     4.399 C  
HETATM    2  O   UNL     1     -10.300  14.191  65.020  1.00  0.00    -0.389 OA 
ENDROOT
BRANCH   2   3
HETATM    3  C   UNL     1     -10.533  13.203  65.950  1.00  0.00    -0.280 A  
HETATM    4  C   UNL     1     -11.278  12.071  65.532  1.00  0.00    -0.372 A  
HETATM    5  C   UNL     1     -11.395  11.012  66.462  1.00  0.00     0.047 A  
HETATM    6  C   UNL     1     -10.123  13.353  67.308  1.00  0.00    -0.238 A  
HETATM    7  C   UNL     1     -10.301  12.248  68.173  1.00  0.00    -0.221 A  
HETATM    8  C   UNL     1     -10.897  11.042  67.772  1.00  0.00    -0.249 A  
BRANCH   4   9
HETATM    9  C   UNL     1     -11.947  11.902  64.135  1.00  0.00    -0.402 C  
HETATM   10  C   UNL     1     -11.244  10.895  63.193  1.00  0.00     0.769 C  
HETATM   11  C   UNL     1     -13.408  11.452  64.328  1.00  0.00     1.937 C  
HETATM   12  C   UNL     1     -11.963  13.235  63.327  1.00  0.00    -0.376 C  
ENDBRANCH   4   9
BRANCH   8  13
HETATM   13  N   UNL     1     -11.018   9.906  68.687  1.00  0.00    -0.209 N  
HETATM   14  C   UNL     1     -11.612  10.051  69.942  1.00  0.00    -0.175 C  
HETATM   15  O   UNL     1      -9.862   8.340  67.320  1.00  0.00    -0.164 OA 
HETATM   16  C   UNL     1     -11.688   9.076  70.849  1.00  0.00    -0.327 C  
HETATM   17  H   UNL     1     -10.496   6.674  68.931  1.00  0.00     0.000 HD 
HETATM   18  C   UNL     1     -11.149   7.758  70.521  1.00  0.00    -0.257 C  
HETATM   19  O   UNL     1     -11.109   6.860  71.351  1.00  0.00    -0.240 OA 
HETATM   20  N   UNL     1     -10.702   7.622  69.244  1.00  0.00    -0.200 N  
HETATM   21  C   UNL     1     -10.500   8.632  68.331  1.00  0.00    -0.176 C  
ENDBRANCH   8  13
BRANCH   6  22
HETATM   22  C   UNL     1      -9.534  14.618  67.852  1.00  0.00    -0.210 A  
HETATM   23  C   UNL     1      -6.510  16.662  67.165  1.00  0.00    -0.223 A  
HETATM   24  C   UNL     1      -8.510  15.287  67.157  1.00  0.00    -0.235 A  
HETATM   25  C   UNL     1      -5.655  17.542  67.816  1.00  0.00    -0.142 A  
HETATM   26  C   UNL     1      -7.697  16.245  67.779  1.00  0.00    -0.157 A  
HETATM   27  C   UNL     1      -5.997  18.042  69.067  1.00  0.00    -0.217 A  
HETATM   28  C   UNL     1      -9.176  16.201  69.688  1.00  0.00     0.077 A  
HETATM   29  C   UNL     1      -7.196  17.666  69.679  1.00  0.00     0.338 A  
HETATM   30  C   UNL     1      -9.885  15.135  69.112  1.00  0.00    -0.237 A  
HETATM   31  C   UNL     1      -8.035  16.725  69.057  1.00  0.00    -0.188 A  
BRANCH  27  32
HETATM   32  N   UNL     1      -5.128  18.975  69.698  1.00  0.00    -0.176 N  
HETATM   33  H   UNL     1      -4.231  18.684  70.087  1.00  0.00     0.000 HD 
BRANCH  32  34
HETATM   34  S   UNL     1      -5.642  20.592  69.780  1.00  0.00    -0.359 S  
HETATM   35  C   UNL     1      -7.409  20.420  69.659  1.00  0.00     0.508 C  
HETATM   36  O   UNL     1      -5.171  21.195  68.552  1.00  0.00    -0.294 OA 
HETATM   37  O   UNL     1      -5.300  21.143  71.070  1.00  0.00    -0.542 OA 
ENDBRANCH  32  34
ENDBRANCH  27  32
ENDBRANCH   6  22
ENDBRANCH   2   3
TORSDOF 6
ENDMDL
MODEL       97
REMARK 921   NORMALIZED FREE ENERGY PREDICTED BY IDOCK:    2.01 KCAL/MOL
REMARK 922        TOTAL FREE ENERGY PREDICTED BY IDOCK:    2.47 KCAL/MOL
REMARK 923 INTER-LIGAND FREE ENERGY PREDICTED BY IDOCK:   -1.55 KCAL/MOL
REMARK 924 INTRA-LIGAND FREE ENERGY PREDICTED BY IDOCK:    4.01 KCAL/MOL
REMARK 927      BINDING AFFINITY PREDICTED BY RF-SCORE:    0.00 PKD
ROOT
HETATM    1  C   UNL     1     -11.931  12.616  72.827  1.00  0.00     4.241 C  
HETATM    2  O   UNL     1     -12.098  11.745  71.703  1.00  0.00     0.219 OA 
ENDROOT
BRANCH   2   3
HETATM    3  C   UNL     1     -12.072  12.352  70.468  1.00  0.00    -0.275 A  
HETATM    4  C   UNL     1     -12.660  13.638  70.357  1.00  0.00    -0.297 A  
HETATM    5  C   UNL     1     -12.508  14.298  69.116  1.00  0.00    -0.011 A  
HETATM    6  C   UNL     1     -11.558  11.677  69.322  1.00  0.00    -0.385 A  
HETATM    7  C   UNL     1     -11.466  12.409  68.116  1.00  0.00    -0.370 A  
HETATM    8  C   UNL     1     -11.894  13.740  67.985  1.00  0.00    -0.373 A  
BRANCH   4   9
HETATM    9  C   UNL     1     -13.428  14.376  71.495  1.00  0.00    -0.443 C  
HETATM   10  C   UNL     1     -14.343  13.472  72.356  1.00  0.00    -0.310 C  
HETATM   11  C   UNL     1     -12.410  15.065  72.423  1.00  0.00    -0.435 C  
HETATM   12  C   UNL     1     -14.386  15.473  70.940  1.00  0.00     0.207 C  
ENDBRANCH   4   9
BRANCH   8  13
HETATM   13  N   UNL     1     -11.735  14.477  66.730  1.00  0.00    -0.383 N  
HETATM   14  C   UNL     1     -12.249  13.978  65.533  1.00  0.00    -0.439 C  
HETATM   15  O   UNL     1     -10.420  16.245  67.625  1.00  0.00    -0.282 OA 
HETATM   16  C   UNL     1     -12.076  14.563  64.346  1.00  0.00    -0.492 C  
HETATM   17  H   UNL     1     -10.614  17.294  65.473  1.00  0.00     0.000 HD 
HETATM   18  C   UNL     1     -11.331  15.818  64.275  1.00  0.00    -0.179 C  
HETATM   19  O   UNL     1     -11.065  16.342  63.202  1.00  0.00     1.571 OA 
HETATM   20  N   UNL     1     -10.966  16.338  65.477  1.00  0.00    -0.209 N  
HETATM   21  C   UNL     1     -11.022  15.705  66.698  1.00  0.00    -0.212 C  
ENDBRANCH   8  13
BRANCH   6  22
HETATM   22  C   UNL     1     -11.133  10.241  69.338  1.00  0.00    -0.299 A  
HETATM   23  C   UNL     1      -9.620   7.884  66.899  1.00  0.00    -0.263 A  
HETATM   24  C   UNL     1     -10.313   9.728  68.317  1.00  0.00    -0.231 A  
HETATM   25  C   UNL     1      -9.575   6.521  66.630  1.00  0.00    -0.201 A  
HETATM   26  C   UNL     1     -10.185   8.350  68.092  1.00  0.00    -0.253 A  
HETATM   27  C   UNL     1     -10.057   5.614  67.566  1.00  0.00    -0.174 A  
HETATM   28  C   UNL     1     -11.360   7.945  70.163  1.00  0.00    -0.099 A  
HETATM   29  C   UNL     1     -10.591   6.059  68.778  1.00  0.00    -0.345 A  
HETATM   30  C   UNL     1     -11.608   9.321  70.289  1.00  0.00    -0.151 A  
HETATM   31  C   UNL     1     -10.701   7.438  69.030  1.00  0.00    -0.164 A  
BRANCH  27  32
HETATM   32  N   UNL     1      -9.961   4.221  67.290  1.00  0.00    -0.143 N  
HETATM   33  H   UNL     1     -10.774   3.610  67.365  1.00  0.00     0.000 HD 
BRANCH  32  34
HETATM   34  S   UNL     1      -8.442   3.616  66.833  1.00  0.00    -0.109 S  
HETATM   35  C   UNL     1      -7.499   3.830  68.326  1.00  0.00    -0.061 C  
HETATM   36  O   UNL     1      -7.943   4.560  65.855  1.00  0.00    -0.097 OA 
HETATM   37  O   UNL     1      -8.553   2.209  66.531  1.00  0.00    -0.100 OA 
ENDBRANCH  32  34
ENDBRANCH  27  32
ENDBRANCH   6  22
ENDBRANCH   2   3
TORSDOF 6
ENDMDL
MODEL       98
REMARK 921   NORMALIZED FREE ENERGY PREDICTED BY IDOCK:    2.14 KCAL/MOL
REMARK 922        TOTAL FREE ENERGY PREDICTED BY IDOCK:    2.65 KCAL/MOL
REMARK 923 INTER-LIGAND FREE ENERGY PREDICTED BY IDOCK:   -4.85 KCAL/MOL
REMARK 924 INTRA-LIGAND FREE ENERGY PREDICTED BY IDOCK:    7.50 KCAL/MOL
REMARK 927      BINDING AFFINITY PREDICTED BY RF-SCORE:    0.00 PKD
ROOT
HETATM    1  C   UNL     1      -8.784   9.966  66.923  1.00  0.00    -0.128 C  
HETATM    2  O   UNL     1      -8.865  11.393  66.839  1.00  0.00    -0.162 OA 
ENDROOT
BRANCH   2   3
HETATM    3  C   UNL     1      -9.594  12.009  67.831  1.00  0.00    -0.196 A  
HETATM    4  C   UNL     1      -9.695  13.423  67.790  1.00  0.00    -0.216 A  
HETATM    5  C   UNL     1     -10.553  14.023  68.740  1.00  0.00    -0.260 A  
HETATM    6  C   UNL     1     -10.148  11.263  68.913  1.00  0.00    -0.185 A  
HETATM    7  C   UNL     1     -10.975  11.953  69.830  1.00  0.00     0.092 A  
HETATM    8  C   UNL     1     -11.235  13.330  69.750  1.00  0.00     0.039 A  
BRANCH   4   9
HETATM    9  C   UNL     1      -8.960  14.346  66.773  1.00  0.00    -0.256 C  
HETATM   10  C   UNL     1      -7.419  14.376  66.915  1.00  0.00     0.479 C  
HETATM   11  C   UNL     1      -9.310  13.896  65.341  1.00  0.00     0.443 C  
HETATM   12  C   UNL     1      -9.387  15.838  66.919  1.00  0.00    -0.246 C  
ENDBRANCH   4   9
BRANCH   8  13
HETATM   13  N   UNL     1     -12.136  13.996  70.692  1.00  0.00    -0.346 N  
HETATM   14  C   UNL     1     -12.156  15.386  70.810  1.00  0.00    -0.366 C  
HETATM   15  O   UNL     1     -13.040  12.011  71.642  1.00  0.00    -0.427 OA 
HETATM   16  C   UNL     1     -12.899  16.049  71.698  1.00  0.00    -0.236 C  
HETATM   17  H   UNL     1     -14.562  13.439  72.832  1.00  0.00     0.000 HD 
HETATM   18  C   UNL     1     -13.776  15.296  72.593  1.00  0.00    -0.508 C  
HETATM   19  O   UNL     1     -14.403  15.850  73.486  1.00  0.00     0.439 OA 
HETATM   20  N   UNL     1     -13.828  13.959  72.355  1.00  0.00    -0.550 N  
HETATM   21  C   UNL     1     -12.991  13.236  71.535  1.00  0.00    -0.337 C  
ENDBRANCH   8  13
BRANCH   6  22
HETATM   22  C   UNL     1      -9.883   9.805  69.125  1.00  0.00    -0.192 A  
HETATM   23  C   UNL     1     -10.161   7.432  71.969  1.00  0.00    -0.212 A  
HETATM   24  C   UNL     1     -10.379   9.146  70.265  1.00  0.00    -0.253 A  
HETATM   25  C   UNL     1      -9.587   6.250  72.424  1.00  0.00    -0.156 A  
HETATM   26  C   UNL     1      -9.872   7.908  70.685  1.00  0.00    -0.187 A  
HETATM   27  C   UNL     1      -8.755   5.518  71.587  1.00  0.00    -0.136 A  
HETATM   28  C   UNL     1      -8.653   7.750  68.606  1.00  0.00    -0.129 A  
HETATM   29  C   UNL     1      -8.485   5.959  70.289  1.00  0.00    -0.127 A  
HETATM   30  C   UNL     1      -9.050   9.055  68.275  1.00  0.00    -0.133 A  
HETATM   31  C   UNL     1      -9.007   7.186  69.844  1.00  0.00    -0.142 A  
BRANCH  27  32
HETATM   32  N   UNL     1      -8.213   4.289  72.057  1.00  0.00    -0.093 N  
HETATM   33  H   UNL     1      -8.135   4.092  73.054  1.00  0.00     0.000 HD 
BRANCH  32  34
HETATM   34  S   UNL     1      -7.700   3.163  70.893  1.00  0.00    -0.043 S  
HETATM   35  C   UNL     1      -6.235   3.943  70.252  1.00  0.00    -0.026 C  
HETATM   36  O   UNL     1      -8.713   3.208  69.860  1.00  0.00    -0.063 OA 
HETATM   37  O   UNL     1      -7.341   1.925  71.542  1.00  0.00    -0.031 OA 
ENDBRANCH  32  34
ENDBRANCH  27  32
ENDBRANCH   6  22
ENDBRANCH   2   3
TORSDOF 6
ENDMDL
MODEL       99
REMARK 921   NORMALIZED FREE ENERGY PREDICTED BY IDOCK:    2.56 KCAL/MOL
REMARK 922        TOTAL FREE ENERGY PREDICTED BY IDOCK:    3.21 KCAL/MOL
REMARK 923 INTER-LIGAND FREE ENERGY PREDICTED BY IDOCK:   -0.34 KCAL/MOL
REMARK 924 INTRA-LIGAND FREE ENERGY PREDICTED BY IDOCK:    3.55 KCAL/MOL
REMARK 927      BINDING AFFINITY PREDICTED BY RF-SCORE:    0.00 PKD
ROOT
HETATM    1  C   UNL     1     -11.940  12.616  72.829  1.00  0.00     4.241 C  
HETATM    2  O   UNL     1     -12.082  11.726  71.716  1.00  0.00     0.361 OA 
ENDROOT
BRANCH   2   3
HETATM    3  C   UNL     1     -12.037  12.315  70.472  1.00  0.00    -0.282 A  
HETATM    4  C   UNL     1     -12.639  13.591  70.328  1.00  0.00    -0.221 A  
HETATM    5  C   UNL     1     -12.469  14.233  69.080  1.00  0.00     0.025 A  
HETATM    6  C   UNL     1     -11.489  11.629  69.348  1.00  0.00    -0.372 A  
HETATM    7  C   UNL     1     -11.381  12.343  68.133  1.00  0.00    -0.341 A  
HETATM    8  C   UNL     1     -11.823  13.666  67.972  1.00  0.00    -0.362 A  
BRANCH   4   9
HETATM    9  C   UNL     1     -13.442  14.335  71.437  1.00  0.00    -0.402 C  
HETATM   10  C   UNL     1     -14.365  13.434  72.290  1.00  0.00    -0.273 C  
HETATM   11  C   UNL     1     -12.453  15.051  72.377  1.00  0.00    -0.429 C  
HETATM   12  C   UNL     1     -14.399  15.413  70.845  1.00  0.00     0.034 C  
ENDBRANCH   4   9
BRANCH   8  13
HETATM   13  N   UNL     1     -11.647  14.385  66.709  1.00  0.00    -0.371 N  
HETATM   14  C   UNL     1     -12.180  13.890  65.518  1.00  0.00    -0.444 C  
HETATM   15  O   UNL     1     -10.275  16.121  67.581  1.00  0.00    -0.253 OA 
HETATM   16  C   UNL     1     -11.995  14.457  64.325  1.00  0.00    -0.433 C  
HETATM   17  H   UNL     1     -10.446  17.154  65.419  1.00  0.00     0.000 HD 
HETATM   18  C   UNL     1     -11.213  15.689  64.239  1.00  0.00    -0.104 C  
HETATM   19  O   UNL     1     -10.935  16.194  63.159  1.00  0.00     1.729 OA 
HETATM   20  N   UNL     1     -10.827  16.209  65.434  1.00  0.00    -0.340 N  
HETATM   21  C   UNL     1     -10.897  15.590  66.662  1.00  0.00    -0.285 C  
ENDBRANCH   8  13
BRANCH   6  22
HETATM   22  C   UNL     1     -11.045  10.200  69.396  1.00  0.00    -0.288 A  
HETATM   23  C   UNL     1      -8.626   8.226  71.408  1.00  0.00    -0.186 A  
HETATM   24  C   UNL     1     -10.309   9.715  70.493  1.00  0.00    -0.359 A  
HETATM   25  C   UNL     1      -7.834   7.089  71.298  1.00  0.00    -0.099 A  
HETATM   26  C   UNL     1      -9.579   8.521  70.426  1.00  0.00    -0.189 A  
HETATM   27  C   UNL     1      -8.016   6.219  70.230  1.00  0.00    -0.112 A  
HETATM   28  C   UNL     1     -10.635   8.043  68.307  1.00  0.00    -0.155 A  
HETATM   29  C   UNL     1      -8.989   6.477  69.260  1.00  0.00    -0.131 A  
HETATM   30  C   UNL     1     -11.237   9.311  68.323  1.00  0.00     0.202 A  
HETATM   31  C   UNL     1      -9.748   7.659  69.328  1.00  0.00    -0.164 A  
BRANCH  27  32
HETATM   32  N   UNL     1      -7.226   5.038  70.159  1.00  0.00    -0.056 N  
HETATM   33  H   UNL     1      -6.209   5.078  70.223  1.00  0.00     0.000 HD 
BRANCH  32  34
HETATM   34  S   UNL     1      -8.040   3.561  69.964  1.00  0.00    -0.045 S  
HETATM   35  C   UNL     1      -7.377   2.599  71.307  1.00  0.00    -0.033 C  
HETATM   36  O   UNL     1      -7.524   3.011  68.729  1.00  0.00    -0.048 OA 
HETATM   37  O   UNL     1      -9.456   3.758  70.167  1.00  0.00    -0.159 OA 
ENDBRANCH  32  34
ENDBRANCH  27  32
ENDBRANCH   6  22
ENDBRANCH   2   3
TORSDOF 6
ENDMDL
MODEL      100
REMARK 921   NORMALIZED FREE ENERGY PREDICTED BY IDOCK:    2.68 KCAL/MOL
REMARK 922        TOTAL FREE ENERGY PREDICTED BY IDOCK:    3.38 KCAL/MOL
REMARK 923 INTER-LIGAND FREE ENERGY PREDICTED BY IDOCK:    1.73 KCAL/MOL
REMARK 924 INTRA-LIGAND FREE ENERGY PREDICTED BY IDOCK:    1.65 KCAL/MOL
REMARK 927      BINDING AFFINITY PREDICTED BY RF-SCORE:    0.00 PKD
ROOT
HETATM    1  C   UNL     1     -10.685  11.376  66.596  1.00  0.00    -0.269 C  
HETATM    2  O   UNL     1     -10.113  11.996  67.753  1.00  0.00    -0.187 OA 
ENDROOT
BRANCH   2   3
HETATM    3  C   UNL     1      -9.416  11.159  68.595  1.00  0.00    -0.193 A  
HETATM    4  C   UNL     1     -10.064   9.973  69.025  1.00  0.00    -0.211 A  
HETATM    5  C   UNL     1      -9.286   9.066  69.782  1.00  0.00    -0.176 A  
HETATM    6  C   UNL     1      -8.128  11.515  69.092  1.00  0.00     0.128 A  
HETATM    7  C   UNL     1      -7.433  10.553  69.862  1.00  0.00    -0.091 A  
HETATM    8  C   UNL     1      -7.965   9.297  70.193  1.00  0.00    -0.137 A  
BRANCH   4   9
HETATM    9  C   UNL     1     -11.541   9.591  68.707  1.00  0.00     0.476 C  
HETATM   10  C   UNL     1     -12.554  10.754  68.824  1.00  0.00     0.947 C  
HETATM   11  C   UNL     1     -11.615   9.020  67.278  1.00  0.00     2.208 C  
HETATM   12  C   UNL     1     -12.088   8.505  69.682  1.00  0.00     1.297 C  
ENDBRANCH   4   9
BRANCH   8  13
HETATM   13  N   UNL     1      -7.193   8.312  70.951  1.00  0.00    -0.054 N  
HETATM   14  C   UNL     1      -6.398   7.366  70.303  1.00  0.00    -0.034 C  
HETATM   15  O   UNL     1      -7.977   8.959  73.102  1.00  0.00    -0.378 OA 
HETATM   16  C   UNL     1      -5.729   6.398  70.931  1.00  0.00    -0.026 C  
HETATM   17  H   UNL     1      -6.370   7.416  74.000  1.00  0.00     0.000 HD 
HETATM   18  C   UNL     1      -5.793   6.322  72.389  1.00  0.00    -0.038 C  
HETATM   19  O   UNL     1      -5.275   5.398  73.003  1.00  0.00    -0.016 OA 
HETATM   20  N   UNL     1      -6.465   7.339  72.988  1.00  0.00    -0.063 N  
HETATM   21  C   UNL     1      -7.262   8.276  72.370  1.00  0.00    -0.102 C  
ENDBRANCH   8  13
BRANCH   6  22
HETATM   22  C   UNL     1      -7.495  12.850  68.850  1.00  0.00     0.020 A  
HETATM   23  C   UNL     1      -8.393  16.388  69.537  1.00  0.00     0.202 A  
HETATM   24  C   UNL     1      -7.974  13.998  69.508  1.00  0.00     0.488 A  
HETATM   25  C   UNL     1      -8.155  17.660  69.029  1.00  0.00    -0.066 A  
HETATM   26  C   UNL     1      -7.666  15.291  69.060  1.00  0.00    -0.183 A  
HETATM   27  C   UNL     1      -7.165  17.850  68.073  1.00  0.00    -0.220 A  
HETATM   28  C   UNL     1      -6.052  14.335  67.539  1.00  0.00     0.048 A  
HETATM   29  C   UNL     1      -6.404  16.772  67.613  1.00  0.00    -0.172 A  
HETATM   30  C   UNL     1      -6.484  13.047  67.892  1.00  0.00    -0.130 A  
HETATM   31  C   UNL     1      -6.683  15.472  68.071  1.00  0.00    -0.152 A  
BRANCH  27  32
HETATM   32  N   UNL     1      -6.908  19.166  67.598  1.00  0.00    -0.214 N  
HETATM   33  H   UNL     1      -6.342  19.823  68.138  1.00  0.00     0.000 HD 
BRANCH  32  34
HETATM   34  S   UNL     1      -7.578  19.604  66.101  1.00  0.00    -0.323 S  
HETATM   35  C   UNL     1      -6.575  21.002  65.647  1.00  0.00    -0.050 C  
HETATM   36  O   UNL     1      -8.904  20.094  66.415  1.00  0.00    -0.314 OA 
HETATM   37  O   UNL     1      -7.375  18.538  65.149  1.00  0.00    -0.287 OA 
ENDBRANCH  32  34
ENDBRANCH  27  32
ENDBRANCH   6  22
ENDBRANCH   2   3
TORSDOF 6
ENDMDL
MODEL      101
REMARK 921   NORMALIZED FREE ENERGY PREDICTED BY IDOCK:    4.75 KCAL/MOL
REMARK 922        TOTAL FREE ENERGY PREDICTED BY IDOCK:    6.17 KCAL/MOL
REMARK 923 INTER-LIGAND FREE ENERGY PREDICTED BY IDOCK:    5.72 KCAL/MOL
REMARK 924 INTRA-LIGAND FREE ENERGY PREDICTED BY IDOCK:    0.45 KCAL/MOL
REMARK 927      BINDING AFFINITY PREDICTED BY RF-SCORE:    0.00 PKD
ROOT
HETATM    1  C   UNL     1      -7.914   8.365  67.839  1.00  0.00    -0.115 C  
HETATM    2  O   UNL     1      -7.678   9.479  68.707  1.00  0.00    -0.078 OA 
ENDROOT
BRANCH   2   3
HETATM    3  C   UNL     1      -8.281  10.661  68.340  1.00  0.00    -0.125 A  
HETATM    4  C   UNL     1      -7.444  11.715  67.895  1.00  0.00    -0.105 A  
HETATM    5  C   UNL     1      -8.091  12.871  67.401  1.00  0.00    -0.181 A  
HETATM    6  C   UNL     1      -9.687  10.851  68.489  1.00  0.00    -0.183 A  
HETATM    7  C   UNL     1     -10.243  12.050  67.987  1.00  0.00    -0.203 A  
HETATM    8  C   UNL     1      -9.479  13.069  67.396  1.00  0.00    -0.210 A  
BRANCH   4   9
HETATM    9  C   UNL     1      -5.886  11.683  67.889  1.00  0.00    -0.047 C  
HETATM   10  C   UNL     1      -5.208  13.016  67.493  1.00  0.00    -0.016 C  
HETATM   11  C   UNL     1      -5.387  11.279  69.290  1.00  0.00    -0.044 C  
HETATM   12  C   UNL     1      -5.324  10.648  66.868  1.00  0.00    -0.046 C  
ENDBRANCH   4   9
BRANCH   8  13
HETATM   13  N   UNL     1     -10.102  14.273  66.845  1.00  0.00    -0.260 N  
HETATM   14  C   UNL     1     -10.147  15.460  67.578  1.00  0.00    -0.233 C  
HETATM   15  O   UNL     1     -10.851  13.281  64.817  1.00  0.00    -0.320 OA 
HETATM   16  C   UNL     1     -10.762  16.569  67.164  1.00  0.00    -0.220 C  
HETATM   17  H   UNL     1     -11.505  15.490  64.139  1.00  0.00     0.000 HD 
HETATM   18  C   UNL     1     -11.411  16.574  65.854  1.00  0.00     0.533 C  
HETATM   19  O   UNL     1     -12.067  17.533  65.472  1.00  0.00     2.660 OA 
HETATM   20  N   UNL     1     -11.228  15.446  65.119  1.00  0.00    -0.367 N  
HETATM   21  C   UNL     1     -10.707  14.251  65.560  1.00  0.00    -0.331 C  
ENDBRANCH   8  13
BRANCH   6  22
HETATM   22  C   UNL     1     -10.583   9.856  69.160  1.00  0.00    -0.240 A  
HETATM   23  C   UNL     1     -10.260   7.445  71.966  1.00  0.00    -0.221 A  
HETATM   24  C   UNL     1     -10.232   9.302  70.404  1.00  0.00    -0.284 A  
HETATM   25  C   UNL     1     -10.799   6.237  72.394  1.00  0.00    -0.277 A  
HETATM   26  C   UNL     1     -10.834   8.133  70.891  1.00  0.00    -0.254 A  
HETATM   27  C   UNL     1     -11.938   5.731  71.779  1.00  0.00     0.229 A  
HETATM   28  C   UNL     1     -12.451   8.271  69.102  1.00  0.00     3.502 A  
HETATM   29  C   UNL     1     -12.546   6.423  70.729  1.00  0.00     0.366 A  
HETATM   30  C   UNL     1     -11.743   9.348  68.546  1.00  0.00     0.989 A  
HETATM   31  C   UNL     1     -11.969   7.611  70.245  1.00  0.00     0.159 A  
BRANCH  27  32
HETATM   32  N   UNL     1     -12.499   4.516  72.261  1.00  0.00     1.880 N  
HETATM   33  H   UNL     1     -13.451   4.240  72.018  1.00  0.00     0.000 HD 
BRANCH  32  34
HETATM   34  S   UNL     1     -11.526   3.543  73.256  1.00  0.00     0.147 S  
HETATM   35  C   UNL     1     -10.143   3.200  72.191  1.00  0.00    -0.130 C  
HETATM   36  O   UNL     1     -12.273   2.314  73.421  1.00  0.00    -0.046 OA 
HETATM   37  O   UNL     1     -11.079   4.310  74.394  1.00  0.00    -0.210 OA 
ENDBRANCH  32  34
ENDBRANCH  27  32
ENDBRANCH   6  22
ENDBRANCH   2   3
TORSDOF 6
ENDMDL
MODEL      102
REMARK 921   NORMALIZED FREE ENERGY PREDICTED BY IDOCK:    5.96 KCAL/MOL
REMARK 922        TOTAL FREE ENERGY PREDICTED BY IDOCK:    7.81 KCAL/MOL
REMARK 923 INTER-LIGAND FREE ENERGY PREDICTED BY IDOCK:    3.10 KCAL/MOL
REMARK 924 INTRA-LIGAND FREE ENERGY PREDICTED BY IDOCK:    4.72 KCAL/MOL
REMARK 927      BINDING AFFINITY PREDICTED BY RF-SCORE:    0.00 PKD
ROOT
HETATM    1  C   UNL     1      -7.539  13.458  65.224  1.00  0.00     7.145 C  
HETATM    2  O   UNL     1      -7.861  12.179  65.782  1.00  0.00     0.815 OA 
ENDROOT
BRANCH   2   3
HETATM    3  C   UNL     1      -8.737  12.195  66.844  1.00  0.00    -0.194 A  
HETATM    4  C   UNL     1      -8.735  13.341  67.678  1.00  0.00    -0.195 A  
HETATM    5  C   UNL     1      -9.729  13.394  68.683  1.00  0.00    -0.084 A  
HETATM    6  C   UNL     1      -9.549  11.063  67.150  1.00  0.00    -0.189 A  
HETATM    7  C   UNL     1     -10.500  11.200  68.188  1.00  0.00    -0.215 A  
HETATM    8  C   UNL     1     -10.648  12.369  68.951  1.00  0.00    -0.126 A  
BRANCH   4   9
HETATM    9  C   UNL     1      -7.748  14.540  67.555  1.00  0.00    -0.208 C  
HETATM   10  C   UNL     1      -6.261  14.146  67.387  1.00  0.00     0.182 C  
HETATM   11  C   UNL     1      -8.162  15.409  66.351  1.00  0.00     0.026 C  
HETATM   12  C   UNL     1      -7.764  15.446  68.823  1.00  0.00    -0.150 C  
ENDBRANCH   4   9
BRANCH   8  13
HETATM   13  N   UNL     1     -11.678  12.484  69.985  1.00  0.00    -0.270 N  
HETATM   14  C   UNL     1     -12.056  13.729  70.489  1.00  0.00    -0.345 C  
HETATM   15  O   UNL     1     -12.022  10.149  70.279  1.00  0.00    -0.265 OA 
HETATM   16  C   UNL     1     -12.933  13.898  71.480  1.00  0.00    -0.436 C  
HETATM   17  H   UNL     1     -13.846  10.740  71.726  1.00  0.00     0.000 HD 
HETATM   18  C   UNL     1     -13.572  12.723  72.070  1.00  0.00    -0.367 C  
HETATM   19  O   UNL     1     -14.309  12.819  73.042  1.00  0.00     0.212 OA 
HETATM   20  N   UNL     1     -13.278  11.544  71.461  1.00  0.00    -0.313 N  
HETATM   21  C   UNL     1     -12.294  11.324  70.525  1.00  0.00    -0.356 C  
ENDBRANCH   8  13
BRANCH   6  22
HETATM   22  C   UNL     1      -9.429   9.751  66.440  1.00  0.00    -0.237 A  
HETATM   23  C   UNL     1      -9.450   6.172  67.432  1.00  0.00    -0.118 A  
HETATM   24  C   UNL     1      -9.776   8.552  67.089  1.00  0.00    -0.251 A  
HETATM   25  C   UNL     1      -8.949   4.949  67.001  1.00  0.00    -0.109 A  
HETATM   26  C   UNL     1      -9.354   7.302  66.613  1.00  0.00    -0.215 A  
HETATM   27  C   UNL     1      -8.387   4.838  65.735  1.00  0.00    -0.117 A  
HETATM   28  C   UNL     1      -8.581   8.379  64.594  1.00  0.00    -0.046 A  
HETATM   29  C   UNL     1      -8.317   5.948  64.889  1.00  0.00    -0.115 A  
HETATM   30  C   UNL     1      -8.871   9.634  65.154  1.00  0.00    -0.215 A  
HETATM   31  C   UNL     1      -8.759   7.203  65.342  1.00  0.00     0.015 A  
BRANCH  27  32
HETATM   32  N   UNL     1      -7.920   3.568  65.296  1.00  0.00    -0.086 N  
HETATM   33  H   UNL     1      -8.512   2.739  65.350  1.00  0.00     0.000 HD 
BRANCH  32  34
HETATM   34  S   UNL     1      -6.340   3.485  64.678  1.00  0.00    -0.024 S  
HETATM   35  C   UNL     1      -5.647   2.150  65.629  1.00  0.00    -0.016 C  
HETATM   36  O   UNL     1      -5.706   4.712  65.111  1.00  0.00    -0.014 OA 
HETATM   37  O   UNL     1      -6.385   3.111  63.285  1.00  0.00    -0.020 OA 
ENDBRANCH  32  34
ENDBRANCH  27  32
ENDBRANCH   6  22
ENDBRANCH   2   3
TORSDOF 6
ENDMDL
MODEL      103
REMARK 921   NORMALIZED FREE ENERGY PREDICTED BY IDOCK:    6.36 KCAL/MOL
REMARK 922        TOTAL FREE ENERGY PREDICTED BY IDOCK:    8.34 KCAL/MOL
REMARK 923 INTER-LIGAND FREE ENERGY PREDICTED BY IDOCK:    4.75 KCAL/MOL
REMARK 924 INTRA-LIGAND FREE ENERGY PREDICTED BY IDOCK:    3.60 KCAL/MOL
REMARK 927      BINDING AFFINITY PREDICTED BY RF-SCORE:    0.00 PKD
ROOT
HETATM    1  C   UNL     1     -10.193  10.817  65.861  1.00  0.00    -0.259 C  
HETATM    2  O   UNL     1      -9.690  11.298  67.113  1.00  0.00    -0.179 OA 
ENDROOT
BRANCH   2   3
HETATM    3  C   UNL     1      -9.108  10.351  67.925  1.00  0.00    -0.132 A  
HETATM    4  C   UNL     1      -9.826   9.149  68.151  1.00  0.00    -0.188 A  
HETATM    5  C   UNL     1      -9.157   8.139  68.880  1.00  0.00    -0.147 A  
HETATM    6  C   UNL     1      -7.873  10.605  68.591  1.00  0.00    -0.121 A  
HETATM    7  C   UNL     1      -7.288   9.542  69.318  1.00  0.00    -0.072 A  
HETATM    8  C   UNL     1      -7.883   8.277  69.449  1.00  0.00    -0.104 A  
BRANCH   4   9
HETATM    9  C   UNL     1     -11.269   8.856  67.641  1.00  0.00     0.529 C  
HETATM   10  C   UNL     1     -12.029   7.762  68.428  1.00  0.00     2.535 C  
HETATM   11  C   UNL     1     -12.094  10.157  67.692  1.00  0.00     2.534 C  
HETATM   12  C   UNL     1     -11.279   8.345  66.168  1.00  0.00     3.019 C  
ENDBRANCH   4   9
BRANCH   8  13
HETATM   13  N   UNL     1      -7.220   7.190  70.170  1.00  0.00    -0.076 N  
HETATM   14  C   UNL     1      -6.739   7.373  71.467  1.00  0.00    -0.050 C  
HETATM   15  O   UNL     1      -7.283   5.614  68.390  1.00  0.00    -0.072 OA 
HETATM   16  C   UNL     1      -6.063   6.448  72.150  1.00  0.00    -0.038 C  
HETATM   17  H   UNL     1      -6.432   4.010  69.962  1.00  0.00     0.000 HD 
HETATM   18  C   UNL     1      -5.824   5.145  71.534  1.00  0.00    -0.017 C  
HETATM   19  O   UNL     1      -5.129   4.298  72.081  1.00  0.00     0.000 OA 
HETATM   20  N   UNL     1      -6.423   4.961  70.328  1.00  0.00    -0.033 N  
HETATM   21  C   UNL     1      -7.019   5.927  69.550  1.00  0.00    -0.063 C  
ENDBRANCH   8  13
BRANCH   6  22
HETATM   22  C   UNL     1      -7.186  11.936  68.566  1.00  0.00    -0.100 A  
HETATM   23  C   UNL     1      -8.167  15.454  69.242  1.00  0.00    -0.252 A  
HETATM   24  C   UNL     1      -7.781  13.059  69.169  1.00  0.00     0.315 A  
HETATM   25  C   UNL     1      -7.810  16.744  68.870  1.00  0.00    -0.244 A  
HETATM   26  C   UNL     1      -7.368  14.365  68.872  1.00  0.00    -0.127 A  
HETATM   27  C   UNL     1      -6.634  16.960  68.161  1.00  0.00    -0.145 A  
HETATM   28  C   UNL     1      -5.476  13.452  67.681  1.00  0.00    -0.033 A  
HETATM   29  C   UNL     1      -5.806  15.889  67.815  1.00  0.00    -0.166 A  
HETATM   30  C   UNL     1      -5.990  12.158  67.859  1.00  0.00    -0.072 A  
HETATM   31  C   UNL     1      -6.193  14.575  68.129  1.00  0.00    -0.146 A  
BRANCH  27  32
HETATM   32  N   UNL     1      -6.264  18.293  67.828  1.00  0.00    -0.179 N  
HETATM   33  H   UNL     1      -5.437  18.487  67.263  1.00  0.00     0.000 HD 
BRANCH  32  34
HETATM   34  S   UNL     1      -7.252  19.548  68.405  1.00  0.00    -0.330 S  
HETATM   35  C   UNL     1      -7.849  20.267  66.891  1.00  0.00    -0.309 C  
HETATM   36  O   UNL     1      -6.339  20.491  69.013  1.00  0.00    -0.310 OA 
HETATM   37  O   UNL     1      -8.361  18.991  69.142  1.00  0.00    -0.221 OA 
ENDBRANCH  32  34
ENDBRANCH  27  32
ENDBRANCH   6  22
ENDBRANCH   2   3
TORSDOF 6
ENDMDL
MODEL      104
REMARK 921   NORMALIZED FREE ENERGY PREDICTED BY IDOCK:    6.47 KCAL/MOL
REMARK 922        TOTAL FREE ENERGY PREDICTED BY IDOCK:    8.50 KCAL/MOL
REMARK 923 INTER-LIGAND FREE ENERGY PREDICTED BY IDOCK:    3.97 KCAL/MOL
REMARK 924 INTRA-LIGAND FREE ENERGY PREDICTED BY IDOCK:    4.53 KCAL/MOL
REMARK 927      BINDING AFFINITY PREDICTED BY RF-SCORE:    0.00 PKD
ROOT
HETATM    1  C   UNL     1     -13.454  10.158  71.393  1.00  0.00    -0.243 C  
HETATM    2  O   UNL     1     -13.179   8.850  71.909  1.00  0.00    -0.341 OA 
ENDROOT
BRANCH   2   3
HETATM    3  C   UNL     1     -12.150   8.172  71.296  1.00  0.00    -0.288 A  
HETATM    4  C   UNL     1     -11.807   6.896  71.811  1.00  0.00    -0.354 A  
HETATM    5  C   UNL     1     -10.837   6.162  71.090  1.00  0.00    -0.328 A  
HETATM    6  C   UNL     1     -11.394   8.768  70.244  1.00  0.00    -0.162 A  
HETATM    7  C   UNL     1     -10.427   7.965  69.595  1.00  0.00    -0.226 A  
HETATM    8  C   UNL     1     -10.150   6.639  69.964  1.00  0.00    -0.177 A  
BRANCH   4   9
HETATM    9  C   UNL     1     -12.430   6.243  73.082  1.00  0.00     1.348 C  
HETATM   10  C   UNL     1     -13.290   7.194  73.948  1.00  0.00     6.551 C  
HETATM   11  C   UNL     1     -13.304   5.048  72.655  1.00  0.00     1.709 C  
HETATM   12  C   UNL     1     -11.342   5.710  74.061  1.00  0.00     0.943 C  
ENDBRANCH   4   9
BRANCH   8  13
HETATM   13  N   UNL     1      -9.175   5.828  69.234  1.00  0.00    -0.117 N  
HETATM   14  C   UNL     1      -7.891   5.618  69.737  1.00  0.00    -0.087 C  
HETATM   15  O   UNL     1     -10.543   5.419  67.331  1.00  0.00    -0.216 OA 
HETATM   16  C   UNL     1      -6.935   4.952  69.088  1.00  0.00    -0.051 C  
HETATM   17  H   UNL     1      -8.813   3.931  66.579  1.00  0.00     0.000 HD 
HETATM   18  C   UNL     1      -7.236   4.372  67.781  1.00  0.00    -0.065 C  
HETATM   19  O   UNL     1      -6.368   3.835  67.106  1.00  0.00    -0.035 OA 
HETATM   20  N   UNL     1      -8.533   4.482  67.389  1.00  0.00    -0.104 N  
HETATM   21  C   UNL     1      -9.505   5.261  67.973  1.00  0.00    -0.122 C  
ENDBRANCH   8  13
BRANCH   6  22
HETATM   22  C   UNL     1     -11.567  10.192  69.814  1.00  0.00    -0.245 A  
HETATM   23  C   UNL     1     -10.659  12.202  66.826  1.00  0.00    -0.256 A  
HETATM   24  C   UNL     1     -11.361  10.564  68.473  1.00  0.00    -0.320 A  
HETATM   25  C   UNL     1     -10.371  13.517  66.480  1.00  0.00    -0.282 A  
HETATM   26  C   UNL     1     -11.160  11.900  68.097  1.00  0.00    -0.294 A  
HETATM   27  C   UNL     1     -10.620  14.542  67.386  1.00  0.00    -0.271 A  
HETATM   28  C   UNL     1     -11.783  12.578  70.330  1.00  0.00    -0.100 A  
HETATM   29  C   UNL     1     -11.155  14.262  68.646  1.00  0.00    -0.273 A  
HETATM   30  C   UNL     1     -11.829  11.231  70.725  1.00  0.00    -0.288 A  
HETATM   31  C   UNL     1     -11.386  12.929  69.029  1.00  0.00    -0.341 A  
BRANCH  27  32
HETATM   32  N   UNL     1     -10.359  15.885  66.997  1.00  0.00    -0.292 N  
HETATM   33  H   UNL     1     -11.013  16.401  66.407  1.00  0.00     0.000 HD 
BRANCH  32  34
HETATM   34  S   UNL     1      -8.920  16.596  67.550  1.00  0.00    -0.201 S  
HETATM   35  C   UNL     1      -7.689  15.655  66.676  1.00  0.00    -0.033 C  
HETATM   36  O   UNL     1      -8.841  16.236  68.950  1.00  0.00    -0.231 OA 
HETATM   37  O   UNL     1      -8.865  17.974  67.123  1.00  0.00    -0.240 OA 
ENDBRANCH  32  34
ENDBRANCH  27  32
ENDBRANCH   6  22
ENDBRANCH   2   3
TORSDOF 6
ENDMDL
MODEL      105
REMARK 921   NORMALIZED FREE ENERGY PREDICTED BY IDOCK:    7.10 KCAL/MOL
REMARK 922        TOTAL FREE ENERGY PREDICTED BY IDOCK:    9.35 KCAL/MOL
REMARK 923 INTER-LIGAND FREE ENERGY PREDICTED BY IDOCK:    3.77 KCAL/MOL
REMARK 924 INTRA-LIGAND FREE ENERGY PREDICTED BY IDOCK:    5.57 KCAL/MOL
REMARK 927      BINDING AFFINITY PREDICTED BY RF-SCORE:    0.00 PKD
ROOT
HETATM    1  C   UNL     1      -7.751  12.937  65.390  1.00  0.00     4.455 C  
HETATM    2  O   UNL     1      -8.336  11.793  66.024  1.00  0.00     0.006 OA 
ENDROOT
BRANCH   2   3
HETATM    3  C   UNL     1      -9.063  12.051  67.165  1.00  0.00    -0.186 A  
HETATM    4  C   UNL     1      -9.502  13.382  67.376  1.00  0.00    -0.222 A  
HETATM    5  C   UNL     1     -10.354  13.599  68.484  1.00  0.00    -0.244 A  
HETATM    6  C   UNL     1      -9.286  11.038  68.144  1.00  0.00    -0.165 A  
HETATM    7  C   UNL     1     -10.133  11.353  69.231  1.00  0.00     0.041 A  
HETATM    8  C   UNL     1     -10.722  12.614  69.413  1.00  0.00     0.192 A  
BRANCH   4   9
HETATM    9  C   UNL     1      -9.139  14.602  66.477  1.00  0.00    -0.267 C  
HETATM   10  C   UNL     1      -9.802  15.937  66.890  1.00  0.00    -0.251 C  
HETATM   11  C   UNL     1      -7.610  14.793  66.484  1.00  0.00     1.061 C  
HETATM   12  C   UNL     1      -9.585  14.393  64.998  1.00  0.00     0.377 C  
ENDBRANCH   4   9
BRANCH   8  13
HETATM   13  N   UNL     1     -11.632  12.883  70.527  1.00  0.00     0.105 N  
HETATM   14  C   UNL     1     -12.139  11.845  71.309  1.00  0.00     0.272 C  
HETATM   15  O   UNL     1     -11.788  15.231  70.182  1.00  0.00    -0.276 OA 
HETATM   16  C   UNL     1     -13.027  12.015  72.290  1.00  0.00    -0.044 C  
HETATM   17  H   UNL     1     -13.036  15.311  72.233  1.00  0.00     0.000 HD 
HETATM   18  C   UNL     1     -13.490  13.365  72.602  1.00  0.00    -0.426 C  
HETATM   19  O   UNL     1     -14.372  13.563  73.427  1.00  0.00     1.472 OA 
HETATM   20  N   UNL     1     -12.872  14.358  71.909  1.00  0.00    -0.334 N  
HETATM   21  C   UNL     1     -12.048  14.210  70.816  1.00  0.00    -0.349 C  
ENDBRANCH   8  13
BRANCH   6  22
HETATM   22  C   UNL     1      -8.657   9.681  68.078  1.00  0.00    -0.119 A  
HETATM   23  C   UNL     1      -9.880   6.174  68.086  1.00  0.00    -0.142 A  
HETATM   24  C   UNL     1      -9.438   8.543  67.804  1.00  0.00    -0.168 A  
HETATM   25  C   UNL     1      -9.452   4.902  68.449  1.00  0.00    -0.187 A  
HETATM   26  C   UNL     1      -8.981   7.247  68.080  1.00  0.00    -0.131 A  
HETATM   27  C   UNL     1      -8.117   4.686  68.769  1.00  0.00    -0.082 A  
HETATM   28  C   UNL     1      -6.788   8.158  68.521  1.00  0.00    -0.068 A  
HETATM   29  C   UNL     1      -7.198   5.738  68.732  1.00  0.00    -0.082 A  
HETATM   30  C   UNL     1      -7.303   9.457  68.390  1.00  0.00    -0.077 A  
HETATM   31  C   UNL     1      -7.636   7.040  68.431  1.00  0.00    -0.111 A  
BRANCH  27  32
HETATM   32  N   UNL     1      -7.690   3.369  69.095  1.00  0.00    -0.051 N  
HETATM   33  H   UNL     1      -6.963   2.899  68.555  1.00  0.00     0.000 HD 
BRANCH  32  34
HETATM   34  S   UNL     1      -8.438   2.608  70.417  1.00  0.00    -0.053 S  
HETATM   35  C   UNL     1      -8.779   3.988  71.487  1.00  0.00    -0.106 C  
HETATM   36  O   UNL     1      -7.392   1.819  71.032  1.00  0.00    -0.032 OA 
HETATM   37  O   UNL     1      -9.681   2.010  69.991  1.00  0.00    -0.037 OA 
ENDBRANCH  32  34
ENDBRANCH  27  32
ENDBRANCH   6  22
ENDBRANCH   2   3
TORSDOF 6
ENDMDL
MODEL      106
REMARK 921   NORMALIZED FREE ENERGY PREDICTED BY IDOCK:    8.06 KCAL/MOL
REMARK 922        TOTAL FREE ENERGY PREDICTED BY IDOCK:   10.65 KCAL/MOL
REMARK 923 INTER-LIGAND FREE ENERGY PREDICTED BY IDOCK:    6.03 KCAL/MOL
REMARK 924 INTRA-LIGAND FREE ENERGY PREDICTED BY IDOCK:    4.61 KCAL/MOL
REMARK 927      BINDING AFFINITY PREDICTED BY RF-SCORE:    0.00 PKD
ROOT
HETATM    1  C   UNL     1     -12.222  16.113  65.941  1.00  0.00     1.945 C  
HETATM    2  O   UNL     1     -11.286  15.286  66.641  1.00  0.00    -0.314 OA 
ENDROOT
BRANCH   2   3
HETATM    3  C   UNL     1     -10.340  15.954  67.386  1.00  0.00    -0.288 A  
HETATM    4  C   UNL     1     -10.050  17.295  67.028  1.00  0.00    -0.303 A  
HETATM    5  C   UNL     1      -9.174  18.002  67.883  1.00  0.00    -0.268 A  
HETATM    6  C   UNL     1      -9.611  15.294  68.419  1.00  0.00    -0.206 A  
HETATM    7  C   UNL     1      -8.738  16.078  69.209  1.00  0.00    -0.224 A  
HETATM    8  C   UNL     1      -8.526  17.449  68.997  1.00  0.00    -0.056 A  
BRANCH   4   9
HETATM    9  C   UNL     1     -10.637  18.042  65.793  1.00  0.00    -0.174 C  
HETATM   10  C   UNL     1     -11.050  17.129  64.614  1.00  0.00     0.571 C  
HETATM   11  C   UNL     1     -11.870  18.853  66.236  1.00  0.00     2.725 C  
HETATM   12  C   UNL     1      -9.613  19.036  65.167  1.00  0.00     2.015 C  
ENDBRANCH   4   9
BRANCH   8  13
HETATM   13  N   UNL     1      -7.650  18.233  69.869  1.00  0.00     0.803 N  
HETATM   14  C   UNL     1      -8.046  19.479  70.355  1.00  0.00     1.480 C  
HETATM   15  O   UNL     1      -5.802  16.736  69.804  1.00  0.00    -0.192 OA 
HETATM   16  C   UNL     1      -7.269  20.274  71.092  1.00  0.00     0.988 C  
HETATM   17  H   UNL     1      -4.783  18.141  71.464  1.00  0.00     0.000 HD 
HETATM   18  C   UNL     1      -5.926  19.820  71.450  1.00  0.00    -0.162 C  
HETATM   19  O   UNL     1      -5.143  20.550  72.043  1.00  0.00    -0.374 OA 
HETATM   20  N   UNL     1      -5.630  18.549  71.072  1.00  0.00    -0.150 N  
HETATM   21  C   UNL     1      -6.357  17.755  70.214  1.00  0.00     0.381 C  
ENDBRANCH   8  13
BRANCH   6  22
HETATM   22  C   UNL     1      -9.717  13.825  68.688  1.00  0.00    -0.140 A  
HETATM   23  C   UNL     1      -8.190  10.742  67.289  1.00  0.00    -0.121 A  
HETATM   24  C   UNL     1      -8.765  12.931  68.164  1.00  0.00    -0.190 A  
HETATM   25  C   UNL     1      -8.481   9.392  67.132  1.00  0.00    -0.128 A  
HETATM   26  C   UNL     1      -9.009  11.553  68.083  1.00  0.00    -0.172 A  
HETATM   27  C   UNL     1      -9.567   8.835  67.796  1.00  0.00    -0.148 A  
HETATM   28  C   UNL     1     -10.989  11.866  69.431  1.00  0.00    -0.156 A  
HETATM   29  C   UNL     1     -10.375   9.622  68.622  1.00  0.00    -0.226 A  
HETATM   30  C   UNL     1     -10.809  13.257  69.370  1.00  0.00     0.012 A  
HETATM   31  C   UNL     1     -10.127  11.002  68.734  1.00  0.00    -0.214 A  
BRANCH  27  32
HETATM   32  N   UNL     1      -9.822   7.443  67.656  1.00  0.00    -0.146 N  
HETATM   33  H   UNL     1     -10.576   7.100  67.061  1.00  0.00     0.000 HD 
BRANCH  32  34
HETATM   34  S   UNL     1      -8.824   6.373  68.519  1.00  0.00    -0.118 S  
HETATM   35  C   UNL     1      -9.979   5.626  69.647  1.00  0.00    -0.203 C  
HETATM   36  O   UNL     1      -7.942   7.225  69.288  1.00  0.00    -0.114 OA 
HETATM   37  O   UNL     1      -8.306   5.366  67.624  1.00  0.00    -0.100 OA 
ENDBRANCH  32  34
ENDBRANCH  27  32
ENDBRANCH   6  22
ENDBRANCH   2   3
TORSDOF 6
ENDMDL
MODEL      107
REMARK 921   NORMALIZED FREE ENERGY PREDICTED BY IDOCK:   10.99 KCAL/MOL
REMARK 922        TOTAL FREE ENERGY PREDICTED BY IDOCK:   14.60 KCAL/MOL
REMARK 923 INTER-LIGAND FREE ENERGY PREDICTED BY IDOCK:   11.97 KCAL/MOL
REMARK 924 INTRA-LIGAND FREE ENERGY PREDICTED BY IDOCK:    2.63 KCAL/MOL
REMARK 927      BINDING AFFINITY PREDICTED BY RF-SCORE:    0.00 PKD
ROOT
HETATM    1  C   UNL     1     -11.876  15.695  72.657  1.00  0.00    -0.485 C  
HETATM    2  O   UNL     1     -10.756  15.511  71.783  1.00  0.00     0.015 OA 
ENDROOT
BRANCH   2   3
HETATM    3  C   UNL     1     -11.062  15.305  70.456  1.00  0.00    -0.306 A  
HETATM    4  C   UNL     1     -10.850  16.382  69.559  1.00  0.00    -0.338 A  
HETATM    5  C   UNL     1     -11.047  16.109  68.186  1.00  0.00    -0.332 A  
HETATM    6  C   UNL     1     -11.658  14.087  70.016  1.00  0.00    -0.302 A  
HETATM    7  C   UNL     1     -11.840  13.912  68.624  1.00  0.00    -0.407 A  
HETATM    8  C   UNL     1     -11.505  14.887  67.672  1.00  0.00    -0.352 A  
BRANCH   4   9
HETATM    9  C   UNL     1     -10.398  17.816  69.968  1.00  0.00     0.847 C  
HETATM   10  C   UNL     1     -10.862  18.943  69.014  1.00  0.00     0.971 C  
HETATM   11  C   UNL     1     -10.929  18.125  71.382  1.00  0.00     2.966 C  
HETATM   12  C   UNL     1      -8.846  17.956  70.001  1.00  0.00     2.083 C  
ENDBRANCH   4   9
BRANCH   8  13
HETATM   13  N   UNL     1     -11.664  14.646  66.237  1.00  0.00    -0.354 N  
HETATM   14  C   UNL     1     -12.922  14.688  65.635  1.00  0.00     0.182 C  
HETATM   15  O   UNL     1      -9.380  14.148  65.797  1.00  0.00    -0.105 OA 
HETATM   16  C   UNL     1     -13.144  14.406  64.350  1.00  0.00     0.769 C  
HETATM   17  H   UNL     1      -9.981  14.104  63.472  1.00  0.00     0.000 HD 
HETATM   18  C   UNL     1     -12.012  14.057  63.495  1.00  0.00     0.086 C  
HETATM   19  O   UNL     1     -12.175  13.699  62.336  1.00  0.00     0.649 OA 
HETATM   20  N   UNL     1     -10.793  14.158  64.086  1.00  0.00    -0.014 N  
HETATM   21  C   UNL     1     -10.541  14.327  65.429  1.00  0.00    -0.354 C  
ENDBRANCH   8  13
BRANCH   6  22
HETATM   22  C   UNL     1     -12.108  13.008  70.951  1.00  0.00    -0.182 A  
HETATM   23  C   UNL     1     -11.814   9.308  71.091  1.00  0.00    -0.396 A  
HETATM   24  C   UNL     1     -11.569  11.711  70.860  1.00  0.00     0.524 A  
HETATM   25  C   UNL     1     -12.492   8.209  71.604  1.00  0.00    -0.349 A  
HETATM   26  C   UNL     1     -12.196  10.606  71.452  1.00  0.00    -0.405 A  
HETATM   27  C   UNL     1     -13.529   8.397  72.511  1.00  0.00    -0.128 A  
HETATM   28  C   UNL     1     -13.690  12.118  72.598  1.00  0.00     0.492 A  
HETATM   29  C   UNL     1     -13.900   9.683  72.910  1.00  0.00     0.283 A  
HETATM   30  C   UNL     1     -13.149  13.195  71.878  1.00  0.00    -0.482 A  
HETATM   31  C   UNL     1     -13.263  10.803  72.345  1.00  0.00     0.084 A  
BRANCH  27  32
HETATM   32  N   UNL     1     -14.182   7.257  73.058  1.00  0.00     0.591 N  
HETATM   33  H   UNL     1     -14.897   7.352  73.779  1.00  0.00     0.000 HD 
BRANCH  32  34
HETATM   34  S   UNL     1     -13.725   5.733  72.465  1.00  0.00     1.704 S  
HETATM   35  C   UNL     1     -11.950   5.862  72.457  1.00  0.00    -0.119 C  
HETATM   36  O   UNL     1     -14.174   5.718  71.089  1.00  0.00     2.527 OA 
HETATM   37  O   UNL     1     -14.128   4.709  73.399  1.00  0.00     2.613 OA 
ENDBRANCH  32  34
ENDBRANCH  27  32
ENDBRANCH   6  22
ENDBRANCH   2   3
TORSDOF 6
ENDMDL
MODEL      108
REMARK 921   NORMALIZED FREE ENERGY PREDICTED BY IDOCK:   17.75 KCAL/MOL
REMARK 922        TOTAL FREE ENERGY PREDICTED BY IDOCK:   23.73 KCAL/MOL
REMARK 923 INTER-LIGAND FREE ENERGY PREDICTED BY IDOCK:   22.91 KCAL/MOL
REMARK 924 INTRA-LIGAND FREE ENERGY PREDICTED BY IDOCK:    0.82 KCAL/MOL
REMARK 927      BINDING AFFINITY PREDICTED BY RF-SCORE:    0.00 PKD
ROOT
HETATM    1  C   UNL     1      -7.981  13.784  64.924  1.00  0.00     8.267 C  
HETATM    2  O   UNL     1      -9.283  13.559  65.476  1.00  0.00     0.237 OA 
ENDROOT
BRANCH   2   3
HETATM    3  C   UNL     1      -9.421  12.416  66.231  1.00  0.00    -0.220 A  
HETATM    4  C   UNL     1      -9.798  11.226  65.557  1.00  0.00    -0.274 A  
HETATM    5  C   UNL     1      -9.808  10.040  66.326  1.00  0.00    -0.297 A  
HETATM    6  C   UNL     1      -9.283  12.445  67.650  1.00  0.00    -0.185 A  
HETATM    7  C   UNL     1      -9.331  11.211  68.339  1.00  0.00    -0.185 A  
HETATM    8  C   UNL     1      -9.550   9.979  67.703  1.00  0.00    -0.148 A  
BRANCH   4   9
HETATM    9  C   UNL     1     -10.173  11.129  64.048  1.00  0.00    -0.419 C  
HETATM   10  C   UNL     1      -9.477  12.167  63.135  1.00  0.00     0.384 C  
HETATM   11  C   UNL     1      -9.827   9.718  63.534  1.00  0.00     0.633 C  
HETATM   12  C   UNL     1     -11.694  11.364  63.804  1.00  0.00    -0.094 C  
ENDBRANCH   4   9
BRANCH   8  13
HETATM   13  N   UNL     1      -9.544   8.719  68.449  1.00  0.00    -0.145 N  
HETATM   14  C   UNL     1      -8.469   7.834  68.358  1.00  0.00    -0.125 C  
HETATM   15  O   UNL     1     -11.720   8.952  69.381  1.00  0.00     0.450 OA 
HETATM   16  C   UNL     1      -8.433   6.640  68.952  1.00  0.00    -0.123 C  
HETATM   17  H   UNL     1     -11.231   6.980  70.662  1.00  0.00     0.000 HD 
HETATM   18  C   UNL     1      -9.565   6.225  69.778  1.00  0.00    -0.151 C  
HETATM   19  O   UNL     1      -9.622   5.104  70.266  1.00  0.00    -0.159 OA 
HETATM   20  N   UNL     1     -10.528   7.168  69.949  1.00  0.00    -0.217 N  
HETATM   21  C   UNL     1     -10.652   8.352  69.258  1.00  0.00    -0.182 C  
ENDBRANCH   8  13
BRANCH   6  22
HETATM   22  C   UNL     1      -9.108  13.710  68.431  1.00  0.00    -0.165 A  
HETATM   23  C   UNL     1      -6.593  16.441  68.553  1.00  0.00    -0.136 A  
HETATM   24  C   UNL     1      -8.178  14.682  68.019  1.00  0.00    -0.145 A  
HETATM   25  C   UNL     1      -6.086  17.377  69.447  1.00  0.00    -0.244 A  
HETATM   26  C   UNL     1      -7.727  15.689  68.884  1.00  0.00    -0.181 A  
HETATM   27  C   UNL     1      -6.730  17.596  70.659  1.00  0.00     1.845 A  
HETATM   28  C   UNL     1      -9.432  15.038  70.465  1.00  0.00     1.007 A  
HETATM   29  C   UNL     1      -7.885  16.881  70.990  1.00  0.00     5.686 A  
HETATM   30  C   UNL     1      -9.765  13.943  69.653  1.00  0.00     0.886 A  
HETATM   31  C   UNL     1      -8.365  15.886  70.121  1.00  0.00     0.977 A  
BRANCH  27  32
HETATM   32  N   UNL     1      -6.221  18.589  71.540  1.00  0.00     1.178 N  
HETATM   33  H   UNL     1      -5.439  18.392  72.164  1.00  0.00     0.000 HD 
BRANCH  32  34
HETATM   34  S   UNL     1      -6.965  20.116  71.515  1.00  0.00     1.081 S  
HETATM   35  C   UNL     1      -8.019  20.031  72.947  1.00  0.00     3.526 C  
HETATM   36  O   UNL     1      -7.812  20.098  70.341  1.00  0.00     0.599 OA 
HETATM   37  O   UNL     1      -5.970  21.143  71.710  1.00  0.00    -0.049 OA 
ENDBRANCH  32  34
ENDBRANCH  27  32
ENDBRANCH   6  22
ENDBRANCH   2   3
TORSDOF 6
ENDMDL
MODEL      109
REMARK 921   NORMALIZED FREE ENERGY PREDICTED BY IDOCK:   18.94 KCAL/MOL
REMARK 922        TOTAL FREE ENERGY PREDICTED BY IDOCK:   25.33 KCAL/MOL
REMARK 923 INTER-LIGAND FREE ENERGY PREDICTED BY IDOCK:   24.54 KCAL/MOL
REMARK 924 INTRA-LIGAND FREE ENERGY PREDICTED BY IDOCK:    0.79 KCAL/MOL
REMARK 927      BINDING AFFINITY PREDICTED BY RF-SCORE:    0.00 PKD
ROOT
HETATM    1  C   UNL     1      -7.981  13.784  64.924  1.00  0.00     8.267 C  
HETATM    2  O   UNL     1      -9.294  13.576  65.458  1.00  0.00     0.101 OA 
ENDROOT
BRANCH   2   3
HETATM    3  C   UNL     1      -9.458  12.434  66.208  1.00  0.00    -0.220 A  
HETATM    4  C   UNL     1      -9.843  11.251  65.527  1.00  0.00    -0.274 A  
HETATM    5  C   UNL     1      -9.880  10.063  66.293  1.00  0.00    -0.297 A  
HETATM    6  C   UNL     1      -9.338  12.458  67.629  1.00  0.00    -0.188 A  
HETATM    7  C   UNL     1      -9.413  11.223  68.314  1.00  0.00    -0.190 A  
HETATM    8  C   UNL     1      -9.641   9.996  67.673  1.00  0.00    -0.148 A  
BRANCH   4   9
HETATM    9  C   UNL     1     -10.199  11.163  64.012  1.00  0.00    -0.419 C  
HETATM   10  C   UNL     1      -9.497  10.018  63.243  1.00  0.00    -0.230 C  
HETATM   11  C   UNL     1     -11.723  10.987  63.864  1.00  0.00     0.794 C  
HETATM   12  C   UNL     1      -9.791  12.452  63.237  1.00  0.00     0.267 C  
ENDBRANCH   4   9
BRANCH   8  13
HETATM   13  N   UNL     1      -9.663   8.734  68.416  1.00  0.00    -0.158 N  
HETATM   14  C   UNL     1      -8.901   7.641  68.001  1.00  0.00    -0.127 C  
HETATM   15  O   UNL     1     -11.297   9.395  70.013  1.00  0.00    -0.226 OA 
HETATM   16  C   UNL     1      -8.932   6.445  68.589  1.00  0.00    -0.125 C  
HETATM   17  H   UNL     1     -10.854   7.312  71.123  1.00  0.00     0.000 HD 
HETATM   18  C   UNL     1      -9.786   6.251  69.759  1.00  0.00    -0.160 C  
HETATM   19  O   UNL     1      -9.921   5.149  70.275  1.00  0.00    -0.208 OA 
HETATM   20  N   UNL     1     -10.405   7.373  70.210  1.00  0.00    -0.208 N  
HETATM   21  C   UNL     1     -10.490   8.584  69.561  1.00  0.00    -0.220 C  
ENDBRANCH   8  13
BRANCH   6  22
HETATM   22  C   UNL     1      -9.155  13.719  68.416  1.00  0.00    -0.175 A  
HETATM   23  C   UNL     1     -11.380  16.388  69.726  1.00  0.00    -0.176 A  
HETATM   24  C   UNL     1     -10.260  14.360  69.006  1.00  0.00    -0.185 A  
HETATM   25  C   UNL     1     -11.335  17.737  70.061  1.00  0.00     2.482 A  
HETATM   26  C   UNL     1     -10.200  15.694  69.433  1.00  0.00    -0.261 A  
HETATM   27  C   UNL     1     -10.110  18.389  70.145  1.00  0.00     1.304 A  
HETATM   28  C   UNL     1      -7.812  15.658  69.080  1.00  0.00    -0.204 A  
HETATM   29  C   UNL     1      -8.920  17.702  69.892  1.00  0.00     1.619 A  
HETATM   30  C   UNL     1      -7.916  14.378  68.513  1.00  0.00    -0.144 A  
HETATM   31  C   UNL     1      -8.961  16.356  69.487  1.00  0.00     0.143 A  
BRANCH  27  32
HETATM   32  N   UNL     1     -10.083  19.758  70.532  1.00  0.00    -0.028 N  
HETATM   33  H   UNL     1     -10.263  20.502  69.858  1.00  0.00     0.000 HD 
BRANCH  32  34
HETATM   34  S   UNL     1      -9.739  20.105  72.158  1.00  0.00     3.519 S  
HETATM   35  C   UNL     1      -7.980  20.372  72.109  1.00  0.00     2.323 C  
HETATM   36  O   UNL     1      -9.979  18.864  72.863  1.00  0.00     3.641 OA 
HETATM   37  O   UNL     1     -10.400  21.329  72.542  1.00  0.00     4.654 OA 
ENDBRANCH  32  34
ENDBRANCH  27  32
ENDBRANCH   6  22
ENDBRANCH   2   3
TORSDOF 6
ENDMDL
MODEL      110
REMARK 921   NORMALIZED FREE ENERGY PREDICTED BY IDOCK:   19.76 KCAL/MOL
REMARK 922        TOTAL FREE ENERGY PREDICTED BY IDOCK:   26.45 KCAL/MOL
REMARK 923 INTER-LIGAND FREE ENERGY PREDICTED BY IDOCK:   24.13 KCAL/MOL
REMARK 924 INTRA-LIGAND FREE ENERGY PREDICTED BY IDOCK:    2.32 KCAL/MOL
REMARK 927      BINDING AFFINITY PREDICTED BY RF-SCORE:    0.00 PKD
ROOT
HETATM    1  C   UNL     1     -11.571  13.036  72.422  1.00  0.00     4.137 C  
HETATM    2  O   UNL     1     -10.342  12.476  71.945  1.00  0.00     9.001 OA 
ENDROOT
BRANCH   2   3
HETATM    3  C   UNL     1     -10.240  12.340  70.579  1.00  0.00     4.096 A  
HETATM    4  C   UNL     1     -10.056  13.519  69.813  1.00  0.00     1.148 A  
HETATM    5  C   UNL     1      -9.824  13.345  68.429  1.00  0.00    -0.216 A  
HETATM    6  C   UNL     1     -10.408  11.072  69.948  1.00  0.00     0.250 A  
HETATM    7  C   UNL     1     -10.179  10.998  68.554  1.00  0.00    -0.203 A  
HETATM    8  C   UNL     1      -9.842  12.110  67.766  1.00  0.00    -0.199 A  
BRANCH   4   9
HETATM    9  C   UNL     1     -10.065  14.970  70.382  1.00  0.00     0.247 C  
HETATM   10  C   UNL     1      -9.774  16.079  69.344  1.00  0.00    -0.248 C  
HETATM   11  C   UNL     1     -11.440  15.249  71.022  1.00  0.00    -0.396 C  
HETATM   12  C   UNL     1      -8.979  15.177  71.480  1.00  0.00     4.070 C  
ENDBRANCH   4   9
BRANCH   8  13
HETATM   13  N   UNL     1      -9.566  11.980  66.335  1.00  0.00    -0.224 N  
HETATM   14  C   UNL     1      -8.629  11.060  65.862  1.00  0.00    -0.165 C  
HETATM   15  O   UNL     1     -11.000  13.741  65.627  1.00  0.00    -0.284 OA 
HETATM   16  C   UNL     1      -8.279  10.943  64.580  1.00  0.00     0.171 C  
HETATM   17  H   UNL     1     -10.513  13.049  63.379  1.00  0.00     0.000 HD 
HETATM   18  C   UNL     1      -8.925  11.800  63.587  1.00  0.00     0.415 C  
HETATM   19  O   UNL     1      -8.571  11.797  62.416  1.00  0.00    -0.124 OA 
HETATM   20  N   UNL     1      -9.925  12.584  64.069  1.00  0.00    -0.273 N  
HETATM   21  C   UNL     1     -10.225  12.815  65.392  1.00  0.00    -0.283 C  
ENDBRANCH   8  13
BRANCH   6  22
HETATM   22  C   UNL     1     -10.825   9.837  70.685  1.00  0.00    -0.396 A  
HETATM   23  C   UNL     1      -9.242   7.527  73.124  1.00  0.00    -0.244 A  
HETATM   24  C   UNL     1     -10.070   9.366  71.775  1.00  0.00     0.085 A  
HETATM   25  C   UNL     1      -9.319   6.201  73.534  1.00  0.00    -0.134 A  
HETATM   26  C   UNL     1     -10.205   8.056  72.258  1.00  0.00    -0.325 A  
HETATM   27  C   UNL     1     -10.380   5.407  73.113  1.00  0.00    -0.202 A  
HETATM   28  C   UNL     1     -12.148   7.781  70.850  1.00  0.00    -0.199 A  
HETATM   29  C   UNL     1     -11.371   5.930  72.277  1.00  0.00    -0.351 A  
HETATM   30  C   UNL     1     -11.904   9.036  70.270  1.00  0.00     0.076 A  
HETATM   31  C   UNL     1     -11.264   7.250  71.805  1.00  0.00    -0.278 A  
BRANCH  27  32
HETATM   32  N   UNL     1     -10.464   4.066  73.578  1.00  0.00    -0.165 N  
HETATM   33  H   UNL     1      -9.655   3.593  73.980  1.00  0.00     0.000 HD 
BRANCH  32  34
HETATM   34  S   UNL     1     -11.964   3.282  73.439  1.00  0.00     0.643 S  
HETATM   35  C   UNL     1     -11.752   2.352  71.936  1.00  0.00     3.042 C  
HETATM   36  O   UNL     1     -12.915   4.340  73.173  1.00  0.00     0.436 OA 
HETATM   37  O   UNL     1     -12.140   2.373  74.546  1.00  0.00     1.229 OA 
ENDBRANCH  32  34
ENDBRANCH  27  32
ENDBRANCH   6  22
ENDBRANCH   2   3
TORSDOF 6
ENDMDL
MODEL      111
REMARK 921   NORMALIZED FREE ENERGY PREDICTED BY IDOCK:   23.58 KCAL/MOL
REMARK 922        TOTAL FREE ENERGY PREDICTED BY IDOCK:   31.60 KCAL/MOL
REMARK 923 INTER-LIGAND FREE ENERGY PREDICTED BY IDOCK:   28.77 KCAL/MOL
REMARK 924 INTRA-LIGAND FREE ENERGY PREDICTED BY IDOCK:    2.83 KCAL/MOL
REMARK 927      BINDING AFFINITY PREDICTED BY RF-SCORE:    0.00 PKD
ROOT
HETATM    1  C   UNL     1      -9.005  11.663  71.841  1.00  0.00    16.224 C  
HETATM    2  O   UNL     1      -9.139  11.444  70.432  1.00  0.00     2.332 OA 
ENDROOT
BRANCH   2   3
HETATM    3  C   UNL     1      -8.935  12.546  69.634  1.00  0.00     2.048 A  
HETATM    4  C   UNL     1      -9.664  13.723  69.941  1.00  0.00     1.587 A  
HETATM    5  C   UNL     1      -9.344  14.879  69.192  1.00  0.00    -0.145 A  
HETATM    6  C   UNL     1      -8.093  12.482  68.485  1.00  0.00    -0.089 A  
HETATM    7  C   UNL     1      -7.849  13.685  67.782  1.00  0.00    -0.172 A  
HETATM    8  C   UNL     1      -8.425  14.915  68.133  1.00  0.00    -0.146 A  
BRANCH   4   9
HETATM    9  C   UNL     1     -10.759  13.839  71.044  1.00  0.00     2.672 C  
HETATM   10  C   UNL     1     -10.341  14.649  72.294  1.00  0.00     3.247 C  
HETATM   11  C   UNL     1     -12.016  14.491  70.436  1.00  0.00    -0.386 C  
HETATM   12  C   UNL     1     -11.171  12.447  71.610  1.00  0.00     4.557 C  
ENDBRANCH   4   9
BRANCH   8  13
HETATM   13  N   UNL     1      -8.107  16.146  67.408  1.00  0.00    -0.150 N  
HETATM   14  C   UNL     1      -6.784  16.530  67.186  1.00  0.00    -0.197 C  
HETATM   15  O   UNL     1     -10.353  16.878  67.130  1.00  0.00    -0.299 OA 
HETATM   16  C   UNL     1      -6.428  17.673  66.597  1.00  0.00    -0.239 C  
HETATM   17  H   UNL     1      -9.465  18.632  65.750  1.00  0.00     0.000 HD 
HETATM   18  C   UNL     1      -7.469  18.582  66.122  1.00  0.00    -0.248 C  
HETATM   19  O   UNL     1      -7.194  19.682  65.663  1.00  0.00    -0.294 OA 
HETATM   20  N   UNL     1      -8.738  18.110  66.237  1.00  0.00    -0.220 N  
HETATM   21  C   UNL     1      -9.143  16.999  66.942  1.00  0.00    -0.236 C  
ENDBRANCH   8  13
BRANCH   6  22
HETATM   22  C   UNL     1      -7.478  11.210  67.988  1.00  0.00    -0.094 A  
HETATM   23  C   UNL     1      -8.736   8.023  66.556  1.00  0.00    -0.161 A  
HETATM   24  C   UNL     1      -8.233  10.300  67.226  1.00  0.00    -0.121 A  
HETATM   25  C   UNL     1      -8.372   6.685  66.464  1.00  0.00    -0.117 A  
HETATM   26  C   UNL     1      -7.830   8.969  67.048  1.00  0.00    -0.098 A  
HETATM   27  C   UNL     1      -7.089   6.290  66.825  1.00  0.00    -0.073 A  
HETATM   28  C   UNL     1      -5.697   9.527  68.034  1.00  0.00    -0.041 A  
HETATM   29  C   UNL     1      -6.160   7.227  67.283  1.00  0.00    -0.042 A  
HETATM   30  C   UNL     1      -6.176  10.810  68.341  1.00  0.00    -0.049 A  
HETATM   31  C   UNL     1      -6.541   8.571  67.443  1.00  0.00    -0.059 A  
BRANCH  27  32
HETATM   32  N   UNL     1      -6.723   4.923  66.682  1.00  0.00    -0.050 N  
HETATM   33  H   UNL     1      -6.503   4.346  67.494  1.00  0.00     0.000 HD 
BRANCH  32  34
HETATM   34  S   UNL     1      -6.663   4.288  65.108  1.00  0.00    -0.050 S  
HETATM   35  C   UNL     1      -6.288   2.577  65.419  1.00  0.00    -0.024 C  
HETATM   36  O   UNL     1      -5.495   4.895  64.506  1.00  0.00    -0.013 OA 
HETATM   37  O   UNL     1      -7.965   4.392  64.494  1.00  0.00    -0.087 OA 
ENDBRANCH  32  34
ENDBRANCH  27  32
ENDBRANCH   6  22
ENDBRANCH   2   3
TORSDOF 6
ENDMDL
MODEL      112
REMARK 921   NORMALIZED FREE ENERGY PREDICTED BY IDOCK:   28.19 KCAL/MOL
REMARK 922        TOTAL FREE ENERGY PREDICTED BY IDOCK:   37.84 KCAL/MOL
REMARK 923 INTER-LIGAND FREE ENERGY PREDICTED BY IDOCK:   36.53 KCAL/MOL
REMARK 924 INTRA-LIGAND FREE ENERGY PREDICTED BY IDOCK:    1.31 KCAL/MOL
REMARK 927      BINDING AFFINITY PREDICTED BY RF-SCORE:    0.00 PKD
ROOT
HETATM    1  C   UNL     1     -11.250  17.147  73.060  1.00  0.00     1.649 C  
HETATM    2  O   UNL     1     -10.167  16.874  72.164  1.00  0.00     4.104 OA 
ENDROOT
BRANCH   2   3
HETATM    3  C   UNL     1     -10.477  16.918  70.823  1.00  0.00     1.240 A  
HETATM    4  C   UNL     1      -9.960  17.999  70.065  1.00  0.00     1.032 A  
HETATM    5  C   UNL     1     -10.181  17.956  68.669  1.00  0.00    -0.387 A  
HETATM    6  C   UNL     1     -11.361  15.965  70.237  1.00  0.00    -0.381 A  
HETATM    7  C   UNL     1     -11.540  16.013  68.835  1.00  0.00    -0.354 A  
HETATM    8  C   UNL     1     -10.931  16.971  68.010  1.00  0.00    -0.252 A  
BRANCH   4   9
HETATM    9  C   UNL     1      -9.158  19.202  70.647  1.00  0.00     2.563 C  
HETATM   10  C   UNL     1      -7.714  18.868  71.091  1.00  0.00     4.239 C  
HETATM   11  C   UNL     1      -9.097  20.323  69.591  1.00  0.00     0.868 C  
HETATM   12  C   UNL     1      -9.826  19.789  71.926  1.00  0.00     3.008 C  
ENDBRANCH   4   9
BRANCH   8  13
HETATM   13  N   UNL     1     -11.106  16.955  66.557  1.00  0.00     0.202 N  
HETATM   14  C   UNL     1     -11.916  16.001  65.939  1.00  0.00     1.217 C  
HETATM   15  O   UNL     1      -9.599  18.734  66.088  1.00  0.00    -0.425 OA 
HETATM   16  C   UNL     1     -12.060  15.887  64.618  1.00  0.00     0.201 C  
HETATM   17  H   UNL     1     -10.349  18.586  63.811  1.00  0.00     0.000 HD 
HETATM   18  C   UNL     1     -11.358  16.824  63.744  1.00  0.00     2.327 C  
HETATM   19  O   UNL     1     -11.381  16.702  62.527  1.00  0.00     5.264 OA 
HETATM   20  N   UNL     1     -10.689  17.818  64.387  1.00  0.00     2.434 N  
HETATM   21  C   UNL     1     -10.424  17.892  65.736  1.00  0.00    -0.196 C  
ENDBRANCH   8  13
BRANCH   6  22
HETATM   22  C   UNL     1     -12.108  14.940  71.033  1.00  0.00    -0.380 A  
HETATM   23  C   UNL     1     -11.516  11.425  72.077  1.00  0.00     3.853 A  
HETATM   24  C   UNL     1     -11.459  13.780  71.495  1.00  0.00     1.378 A  
HETATM   25  C   UNL     1     -12.234  10.282  72.409  1.00  0.00     0.873 A  
HETATM   26  C   UNL     1     -12.173  12.651  71.920  1.00  0.00     0.754 A  
HETATM   27  C   UNL     1     -13.605  10.364  72.624  1.00  0.00     0.624 A  
HETATM   28  C   UNL     1     -14.204  13.955  71.833  1.00  0.00    -0.443 A  
HETATM   29  C   UNL     1     -14.271  11.586  72.507  1.00  0.00     1.165 A  
HETATM   30  C   UNL     1     -13.493  15.023  71.264  1.00  0.00    -0.520 A  
HETATM   31  C   UNL     1     -13.564  12.734  72.107  1.00  0.00    -0.547 A  
BRANCH  27  32
HETATM   32  N   UNL     1     -14.314   9.191  73.005  1.00  0.00    -0.597 N  
HETATM   33  H   UNL     1     -15.157   9.245  73.577  1.00  0.00     0.000 HD 
BRANCH  32  34
HETATM   34  S   UNL     1     -13.704   7.698  72.472  1.00  0.00     0.519 S  
HETATM   35  C   UNL     1     -14.392   7.587  70.835  1.00  0.00     0.294 C  
HETATM   36  O   UNL     1     -14.364   6.710  73.298  1.00  0.00     1.487 OA 
HETATM   37  O   UNL     1     -12.265   7.767  72.385  1.00  0.00    -0.282 OA 
ENDBRANCH  32  34
ENDBRANCH  27  32
ENDBRANCH   6  22
ENDBRANCH   2   3
TORSDOF 6
ENDMDL
MODEL      113
REMARK 921   NORMALIZED FREE ENERGY PREDICTED BY IDOCK:   30.01 KCAL/MOL
REMARK 922        TOTAL FREE ENERGY PREDICTED BY IDOCK:   40.30 KCAL/MOL
REMARK 923 INTER-LIGAND FREE ENERGY PREDICTED BY IDOCK:   39.79 KCAL/MOL
REMARK 924 INTRA-LIGAND FREE ENERGY PREDICTED BY IDOCK:    0.50 KCAL/MOL
REMARK 927      BINDING AFFINITY PREDICTED BY RF-SCORE:    0.00 PKD
ROOT
HETATM    1  C   UNL     1      -9.535  11.138  64.228  1.00  0.00    -0.213 C  
HETATM    2  O   UNL     1      -8.451  11.460  65.107  1.00  0.00     0.128 OA 
ENDROOT
BRANCH   2   3
HETATM    3  C   UNL     1      -8.810  11.942  66.346  1.00  0.00    -0.152 A  
HETATM    4  C   UNL     1      -8.869  13.350  66.510  1.00  0.00     0.005 A  
HETATM    5  C   UNL     1      -9.363  13.822  67.747  1.00  0.00    -0.213 A  
HETATM    6  C   UNL     1      -9.023  11.064  67.448  1.00  0.00    -0.141 A  
HETATM    7  C   UNL     1      -9.496  11.629  68.655  1.00  0.00    -0.129 A  
HETATM    8  C   UNL     1      -9.719  13.004  68.829  1.00  0.00     0.059 A  
BRANCH   4   9
HETATM    9  C   UNL     1      -8.456  14.397  65.432  1.00  0.00     3.163 C  
HETATM   10  C   UNL     1      -8.019  15.771  65.993  1.00  0.00     0.779 C  
HETATM   11  C   UNL     1      -7.300  13.823  64.591  1.00  0.00    14.863 C  
HETATM   12  C   UNL     1      -9.629  14.734  64.462  1.00  0.00     1.790 C  
ENDBRANCH   4   9
BRANCH   8  13
HETATM   13  N   UNL     1     -10.255  13.542  70.081  1.00  0.00     1.595 N  
HETATM   14  C   UNL     1      -9.543  13.433  71.275  1.00  0.00     9.530 C  
HETATM   15  O   UNL     1     -12.342  14.257  69.190  1.00  0.00    -0.277 OA 
HETATM   16  C   UNL     1     -10.006  13.836  72.459  1.00  0.00     9.881 C  
HETATM   17  H   UNL     1     -12.755  15.263  71.331  1.00  0.00     0.000 HD 
HETATM   18  C   UNL     1     -11.326  14.459  72.531  1.00  0.00     1.303 C  
HETATM   19  O   UNL     1     -11.833  14.758  73.603  1.00  0.00    -0.242 OA 
HETATM   20  N   UNL     1     -11.927  14.668  71.330  1.00  0.00    -0.346 N  
HETATM   21  C   UNL     1     -11.534  14.159  70.113  1.00  0.00    -0.163 C  
ENDBRANCH   8  13
BRANCH   6  22
HETATM   22  C   UNL     1      -8.758   9.591  67.388  1.00  0.00    -0.128 A  
HETATM   23  C   UNL     1      -7.003   7.293  65.057  1.00  0.00    -0.055 A  
HETATM   24  C   UNL     1      -7.794   9.074  66.503  1.00  0.00    -0.100 A  
HETATM   25  C   UNL     1      -7.039   5.964  64.651  1.00  0.00    -0.060 A  
HETATM   26  C   UNL     1      -7.760   7.717  66.156  1.00  0.00    -0.089 A  
HETATM   27  C   UNL     1      -7.798   5.043  65.362  1.00  0.00    -0.088 A  
HETATM   28  C   UNL     1      -9.385   7.276  67.888  1.00  0.00    -0.131 A  
HETATM   29  C   UNL     1      -8.531   5.440  66.484  1.00  0.00    -0.113 A  
HETATM   30  C   UNL     1      -9.515   8.655  68.114  1.00  0.00    -0.152 A  
HETATM   31  C   UNL     1      -8.554   6.795  66.861  1.00  0.00    -0.116 A  
BRANCH  27  32
HETATM   32  N   UNL     1      -7.786   3.680  64.957  1.00  0.00    -0.084 N  
HETATM   33  H   UNL     1      -7.547   2.935  65.612  1.00  0.00     0.000 HD 
BRANCH  32  34
HETATM   34  S   UNL     1      -8.184   3.339  63.341  1.00  0.00    -0.085 S  
HETATM   35  C   UNL     1      -6.590   3.400  62.552  1.00  0.00    -0.022 C  
HETATM   36  O   UNL     1      -8.943   4.488  62.895  1.00  0.00    -0.120 OA 
HETATM   37  O   UNL     1      -8.717   2.001  63.246  1.00  0.00    -0.083 OA 
ENDBRANCH  32  34
ENDBRANCH  27  32
ENDBRANCH   6  22
ENDBRANCH   2   3
TORSDOF 6
ENDMDL
MODEL      114
REMARK 921   NORMALIZED FREE ENERGY PREDICTED BY IDOCK:   39.89 KCAL/MOL
REMARK 922        TOTAL FREE ENERGY PREDICTED BY IDOCK:   53.64 KCAL/MOL
REMARK 923 INTER-LIGAND FREE ENERGY PREDICTED BY IDOCK:   51.94 KCAL/MOL
REMARK 924 INTRA-LIGAND FREE ENERGY PREDICTED BY IDOCK:    1.70 KCAL/MOL
REMARK 927      BINDING AFFINITY PREDICTED BY RF-SCORE:    0.00 PKD
ROOT
HETATM    1  C   UNL     1     -10.617  12.152  65.364  1.00  0.00    -0.272 C  
HETATM    2  O   UNL     1     -11.100  10.843  65.042  1.00  0.00    -0.061 OA 
ENDROOT
BRANCH   2   3
HETATM    3  C   UNL     1     -10.308   9.797  65.458  1.00  0.00     0.114 A  
HETATM    4  C   UNL     1     -10.212   8.667  64.607  1.00  0.00     3.473 A  
HETATM    5  C   UNL     1      -9.295   7.661  64.990  1.00  0.00     0.996 A  
HETATM    6  C   UNL     1      -9.681   9.807  66.739  1.00  0.00    -0.248 A  
HETATM    7  C   UNL     1      -8.797   8.747  67.046  1.00  0.00    -0.139 A  
HETATM    8  C   UNL     1      -8.545   7.674  66.176  1.00  0.00    -0.148 A  
BRANCH   4   9
HETATM    9  C   UNL     1     -11.016   8.467  63.287  1.00  0.00    12.818 C  
HETATM   10  C   UNL     1     -11.266   9.759  62.474  1.00  0.00     5.230 C  
HETATM   11  C   UNL     1     -10.265   7.463  62.390  1.00  0.00     5.635 C  
HETATM   12  C   UNL     1     -12.442   7.896  63.548  1.00  0.00    25.877 C  
ENDBRANCH   4   9
BRANCH   8  13
HETATM   13  N   UNL     1      -7.585   6.622  66.512  1.00  0.00    -0.088 N  
HETATM   14  C   UNL     1      -7.132   5.724  65.546  1.00  0.00    -0.069 C  
HETATM   15  O   UNL     1      -7.478   7.097  68.841  1.00  0.00    -0.093 OA 
HETATM   16  C   UNL     1      -6.316   4.701  65.802  1.00  0.00    -0.039 C  
HETATM   17  H   UNL     1      -5.715   5.469  68.951  1.00  0.00     0.000 HD 
HETATM   18  C   UNL     1      -5.831   4.505  67.167  1.00  0.00    -0.023 C  
HETATM   19  O   UNL     1      -5.159   3.528  67.471  1.00  0.00    -0.007 OA 
HETATM   20  N   UNL     1      -6.187   5.476  68.048  1.00  0.00    -0.035 N  
HETATM   21  C   UNL     1      -7.118   6.470  67.846  1.00  0.00    -0.085 C  
ENDBRANCH   8  13
BRANCH   6  22
HETATM   22  C   UNL     1      -9.928  10.870  67.765  1.00  0.00    -0.198 A  
HETATM   23  C   UNL     1     -12.694  11.744  70.084  1.00  0.00     0.068 A  
HETATM   24  C   UNL     1     -10.980  10.740  68.690  1.00  0.00    -0.285 A  
HETATM   25  C   UNL     1     -13.228  12.855  70.727  1.00  0.00     0.267 A  
HETATM   26  C   UNL     1     -11.468  11.836  69.415  1.00  0.00    -0.371 A  
HETATM   27  C   UNL     1     -12.523  14.052  70.740  1.00  0.00    -0.372 A  
HETATM   28  C   UNL     1      -9.595  13.140  68.625  1.00  0.00    -0.034 A  
HETATM   29  C   UNL     1     -11.281  14.153  70.108  1.00  0.00    -0.060 A  
HETATM   30  C   UNL     1      -9.210  12.080  67.790  1.00  0.00    -0.190 A  
HETATM   31  C   UNL     1     -10.765  13.054  69.399  1.00  0.00     0.138 A  
BRANCH  27  32
HETATM   32  N   UNL     1     -13.066  15.165  71.441  1.00  0.00    -0.385 N  
HETATM   33  H   UNL     1     -13.869  15.679  71.077  1.00  0.00     0.000 HD 
BRANCH  32  34
HETATM   34  S   UNL     1     -12.327  15.605  72.905  1.00  0.00    -0.503 S  
HETATM   35  C   UNL     1     -11.719  17.235  72.531  1.00  0.00     1.106 C  
HETATM   36  O   UNL     1     -11.185  14.723  73.026  1.00  0.00     0.188 OA 
HETATM   37  O   UNL     1     -13.325  15.690  73.945  1.00  0.00    -0.259 OA 
ENDBRANCH  32  34
ENDBRANCH  27  32
ENDBRANCH   6  22
ENDBRANCH   2   3
TORSDOF 6
ENDMDL
MODEL      115
REMARK 921   NORMALIZED FREE ENERGY PREDICTED BY IDOCK:   67.75 KCAL/MOL
REMARK 922        TOTAL FREE ENERGY PREDICTED BY IDOCK:   91.28 KCAL/MOL
REMARK 923 INTER-LIGAND FREE ENERGY PREDICTED BY IDOCK:   91.17 KCAL/MOL
REMARK 924 INTRA-LIGAND FREE ENERGY PREDICTED BY IDOCK:    0.10 KCAL/MOL
REMARK 927      BINDING AFFINITY PREDICTED BY RF-SCORE:    0.00 PKD
ROOT
HETATM    1  C   UNL     1      -9.479  11.172  64.206  1.00  0.00    -0.213 C  
HETATM    2  O   UNL     1      -8.180  11.404  64.763  1.00  0.00     0.424 OA 
ENDROOT
BRANCH   2   3
HETATM    3  C   UNL     1      -8.153  12.133  65.930  1.00  0.00     0.831 A  
HETATM    4  C   UNL     1      -7.822  13.509  65.836  1.00  0.00     3.074 A  
HETATM    5  C   UNL     1      -7.926  14.267  67.025  1.00  0.00    -0.013 A  
HETATM    6  C   UNL     1      -8.356  11.511  67.196  1.00  0.00    -0.160 A  
HETATM    7  C   UNL     1      -8.421  12.347  68.335  1.00  0.00    -0.131 A  
HETATM    8  C   UNL     1      -8.253  13.739  68.282  1.00  0.00    -0.156 A  
BRANCH   4   9
HETATM    9  C   UNL     1      -7.384  14.240  64.531  1.00  0.00    16.796 C  
HETATM   10  C   UNL     1      -6.507  15.496  64.752  1.00  0.00    14.119 C  
HETATM   11  C   UNL     1      -6.607  13.253  63.639  1.00  0.00    16.946 C  
HETATM   12  C   UNL     1      -8.602  14.763  63.713  1.00  0.00    13.062 C  
ENDBRANCH   4   9
BRANCH   8  13
HETATM   13  N   UNL     1      -8.377  14.573  69.479  1.00  0.00     0.158 N  
HETATM   14  C   UNL     1      -7.501  14.423  70.555  1.00  0.00     1.090 C  
HETATM   15  O   UNL     1     -10.333  15.737  68.790  1.00  0.00    -0.208 OA 
HETATM   16  C   UNL     1      -7.604  15.098  71.701  1.00  0.00     3.546 C  
HETATM   17  H   UNL     1     -10.046  17.098  70.748  1.00  0.00     0.000 HD 
HETATM   18  C   UNL     1      -8.675  16.082  71.850  1.00  0.00     8.246 C  
HETATM   19  O   UNL     1      -8.869  16.657  72.913  1.00  0.00    13.777 OA 
HETATM   20  N   UNL     1      -9.420  16.294  70.734  1.00  0.00     2.135 N  
HETATM   21  C   UNL     1      -9.417  15.534  69.586  1.00  0.00    -0.243 C  
ENDBRANCH   8  13
BRANCH   6  22
HETATM   22  C   UNL     1      -8.485  10.029  67.371  1.00  0.00    -0.121 A  
HETATM   23  C   UNL     1     -10.238   7.768  69.739  1.00  0.00    -0.211 A  
HETATM   24  C   UNL     1      -9.480   9.492  68.209  1.00  0.00    -0.143 A  
HETATM   25  C   UNL     1     -10.118   6.489  70.271  1.00  0.00    -0.208 A  
HETATM   26  C   UNL     1      -9.418   8.173  68.679  1.00  0.00    -0.147 A  
HETATM   27  C   UNL     1      -9.207   5.595  69.722  1.00  0.00    -0.138 A  
HETATM   28  C   UNL     1      -7.594   7.757  67.153  1.00  0.00    -0.100 A  
HETATM   29  C   UNL     1      -8.406   5.969  68.640  1.00  0.00    -0.113 A  
HETATM   30  C   UNL     1      -7.573   9.118  66.809  1.00  0.00    -0.087 A  
HETATM   31  C   UNL     1      -8.474   7.281  68.140  1.00  0.00    -0.123 A  
BRANCH  27  32
HETATM   32  N   UNL     1      -9.130   4.277  70.252  1.00  0.00    -0.091 N  
HETATM   33  H   UNL     1      -9.236   3.458  69.653  1.00  0.00     0.000 HD 
BRANCH  32  34
HETATM   34  S   UNL     1      -8.856   4.118  71.921  1.00  0.00    -0.116 S  
HETATM   35  C   UNL     1      -7.250   3.352  71.955  1.00  0.00    -0.046 C  
HETATM   36  O   UNL     1      -9.823   3.138  72.366  1.00  0.00    -0.138 OA 
HETATM   37  O   UNL     1      -8.777   5.427  72.525  1.00  0.00    -0.124 OA 
ENDBRANCH  32  34
ENDBRANCH  27  32
ENDBRANCH   6  22
ENDBRANCH   2   3
TORSDOF 6
ENDMDL
