MODEL        1
REMARK 921   NORMALIZED FREE ENERGY PREDICTED BY IDOCK:   -7.93 KCAL/MOL
REMARK 922        TOTAL FREE ENERGY PREDICTED BY IDOCK:  -11.56 KCAL/MOL
REMARK 923 INTER-LIGAND FREE ENERGY PREDICTED BY IDOCK:  -11.18 KCAL/MOL
REMARK 924 INTRA-LIGAND FREE ENERGY PREDICTED BY IDOCK:   -0.38 KCAL/MOL
REMARK 927      BINDING AFFINITY PREDICTED BY RF-SCORE:    0.00 PKD
ROOT
HETATM    1  C   UNL     1     -13.821  15.780  72.670  1.00  0.00    -0.597 C  
HETATM    2  C   UNL     1     -13.262  14.558  72.011  1.00  0.00    -0.362 A  
HETATM    3  N   UNL     1     -13.589  13.369  72.546  1.00  0.00    -0.653 NA 
HETATM    4  C   UNL     1     -13.194  12.282  71.873  1.00  0.00    -0.376 A  
HETATM    5  C   UNL     1     -12.120  13.630  70.245  1.00  0.00    -0.357 A  
HETATM    6  C   UNL     1     -12.528  12.387  70.680  1.00  0.00    -0.320 A  
HETATM    7  N   UNL     1     -12.518  14.732  70.901  1.00  0.00    -0.304 NA 
ENDROOT
BRANCH   4   8
HETATM    8  N   UNL     1     -13.520  11.051  72.431  1.00  0.00    -0.458 NA 
HETATM    9  H   UNL     1     -14.164  11.076  73.222  1.00  0.00     0.000 HD 
BRANCH   8  10
HETATM   10  C   UNL     1     -13.090   9.829  72.056  1.00  0.00    -0.452 A  
HETATM   11  S   UNL     1     -11.462   9.690  71.541  1.00  0.00    -0.306 SA 
HETATM   12  N   UNL     1     -13.771   8.699  72.016  1.00  0.00    -0.402 NA 
HETATM   13  C   UNL     1     -13.027   7.711  71.401  1.00  0.00    -0.311 A  
HETATM   14  C   UNL     1     -11.761   8.090  71.013  1.00  0.00    -0.277 A  
BRANCH  14  15
HETATM   15  C   UNL     1     -10.794   7.361  70.228  1.00  0.00    -0.245 C  
HETATM   16  O   UNL     1      -9.666   7.791  70.007  1.00  0.00    -0.175 OA 
HETATM   17  H   UNL     1     -12.269   5.955  69.845  1.00  0.00     0.000 HD 
HETATM   18  N   UNL     1     -11.279   6.166  69.721  1.00  0.00    -0.414 N  
BRANCH  18  19
HETATM   19  C   UNL     1     -10.479   5.230  69.047  1.00  0.00    -0.136 A  
HETATM   20  C   UNL     1      -8.962   3.351  69.122  1.00  0.00    -0.181 A  
HETATM   21  C   UNL     1      -9.748   4.253  71.307  1.00  0.00    -0.256 C  
HETATM   22  C   UNL     1      -9.740   4.302  69.803  1.00  0.00    -0.290 A  
HETATM   23  C   UNL     1      -8.901   3.337  67.728  1.00  0.00    -0.157 A  
HETATM   24  C   UNL     1      -9.583   4.294  66.988  1.00  0.00    -0.227 A  
HETATM   25  C   UNL     1     -10.364   5.246  67.640  1.00  0.00    -0.146 A  
HETATM   26 CL   UNL     1     -11.006   6.536  66.673  1.00  0.00    -0.295 Cl 
ENDBRANCH  18  19
ENDBRANCH  14  15
ENDBRANCH   8  10
ENDBRANCH   4   8
BRANCH   5  27
HETATM   27  N   UNL     1     -11.333  13.718  69.090  1.00  0.00    -0.268 NA 
HETATM   28  C   UNL     1     -10.403  14.867  69.046  1.00  0.00    -0.245 C  
HETATM   29  C   UNL     1     -12.036  13.496  67.817  1.00  0.00    -0.334 C  
HETATM   30  N   UNL     1      -9.999  14.483  66.561  1.00  0.00    -0.270 NA 
HETATM   31  C   UNL     1      -9.392  14.673  67.899  1.00  0.00    -0.198 C  
HETATM   32  C   UNL     1     -10.995  13.373  66.668  1.00  0.00    -0.287 C  
BRANCH  30  33
HETATM   33  C   UNL     1     -10.646  15.708  66.040  1.00  0.00    -0.328 C  
BRANCH  33  34
HETATM   34  C   UNL     1     -11.366  15.501  64.696  1.00  0.00    -0.357 C  
HETATM   35  H   UNL     1     -12.038  16.622  63.219  1.00  0.00     0.000 HD 
HETATM   36  O   UNL     1     -11.594  16.750  64.049  1.00  0.00    -1.195 OA 
ENDBRANCH  33  34
ENDBRANCH  30  33
ENDBRANCH   5  27
TORSDOF 7
ENDMDL
MODEL        2
REMARK 921   NORMALIZED FREE ENERGY PREDICTED BY IDOCK:   -7.92 KCAL/MOL
REMARK 922        TOTAL FREE ENERGY PREDICTED BY IDOCK:  -11.54 KCAL/MOL
REMARK 923 INTER-LIGAND FREE ENERGY PREDICTED BY IDOCK:  -10.50 KCAL/MOL
REMARK 924 INTRA-LIGAND FREE ENERGY PREDICTED BY IDOCK:   -1.04 KCAL/MOL
REMARK 927      BINDING AFFINITY PREDICTED BY RF-SCORE:    0.00 PKD
ROOT
HETATM    1  C   UNL     1     -13.117  15.386  71.345  1.00  0.00    -0.563 C  
HETATM    2  C   UNL     1     -12.737  14.124  70.638  1.00  0.00    -0.321 A  
HETATM    3  N   UNL     1     -12.405  14.226  69.339  1.00  0.00    -0.272 NA 
HETATM    4  C   UNL     1     -11.942  13.116  68.752  1.00  0.00    -0.280 A  
HETATM    5  C   UNL     1     -12.243  11.882  70.754  1.00  0.00    -0.303 A  
HETATM    6  C   UNL     1     -11.776  11.953  69.459  1.00  0.00    -0.410 A  
HETATM    7  N   UNL     1     -12.701  12.989  71.362  1.00  0.00    -0.334 NA 
ENDROOT
BRANCH   4   8
HETATM    8  N   UNL     1     -11.611  13.216  67.405  1.00  0.00    -0.334 NA 
HETATM    9  H   UNL     1     -11.945  12.461  66.806  1.00  0.00     0.000 HD 
BRANCH   8  10
HETATM   10  C   UNL     1     -10.902  14.187  66.794  1.00  0.00    -0.296 A  
HETATM   11  S   UNL     1      -9.379  14.594  67.465  1.00  0.00    -0.200 SA 
HETATM   12  N   UNL     1     -11.234  14.897  65.732  1.00  0.00    -0.338 NA 
HETATM   13  C   UNL     1     -10.324  15.916  65.530  1.00  0.00    -0.400 A  
HETATM   14  C   UNL     1      -9.276  15.947  66.424  1.00  0.00    -0.309 A  
BRANCH  14  15
HETATM   15  C   UNL     1      -8.248  16.947  66.585  1.00  0.00    -0.257 C  
HETATM   16  O   UNL     1      -7.474  17.248  65.682  1.00  0.00    -0.336 OA 
HETATM   17  H   UNL     1      -8.792  17.084  68.582  1.00  0.00     0.000 HD 
HETATM   18  N   UNL     1      -8.198  17.491  67.859  1.00  0.00    -0.226 N  
BRANCH  18  19
HETATM   19  C   UNL     1      -7.374  18.572  68.208  1.00  0.00    -0.277 A  
HETATM   20  C   UNL     1      -5.416  19.413  69.348  1.00  0.00    -0.220 A  
HETATM   21  C   UNL     1      -5.879  16.974  69.554  1.00  0.00    -0.203 C  
HETATM   22  C   UNL     1      -6.252  18.332  69.023  1.00  0.00    -0.235 A  
HETATM   23  C   UNL     1      -5.700  20.703  68.895  1.00  0.00    -0.388 A  
HETATM   24  C   UNL     1      -6.842  20.944  68.143  1.00  0.00    -0.162 A  
HETATM   25  C   UNL     1      -7.686  19.888  67.805  1.00  0.00    -0.292 A  
HETATM   26 CL   UNL     1      -9.198  20.295  67.059  1.00  0.00    -0.494 Cl 
ENDBRANCH  18  19
ENDBRANCH  14  15
ENDBRANCH   8  10
ENDBRANCH   4   8
BRANCH   5  27
HETATM   27  N   UNL     1     -12.183  10.656  71.428  1.00  0.00    -0.335 NA 
HETATM   28  C   UNL     1     -11.069   9.770  71.029  1.00  0.00    -0.361 C  
HETATM   29  C   UNL     1     -13.461   9.943  71.578  1.00  0.00    -0.312 C  
HETATM   30  N   UNL     1     -12.153   7.811  72.240  1.00  0.00    -0.306 NA 
HETATM   31  C   UNL     1     -10.929   8.621  72.047  1.00  0.00    -0.362 C  
HETATM   32  C   UNL     1     -13.273   8.749  72.555  1.00  0.00    -0.347 C  
BRANCH  30  33
HETATM   33  C   UNL     1     -12.490   6.982  71.062  1.00  0.00    -0.326 C  
BRANCH  33  34
HETATM   34  C   UNL     1     -11.312   6.136  70.545  1.00  0.00    -0.310 C  
HETATM   35  H   UNL     1     -10.550   5.616  68.802  1.00  0.00     0.000 HD 
HETATM   36  O   UNL     1     -11.277   6.138  69.121  1.00  0.00    -0.386 OA 
ENDBRANCH  33  34
ENDBRANCH  30  33
ENDBRANCH   5  27
TORSDOF 7
ENDMDL
MODEL        3
REMARK 921   NORMALIZED FREE ENERGY PREDICTED BY IDOCK:   -7.83 KCAL/MOL
REMARK 922        TOTAL FREE ENERGY PREDICTED BY IDOCK:  -11.42 KCAL/MOL
REMARK 923 INTER-LIGAND FREE ENERGY PREDICTED BY IDOCK:  -10.65 KCAL/MOL
REMARK 924 INTRA-LIGAND FREE ENERGY PREDICTED BY IDOCK:   -0.77 KCAL/MOL
REMARK 927      BINDING AFFINITY PREDICTED BY RF-SCORE:    0.00 PKD
ROOT
HETATM    1  C   UNL     1     -13.852  15.282  72.230  1.00  0.00    -0.632 C  
HETATM    2  C   UNL     1     -13.230  14.045  71.661  1.00  0.00    -0.368 A  
HETATM    3  N   UNL     1     -13.483  12.885  72.292  1.00  0.00    -0.576 NA 
HETATM    4  C   UNL     1     -13.032  11.773  71.701  1.00  0.00    -0.362 A  
HETATM    5  C   UNL     1     -12.054  13.046  69.957  1.00  0.00    -0.297 A  
HETATM    6  C   UNL     1     -12.385  11.821  70.494  1.00  0.00    -0.387 A  
HETATM    7  N   UNL     1     -12.509  14.173  70.530  1.00  0.00    -0.345 NA 
ENDROOT
BRANCH   4   8
HETATM    8  N   UNL     1     -13.281  10.574  72.359  1.00  0.00    -0.522 NA 
HETATM    9  H   UNL     1     -13.830  10.640  73.216  1.00  0.00     0.000 HD 
BRANCH   8  10
HETATM   10  C   UNL     1     -12.887   9.334  72.003  1.00  0.00    -0.415 A  
HETATM   11  S   UNL     1     -11.206   9.067  71.804  1.00  0.00    -0.373 SA 
HETATM   12  N   UNL     1     -13.637   8.274  71.766  1.00  0.00    -0.352 NA 
HETATM   13  C   UNL     1     -12.870   7.248  71.249  1.00  0.00    -0.346 A  
HETATM   14  C   UNL     1     -11.525   7.525  71.135  1.00  0.00    -0.273 A  
BRANCH  14  15
HETATM   15  C   UNL     1     -10.485   6.744  70.510  1.00  0.00    -0.209 C  
HETATM   16  O   UNL     1      -9.293   6.992  70.662  1.00  0.00    -0.161 OA 
HETATM   17  H   UNL     1     -11.971   5.682  69.527  1.00  0.00     0.000 HD 
HETATM   18  N   UNL     1     -10.966   5.728  69.698  1.00  0.00    -0.358 N  
BRANCH  18  19
HETATM   19  C   UNL     1     -10.145   4.761  69.100  1.00  0.00    -0.125 A  
HETATM   20  C   UNL     1      -9.152   3.816  67.109  1.00  0.00    -0.178 A  
HETATM   21  C   UNL     1     -10.674   5.762  66.795  1.00  0.00    -0.369 C  
HETATM   22  C   UNL     1      -9.996   4.771  67.701  1.00  0.00    -0.178 A  
HETATM   23  C   UNL     1      -8.492   2.861  67.885  1.00  0.00    -0.103 A  
HETATM   24  C   UNL     1      -8.691   2.817  69.259  1.00  0.00    -0.134 A  
HETATM   25  C   UNL     1      -9.522   3.755  69.869  1.00  0.00    -0.197 A  
HETATM   26 CL   UNL     1      -9.895   3.505  71.545  1.00  0.00    -0.241 Cl 
ENDBRANCH  18  19
ENDBRANCH  14  15
ENDBRANCH   8  10
ENDBRANCH   4   8
BRANCH   5  27
HETATM   27  N   UNL     1     -11.286  13.087  68.786  1.00  0.00    -0.266 NA 
HETATM   28  C   UNL     1     -11.873  13.862  67.673  1.00  0.00    -0.386 C  
HETATM   29  C   UNL     1     -10.706  11.807  68.355  1.00  0.00    -0.219 C  
HETATM   30  N   UNL     1     -10.190  12.858  66.047  1.00  0.00    -0.279 NA 
HETATM   31  C   UNL     1     -10.809  14.093  66.583  1.00  0.00    -0.299 C  
HETATM   32  C   UNL     1      -9.687  12.063  67.208  1.00  0.00    -0.185 C  
BRANCH  30  33
HETATM   33  C   UNL     1     -11.125  12.049  65.233  1.00  0.00    -0.317 C  
BRANCH  33  34
HETATM   34  C   UNL     1     -11.749  12.824  64.059  1.00  0.00    -0.426 C  
HETATM   35  H   UNL     1     -13.420  12.779  63.012  1.00  0.00     0.000 HD 
HETATM   36  O   UNL     1     -13.034  12.301  63.736  1.00  0.00    -0.766 OA 
ENDBRANCH  33  34
ENDBRANCH  30  33
ENDBRANCH   5  27
TORSDOF 7
ENDMDL
MODEL        4
REMARK 921   NORMALIZED FREE ENERGY PREDICTED BY IDOCK:   -7.82 KCAL/MOL
REMARK 922        TOTAL FREE ENERGY PREDICTED BY IDOCK:  -11.40 KCAL/MOL
REMARK 923 INTER-LIGAND FREE ENERGY PREDICTED BY IDOCK:  -10.86 KCAL/MOL
REMARK 924 INTRA-LIGAND FREE ENERGY PREDICTED BY IDOCK:   -0.54 KCAL/MOL
REMARK 927      BINDING AFFINITY PREDICTED BY RF-SCORE:    0.00 PKD
ROOT
HETATM    1  C   UNL     1     -12.905  15.610  73.716  1.00  0.00    -0.695 C  
HETATM    2  C   UNL     1     -12.673  14.598  72.639  1.00  0.00    -0.375 A  
HETATM    3  N   UNL     1     -13.194  13.373  72.826  1.00  0.00    -0.439 NA 
HETATM    4  C   UNL     1     -13.093  12.518  71.801  1.00  0.00    -0.347 A  
HETATM    5  C   UNL     1     -11.906  14.125  70.524  1.00  0.00    -0.282 A  
HETATM    6  C   UNL     1     -12.526  12.896  70.612  1.00  0.00    -0.333 A  
HETATM    7  N   UNL     1     -12.008  15.000  71.538  1.00  0.00    -0.334 NA 
ENDROOT
BRANCH   4   8
HETATM    8  N   UNL     1     -13.620  11.247  71.997  1.00  0.00    -0.359 NA 
HETATM    9  H   UNL     1     -14.618  11.203  72.202  1.00  0.00     0.000 HD 
BRANCH   8  10
HETATM   10  C   UNL     1     -12.973  10.064  71.950  1.00  0.00    -0.447 A  
HETATM   11  S   UNL     1     -11.508  10.001  71.063  1.00  0.00    -0.362 SA 
HETATM   12  N   UNL     1     -13.328   8.915  72.494  1.00  0.00    -0.432 NA 
HETATM   13  C   UNL     1     -12.496   7.901  72.063  1.00  0.00    -0.304 A  
HETATM   14  C   UNL     1     -11.482   8.297  71.219  1.00  0.00    -0.274 A  
BRANCH  14  15
HETATM   15  C   UNL     1     -10.543   7.486  70.482  1.00  0.00    -0.225 C  
HETATM   16  O   UNL     1      -9.360   7.791  70.364  1.00  0.00    -0.159 OA 
HETATM   17  H   UNL     1     -12.130   6.269  69.934  1.00  0.00     0.000 HD 
HETATM   18  N   UNL     1     -11.116   6.369  69.894  1.00  0.00    -0.345 N  
BRANCH  18  19
HETATM   19  C   UNL     1     -10.374   5.369  69.247  1.00  0.00    -0.251 A  
HETATM   20  C   UNL     1      -9.503   4.417  67.203  1.00  0.00    -0.193 A  
HETATM   21  C   UNL     1     -10.911   6.460  66.984  1.00  0.00    -0.463 C  
HETATM   22  C   UNL     1     -10.268   5.406  67.844  1.00  0.00    -0.219 A  
HETATM   23  C   UNL     1      -8.880   3.404  67.934  1.00  0.00    -0.152 A  
HETATM   24  C   UNL     1      -9.040   3.337  69.312  1.00  0.00    -0.200 A  
HETATM   25  C   UNL     1      -9.791   4.308  69.971  1.00  0.00    -0.205 A  
HETATM   26 CL   UNL     1     -10.128   4.037  71.652  1.00  0.00    -0.225 Cl 
ENDBRANCH  18  19
ENDBRANCH  14  15
ENDBRANCH   8  10
ENDBRANCH   4   8
BRANCH   5  27
HETATM   27  N   UNL     1     -11.222  14.454  69.347  1.00  0.00    -0.273 NA 
HETATM   28  C   UNL     1     -11.623  15.731  68.720  1.00  0.00    -0.395 C  
HETATM   29  C   UNL     1     -11.053  13.363  68.376  1.00  0.00    -0.273 C  
HETATM   30  N   UNL     1     -10.384  15.107  66.585  1.00  0.00    -0.268 NA 
HETATM   31  C   UNL     1     -10.597  16.125  67.640  1.00  0.00    -0.315 C  
HETATM   32  C   UNL     1     -10.067  13.813  67.262  1.00  0.00    -0.239 C  
BRANCH  30  33
HETATM   33  C   UNL     1     -11.552  14.949  65.690  1.00  0.00    -0.245 C  
BRANCH  33  34
HETATM   34  C   UNL     1     -11.296  15.432  64.251  1.00  0.00    -0.126 C  
HETATM   35  H   UNL     1     -11.454  17.113  63.232  1.00  0.00     0.000 HD 
HETATM   36  O   UNL     1     -11.612  16.815  64.120  1.00  0.00    -1.106 OA 
ENDBRANCH  33  34
ENDBRANCH  30  33
ENDBRANCH   5  27
TORSDOF 7
ENDMDL
MODEL        5
REMARK 921   NORMALIZED FREE ENERGY PREDICTED BY IDOCK:   -7.82 KCAL/MOL
REMARK 922        TOTAL FREE ENERGY PREDICTED BY IDOCK:  -11.40 KCAL/MOL
REMARK 923 INTER-LIGAND FREE ENERGY PREDICTED BY IDOCK:  -10.39 KCAL/MOL
REMARK 924 INTRA-LIGAND FREE ENERGY PREDICTED BY IDOCK:   -1.01 KCAL/MOL
REMARK 927      BINDING AFFINITY PREDICTED BY RF-SCORE:    0.00 PKD
ROOT
HETATM    1  C   UNL     1     -13.635  15.312  72.254  1.00  0.00    -0.586 C  
HETATM    2  C   UNL     1     -13.136  14.033  71.660  1.00  0.00    -0.359 A  
HETATM    3  N   UNL     1     -13.408  12.899  72.329  1.00  0.00    -0.536 NA 
HETATM    4  C   UNL     1     -13.073  11.754  71.724  1.00  0.00    -0.375 A  
HETATM    5  C   UNL     1     -12.160  12.942  69.887  1.00  0.00    -0.265 A  
HETATM    6  C   UNL     1     -12.521  11.746  70.469  1.00  0.00    -0.317 A  
HETATM    7  N   UNL     1     -12.499  14.102  70.475  1.00  0.00    -0.345 NA 
ENDROOT
BRANCH   4   8
HETATM    8  N   UNL     1     -13.342  10.580  72.420  1.00  0.00    -0.532 NA 
HETATM    9  H   UNL     1     -13.803  10.692  73.323  1.00  0.00     0.000 HD 
BRANCH   8  10
HETATM   10  C   UNL     1     -13.069   9.313  72.047  1.00  0.00    -0.436 A  
HETATM   11  S   UNL     1     -11.421   8.882  71.866  1.00  0.00    -0.368 SA 
HETATM   12  N   UNL     1     -13.917   8.338  71.782  1.00  0.00    -0.392 NA 
HETATM   13  C   UNL     1     -13.250   7.248  71.258  1.00  0.00    -0.289 A  
HETATM   14  C   UNL     1     -11.883   7.390  71.167  1.00  0.00    -0.301 A  
BRANCH  14  15
HETATM   15  C   UNL     1     -10.917   6.519  70.542  1.00  0.00    -0.294 C  
HETATM   16  O   UNL     1     -10.809   5.334  70.840  1.00  0.00    -0.178 OA 
HETATM   17  H   UNL     1     -10.181   8.174  69.532  1.00  0.00     0.000 HD 
HETATM   18  N   UNL     1     -10.108   7.160  69.616  1.00  0.00    -0.188 N  
BRANCH  18  19
HETATM   19  C   UNL     1      -9.194   6.488  68.790  1.00  0.00    -0.131 A  
HETATM   20  C   UNL     1      -8.694   5.409  66.686  1.00  0.00    -0.115 A  
HETATM   21  C   UNL     1     -11.011   6.271  66.988  1.00  0.00    -0.442 C  
HETATM   22  C   UNL     1      -9.620   6.058  67.520  1.00  0.00    -0.116 A  
HETATM   23  C   UNL     1      -7.386   5.173  67.113  1.00  0.00    -0.082 A  
HETATM   24  C   UNL     1      -6.989   5.544  68.391  1.00  0.00    -0.064 A  
HETATM   25  C   UNL     1      -7.889   6.192  69.235  1.00  0.00    -0.104 A  
HETATM   26 CL   UNL     1      -7.395   6.425  70.882  1.00  0.00    -0.081 Cl 
ENDBRANCH  18  19
ENDBRANCH  14  15
ENDBRANCH   8  10
ENDBRANCH   4   8
BRANCH   5  27
HETATM   27  N   UNL     1     -11.484  12.921  68.661  1.00  0.00    -0.285 NA 
HETATM   28  C   UNL     1     -11.875  13.981  67.707  1.00  0.00    -0.384 C  
HETATM   29  C   UNL     1     -11.343  11.601  68.029  1.00  0.00    -0.296 C  
HETATM   30  N   UNL     1     -10.671  12.768  65.820  1.00  0.00    -0.268 NA 
HETATM   31  C   UNL     1     -10.856  14.042  66.553  1.00  0.00    -0.300 C  
HETATM   32  C   UNL     1     -10.364  11.707  66.826  1.00  0.00    -0.222 C  
BRANCH  30  33
HETATM   33  C   UNL     1     -11.851  12.389  65.012  1.00  0.00    -0.388 C  
BRANCH  33  34
HETATM   34  C   UNL     1     -11.858  13.006  63.602  1.00  0.00    -0.516 C  
HETATM   35  H   UNL     1     -12.653  14.572  62.704  1.00  0.00     0.000 HD 
HETATM   36  O   UNL     1     -12.648  14.191  63.575  1.00  0.00    -0.834 OA 
ENDBRANCH  33  34
ENDBRANCH  30  33
ENDBRANCH   5  27
TORSDOF 7
ENDMDL
MODEL        6
REMARK 921   NORMALIZED FREE ENERGY PREDICTED BY IDOCK:   -7.73 KCAL/MOL
REMARK 922        TOTAL FREE ENERGY PREDICTED BY IDOCK:  -11.27 KCAL/MOL
REMARK 923 INTER-LIGAND FREE ENERGY PREDICTED BY IDOCK:  -10.53 KCAL/MOL
REMARK 924 INTRA-LIGAND FREE ENERGY PREDICTED BY IDOCK:   -0.75 KCAL/MOL
REMARK 927      BINDING AFFINITY PREDICTED BY RF-SCORE:    0.00 PKD
ROOT
HETATM    1  C   UNL     1     -13.950  15.468  72.413  1.00  0.00    -0.653 C  
HETATM    2  C   UNL     1     -13.330  14.247  71.809  1.00  0.00    -0.371 A  
HETATM    3  N   UNL     1     -13.555  13.075  72.428  1.00  0.00    -0.584 NA 
HETATM    4  C   UNL     1     -13.108  11.977  71.808  1.00  0.00    -0.355 A  
HETATM    5  C   UNL     1     -12.187  13.287  70.060  1.00  0.00    -0.275 A  
HETATM    6  C   UNL     1     -12.492  12.050  70.586  1.00  0.00    -0.335 A  
HETATM    7  N   UNL     1     -12.639  14.400  70.662  1.00  0.00    -0.341 NA 
ENDROOT
BRANCH   4   8
HETATM    8  N   UNL     1     -13.328  10.765  72.454  1.00  0.00    -0.502 NA 
HETATM    9  H   UNL     1     -13.785  10.820  73.364  1.00  0.00     0.000 HD 
BRANCH   8  10
HETATM   10  C   UNL     1     -13.012   9.526  72.024  1.00  0.00    -0.426 A  
HETATM   11  S   UNL     1     -11.407   9.264  71.483  1.00  0.00    -0.399 SA 
HETATM   12  N   UNL     1     -13.791   8.464  71.946  1.00  0.00    -0.392 NA 
HETATM   13  C   UNL     1     -13.144   7.440  71.282  1.00  0.00    -0.296 A  
HETATM   14  C   UNL     1     -11.852   7.721  70.894  1.00  0.00    -0.239 A  
BRANCH  14  15
HETATM   15  C   UNL     1     -10.960   6.943  70.068  1.00  0.00    -0.279 C  
HETATM   16  O   UNL     1     -11.209   5.788  69.737  1.00  0.00    -0.355 OA 
HETATM   17  H   UNL     1      -9.613   8.516  70.162  1.00  0.00     0.000 HD 
HETATM   18  N   UNL     1      -9.793   7.609  69.731  1.00  0.00    -0.179 N  
BRANCH  18  19
HETATM   19  C   UNL     1      -8.846   7.104  68.828  1.00  0.00    -0.130 A  
HETATM   20  C   UNL     1      -6.791   5.896  68.425  1.00  0.00    -0.066 A  
HETATM   21  C   UNL     1      -7.469   6.207  70.802  1.00  0.00    -0.091 C  
HETATM   22  C   UNL     1      -7.723   6.423  69.335  1.00  0.00    -0.101 A  
HETATM   23  C   UNL     1      -6.958   6.061  67.049  1.00  0.00    -0.068 A  
HETATM   24  C   UNL     1      -8.035   6.787  66.557  1.00  0.00    -0.105 A  
HETATM   25  C   UNL     1      -8.974   7.317  67.439  1.00  0.00    -0.122 A  
HETATM   26 CL   UNL     1     -10.163   8.391  66.772  1.00  0.00    -0.374 Cl 
ENDBRANCH  18  19
ENDBRANCH  14  15
ENDBRANCH   8  10
ENDBRANCH   4   8
BRANCH   5  27
HETATM   27  N   UNL     1     -11.449  13.354  68.872  1.00  0.00    -0.282 NA 
HETATM   28  C   UNL     1     -10.931  14.695  68.526  1.00  0.00    -0.252 C  
HETATM   29  C   UNL     1     -12.023  12.643  67.719  1.00  0.00    -0.243 C  
HETATM   30  N   UNL     1     -10.383  13.908  66.168  1.00  0.00    -0.293 NA 
HETATM   31  C   UNL     1      -9.891  14.574  67.396  1.00  0.00    -0.227 C  
HETATM   32  C   UNL     1     -10.977  12.597  66.570  1.00  0.00    -0.269 C  
BRANCH  30  33
HETATM   33  C   UNL     1     -11.375  14.719  65.428  1.00  0.00    -0.356 C  
BRANCH  33  34
HETATM   34  C   UNL     1     -10.862  16.116  65.038  1.00  0.00    -0.363 C  
HETATM   35  H   UNL     1     -11.284  17.498  63.695  1.00  0.00     0.000 HD 
HETATM   36  O   UNL     1     -11.601  16.635  63.936  1.00  0.00    -1.204 OA 
ENDBRANCH  33  34
ENDBRANCH  30  33
ENDBRANCH   5  27
TORSDOF 7
ENDMDL
MODEL        7
REMARK 921   NORMALIZED FREE ENERGY PREDICTED BY IDOCK:   -7.71 KCAL/MOL
REMARK 922        TOTAL FREE ENERGY PREDICTED BY IDOCK:  -11.25 KCAL/MOL
REMARK 923 INTER-LIGAND FREE ENERGY PREDICTED BY IDOCK:  -10.48 KCAL/MOL
REMARK 924 INTRA-LIGAND FREE ENERGY PREDICTED BY IDOCK:   -0.77 KCAL/MOL
REMARK 927      BINDING AFFINITY PREDICTED BY RF-SCORE:    0.00 PKD
ROOT
HETATM    1  C   UNL     1     -11.816  13.500  63.835  1.00  0.00    -0.460 C  
HETATM    2  C   UNL     1     -11.555  14.326  65.056  1.00  0.00    -0.367 A  
HETATM    3  N   UNL     1     -12.094  13.900  66.211  1.00  0.00    -0.429 NA 
HETATM    4  C   UNL     1     -11.746  14.570  67.315  1.00  0.00    -0.406 A  
HETATM    5  C   UNL     1     -10.427  16.071  66.039  1.00  0.00    -0.345 A  
HETATM    6  C   UNL     1     -10.852  15.608  67.266  1.00  0.00    -0.298 A  
HETATM    7  N   UNL     1     -10.756  15.403  64.921  1.00  0.00    -0.425 NA 
ENDROOT
BRANCH   4   8
HETATM    8  N   UNL     1     -12.312  14.139  68.510  1.00  0.00    -0.541 NA 
HETATM    9  H   UNL     1     -13.072  14.713  68.877  1.00  0.00     0.000 HD 
BRANCH   8  10
HETATM   10  C   UNL     1     -11.981  13.056  69.243  1.00  0.00    -0.278 A  
HETATM   11  S   UNL     1     -10.670  12.101  68.690  1.00  0.00    -0.224 SA 
HETATM   12  N   UNL     1     -12.549  12.611  70.347  1.00  0.00    -0.112 NA 
HETATM   13  C   UNL     1     -12.037  11.375  70.688  1.00  0.00    -0.372 A  
HETATM   14  C   UNL     1     -11.045  10.905  69.855  1.00  0.00    -0.241 A  
BRANCH  14  15
HETATM   15  C   UNL     1     -10.408   9.610  69.839  1.00  0.00    -0.249 C  
HETATM   16  O   UNL     1      -9.222   9.462  69.564  1.00  0.00    -0.156 OA 
HETATM   17  H   UNL     1     -12.269   8.769  70.201  1.00  0.00     0.000 HD 
HETATM   18  N   UNL     1     -11.273   8.563  70.117  1.00  0.00    -0.193 N  
BRANCH  18  19
HETATM   19  C   UNL     1     -10.852   7.236  70.290  1.00  0.00    -0.245 A  
HETATM   20  C   UNL     1     -10.267   5.096  69.331  1.00  0.00    -0.293 A  
HETATM   21  C   UNL     1     -10.998   6.878  67.751  1.00  0.00    -0.280 C  
HETATM   22  C   UNL     1     -10.714   6.416  69.155  1.00  0.00    -0.339 A  
HETATM   23  C   UNL     1      -9.988   4.596  70.604  1.00  0.00    -0.293 A  
HETATM   24  C   UNL     1     -10.185   5.390  71.726  1.00  0.00    -0.263 A  
HETATM   25  C   UNL     1     -10.625   6.704  71.577  1.00  0.00    -0.222 A  
HETATM   26 CL   UNL     1     -11.058   7.559  73.024  1.00  0.00    -0.423 Cl 
ENDBRANCH  18  19
ENDBRANCH  14  15
ENDBRANCH   8  10
ENDBRANCH   4   8
BRANCH   5  27
HETATM   27  N   UNL     1      -9.612  17.209  65.990  1.00  0.00    -0.494 NA 
HETATM   28  C   UNL     1      -8.237  17.022  66.499  1.00  0.00    -0.279 C  
HETATM   29  C   UNL     1     -10.232  18.462  66.448  1.00  0.00    -0.410 C  
HETATM   30  N   UNL     1      -7.883  19.543  66.554  1.00  0.00    -0.275 NA 
HETATM   31  C   UNL     1      -7.367  18.231  66.101  1.00  0.00    -0.263 C  
HETATM   32  C   UNL     1      -9.301  19.656  66.095  1.00  0.00    -0.351 C  
BRANCH  30  33
HETATM   33  C   UNL     1      -7.799  19.723  68.020  1.00  0.00    -0.307 C  
BRANCH  33  34
HETATM   34  C   UNL     1      -6.430  20.236  68.501  1.00  0.00    -0.305 C  
HETATM   35  H   UNL     1      -5.176  21.686  68.039  1.00  0.00     0.000 HD 
HETATM   36  O   UNL     1      -6.021  21.370  67.741  1.00  0.00    -0.342 OA 
ENDBRANCH  33  34
ENDBRANCH  30  33
ENDBRANCH   5  27
TORSDOF 7
ENDMDL
MODEL        8
REMARK 921   NORMALIZED FREE ENERGY PREDICTED BY IDOCK:   -7.67 KCAL/MOL
REMARK 922        TOTAL FREE ENERGY PREDICTED BY IDOCK:  -11.18 KCAL/MOL
REMARK 923 INTER-LIGAND FREE ENERGY PREDICTED BY IDOCK:  -10.19 KCAL/MOL
REMARK 924 INTRA-LIGAND FREE ENERGY PREDICTED BY IDOCK:   -0.99 KCAL/MOL
REMARK 927      BINDING AFFINITY PREDICTED BY RF-SCORE:    0.00 PKD
ROOT
HETATM    1  C   UNL     1     -13.172  15.270  71.144  1.00  0.00    -0.567 C  
HETATM    2  C   UNL     1     -12.732  13.999  70.487  1.00  0.00    -0.280 A  
HETATM    3  N   UNL     1     -12.282  14.086  69.223  1.00  0.00    -0.330 NA 
HETATM    4  C   UNL     1     -11.770  12.970  68.694  1.00  0.00    -0.323 A  
HETATM    5  C   UNL     1     -12.257  11.758  70.672  1.00  0.00    -0.349 A  
HETATM    6  C   UNL     1     -11.673  11.815  69.425  1.00  0.00    -0.405 A  
HETATM    7  N   UNL     1     -12.766  12.872  71.224  1.00  0.00    -0.340 NA 
ENDROOT
BRANCH   4   8
HETATM    8  N   UNL     1     -11.316  13.054  67.382  1.00  0.00    -0.289 NA 
HETATM    9  H   UNL     1     -11.595  12.293  66.763  1.00  0.00     0.000 HD 
BRANCH   8  10
HETATM   10  C   UNL     1     -10.554  14.019  66.828  1.00  0.00    -0.277 A  
HETATM   11  S   UNL     1      -9.044  14.354  67.567  1.00  0.00    -0.204 SA 
HETATM   12  N   UNL     1     -10.821  14.770  65.777  1.00  0.00    -0.318 NA 
HETATM   13  C   UNL     1      -9.871  15.764  65.640  1.00  0.00    -0.322 A  
HETATM   14  C   UNL     1      -8.858  15.733  66.573  1.00  0.00    -0.310 A  
BRANCH  14  15
HETATM   15  C   UNL     1      -7.804  16.692  66.803  1.00  0.00    -0.255 C  
HETATM   16  O   UNL     1      -6.707  16.609  66.260  1.00  0.00    -0.162 OA 
HETATM   17  H   UNL     1      -9.025  17.588  68.220  1.00  0.00     0.000 HD 
HETATM   18  N   UNL     1      -8.140  17.676  67.720  1.00  0.00    -0.220 N  
BRANCH  18  19
HETATM   19  C   UNL     1      -7.328  18.786  67.998  1.00  0.00    -0.249 A  
HETATM   20  C   UNL     1      -6.636  21.041  67.472  1.00  0.00    -0.438 A  
HETATM   21  C   UNL     1      -8.366  20.021  65.999  1.00  0.00    -0.248 C  
HETATM   22  C   UNL     1      -7.432  19.923  67.175  1.00  0.00    -0.292 A  
HETATM   23  C   UNL     1      -5.742  21.022  68.544  1.00  0.00    -0.375 A  
HETATM   24  C   UNL     1      -5.599  19.876  69.315  1.00  0.00    -0.259 A  
HETATM   25  C   UNL     1      -6.380  18.754  69.042  1.00  0.00    -0.253 A  
HETATM   26 CL   UNL     1      -5.992  17.296  69.899  1.00  0.00    -0.246 Cl 
ENDBRANCH  18  19
ENDBRANCH  14  15
ENDBRANCH   8  10
ENDBRANCH   4   8
BRANCH   5  27
HETATM   27  N   UNL     1     -12.263  10.539  71.362  1.00  0.00    -0.350 NA 
HETATM   28  C   UNL     1     -11.040   9.722  71.210  1.00  0.00    -0.304 C  
HETATM   29  C   UNL     1     -13.500   9.750  71.260  1.00  0.00    -0.290 C  
HETATM   30  N   UNL     1     -12.230   7.702  72.204  1.00  0.00    -0.286 NA 
HETATM   31  C   UNL     1     -11.042   8.586  72.251  1.00  0.00    -0.360 C  
HETATM   32  C   UNL     1     -13.444   8.571  72.272  1.00  0.00    -0.324 C  
BRANCH  30  33
HETATM   33  C   UNL     1     -12.271   6.852  70.993  1.00  0.00    -0.377 C  
BRANCH  33  34
HETATM   34  C   UNL     1     -11.010   5.990  70.802  1.00  0.00    -0.297 C  
HETATM   35  H   UNL     1     -10.136   4.995  69.341  1.00  0.00     0.000 HD 
HETATM   36  O   UNL     1     -10.915   5.527  69.458  1.00  0.00    -0.288 OA 
ENDBRANCH  33  34
ENDBRANCH  30  33
ENDBRANCH   5  27
TORSDOF 7
ENDMDL
MODEL        9
REMARK 921   NORMALIZED FREE ENERGY PREDICTED BY IDOCK:   -7.63 KCAL/MOL
REMARK 922        TOTAL FREE ENERGY PREDICTED BY IDOCK:  -11.13 KCAL/MOL
REMARK 923 INTER-LIGAND FREE ENERGY PREDICTED BY IDOCK:  -10.36 KCAL/MOL
REMARK 924 INTRA-LIGAND FREE ENERGY PREDICTED BY IDOCK:   -0.77 KCAL/MOL
REMARK 927      BINDING AFFINITY PREDICTED BY RF-SCORE:    0.00 PKD
ROOT
HETATM    1  C   UNL     1     -12.032  13.592  63.942  1.00  0.00    -0.455 C  
HETATM    2  C   UNL     1     -11.695  14.396  65.159  1.00  0.00    -0.372 A  
HETATM    3  N   UNL     1     -12.220  13.988  66.327  1.00  0.00    -0.455 NA 
HETATM    4  C   UNL     1     -11.807  14.633  67.425  1.00  0.00    -0.348 A  
HETATM    5  C   UNL     1     -10.455  16.077  66.118  1.00  0.00    -0.326 A  
HETATM    6  C   UNL     1     -10.866  15.627  67.354  1.00  0.00    -0.315 A  
HETATM    7  N   UNL     1     -10.850  15.434  65.007  1.00  0.00    -0.427 NA 
ENDROOT
BRANCH   4   8
HETATM    8  N   UNL     1     -12.358  14.222  68.633  1.00  0.00    -0.571 NA 
HETATM    9  H   UNL     1     -13.084  14.824  69.021  1.00  0.00     0.000 HD 
BRANCH   8  10
HETATM   10  C   UNL     1     -12.052  13.124  69.355  1.00  0.00    -0.231 A  
HETATM   11  S   UNL     1     -10.736  12.168  68.816  1.00  0.00    -0.190 SA 
HETATM   12  N   UNL     1     -12.648  12.665  70.438  1.00  0.00    -0.112 NA 
HETATM   13  C   UNL     1     -12.152  11.419  70.770  1.00  0.00    -0.332 A  
HETATM   14  C   UNL     1     -11.145  10.956  69.952  1.00  0.00    -0.241 A  
BRANCH  14  15
HETATM   15  C   UNL     1     -10.518   9.657  69.928  1.00  0.00    -0.253 C  
HETATM   16  O   UNL     1      -9.347   9.496  69.596  1.00  0.00    -0.173 OA 
HETATM   17  H   UNL     1     -12.362   8.835  70.399  1.00  0.00     0.000 HD 
HETATM   18  N   UNL     1     -11.374   8.621  70.269  1.00  0.00    -0.194 N  
BRANCH  18  19
HETATM   19  C   UNL     1     -10.952   7.294  70.445  1.00  0.00    -0.252 A  
HETATM   20  C   UNL     1     -10.228   5.519  71.916  1.00  0.00    -0.251 A  
HETATM   21  C   UNL     1     -10.693   7.731  72.963  1.00  0.00    -0.446 C  
HETATM   22  C   UNL     1     -10.624   6.855  71.742  1.00  0.00    -0.235 A  
HETATM   23  C   UNL     1     -10.136   4.648  70.829  1.00  0.00    -0.264 A  
HETATM   24  C   UNL     1     -10.401   5.104  69.544  1.00  0.00    -0.292 A  
HETATM   25  C   UNL     1     -10.799   6.425  69.345  1.00  0.00    -0.321 A  
HETATM   26 CL   UNL     1     -10.898   6.979  67.704  1.00  0.00    -0.322 Cl 
ENDBRANCH  18  19
ENDBRANCH  14  15
ENDBRANCH   8  10
ENDBRANCH   4   8
BRANCH   5  27
HETATM   27  N   UNL     1      -9.587  17.174  66.051  1.00  0.00    -0.494 NA 
HETATM   28  C   UNL     1      -8.188  16.897  66.437  1.00  0.00    -0.307 C  
HETATM   29  C   UNL     1     -10.101  18.433  66.612  1.00  0.00    -0.380 C  
HETATM   30  N   UNL     1      -7.698  19.392  66.570  1.00  0.00    -0.263 NA 
HETATM   31  C   UNL     1      -7.290  18.078  66.021  1.00  0.00    -0.263 C  
HETATM   32  C   UNL     1      -9.140  19.596  66.235  1.00  0.00    -0.376 C  
BRANCH  30  33
HETATM   33  C   UNL     1      -7.488  19.498  68.031  1.00  0.00    -0.285 C  
BRANCH  33  34
HETATM   34  C   UNL     1      -6.274  20.361  68.419  1.00  0.00    -0.308 C  
HETATM   35  H   UNL     1      -5.522  21.162  70.057  1.00  0.00     0.000 HD 
HETATM   36  O   UNL     1      -6.272  20.630  69.818  1.00  0.00    -0.302 OA 
ENDBRANCH  33  34
ENDBRANCH  30  33
ENDBRANCH   5  27
TORSDOF 7
ENDMDL
MODEL       10
REMARK 921   NORMALIZED FREE ENERGY PREDICTED BY IDOCK:   -7.48 KCAL/MOL
REMARK 922        TOTAL FREE ENERGY PREDICTED BY IDOCK:  -10.92 KCAL/MOL
REMARK 923 INTER-LIGAND FREE ENERGY PREDICTED BY IDOCK:   -9.51 KCAL/MOL
REMARK 924 INTRA-LIGAND FREE ENERGY PREDICTED BY IDOCK:   -1.41 KCAL/MOL
REMARK 927      BINDING AFFINITY PREDICTED BY RF-SCORE:    0.00 PKD
ROOT
HETATM    1  C   UNL     1     -10.518  19.680  65.900  1.00  0.00    -0.591 C  
HETATM    2  C   UNL     1     -10.049  18.271  66.085  1.00  0.00    -0.346 A  
HETATM    3  N   UNL     1     -10.711  17.311  65.416  1.00  0.00    -0.573 NA 
HETATM    4  C   UNL     1     -10.202  16.076  65.486  1.00  0.00    -0.360 A  
HETATM    5  C   UNL     1      -8.477  16.822  66.931  1.00  0.00    -0.212 A  
HETATM    6  C   UNL     1      -9.042  15.821  66.170  1.00  0.00    -0.377 A  
HETATM    7  N   UNL     1      -8.967  18.071  66.864  1.00  0.00    -0.255 NA 
ENDROOT
BRANCH   4   8
HETATM    8  N   UNL     1     -10.892  15.079  64.805  1.00  0.00    -0.573 NA 
HETATM    9  H   UNL     1     -11.482  15.392  64.034  1.00  0.00     0.000 HD 
BRANCH   8  10
HETATM   10  C   UNL     1     -10.878  13.751  65.038  1.00  0.00    -0.371 A  
HETATM   11  S   UNL     1     -11.416  13.214  66.574  1.00  0.00    -0.355 SA 
HETATM   12  N   UNL     1     -10.483  12.783  64.233  1.00  0.00    -0.384 NA 
HETATM   13  C   UNL     1     -10.449  11.578  64.908  1.00  0.00    -0.291 A  
HETATM   14  C   UNL     1     -10.863  11.634  66.221  1.00  0.00    -0.286 A  
BRANCH  14  15
HETATM   15  C   UNL     1     -10.814  10.608  67.234  1.00  0.00    -0.287 C  
HETATM   16  O   UNL     1     -10.951   9.417  66.973  1.00  0.00    -0.118 OA 
HETATM   17  H   UNL     1     -10.674  12.113  68.653  1.00  0.00     0.000 HD 
HETATM   18  N   UNL     1     -10.644  11.103  68.518  1.00  0.00    -0.181 N  
BRANCH  18  19
HETATM   19  C   UNL     1     -10.433  10.288  69.640  1.00  0.00    -0.253 A  
HETATM   20  C   UNL     1     -11.283   9.256  71.654  1.00  0.00    -0.449 A  
HETATM   21  C   UNL     1     -12.852  10.718  70.386  1.00  0.00    -0.285 C  
HETATM   22  C   UNL     1     -11.493  10.094  70.545  1.00  0.00    -0.417 A  
HETATM   23  C   UNL     1     -10.046   8.646  71.870  1.00  0.00    -0.398 A  
HETATM   24  C   UNL     1      -8.986   8.890  71.007  1.00  0.00    -0.298 A  
HETATM   25  C   UNL     1      -9.169   9.715  69.899  1.00  0.00    -0.229 A  
HETATM   26 CL   UNL     1      -7.752  10.149  68.996  1.00  0.00    -0.091 Cl 
ENDBRANCH  18  19
ENDBRANCH  14  15
ENDBRANCH   8  10
ENDBRANCH   4   8
BRANCH   5  27
HETATM   27  N   UNL     1      -7.364  16.522  67.725  1.00  0.00    -0.134 NA 
HETATM   28  C   UNL     1      -6.789  15.175  67.523  1.00  0.00    -0.174 C  
HETATM   29  C   UNL     1      -7.467  16.897  69.144  1.00  0.00    -0.180 C  
HETATM   30  N   UNL     1      -5.412  15.410  69.652  1.00  0.00    -0.101 NA 
HETATM   31  C   UNL     1      -5.410  15.091  68.205  1.00  0.00    -0.114 C  
HETATM   32  C   UNL     1      -6.078  16.736  69.822  1.00  0.00    -0.224 C  
BRANCH  30  33
HETATM   33  C   UNL     1      -6.092  14.382  70.470  1.00  0.00    -0.185 C  
BRANCH  33  34
HETATM   34  C   UNL     1      -5.587  12.951  70.208  1.00  0.00    -0.148 C  
HETATM   35  H   UNL     1      -5.638  11.201  71.116  1.00  0.00     0.000 HD 
HETATM   36  O   UNL     1      -5.950  12.084  71.278  1.00  0.00    -0.267 OA 
ENDBRANCH  33  34
ENDBRANCH  30  33
ENDBRANCH   5  27
TORSDOF 7
ENDMDL
MODEL       11
REMARK 921   NORMALIZED FREE ENERGY PREDICTED BY IDOCK:   -7.47 KCAL/MOL
REMARK 922        TOTAL FREE ENERGY PREDICTED BY IDOCK:  -10.91 KCAL/MOL
REMARK 923 INTER-LIGAND FREE ENERGY PREDICTED BY IDOCK:   -9.98 KCAL/MOL
REMARK 924 INTRA-LIGAND FREE ENERGY PREDICTED BY IDOCK:   -0.93 KCAL/MOL
REMARK 927      BINDING AFFINITY PREDICTED BY RF-SCORE:    0.00 PKD
ROOT
HETATM    1  C   UNL     1      -9.383   8.864  65.913  1.00  0.00    -0.301 C  
HETATM    2  C   UNL     1     -10.038   9.606  67.036  1.00  0.00    -0.214 A  
HETATM    3  N   UNL     1     -10.717  10.722  66.720  1.00  0.00    -0.251 NA 
HETATM    4  C   UNL     1     -11.406  11.302  67.709  1.00  0.00    -0.285 A  
HETATM    5  C   UNL     1     -10.636   9.678  69.255  1.00  0.00    -0.219 A  
HETATM    6  C   UNL     1     -11.446  10.755  68.965  1.00  0.00    -0.368 A  
HETATM    7  N   UNL     1      -9.947   9.076  68.271  1.00  0.00    -0.167 NA 
ENDROOT
BRANCH   4   8
HETATM    8  N   UNL     1     -12.099  12.464  67.387  1.00  0.00    -0.484 NA 
HETATM    9  H   UNL     1     -13.027  12.334  66.986  1.00  0.00     0.000 HD 
BRANCH   8  10
HETATM   10  C   UNL     1     -11.694  13.742  67.541  1.00  0.00    -0.375 A  
HETATM   11  S   UNL     1     -10.622  14.376  66.364  1.00  0.00    -0.304 SA 
HETATM   12  N   UNL     1     -12.005  14.588  68.503  1.00  0.00    -0.315 NA 
HETATM   13  C   UNL     1     -11.242  15.735  68.401  1.00  0.00    -0.362 A  
HETATM   14  C   UNL     1     -10.379  15.768  67.328  1.00  0.00    -0.290 A  
BRANCH  14  15
HETATM   15  C   UNL     1      -9.354  16.734  67.014  1.00  0.00    -0.233 C  
HETATM   16  O   UNL     1      -8.810  16.784  65.916  1.00  0.00    -0.499 OA 
HETATM   17  H   UNL     1      -9.431  17.354  68.992  1.00  0.00     0.000 HD 
HETATM   18  N   UNL     1      -9.022  17.557  68.080  1.00  0.00    -0.252 N  
BRANCH  18  19
HETATM   19  C   UNL     1      -8.154  18.653  67.970  1.00  0.00    -0.275 A  
HETATM   20  C   UNL     1      -6.008  19.664  68.435  1.00  0.00    -0.263 A  
HETATM   21  C   UNL     1      -6.394  17.375  69.336  1.00  0.00    -0.246 C  
HETATM   22  C   UNL     1      -6.883  18.574  68.570  1.00  0.00    -0.278 A  
HETATM   23  C   UNL     1      -6.393  20.813  67.742  1.00  0.00    -0.371 A  
HETATM   24  C   UNL     1      -7.670  20.911  67.204  1.00  0.00    -0.259 A  
HETATM   25  C   UNL     1      -8.556  19.841  67.323  1.00  0.00    -0.321 A  
HETATM   26 CL   UNL     1     -10.195  20.116  66.825  1.00  0.00    -0.582 Cl 
ENDBRANCH  18  19
ENDBRANCH  14  15
ENDBRANCH   8  10
ENDBRANCH   4   8
BRANCH   5  27
HETATM   27  N   UNL     1     -10.588   9.201  70.571  1.00  0.00    -0.217 NA 
HETATM   28  C   UNL     1      -9.263   8.726  71.022  1.00  0.00    -0.222 C  
HETATM   29  C   UNL     1     -11.687   8.310  70.970  1.00  0.00    -0.270 C  
HETATM   30  N   UNL     1     -10.320   7.616  73.055  1.00  0.00    -0.304 NA 
HETATM   31  C   UNL     1      -9.273   8.534  72.551  1.00  0.00    -0.233 C  
HETATM   32  C   UNL     1     -11.631   8.079  72.507  1.00  0.00    -0.403 C  
BRANCH  30  33
HETATM   33  C   UNL     1     -10.077   6.204  72.687  1.00  0.00    -0.181 C  
BRANCH  33  34
HETATM   34  C   UNL     1     -11.205   5.251  73.120  1.00  0.00    -0.318 C  
HETATM   35  H   UNL     1     -11.656   4.150  74.694  1.00  0.00     0.000 HD 
HETATM   36  O   UNL     1     -10.959   4.738  74.427  1.00  0.00    -0.321 OA 
ENDBRANCH  33  34
ENDBRANCH  30  33
ENDBRANCH   5  27
TORSDOF 7
ENDMDL
MODEL       12
REMARK 921   NORMALIZED FREE ENERGY PREDICTED BY IDOCK:   -7.45 KCAL/MOL
REMARK 922        TOTAL FREE ENERGY PREDICTED BY IDOCK:  -10.87 KCAL/MOL
REMARK 923 INTER-LIGAND FREE ENERGY PREDICTED BY IDOCK:  -10.50 KCAL/MOL
REMARK 924 INTRA-LIGAND FREE ENERGY PREDICTED BY IDOCK:   -0.37 KCAL/MOL
REMARK 927      BINDING AFFINITY PREDICTED BY RF-SCORE:    0.00 PKD
ROOT
HETATM    1  C   UNL     1     -11.049  14.221  65.626  1.00  0.00    -0.316 C  
HETATM    2  C   UNL     1     -11.063  15.119  66.822  1.00  0.00    -0.307 A  
HETATM    3  N   UNL     1     -11.860  14.766  67.845  1.00  0.00    -0.333 NA 
HETATM    4  C   UNL     1     -11.766  15.502  68.958  1.00  0.00    -0.377 A  
HETATM    5  C   UNL     1     -10.166  16.921  67.934  1.00  0.00    -0.308 A  
HETATM    6  C   UNL     1     -10.870  16.535  69.054  1.00  0.00    -0.329 A  
HETATM    7  N   UNL     1     -10.239  16.186  66.812  1.00  0.00    -0.274 NA 
ENDROOT
BRANCH   4   8
HETATM    8  N   UNL     1     -12.599  15.146  70.013  1.00  0.00    -0.574 NA 
HETATM    9  H   UNL     1     -13.258  15.860  70.322  1.00  0.00     0.000 HD 
BRANCH   8  10
HETATM   10  C   UNL     1     -12.643  13.972  70.676  1.00  0.00    -0.344 A  
HETATM   11  S   UNL     1     -11.905  12.617  69.931  1.00  0.00    -0.231 SA 
HETATM   12  N   UNL     1     -13.201  13.713  71.843  1.00  0.00    -0.384 NA 
HETATM   13  C   UNL     1     -13.190  12.354  72.091  1.00  0.00    -0.385 A  
HETATM   14  C   UNL     1     -12.581  11.589  71.120  1.00  0.00    -0.359 A  
BRANCH  14  15
HETATM   15  C   UNL     1     -12.525  10.153  70.996  1.00  0.00    -0.375 C  
HETATM   16  O   UNL     1     -13.521   9.444  71.097  1.00  0.00    -0.314 OA 
HETATM   17  H   UNL     1     -10.462  10.314  70.861  1.00  0.00     0.000 HD 
HETATM   18  N   UNL     1     -11.244   9.662  70.798  1.00  0.00    -0.307 N  
BRANCH  18  19
HETATM   19  C   UNL     1     -10.966   8.316  70.514  1.00  0.00    -0.242 A  
HETATM   20  C   UNL     1     -10.593   6.059  71.294  1.00  0.00    -0.302 A  
HETATM   21  C   UNL     1     -10.994   7.800  73.030  1.00  0.00    -0.442 C  
HETATM   22  C   UNL     1     -10.846   7.410  71.584  1.00  0.00    -0.246 A  
HETATM   23  C   UNL     1     -10.439   5.624  69.976  1.00  0.00    -0.367 A  
HETATM   24  C   UNL     1     -10.496   6.533  68.928  1.00  0.00    -0.249 A  
HETATM   25  C   UNL     1     -10.749   7.879  69.190  1.00  0.00    -0.117 A  
HETATM   26 CL   UNL     1     -10.589   8.984  67.863  1.00  0.00    -0.280 Cl 
ENDBRANCH  18  19
ENDBRANCH  14  15
ENDBRANCH   8  10
ENDBRANCH   4   8
BRANCH   5  27
HETATM   27  N   UNL     1      -9.345  18.053  68.007  1.00  0.00    -0.265 NA 
HETATM   28  C   UNL     1      -9.270  18.859  66.769  1.00  0.00    -0.319 C  
HETATM   29  C   UNL     1      -8.036  17.855  68.646  1.00  0.00    -0.281 C  
HETATM   30  N   UNL     1      -7.261  20.129  67.683  1.00  0.00    -0.278 NA 
HETATM   31  C   UNL     1      -8.609  20.217  67.073  1.00  0.00    -0.336 C  
HETATM   32  C   UNL     1      -7.362  19.237  68.878  1.00  0.00    -0.356 C  
BRANCH  30  33
HETATM   33  C   UNL     1      -6.235  19.622  66.745  1.00  0.00    -0.182 C  
BRANCH  33  34
HETATM   34  C   UNL     1      -6.363  20.193  65.322  1.00  0.00    -0.262 C  
HETATM   35  H   UNL     1      -6.415  19.501  63.476  1.00  0.00     0.000 HD 
HETATM   36  O   UNL     1      -6.335  19.148  64.355  1.00  0.00    -0.460 OA 
ENDBRANCH  33  34
ENDBRANCH  30  33
ENDBRANCH   5  27
TORSDOF 7
ENDMDL
MODEL       13
REMARK 921   NORMALIZED FREE ENERGY PREDICTED BY IDOCK:   -7.39 KCAL/MOL
REMARK 922        TOTAL FREE ENERGY PREDICTED BY IDOCK:  -10.80 KCAL/MOL
REMARK 923 INTER-LIGAND FREE ENERGY PREDICTED BY IDOCK:  -10.19 KCAL/MOL
REMARK 924 INTRA-LIGAND FREE ENERGY PREDICTED BY IDOCK:   -0.61 KCAL/MOL
REMARK 927      BINDING AFFINITY PREDICTED BY RF-SCORE:    0.00 PKD
ROOT
HETATM    1  C   UNL     1     -11.974  16.162  72.265  1.00  0.00    -0.637 C  
HETATM    2  C   UNL     1     -11.637  15.550  70.941  1.00  0.00    -0.375 A  
HETATM    3  N   UNL     1     -11.988  14.267  70.752  1.00  0.00    -0.325 NA 
HETATM    4  C   UNL     1     -11.801  13.772  69.523  1.00  0.00    -0.339 A  
HETATM    5  C   UNL     1     -10.865  15.824  68.793  1.00  0.00    -0.274 A  
HETATM    6  C   UNL     1     -11.316  14.553  68.507  1.00  0.00    -0.309 A  
HETATM    7  N   UNL     1     -11.056  16.341  70.018  1.00  0.00    -0.357 NA 
ENDROOT
BRANCH   4   8
HETATM    8  N   UNL     1     -12.152  12.440  69.328  1.00  0.00    -0.221 NA 
HETATM    9  H   UNL     1     -12.371  12.172  68.369  1.00  0.00     0.000 HD 
BRANCH   8  10
HETATM   10  C   UNL     1     -12.238  11.461  70.251  1.00  0.00    -0.349 A  
HETATM   11  S   UNL     1     -11.276  10.064  70.011  1.00  0.00    -0.299 SA 
HETATM   12  N   UNL     1     -12.990  11.421  71.335  1.00  0.00    -0.412 NA 
HETATM   13  C   UNL     1     -12.930  10.171  71.918  1.00  0.00    -0.447 A  
HETATM   14  C   UNL     1     -12.092   9.275  71.291  1.00  0.00    -0.337 A  
BRANCH  14  15
HETATM   15  C   UNL     1     -11.910   7.866  71.547  1.00  0.00    -0.289 C  
HETATM   16  O   UNL     1     -12.835   7.133  71.881  1.00  0.00    -0.318 OA 
HETATM   17  H   UNL     1      -9.874   8.150  71.273  1.00  0.00     0.000 HD 
HETATM   18  N   UNL     1     -10.596   7.445  71.423  1.00  0.00    -0.215 N  
BRANCH  18  19
HETATM   19  C   UNL     1     -10.204   6.099  71.491  1.00  0.00    -0.203 A  
HETATM   20  C   UNL     1      -9.777   3.997  70.378  1.00  0.00    -0.263 A  
HETATM   21  C   UNL     1     -10.588   5.878  68.961  1.00  0.00    -0.360 C  
HETATM   22  C   UNL     1     -10.195   5.336  70.308  1.00  0.00    -0.345 A  
HETATM   23  C   UNL     1      -9.402   3.423  71.594  1.00  0.00    -0.206 A  
HETATM   24  C   UNL     1      -9.473   4.162  72.768  1.00  0.00    -0.161 A  
HETATM   25  C   UNL     1      -9.881   5.494  72.724  1.00  0.00    -0.164 A  
HETATM   26 CL   UNL     1     -10.155   6.285  74.244  1.00  0.00    -0.318 Cl 
ENDBRANCH  18  19
ENDBRANCH  14  15
ENDBRANCH   8  10
ENDBRANCH   4   8
BRANCH   5  27
HETATM   27  N   UNL     1     -10.257  16.571  67.777  1.00  0.00    -0.269 NA 
HETATM   28  C   UNL     1      -8.782  16.482  67.724  1.00  0.00    -0.196 C  
HETATM   29  C   UNL     1     -10.758  17.943  67.602  1.00  0.00    -0.331 C  
HETATM   30  N   UNL     1      -8.688  18.476  66.143  1.00  0.00    -0.494 NA 
HETATM   31  C   UNL     1      -8.273  17.077  66.397  1.00  0.00    -0.291 C  
HETATM   32  C   UNL     1     -10.173  18.541  66.291  1.00  0.00    -0.418 C  
BRANCH  30  33
HETATM   33  C   UNL     1      -8.035  19.446  67.050  1.00  0.00    -0.263 C  
BRANCH  33  34
HETATM   34  C   UNL     1      -6.508  19.278  67.136  1.00  0.00    -0.187 C  
HETATM   35  H   UNL     1      -4.992  20.185  68.014  1.00  0.00     0.000 HD 
HETATM   36  O   UNL     1      -5.935  20.289  67.961  1.00  0.00    -0.220 OA 
ENDBRANCH  33  34
ENDBRANCH  30  33
ENDBRANCH   5  27
TORSDOF 7
ENDMDL
MODEL       14
REMARK 921   NORMALIZED FREE ENERGY PREDICTED BY IDOCK:   -7.36 KCAL/MOL
REMARK 922        TOTAL FREE ENERGY PREDICTED BY IDOCK:  -10.74 KCAL/MOL
REMARK 923 INTER-LIGAND FREE ENERGY PREDICTED BY IDOCK:   -9.73 KCAL/MOL
REMARK 924 INTRA-LIGAND FREE ENERGY PREDICTED BY IDOCK:   -1.02 KCAL/MOL
REMARK 927      BINDING AFFINITY PREDICTED BY RF-SCORE:    0.00 PKD
ROOT
HETATM    1  C   UNL     1     -13.356  15.313  71.974  1.00  0.00    -0.522 C  
HETATM    2  C   UNL     1     -12.890  13.975  71.493  1.00  0.00    -0.362 A  
HETATM    3  N   UNL     1     -13.300  12.898  72.186  1.00  0.00    -0.530 NA 
HETATM    4  C   UNL     1     -12.987  11.703  71.672  1.00  0.00    -0.378 A  
HETATM    5  C   UNL     1     -11.827  12.731  69.879  1.00  0.00    -0.301 A  
HETATM    6  C   UNL     1     -12.322  11.593  70.479  1.00  0.00    -0.410 A  
HETATM    7  N   UNL     1     -12.141  13.939  70.374  1.00  0.00    -0.335 NA 
ENDROOT
BRANCH   4   8
HETATM    8  N   UNL     1     -13.399  10.588  72.394  1.00  0.00    -0.532 NA 
HETATM    9  H   UNL     1     -13.876  10.777  73.275  1.00  0.00     0.000 HD 
BRANCH   8  10
HETATM   10  C   UNL     1     -13.246   9.287  72.071  1.00  0.00    -0.447 A  
HETATM   11  S   UNL     1     -11.695   8.596  72.299  1.00  0.00    -0.322 SA 
HETATM   12  N   UNL     1     -14.144   8.455  71.579  1.00  0.00    -0.392 NA 
HETATM   13  C   UNL     1     -13.548   7.264  71.213  1.00  0.00    -0.238 A  
HETATM   14  C   UNL     1     -12.197   7.185  71.470  1.00  0.00    -0.360 A  
BRANCH  14  15
HETATM   15  C   UNL     1     -11.256   6.160  71.087  1.00  0.00    -0.292 C  
HETATM   16  O   UNL     1     -11.282   5.620  69.986  1.00  0.00    -0.267 OA 
HETATM   17  H   UNL     1     -10.500   6.230  73.017  1.00  0.00     0.000 HD 
HETATM   18  N   UNL     1     -10.362   5.824  72.092  1.00  0.00    -0.199 N  
BRANCH  18  19
HETATM   19  C   UNL     1      -9.276   4.955  71.903  1.00  0.00    -0.140 A  
HETATM   20  C   UNL     1      -8.308   2.753  72.136  1.00  0.00    -0.061 A  
HETATM   21  C   UNL     1     -10.610   3.073  73.032  1.00  0.00    -0.240 C  
HETATM   22  C   UNL     1      -9.388   3.626  72.351  1.00  0.00    -0.170 A  
HETATM   23  C   UNL     1      -7.139   3.196  71.514  1.00  0.00    -0.032 A  
HETATM   24  C   UNL     1      -7.011   4.524  71.130  1.00  0.00    -0.036 A  
HETATM   25  C   UNL     1      -8.069   5.409  71.330  1.00  0.00    -0.116 A  
HETATM   26 CL   UNL     1      -7.759   7.089  71.030  1.00  0.00    -0.090 Cl 
ENDBRANCH  18  19
ENDBRANCH  14  15
ENDBRANCH   8  10
ENDBRANCH   4   8
BRANCH   5  27
HETATM   27  N   UNL     1     -11.042  12.601  68.726  1.00  0.00    -0.251 NA 
HETATM   28  C   UNL     1     -10.247  13.795  68.367  1.00  0.00    -0.248 C  
HETATM   29  C   UNL     1     -11.700  11.976  67.569  1.00  0.00    -0.280 C  
HETATM   30  N   UNL     1      -9.774  12.822  66.062  1.00  0.00    -0.251 NA 
HETATM   31  C   UNL     1      -9.208  13.422  67.292  1.00  0.00    -0.222 C  
HETATM   32  C   UNL     1     -10.638  11.675  66.474  1.00  0.00    -0.253 C  
BRANCH  30  33
HETATM   33  C   UNL     1     -10.549  13.787  65.251  1.00  0.00    -0.353 C  
BRANCH  33  34
HETATM   34  C   UNL     1     -11.407  13.125  64.158  1.00  0.00    -0.398 C  
HETATM   35  H   UNL     1     -13.128  13.464  63.256  1.00  0.00     0.000 HD 
HETATM   36  O   UNL     1     -12.598  13.873  63.931  1.00  0.00    -0.697 OA 
ENDBRANCH  33  34
ENDBRANCH  30  33
ENDBRANCH   5  27
TORSDOF 7
ENDMDL
MODEL       15
REMARK 921   NORMALIZED FREE ENERGY PREDICTED BY IDOCK:   -7.35 KCAL/MOL
REMARK 922        TOTAL FREE ENERGY PREDICTED BY IDOCK:  -10.74 KCAL/MOL
REMARK 923 INTER-LIGAND FREE ENERGY PREDICTED BY IDOCK:   -9.81 KCAL/MOL
REMARK 924 INTRA-LIGAND FREE ENERGY PREDICTED BY IDOCK:   -0.93 KCAL/MOL
REMARK 927      BINDING AFFINITY PREDICTED BY RF-SCORE:    0.00 PKD
ROOT
HETATM    1  C   UNL     1     -13.541  12.954  72.198  1.00  0.00    -0.589 C  
HETATM    2  C   UNL     1     -12.927  11.838  71.412  1.00  0.00    -0.306 A  
HETATM    3  N   UNL     1     -12.630  12.087  70.124  1.00  0.00    -0.010 NA 
HETATM    4  C   UNL     1     -11.964  11.129  69.470  1.00  0.00    -0.355 A  
HETATM    5  C   UNL     1     -12.007   9.732  71.385  1.00  0.00    -0.411 A  
HETATM    6  C   UNL     1     -11.571   9.977  70.100  1.00  0.00    -0.320 A  
HETATM    7  N   UNL     1     -12.667  10.687  72.061  1.00  0.00    -0.295 NA 
ENDROOT
BRANCH   4   8
HETATM    8  N   UNL     1     -11.667  11.378  68.134  1.00  0.00    -0.538 NA 
HETATM    9  H   UNL     1     -11.708  10.573  67.510  1.00  0.00     0.000 HD 
BRANCH   8  10
HETATM   10  C   UNL     1     -11.332  12.554  67.564  1.00  0.00    -0.312 A  
HETATM   11  S   UNL     1      -9.691  13.039  67.663  1.00  0.00    -0.219 SA 
HETATM   12  N   UNL     1     -12.114  13.411  66.937  1.00  0.00    -0.379 NA 
HETATM   13  C   UNL     1     -11.428  14.577  66.661  1.00  0.00    -0.366 A  
HETATM   14  C   UNL     1     -10.105  14.581  67.047  1.00  0.00    -0.254 A  
BRANCH  14  15
HETATM   15  C   UNL     1      -9.159  15.670  67.041  1.00  0.00    -0.219 C  
HETATM   16  O   UNL     1      -8.111  15.629  66.403  1.00  0.00    -0.215 OA 
HETATM   17  H   UNL     1     -10.350  16.621  68.447  1.00  0.00     0.000 HD 
HETATM   18  N   UNL     1      -9.529  16.731  67.852  1.00  0.00    -0.228 N  
BRANCH  18  19
HETATM   19  C   UNL     1      -8.835  17.950  67.897  1.00  0.00    -0.260 A  
HETATM   20  C   UNL     1      -8.565  20.222  67.117  1.00  0.00    -0.417 A  
HETATM   21  C   UNL     1     -10.395  18.885  66.083  1.00  0.00    -0.517 C  
HETATM   22  C   UNL     1      -9.247  18.995  67.050  1.00  0.00    -0.330 A  
HETATM   23  C   UNL     1      -7.487  20.398  67.987  1.00  0.00    -0.217 A  
HETATM   24  C   UNL     1      -7.046  19.344  68.776  1.00  0.00    -0.382 A  
HETATM   25  C   UNL     1      -7.707  18.118  68.728  1.00  0.00    -0.264 A  
HETATM   26 CL   UNL     1      -6.970  16.791  69.570  1.00  0.00    -0.172 Cl 
ENDBRANCH  18  19
ENDBRANCH  14  15
ENDBRANCH   8  10
ENDBRANCH   4   8
BRANCH   5  27
HETATM   27  N   UNL     1     -11.706   8.500  71.978  1.00  0.00    -0.336 NA 
HETATM   28  C   UNL     1     -10.309   8.345  72.436  1.00  0.00    -0.329 C  
HETATM   29  C   UNL     1     -12.220   7.310  71.282  1.00  0.00    -0.354 C  
HETATM   30  N   UNL     1     -10.647   5.836  72.715  1.00  0.00    -0.213 NA 
HETATM   31  C   UNL     1     -10.193   7.101  73.339  1.00  0.00    -0.325 C  
HETATM   32  C   UNL     1     -12.027   6.060  72.188  1.00  0.00    -0.202 C  
BRANCH  30  33
HETATM   33  C   UNL     1      -9.750   5.371  71.633  1.00  0.00    -0.157 C  
BRANCH  33  34
HETATM   34  C   UNL     1      -9.708   3.840  71.483  1.00  0.00    -0.171 C  
HETATM   35  H   UNL     1     -10.160   2.259  72.571  1.00  0.00     0.000 HD 
HETATM   36  O   UNL     1     -10.186   3.204  72.664  1.00  0.00    -0.150 OA 
ENDBRANCH  33  34
ENDBRANCH  30  33
ENDBRANCH   5  27
TORSDOF 7
ENDMDL
MODEL       16
REMARK 921   NORMALIZED FREE ENERGY PREDICTED BY IDOCK:   -7.32 KCAL/MOL
REMARK 922        TOTAL FREE ENERGY PREDICTED BY IDOCK:  -10.69 KCAL/MOL
REMARK 923 INTER-LIGAND FREE ENERGY PREDICTED BY IDOCK:   -9.88 KCAL/MOL
REMARK 924 INTRA-LIGAND FREE ENERGY PREDICTED BY IDOCK:   -0.82 KCAL/MOL
REMARK 927      BINDING AFFINITY PREDICTED BY RF-SCORE:    0.00 PKD
ROOT
HETATM    1  C   UNL     1     -13.392  11.718  72.179  1.00  0.00    -0.334 C  
HETATM    2  C   UNL     1     -12.594  10.862  71.246  1.00  0.00    -0.421 A  
HETATM    3  N   UNL     1     -12.477  11.285  69.975  1.00  0.00    -0.223 NA 
HETATM    4  C   UNL     1     -11.655  10.584  69.186  1.00  0.00    -0.224 A  
HETATM    5  C   UNL     1     -11.195   9.063  70.945  1.00  0.00    -0.287 A  
HETATM    6  C   UNL     1     -10.942   9.517  69.669  1.00  0.00    -0.233 A  
HETATM    7  N   UNL     1     -12.008   9.761  71.756  1.00  0.00    -0.372 NA 
ENDROOT
BRANCH   4   8
HETATM    8  N   UNL     1     -11.542  11.012  67.868  1.00  0.00    -0.545 NA 
HETATM    9  H   UNL     1     -11.512  10.277  67.161  1.00  0.00     0.000 HD 
BRANCH   8  10
HETATM   10  C   UNL     1     -11.467  12.278  67.410  1.00  0.00    -0.352 A  
HETATM   11  S   UNL     1     -10.372  13.337  68.195  1.00  0.00    -0.249 SA 
HETATM   12  N   UNL     1     -12.148  12.834  66.426  1.00  0.00    -0.520 NA 
HETATM   13  C   UNL     1     -11.917  14.195  66.388  1.00  0.00    -0.436 A  
HETATM   14  C   UNL     1     -11.023  14.661  67.327  1.00  0.00    -0.317 A  
BRANCH  14  15
HETATM   15  C   UNL     1     -10.673  16.022  67.654  1.00  0.00    -0.320 C  
HETATM   16  O   UNL     1     -11.383  16.735  68.356  1.00  0.00    -0.283 OA 
HETATM   17  H   UNL     1      -9.039  15.832  66.390  1.00  0.00     0.000 HD 
HETATM   18  N   UNL     1      -9.493  16.448  67.065  1.00  0.00    -0.225 N  
BRANCH  18  19
HETATM   19  C   UNL     1      -8.888  17.682  67.348  1.00  0.00    -0.235 A  
HETATM   20  C   UNL     1      -7.272  18.969  68.603  1.00  0.00    -0.351 A  
HETATM   21  C   UNL     1      -7.436  16.541  69.133  1.00  0.00    -0.218 C  
HETATM   22  C   UNL     1      -7.893  17.736  68.342  1.00  0.00    -0.284 A  
HETATM   23  C   UNL     1      -7.646  20.123  67.912  1.00  0.00    -0.311 A  
HETATM   24  C   UNL     1      -8.671  20.076  66.976  1.00  0.00    -0.411 A  
HETATM   25  C   UNL     1      -9.301  18.864  66.697  1.00  0.00    -0.330 A  
HETATM   26 CL   UNL     1     -10.710  18.922  65.687  1.00  0.00    -0.390 Cl 
ENDBRANCH  18  19
ENDBRANCH  14  15
ENDBRANCH   8  10
ENDBRANCH   4   8
BRANCH   5  27
HETATM   27  N   UNL     1     -10.555   7.899  71.389  1.00  0.00    -0.210 NA 
HETATM   28  C   UNL     1     -11.254   6.635  71.075  1.00  0.00    -0.300 C  
HETATM   29  C   UNL     1     -10.027   7.941  72.761  1.00  0.00    -0.283 C  
HETATM   30  N   UNL     1      -9.755   5.368  72.697  1.00  0.00    -0.150 NA 
HETATM   31  C   UNL     1     -10.310   5.443  71.326  1.00  0.00    -0.228 C  
HETATM   32  C   UNL     1      -9.135   6.691  73.008  1.00  0.00    -0.127 C  
BRANCH  30  33
HETATM   33  C   UNL     1     -10.772   5.023  73.715  1.00  0.00    -0.301 C  
BRANCH  33  34
HETATM   34  C   UNL     1     -10.524   3.667  74.400  1.00  0.00    -0.207 C  
HETATM   35  H   UNL     1     -10.905   1.765  74.042  1.00  0.00     0.000 HD 
HETATM   36  O   UNL     1     -11.059   2.602  73.619  1.00  0.00    -0.197 OA 
ENDBRANCH  33  34
ENDBRANCH  30  33
ENDBRANCH   5  27
TORSDOF 7
ENDMDL
MODEL       17
REMARK 921   NORMALIZED FREE ENERGY PREDICTED BY IDOCK:   -7.31 KCAL/MOL
REMARK 922        TOTAL FREE ENERGY PREDICTED BY IDOCK:  -10.68 KCAL/MOL
REMARK 923 INTER-LIGAND FREE ENERGY PREDICTED BY IDOCK:   -9.63 KCAL/MOL
REMARK 924 INTRA-LIGAND FREE ENERGY PREDICTED BY IDOCK:   -1.04 KCAL/MOL
REMARK 927      BINDING AFFINITY PREDICTED BY RF-SCORE:    0.00 PKD
ROOT
HETATM    1  C   UNL     1     -11.862  12.643  63.476  1.00  0.00    -0.619 C  
HETATM    2  C   UNL     1     -11.580  12.906  64.922  1.00  0.00    -0.327 A  
HETATM    3  N   UNL     1     -12.035  12.005  65.809  1.00  0.00    -0.498 NA 
HETATM    4  C   UNL     1     -11.664  12.180  67.083  1.00  0.00    -0.302 A  
HETATM    5  C   UNL     1     -10.492  14.160  66.512  1.00  0.00    -0.280 A  
HETATM    6  C   UNL     1     -10.828  13.204  67.446  1.00  0.00    -0.269 A  
HETATM    7  N   UNL     1     -10.845  13.994  65.227  1.00  0.00    -0.327 NA 
ENDROOT
BRANCH   4   8
HETATM    8  N   UNL     1     -12.145  11.257  68.004  1.00  0.00    -0.657 NA 
HETATM    9  H   UNL     1     -13.149  11.081  67.978  1.00  0.00     0.000 HD 
BRANCH   8  10
HETATM   10  C   UNL     1     -11.446  10.564  68.928  1.00  0.00    -0.226 A  
HETATM   11  S   UNL     1     -10.510   9.239  68.378  1.00  0.00    -0.186 SA 
HETATM   12  N   UNL     1     -11.394  10.762  70.231  1.00  0.00    -0.305 NA 
HETATM   13  C   UNL     1     -10.715   9.730  70.848  1.00  0.00    -0.305 A  
HETATM   14  C   UNL     1     -10.218   8.768  69.996  1.00  0.00    -0.198 A  
BRANCH  14  15
HETATM   15  C   UNL     1      -9.598   7.504  70.314  1.00  0.00    -0.165 C  
HETATM   16  O   UNL     1      -8.438   7.418  70.703  1.00  0.00    -0.132 OA 
HETATM   17  H   UNL     1     -11.324   6.569  69.645  1.00  0.00     0.000 HD 
HETATM   18  N   UNL     1     -10.423   6.411  70.095  1.00  0.00    -0.204 N  
BRANCH  18  19
HETATM   19  C   UNL     1     -10.084   5.100  70.461  1.00  0.00    -0.256 A  
HETATM   20  C   UNL     1      -9.175   2.941  69.865  1.00  0.00    -0.216 A  
HETATM   21  C   UNL     1      -9.294   4.653  68.059  1.00  0.00    -0.173 C  
HETATM   22  C   UNL     1      -9.536   4.245  69.487  1.00  0.00    -0.274 A  
HETATM   23  C   UNL     1      -9.374   2.490  71.171  1.00  0.00    -0.212 A  
HETATM   24  C   UNL     1      -9.972   3.318  72.113  1.00  0.00    -0.231 A  
HETATM   25  C   UNL     1     -10.337   4.616  71.763  1.00  0.00    -0.138 A  
HETATM   26 CL   UNL     1     -11.273   5.510  72.918  1.00  0.00    -0.344 Cl 
ENDBRANCH  18  19
ENDBRANCH  14  15
ENDBRANCH   8  10
ENDBRANCH   4   8
BRANCH   5  27
HETATM   27  N   UNL     1      -9.740  15.269  66.919  1.00  0.00    -0.228 NA 
HETATM   28  C   UNL     1     -10.064  15.793  68.263  1.00  0.00    -0.222 C  
HETATM   29  C   UNL     1      -9.564  16.329  65.915  1.00  0.00    -0.301 C  
HETATM   30  N   UNL     1      -8.747  17.918  67.786  1.00  0.00    -0.246 NA 
HETATM   31  C   UNL     1      -8.974  16.784  68.712  1.00  0.00    -0.254 C  
HETATM   32  C   UNL     1      -8.509  17.352  66.424  1.00  0.00    -0.257 C  
BRANCH  30  33
HETATM   33  C   UNL     1      -9.875  18.876  67.758  1.00  0.00    -0.337 C  
BRANCH  33  34
HETATM   34  C   UNL     1      -9.721  19.979  66.696  1.00  0.00    -0.442 C  
HETATM   35  H   UNL     1     -10.591  20.501  65.004  1.00  0.00     0.000 HD 
HETATM   36  O   UNL     1     -10.686  19.820  65.660  1.00  0.00    -0.505 OA 
ENDBRANCH  33  34
ENDBRANCH  30  33
ENDBRANCH   5  27
TORSDOF 7
ENDMDL
MODEL       18
REMARK 921   NORMALIZED FREE ENERGY PREDICTED BY IDOCK:   -7.28 KCAL/MOL
REMARK 922        TOTAL FREE ENERGY PREDICTED BY IDOCK:  -10.63 KCAL/MOL
REMARK 923 INTER-LIGAND FREE ENERGY PREDICTED BY IDOCK:   -9.61 KCAL/MOL
REMARK 924 INTRA-LIGAND FREE ENERGY PREDICTED BY IDOCK:   -1.02 KCAL/MOL
REMARK 927      BINDING AFFINITY PREDICTED BY RF-SCORE:    0.00 PKD
ROOT
HETATM    1  C   UNL     1     -13.352  12.750  72.049  1.00  0.00    -0.565 C  
HETATM    2  C   UNL     1     -12.829  11.547  71.329  1.00  0.00    -0.360 A  
HETATM    3  N   UNL     1     -12.553  11.688  70.021  1.00  0.00    -0.055 NA 
HETATM    4  C   UNL     1     -11.964  10.648  69.420  1.00  0.00    -0.226 A  
HETATM    5  C   UNL     1     -12.040   9.390  71.428  1.00  0.00    -0.363 A  
HETATM    6  C   UNL     1     -11.625   9.519  70.120  1.00  0.00    -0.156 A  
HETATM    7  N   UNL     1     -12.621  10.429  72.051  1.00  0.00    -0.280 NA 
ENDROOT
BRANCH   4   8
HETATM    8  N   UNL     1     -11.690  10.786  68.064  1.00  0.00    -0.729 NA 
HETATM    9  H   UNL     1     -11.765   9.937  67.504  1.00  0.00     0.000 HD 
BRANCH   8  10
HETATM   10  C   UNL     1     -11.337  11.905  67.398  1.00  0.00    -0.324 A  
HETATM   11  S   UNL     1      -9.829  12.616  67.795  1.00  0.00    -0.218 SA 
HETATM   12  N   UNL     1     -12.015  12.553  66.470  1.00  0.00    -0.576 NA 
HETATM   13  C   UNL     1     -11.397  13.751  66.170  1.00  0.00    -0.314 A  
HETATM   14  C   UNL     1     -10.222  13.987  66.848  1.00  0.00    -0.260 A  
BRANCH  14  15
HETATM   15  C   UNL     1      -9.414  15.182  66.881  1.00  0.00    -0.238 C  
HETATM   16  O   UNL     1      -8.940  15.685  65.867  1.00  0.00    -0.320 OA 
HETATM   17  H   UNL     1      -9.517  15.111  68.951  1.00  0.00     0.000 HD 
HETATM   18  N   UNL     1      -9.196  15.670  68.160  1.00  0.00    -0.184 N  
BRANCH  18  19
HETATM   19  C   UNL     1      -8.557  16.891  68.425  1.00  0.00    -0.240 A  
HETATM   20  C   UNL     1      -6.623  18.097  69.226  1.00  0.00    -0.238 A  
HETATM   21  C   UNL     1      -6.524  15.611  69.332  1.00  0.00    -0.156 C  
HETATM   22  C   UNL     1      -7.268  16.873  68.987  1.00  0.00    -0.232 A  
HETATM   23  C   UNL     1      -7.252  19.310  68.936  1.00  0.00    -0.393 A  
HETATM   24  C   UNL     1      -8.549  19.323  68.439  1.00  0.00    -0.389 A  
HETATM   25  C   UNL     1      -9.208  18.121  68.191  1.00  0.00    -0.291 A  
HETATM   26 CL   UNL     1     -10.892  18.216  67.782  1.00  0.00    -0.344 Cl 
ENDBRANCH  18  19
ENDBRANCH  14  15
ENDBRANCH   8  10
ENDBRANCH   4   8
BRANCH   5  27
HETATM   27  N   UNL     1     -11.798   8.185  72.099  1.00  0.00    -0.336 NA 
HETATM   28  C   UNL     1     -10.481   8.086  72.763  1.00  0.00    -0.345 C  
HETATM   29  C   UNL     1     -12.172   6.961  71.375  1.00  0.00    -0.372 C  
HETATM   30  N   UNL     1     -10.791   5.578  73.070  1.00  0.00    -0.253 NA 
HETATM   31  C   UNL     1     -10.468   6.873  73.712  1.00  0.00    -0.357 C  
HETATM   32  C   UNL     1     -12.083   5.745  72.339  1.00  0.00    -0.028 C  
BRANCH  30  33
HETATM   33  C   UNL     1      -9.732   5.110  72.148  1.00  0.00    -0.162 C  
BRANCH  33  34
HETATM   34  C   UNL     1     -10.028   3.738  71.515  1.00  0.00    -0.124 C  
HETATM   35  H   UNL     1      -9.755   2.850  69.775  1.00  0.00     0.000 HD 
HETATM   36  O   UNL     1      -9.572   3.696  70.166  1.00  0.00    -0.179 OA 
ENDBRANCH  33  34
ENDBRANCH  30  33
ENDBRANCH   5  27
TORSDOF 7
ENDMDL
MODEL       19
REMARK 921   NORMALIZED FREE ENERGY PREDICTED BY IDOCK:   -7.27 KCAL/MOL
REMARK 922        TOTAL FREE ENERGY PREDICTED BY IDOCK:  -10.63 KCAL/MOL
REMARK 923 INTER-LIGAND FREE ENERGY PREDICTED BY IDOCK:   -9.61 KCAL/MOL
REMARK 924 INTRA-LIGAND FREE ENERGY PREDICTED BY IDOCK:   -1.01 KCAL/MOL
REMARK 927      BINDING AFFINITY PREDICTED BY RF-SCORE:    0.00 PKD
ROOT
HETATM    1  C   UNL     1     -12.039  12.257  63.351  1.00  0.00    -0.615 C  
HETATM    2  C   UNL     1     -11.688  12.828  64.688  1.00  0.00    -0.355 A  
HETATM    3  N   UNL     1     -12.180  12.201  65.771  1.00  0.00    -0.532 NA 
HETATM    4  C   UNL     1     -11.753  12.640  66.961  1.00  0.00    -0.369 A  
HETATM    5  C   UNL     1     -10.455  14.328  65.919  1.00  0.00    -0.307 A  
HETATM    6  C   UNL     1     -10.830  13.649  67.058  1.00  0.00    -0.291 A  
HETATM    7  N   UNL     1     -10.863  13.893  64.715  1.00  0.00    -0.399 NA 
ENDROOT
BRANCH   4   8
HETATM    8  N   UNL     1     -12.271  12.002  68.082  1.00  0.00    -0.337 NA 
HETATM    9  H   UNL     1     -13.256  12.175  68.280  1.00  0.00     0.000 HD 
BRANCH   8  10
HETATM   10  C   UNL     1     -11.630  11.181  68.940  1.00  0.00    -0.317 A  
HETATM   11  S   UNL     1     -10.553  10.028  68.272  1.00  0.00    -0.240 SA 
HETATM   12  N   UNL     1     -11.730  11.133  70.255  1.00  0.00    -0.333 NA 
HETATM   13  C   UNL     1     -11.054  10.035  70.749  1.00  0.00    -0.334 A  
HETATM   14  C   UNL     1     -10.404   9.275  69.801  1.00  0.00    -0.218 A  
BRANCH  14  15
HETATM   15  C   UNL     1      -9.738   8.003  69.955  1.00  0.00    -0.180 C  
HETATM   16  O   UNL     1      -8.528   7.911  70.136  1.00  0.00    -0.126 OA 
HETATM   17  H   UNL     1     -11.553   7.084  69.551  1.00  0.00     0.000 HD 
HETATM   18  N   UNL     1     -10.587   6.914  69.834  1.00  0.00    -0.219 N  
BRANCH  18  19
HETATM   19  C   UNL     1     -10.190   5.591  70.080  1.00  0.00    -0.263 A  
HETATM   20  C   UNL     1      -9.386   3.470  69.247  1.00  0.00    -0.242 A  
HETATM   21  C   UNL     1      -9.806   5.257  67.563  1.00  0.00    -0.183 C  
HETATM   22  C   UNL     1      -9.808   4.785  68.992  1.00  0.00    -0.239 A  
HETATM   23  C   UNL     1      -9.366   2.961  70.547  1.00  0.00    -0.220 A  
HETATM   24  C   UNL     1      -9.803   3.741  71.610  1.00  0.00    -0.240 A  
HETATM   25  C   UNL     1     -10.223   5.050  71.383  1.00  0.00    -0.200 A  
HETATM   26 CL   UNL     1     -10.958   5.884  72.716  1.00  0.00    -0.285 Cl 
ENDBRANCH  18  19
ENDBRANCH  14  15
ENDBRANCH   8  10
ENDBRANCH   4   8
BRANCH   5  27
HETATM   27  N   UNL     1      -9.607  15.436  66.040  1.00  0.00    -0.323 NA 
HETATM   28  C   UNL     1      -8.417  15.230  66.893  1.00  0.00    -0.252 C  
HETATM   29  C   UNL     1     -10.270  16.728  66.277  1.00  0.00    -0.332 C  
HETATM   30  N   UNL     1      -7.983  17.739  66.944  1.00  0.00    -0.217 NA 
HETATM   31  C   UNL     1      -7.425  16.391  66.688  1.00  0.00    -0.232 C  
HETATM   32  C   UNL     1      -9.230  17.875  66.132  1.00  0.00    -0.114 C  
BRANCH  30  33
HETATM   33  C   UNL     1      -8.270  17.983  68.375  1.00  0.00    -0.298 C  
BRANCH  33  34
HETATM   34  C   UNL     1      -8.598  19.452  68.696  1.00  0.00    -0.358 C  
HETATM   35  H   UNL     1     -10.189  20.516  69.177  1.00  0.00     0.000 HD 
HETATM   36  O   UNL     1      -9.986  19.609  68.979  1.00  0.00    -0.447 OA 
ENDBRANCH  33  34
ENDBRANCH  30  33
ENDBRANCH   5  27
TORSDOF 7
ENDMDL
MODEL       20
REMARK 921   NORMALIZED FREE ENERGY PREDICTED BY IDOCK:   -7.26 KCAL/MOL
REMARK 922        TOTAL FREE ENERGY PREDICTED BY IDOCK:  -10.61 KCAL/MOL
REMARK 923 INTER-LIGAND FREE ENERGY PREDICTED BY IDOCK:   -9.50 KCAL/MOL
REMARK 924 INTRA-LIGAND FREE ENERGY PREDICTED BY IDOCK:   -1.11 KCAL/MOL
REMARK 927      BINDING AFFINITY PREDICTED BY RF-SCORE:    0.00 PKD
ROOT
HETATM    1  C   UNL     1     -10.696  15.664  65.395  1.00  0.00    -0.424 C  
HETATM    2  C   UNL     1     -11.001  14.512  66.300  1.00  0.00    -0.323 A  
HETATM    3  N   UNL     1     -10.559  13.300  65.921  1.00  0.00    -0.278 NA 
HETATM    4  C   UNL     1     -10.722  12.303  66.798  1.00  0.00    -0.240 A  
HETATM    5  C   UNL     1     -11.812  13.762  68.317  1.00  0.00    -0.378 A  
HETATM    6  C   UNL     1     -11.273  12.525  68.034  1.00  0.00    -0.316 A  
HETATM    7  N   UNL     1     -11.647  14.777  67.453  1.00  0.00    -0.364 NA 
ENDROOT
BRANCH   4   8
HETATM    8  N   UNL     1     -10.278  11.047  66.402  1.00  0.00    -0.229 NA 
HETATM    9  H   UNL     1     -10.578  10.737  65.478  1.00  0.00     0.000 HD 
BRANCH   8  10
HETATM   10  C   UNL     1      -9.499  10.187  67.090  1.00  0.00    -0.158 A  
HETATM   11  S   UNL     1     -10.281   8.928  67.950  1.00  0.00    -0.232 SA 
HETATM   12  N   UNL     1      -8.184  10.189  67.209  1.00  0.00    -0.117 NA 
HETATM   13  C   UNL     1      -7.783   9.257  68.146  1.00  0.00    -0.088 A  
HETATM   14  C   UNL     1      -8.802   8.518  68.706  1.00  0.00    -0.139 A  
BRANCH  14  15
HETATM   15  C   UNL     1      -8.750   7.581  69.802  1.00  0.00    -0.140 C  
HETATM   16  O   UNL     1      -7.726   7.378  70.448  1.00  0.00    -0.089 OA 
HETATM   17  H   UNL     1     -10.701   7.046  69.347  1.00  0.00     0.000 HD 
HETATM   18  N   UNL     1      -9.944   6.911  70.017  1.00  0.00    -0.180 N  
BRANCH  18  19
HETATM   19  C   UNL     1     -10.168   6.057  71.108  1.00  0.00    -0.207 A  
HETATM   20  C   UNL     1     -10.131   3.832  72.050  1.00  0.00    -0.209 A  
HETATM   21  C   UNL     1      -9.453   4.056  69.664  1.00  0.00    -0.262 C  
HETATM   22  C   UNL     1      -9.931   4.679  70.948  1.00  0.00    -0.273 A  
HETATM   23  C   UNL     1     -10.578   4.337  73.273  1.00  0.00    -0.279 A  
HETATM   24  C   UNL     1     -10.869   5.688  73.407  1.00  0.00    -0.315 A  
HETATM   25  C   UNL     1     -10.676   6.549  72.328  1.00  0.00    -0.223 A  
HETATM   26 CL   UNL     1     -11.266   8.172  72.500  1.00  0.00    -0.443 Cl 
ENDBRANCH  18  19
ENDBRANCH  14  15
ENDBRANCH   8  10
ENDBRANCH   4   8
BRANCH   5  27
HETATM   27  N   UNL     1     -12.482  13.946  69.532  1.00  0.00    -0.211 NA 
HETATM   28  C   UNL     1     -12.499  15.334  70.040  1.00  0.00    -0.293 C  
HETATM   29  C   UNL     1     -12.197  12.952  70.579  1.00  0.00    -0.314 C  
HETATM   30  N   UNL     1     -13.294  14.523  72.319  1.00  0.00    -0.368 NA 
HETATM   31  C   UNL     1     -13.518  15.455  71.189  1.00  0.00    -0.493 C  
HETATM   32  C   UNL     1     -13.196  13.143  71.755  1.00  0.00    -0.403 C  
BRANCH  30  33
HETATM   33  C   UNL     1     -12.082  14.847  73.104  1.00  0.00    -0.267 C  
BRANCH  33  34
HETATM   34  C   UNL     1     -12.386  15.411  74.503  1.00  0.00    -0.545 C  
HETATM   35  H   UNL     1     -12.571  17.183  75.349  1.00  0.00     0.000 HD 
HETATM   36  O   UNL     1     -12.383  16.835  74.485  1.00  0.00    -0.703 OA 
ENDBRANCH  33  34
ENDBRANCH  30  33
ENDBRANCH   5  27
TORSDOF 7
ENDMDL
MODEL       21
REMARK 921   NORMALIZED FREE ENERGY PREDICTED BY IDOCK:   -7.25 KCAL/MOL
REMARK 922        TOTAL FREE ENERGY PREDICTED BY IDOCK:  -10.59 KCAL/MOL
REMARK 923 INTER-LIGAND FREE ENERGY PREDICTED BY IDOCK:   -9.66 KCAL/MOL
REMARK 924 INTRA-LIGAND FREE ENERGY PREDICTED BY IDOCK:   -0.93 KCAL/MOL
REMARK 927      BINDING AFFINITY PREDICTED BY RF-SCORE:    0.00 PKD
ROOT
HETATM    1  C   UNL     1     -11.902  12.684  63.375  1.00  0.00    -0.594 C  
HETATM    2  C   UNL     1     -11.767  13.126  64.798  1.00  0.00    -0.347 A  
HETATM    3  N   UNL     1     -12.125  12.248  65.750  1.00  0.00    -0.603 NA 
HETATM    4  C   UNL     1     -11.877  12.604  67.015  1.00  0.00    -0.345 A  
HETATM    5  C   UNL     1     -11.015  14.694  66.302  1.00  0.00    -0.327 A  
HETATM    6  C   UNL     1     -11.251  13.786  67.312  1.00  0.00    -0.329 A  
HETATM    7  N   UNL     1     -11.247  14.348  65.025  1.00  0.00    -0.355 NA 
ENDROOT
BRANCH   4   8
HETATM    8  N   UNL     1     -12.259  11.702  68.002  1.00  0.00    -0.460 NA 
HETATM    9  H   UNL     1     -13.260  11.638  68.186  1.00  0.00     0.000 HD 
BRANCH   8  10
HETATM   10  C   UNL     1     -11.468  10.902  68.747  1.00  0.00    -0.308 A  
HETATM   11  S   UNL     1     -10.644   9.636  67.940  1.00  0.00    -0.246 SA 
HETATM   12  N   UNL     1     -11.247  10.952  70.047  1.00  0.00    -0.282 NA 
HETATM   13  C   UNL     1     -10.524   9.848  70.455  1.00  0.00    -0.285 A  
HETATM   14  C   UNL     1     -10.163   8.982  69.446  1.00  0.00    -0.204 A  
BRANCH  14  15
HETATM   15  C   UNL     1      -9.542   7.683  69.541  1.00  0.00    -0.163 C  
HETATM   16  O   UNL     1      -8.324   7.534  69.547  1.00  0.00    -0.128 OA 
HETATM   17  H   UNL     1     -11.436   6.847  69.434  1.00  0.00     0.000 HD 
HETATM   18  N   UNL     1     -10.449   6.636  69.579  1.00  0.00    -0.204 N  
BRANCH  18  19
HETATM   19  C   UNL     1     -10.082   5.301  69.807  1.00  0.00    -0.264 A  
HETATM   20  C   UNL     1      -9.739   3.470  71.347  1.00  0.00    -0.236 A  
HETATM   21  C   UNL     1     -10.451   5.648  72.324  1.00  0.00    -0.260 C  
HETATM   22  C   UNL     1     -10.082   4.814  71.127  1.00  0.00    -0.261 A  
HETATM   23  C   UNL     1      -9.381   2.637  70.286  1.00  0.00    -0.201 A  
HETATM   24  C   UNL     1      -9.322   3.139  68.992  1.00  0.00    -0.230 A  
HETATM   25  C   UNL     1      -9.661   4.468  68.748  1.00  0.00    -0.159 A  
HETATM   26 CL   UNL     1      -9.353   5.080  67.153  1.00  0.00    -0.124 Cl 
ENDBRANCH  18  19
ENDBRANCH  14  15
ENDBRANCH   8  10
ENDBRANCH   4   8
BRANCH   5  27
HETATM   27  N   UNL     1     -10.488  15.949  66.629  1.00  0.00    -0.303 NA 
HETATM   28  C   UNL     1      -9.084  16.169  66.223  1.00  0.00    -0.338 C  
HETATM   29  C   UNL     1     -10.778  16.433  67.988  1.00  0.00    -0.334 C  
HETATM   30  N   UNL     1      -8.952  18.242  67.696  1.00  0.00    -0.264 NA 
HETATM   31  C   UNL     1      -8.735  17.665  66.349  1.00  0.00    -0.234 C  
HETATM   32  C   UNL     1     -10.353  17.923  68.106  1.00  0.00    -0.389 C  
BRANCH  30  33
HETATM   33  C   UNL     1      -7.991  17.737  68.703  1.00  0.00    -0.276 C  
BRANCH  33  34
HETATM   34  C   UNL     1      -6.733  18.611  68.848  1.00  0.00    -0.272 C  
HETATM   35  H   UNL     1      -6.223  20.287  69.754  1.00  0.00     0.000 HD 
HETATM   36  O   UNL     1      -7.000  19.748  69.664  1.00  0.00    -0.337 OA 
ENDBRANCH  33  34
ENDBRANCH  30  33
ENDBRANCH   5  27
TORSDOF 7
ENDMDL
MODEL       22
REMARK 921   NORMALIZED FREE ENERGY PREDICTED BY IDOCK:   -7.24 KCAL/MOL
REMARK 922        TOTAL FREE ENERGY PREDICTED BY IDOCK:  -10.59 KCAL/MOL
REMARK 923 INTER-LIGAND FREE ENERGY PREDICTED BY IDOCK:   -9.96 KCAL/MOL
REMARK 924 INTRA-LIGAND FREE ENERGY PREDICTED BY IDOCK:   -0.62 KCAL/MOL
REMARK 927      BINDING AFFINITY PREDICTED BY RF-SCORE:    0.00 PKD
ROOT
HETATM    1  C   UNL     1     -12.224  15.770  72.332  1.00  0.00    -0.568 C  
HETATM    2  C   UNL     1     -11.817  15.234  70.995  1.00  0.00    -0.345 A  
HETATM    3  N   UNL     1     -12.006  13.921  70.777  1.00  0.00    -0.310 NA 
HETATM    4  C   UNL     1     -11.762  13.480  69.538  1.00  0.00    -0.322 A  
HETATM    5  C   UNL     1     -11.092  15.648  68.853  1.00  0.00    -0.290 A  
HETATM    6  C   UNL     1     -11.382  14.338  68.539  1.00  0.00    -0.309 A  
HETATM    7  N   UNL     1     -11.343  16.111  70.089  1.00  0.00    -0.354 NA 
ENDROOT
BRANCH   4   8
HETATM    8  N   UNL     1     -11.945  12.120  69.314  1.00  0.00    -0.289 NA 
HETATM    9  H   UNL     1     -11.899  11.817  68.341  1.00  0.00     0.000 HD 
BRANCH   8  10
HETATM   10  C   UNL     1     -12.176  11.152  70.225  1.00  0.00    -0.352 A  
HETATM   11  S   UNL     1     -11.091   9.826  70.260  1.00  0.00    -0.312 SA 
HETATM   12  N   UNL     1     -13.155  11.075  71.106  1.00  0.00    -0.307 NA 
HETATM   13  C   UNL     1     -13.146   9.842  71.729  1.00  0.00    -0.452 A  
HETATM   14  C   UNL     1     -12.126   9.001  71.343  1.00  0.00    -0.327 A  
BRANCH  14  15
HETATM   15  C   UNL     1     -11.913   7.614  71.681  1.00  0.00    -0.299 C  
HETATM   16  O   UNL     1     -12.839   6.836  71.887  1.00  0.00    -0.338 OA 
HETATM   17  H   UNL     1      -9.879   8.012  71.735  1.00  0.00     0.000 HD 
HETATM   18  N   UNL     1     -10.575   7.269  71.792  1.00  0.00    -0.206 N  
BRANCH  18  19
HETATM   19  C   UNL     1     -10.128   5.952  71.977  1.00  0.00    -0.189 A  
HETATM   20  C   UNL     1      -9.165   4.264  73.413  1.00  0.00    -0.110 A  
HETATM   21  C   UNL     1      -9.452   6.540  74.384  1.00  0.00    -0.270 C  
HETATM   22  C   UNL     1      -9.587   5.590  73.225  1.00  0.00    -0.152 A  
HETATM   23  C   UNL     1      -9.255   3.327  72.382  1.00  0.00    -0.150 A  
HETATM   24  C   UNL     1      -9.731   3.706  71.133  1.00  0.00    -0.245 A  
HETATM   25  C   UNL     1     -10.159   5.015  70.922  1.00  0.00    -0.232 A  
HETATM   26 CL   UNL     1     -10.532   5.469  69.290  1.00  0.00    -0.337 Cl 
ENDBRANCH  18  19
ENDBRANCH  14  15
ENDBRANCH   8  10
ENDBRANCH   4   8
BRANCH   5  27
HETATM   27  N   UNL     1     -10.586  16.488  67.853  1.00  0.00    -0.319 NA 
HETATM   28  C   UNL     1      -9.261  16.106  67.320  1.00  0.00    -0.208 C  
HETATM   29  C   UNL     1     -10.712  17.932  68.103  1.00  0.00    -0.274 C  
HETATM   30  N   UNL     1      -9.029  18.375  66.188  1.00  0.00    -0.494 NA 
HETATM   31  C   UNL     1      -8.970  16.903  66.033  1.00  0.00    -0.163 C  
HETATM   32  C   UNL     1     -10.345  18.712  66.809  1.00  0.00    -0.407 C  
BRANCH  30  33
HETATM   33  C   UNL     1      -7.919  18.916  67.003  1.00  0.00    -0.252 C  
BRANCH  33  34
HETATM   34  C   UNL     1      -7.212  20.122  66.360  1.00  0.00    -0.273 C  
HETATM   35  H   UNL     1      -6.832  22.002  66.822  1.00  0.00     0.000 HD 
HETATM   36  O   UNL     1      -7.269  21.257  67.219  1.00  0.00    -0.508 OA 
ENDBRANCH  33  34
ENDBRANCH  30  33
ENDBRANCH   5  27
TORSDOF 7
ENDMDL
MODEL       23
REMARK 921   NORMALIZED FREE ENERGY PREDICTED BY IDOCK:   -7.24 KCAL/MOL
REMARK 922        TOTAL FREE ENERGY PREDICTED BY IDOCK:  -10.58 KCAL/MOL
REMARK 923 INTER-LIGAND FREE ENERGY PREDICTED BY IDOCK:   -9.73 KCAL/MOL
REMARK 924 INTRA-LIGAND FREE ENERGY PREDICTED BY IDOCK:   -0.85 KCAL/MOL
REMARK 927      BINDING AFFINITY PREDICTED BY RF-SCORE:    0.00 PKD
ROOT
HETATM    1  C   UNL     1     -12.749  15.275  72.061  1.00  0.00    -0.431 C  
HETATM    2  C   UNL     1     -12.093  15.326  70.717  1.00  0.00    -0.351 A  
HETATM    3  N   UNL     1     -12.325  14.298  69.882  1.00  0.00    -0.340 NA 
HETATM    4  C   UNL     1     -11.843  14.417  68.640  1.00  0.00    -0.331 A  
HETATM    5  C   UNL     1     -10.880  16.517  69.170  1.00  0.00    -0.334 A  
HETATM    6  C   UNL     1     -11.187  15.551  68.236  1.00  0.00    -0.343 A  
HETATM    7  N   UNL     1     -11.366  16.420  70.418  1.00  0.00    -0.296 NA 
ENDROOT
BRANCH   4   8
HETATM    8  N   UNL     1     -12.070  13.349  67.779  1.00  0.00    -0.312 NA 
HETATM    9  H   UNL     1     -12.819  13.475  67.098  1.00  0.00     0.000 HD 
BRANCH   8  10
HETATM   10  C   UNL     1     -11.421  12.167  67.733  1.00  0.00    -0.332 A  
HETATM   11  S   UNL     1     -11.708  11.059  69.008  1.00  0.00    -0.328 SA 
HETATM   12  N   UNL     1     -10.562  11.740  66.827  1.00  0.00    -0.229 NA 
HETATM   13  C   UNL     1      -9.981  10.555  67.234  1.00  0.00    -0.186 A  
HETATM   14  C   UNL     1     -10.437  10.066  68.439  1.00  0.00    -0.205 A  
BRANCH  14  15
HETATM   15  C   UNL     1      -9.947   8.950  69.212  1.00  0.00    -0.192 C  
HETATM   16  O   UNL     1      -8.780   8.867  69.581  1.00  0.00    -0.132 OA 
HETATM   17  H   UNL     1     -11.811   8.069  68.991  1.00  0.00     0.000 HD 
HETATM   18  N   UNL     1     -10.905   7.978  69.451  1.00  0.00    -0.155 N  
BRANCH  18  19
HETATM   19  C   UNL     1     -10.695   6.874  70.292  1.00  0.00    -0.242 A  
HETATM   20  C   UNL     1     -10.098   4.548  70.563  1.00  0.00    -0.233 A  
HETATM   21  C   UNL     1     -10.159   5.432  68.235  1.00  0.00    -0.225 C  
HETATM   22  C   UNL     1     -10.332   5.643  69.715  1.00  0.00    -0.352 A  
HETATM   23  C   UNL     1     -10.244   4.667  71.947  1.00  0.00    -0.254 A  
HETATM   24  C   UNL     1     -10.662   5.868  72.506  1.00  0.00    -0.274 A  
HETATM   25  C   UNL     1     -10.898   6.969  71.685  1.00  0.00    -0.223 A  
HETATM   26 CL   UNL     1     -11.626   8.360  72.423  1.00  0.00    -0.452 Cl 
ENDBRANCH  18  19
ENDBRANCH  14  15
ENDBRANCH   8  10
ENDBRANCH   4   8
BRANCH   5  27
HETATM   27  N   UNL     1     -10.103  17.614  68.778  1.00  0.00    -0.366 NA 
HETATM   28  C   UNL     1     -10.658  18.416  67.667  1.00  0.00    -0.408 C  
HETATM   29  C   UNL     1      -8.660  17.363  68.642  1.00  0.00    -0.259 C  
HETATM   30  N   UNL     1      -8.425  19.602  67.366  1.00  0.00    -0.295 NA 
HETATM   31  C   UNL     1      -9.888  19.746  67.550  1.00  0.00    -0.389 C  
HETATM   32  C   UNL     1      -7.916  18.715  68.456  1.00  0.00    -0.337 C  
BRANCH  30  33
HETATM   33  C   UNL     1      -8.060  19.053  66.042  1.00  0.00    -0.163 C  
BRANCH  33  34
HETATM   34  C   UNL     1      -6.859  19.762  65.390  1.00  0.00    -0.291 C  
HETATM   35  H   UNL     1      -5.465  19.337  64.060  1.00  0.00     0.000 HD 
HETATM   36  O   UNL     1      -6.207  18.899  64.462  1.00  0.00    -0.475 OA 
ENDBRANCH  33  34
ENDBRANCH  30  33
ENDBRANCH   5  27
TORSDOF 7
ENDMDL
MODEL       24
REMARK 921   NORMALIZED FREE ENERGY PREDICTED BY IDOCK:   -7.22 KCAL/MOL
REMARK 922        TOTAL FREE ENERGY PREDICTED BY IDOCK:  -10.55 KCAL/MOL
REMARK 923 INTER-LIGAND FREE ENERGY PREDICTED BY IDOCK:   -9.61 KCAL/MOL
REMARK 924 INTRA-LIGAND FREE ENERGY PREDICTED BY IDOCK:   -0.95 KCAL/MOL
REMARK 927      BINDING AFFINITY PREDICTED BY RF-SCORE:    0.00 PKD
ROOT
HETATM    1  C   UNL     1      -9.201   8.789  65.992  1.00  0.00    -0.282 C  
HETATM    2  C   UNL     1      -9.928   9.503  67.089  1.00  0.00    -0.204 A  
HETATM    3  N   UNL     1     -10.657  10.578  66.742  1.00  0.00    -0.241 NA 
HETATM    4  C   UNL     1     -11.406  11.127  67.705  1.00  0.00    -0.293 A  
HETATM    5  C   UNL     1     -10.593   9.560  69.288  1.00  0.00    -0.220 A  
HETATM    6  C   UNL     1     -11.452  10.589  68.965  1.00  0.00    -0.304 A  
HETATM    7  N   UNL     1      -9.844   8.989  68.331  1.00  0.00    -0.161 NA 
ENDROOT
BRANCH   4   8
HETATM    8  N   UNL     1     -12.151  12.246  67.352  1.00  0.00    -0.503 NA 
HETATM    9  H   UNL     1     -13.055  12.062  66.916  1.00  0.00     0.000 HD 
BRANCH   8  10
HETATM   10  C   UNL     1     -11.827  13.545  67.516  1.00  0.00    -0.368 A  
HETATM   11  S   UNL     1     -11.135  14.360  66.177  1.00  0.00    -0.336 SA 
HETATM   12  N   UNL     1     -11.958  14.291  68.596  1.00  0.00    -0.332 NA 
HETATM   13  C   UNL     1     -11.341  15.514  68.415  1.00  0.00    -0.354 A  
HETATM   14  C   UNL     1     -10.776  15.704  67.173  1.00  0.00    -0.314 A  
BRANCH  14  15
HETATM   15  C   UNL     1      -9.943  16.786  66.709  1.00  0.00    -0.282 C  
HETATM   16  O   UNL     1      -9.885  17.114  65.528  1.00  0.00    -0.549 OA 
HETATM   17  H   UNL     1      -9.205  16.954  68.640  1.00  0.00     0.000 HD 
HETATM   18  N   UNL     1      -9.193  17.379  67.713  1.00  0.00    -0.245 N  
BRANCH  18  19
HETATM   19  C   UNL     1      -8.418  18.534  67.522  1.00  0.00    -0.261 A  
HETATM   20  C   UNL     1      -8.246  20.944  67.500  1.00  0.00    -0.102 A  
HETATM   21  C   UNL     1     -10.484  19.979  68.014  1.00  0.00    -0.448 C  
HETATM   22  C   UNL     1      -9.032  19.792  67.667  1.00  0.00    -0.402 A  
HETATM   23  C   UNL     1      -6.892  20.850  67.174  1.00  0.00    -0.417 A  
HETATM   24  C   UNL     1      -6.306  19.607  66.970  1.00  0.00    -0.199 A  
HETATM   25  C   UNL     1      -7.065  18.449  67.133  1.00  0.00    -0.200 A  
HETATM   26 CL   UNL     1      -6.331  16.952  66.650  1.00  0.00    -0.236 Cl 
ENDBRANCH  18  19
ENDBRANCH  14  15
ENDBRANCH   8  10
ENDBRANCH   4   8
BRANCH   5  27
HETATM   27  N   UNL     1     -10.558   9.097  70.610  1.00  0.00    -0.226 NA 
HETATM   28  C   UNL     1      -9.232   8.655  71.088  1.00  0.00    -0.213 C  
HETATM   29  C   UNL     1     -11.645   8.187  70.999  1.00  0.00    -0.279 C  
HETATM   30  N   UNL     1     -10.300   7.543  73.114  1.00  0.00    -0.314 NA 
HETATM   31  C   UNL     1      -9.264   8.478  72.618  1.00  0.00    -0.199 C  
HETATM   32  C   UNL     1     -11.611   7.972  72.539  1.00  0.00    -0.403 C  
BRANCH  30  33
HETATM   33  C   UNL     1     -10.021   6.132  72.765  1.00  0.00    -0.172 C  
BRANCH  33  34
HETATM   34  C   UNL     1     -10.585   5.122  73.780  1.00  0.00    -0.283 C  
HETATM   35  H   UNL     1     -12.089   3.850  73.884  1.00  0.00     0.000 HD 
HETATM   36  O   UNL     1     -11.741   4.474  73.258  1.00  0.00    -0.262 OA 
ENDBRANCH  33  34
ENDBRANCH  30  33
ENDBRANCH   5  27
TORSDOF 7
ENDMDL
MODEL       25
REMARK 921   NORMALIZED FREE ENERGY PREDICTED BY IDOCK:   -7.21 KCAL/MOL
REMARK 922        TOTAL FREE ENERGY PREDICTED BY IDOCK:  -10.54 KCAL/MOL
REMARK 923 INTER-LIGAND FREE ENERGY PREDICTED BY IDOCK:   -9.71 KCAL/MOL
REMARK 924 INTRA-LIGAND FREE ENERGY PREDICTED BY IDOCK:   -0.82 KCAL/MOL
REMARK 927      BINDING AFFINITY PREDICTED BY RF-SCORE:    0.00 PKD
ROOT
HETATM    1  C   UNL     1     -12.502  12.605  65.074  1.00  0.00    -0.556 C  
HETATM    2  C   UNL     1     -12.088  13.228  66.370  1.00  0.00    -0.394 A  
HETATM    3  N   UNL     1     -12.043  12.427  67.449  1.00  0.00    -0.484 NA 
HETATM    4  C   UNL     1     -11.547  12.963  68.570  1.00  0.00    -0.323 A  
HETATM    5  C   UNL     1     -11.254  15.054  67.491  1.00  0.00    -0.330 A  
HETATM    6  C   UNL     1     -11.072  14.248  68.595  1.00  0.00    -0.273 A  
HETATM    7  N   UNL     1     -11.739  14.530  66.353  1.00  0.00    -0.376 NA 
ENDROOT
BRANCH   4   8
HETATM    8  N   UNL     1     -11.512  12.140  69.690  1.00  0.00    -0.452 NA 
HETATM    9  H   UNL     1     -11.748  12.583  70.578  1.00  0.00     0.000 HD 
BRANCH   8  10
HETATM   10  C   UNL     1     -11.204  10.828  69.747  1.00  0.00    -0.297 A  
HETATM   11  S   UNL     1     -12.284   9.800  70.591  1.00  0.00    -0.152 SA 
HETATM   12  N   UNL     1     -10.152  10.212  69.243  1.00  0.00    -0.209 NA 
HETATM   13  C   UNL     1     -10.108   8.901  69.674  1.00  0.00    -0.200 A  
HETATM   14  C   UNL     1     -11.159   8.516  70.477  1.00  0.00    -0.244 A  
BRANCH  14  15
HETATM   15  C   UNL     1     -11.345   7.284  71.205  1.00  0.00    -0.264 C  
HETATM   16  O   UNL     1     -12.454   6.860  71.512  1.00  0.00    -0.355 OA 
HETATM   17  H   UNL     1      -9.282   7.155  71.373  1.00  0.00     0.000 HD 
HETATM   18  N   UNL     1     -10.156   6.662  71.554  1.00  0.00    -0.183 N  
BRANCH  18  19
HETATM   19  C   UNL     1     -10.091   5.390  72.143  1.00  0.00    -0.190 A  
HETATM   20  C   UNL     1     -10.041   4.017  74.131  1.00  0.00    -0.213 A  
HETATM   21  C   UNL     1     -10.126   6.483  74.467  1.00  0.00    -0.332 C  
HETATM   22  C   UNL     1     -10.080   5.294  73.547  1.00  0.00    -0.205 A  
HETATM   23  C   UNL     1      -9.992   2.866  73.342  1.00  0.00    -0.174 A  
HETATM   24  C   UNL     1      -9.941   2.969  71.958  1.00  0.00    -0.224 A  
HETATM   25  C   UNL     1      -9.981   4.225  71.354  1.00  0.00    -0.168 A  
HETATM   26 CL   UNL     1      -9.693   4.287  69.644  1.00  0.00    -0.283 Cl 
ENDBRANCH  18  19
ENDBRANCH  14  15
ENDBRANCH   8  10
ENDBRANCH   4   8
BRANCH   5  27
HETATM   27  N   UNL     1     -10.879  16.401  67.567  1.00  0.00    -0.290 NA 
HETATM   28  C   UNL     1     -10.326  16.973  66.321  1.00  0.00    -0.306 C  
HETATM   29  C   UNL     1     -10.119  16.789  68.765  1.00  0.00    -0.286 C  
HETATM   30  N   UNL     1      -9.474  19.005  67.596  1.00  0.00    -0.301 NA 
HETATM   31  C   UNL     1     -10.255  18.507  66.440  1.00  0.00    -0.420 C  
HETATM   32  C   UNL     1     -10.004  18.338  68.823  1.00  0.00    -0.370 C  
BRANCH  30  33
HETATM   33  C   UNL     1      -8.021  18.757  67.461  1.00  0.00    -0.244 C  
BRANCH  33  34
HETATM   34  C   UNL     1      -7.275  18.715  68.807  1.00  0.00    -0.305 C  
HETATM   35  H   UNL     1      -6.372  19.991  70.010  1.00  0.00     0.000 HD 
HETATM   36  O   UNL     1      -6.833  20.017  69.179  1.00  0.00    -0.310 OA 
ENDBRANCH  33  34
ENDBRANCH  30  33
ENDBRANCH   5  27
TORSDOF 7
ENDMDL
MODEL       26
REMARK 921   NORMALIZED FREE ENERGY PREDICTED BY IDOCK:   -7.20 KCAL/MOL
REMARK 922        TOTAL FREE ENERGY PREDICTED BY IDOCK:  -10.52 KCAL/MOL
REMARK 923 INTER-LIGAND FREE ENERGY PREDICTED BY IDOCK:   -9.37 KCAL/MOL
REMARK 924 INTRA-LIGAND FREE ENERGY PREDICTED BY IDOCK:   -1.15 KCAL/MOL
REMARK 927      BINDING AFFINITY PREDICTED BY RF-SCORE:    0.00 PKD
ROOT
HETATM    1  C   UNL     1      -7.404   8.861  62.596  1.00  0.00    -0.099 C  
HETATM    2  C   UNL     1      -8.330   9.348  63.665  1.00  0.00    -0.184 A  
HETATM    3  N   UNL     1      -9.257  10.254  63.307  1.00  0.00    -0.270 NA 
HETATM    4  C   UNL     1     -10.161  10.583  64.236  1.00  0.00    -0.310 A  
HETATM    5  C   UNL     1      -9.116   9.158  65.817  1.00  0.00    -0.213 A  
HETATM    6  C   UNL     1     -10.160   9.990  65.472  1.00  0.00    -0.325 A  
HETATM    7  N   UNL     1      -8.207   8.807  64.892  1.00  0.00    -0.150 NA 
ENDROOT
BRANCH   4   8
HETATM    8  N   UNL     1     -11.112  11.530  63.872  1.00  0.00    -0.389 NA 
HETATM    9  H   UNL     1     -11.562  11.386  62.968  1.00  0.00     0.000 HD 
BRANCH   8  10
HETATM   10  C   UNL     1     -11.512  12.614  64.567  1.00  0.00    -0.339 A  
HETATM   11  S   UNL     1     -10.323  13.786  64.955  1.00  0.00    -0.364 SA 
HETATM   12  N   UNL     1     -12.721  12.899  65.014  1.00  0.00    -0.724 NA 
HETATM   13  C   UNL     1     -12.681  14.009  65.836  1.00  0.00    -0.397 A  
HETATM   14  C   UNL     1     -11.439  14.587  65.975  1.00  0.00    -0.348 A  
BRANCH  14  15
HETATM   15  C   UNL     1     -11.024  15.651  66.858  1.00  0.00    -0.243 C  
HETATM   16  O   UNL     1     -11.522  15.818  67.967  1.00  0.00    -0.338 OA 
HETATM   17  H   UNL     1      -9.796  16.341  65.336  1.00  0.00     0.000 HD 
HETATM   18  N   UNL     1     -10.053  16.477  66.314  1.00  0.00    -0.317 N  
BRANCH  18  19
HETATM   19  C   UNL     1      -9.404  17.489  67.037  1.00  0.00    -0.259 A  
HETATM   20  C   UNL     1      -9.101  19.838  67.515  1.00  0.00    -0.414 A  
HETATM   21  C   UNL     1     -10.750  19.252  65.742  1.00  0.00    -0.417 C  
HETATM   22  C   UNL     1      -9.735  18.830  66.771  1.00  0.00    -0.355 A  
HETATM   23  C   UNL     1      -8.146  19.524  68.484  1.00  0.00    -0.376 A  
HETATM   24  C   UNL     1      -7.778  18.202  68.699  1.00  0.00    -0.309 A  
HETATM   25  C   UNL     1      -8.394  17.184  67.975  1.00  0.00    -0.218 A  
HETATM   26 CL   UNL     1      -7.732  15.588  68.138  1.00  0.00    -0.121 Cl 
ENDBRANCH  18  19
ENDBRANCH  14  15
ENDBRANCH   8  10
ENDBRANCH   4   8
BRANCH   5  27
HETATM   27  N   UNL     1      -9.056   8.653  67.121  1.00  0.00    -0.131 NA 
HETATM   28  C   UNL     1     -10.352   8.231  67.695  1.00  0.00    -0.248 C  
HETATM   29  C   UNL     1      -8.228   9.416  68.067  1.00  0.00    -0.114 C  
HETATM   30  N   UNL     1      -9.318   8.113  70.019  1.00  0.00    -0.159 NA 
HETATM   31  C   UNL     1     -10.109   7.415  68.980  1.00  0.00    -0.193 C  
HETATM   32  C   UNL     1      -8.058   8.600  69.379  1.00  0.00    -0.111 C  
BRANCH  30  33
HETATM   33  C   UNL     1     -10.048   9.239  70.643  1.00  0.00    -0.276 C  
BRANCH  33  34
HETATM   34  C   UNL     1     -10.570   8.928  72.057  1.00  0.00    -0.318 C  
HETATM   35  H   UNL     1     -12.270   9.077  73.045  1.00  0.00     0.000 HD 
HETATM   36  O   UNL     1     -11.948   9.269  72.172  1.00  0.00    -0.344 OA 
ENDBRANCH  33  34
ENDBRANCH  30  33
ENDBRANCH   5  27
TORSDOF 7
ENDMDL
MODEL       27
REMARK 921   NORMALIZED FREE ENERGY PREDICTED BY IDOCK:   -7.18 KCAL/MOL
REMARK 922        TOTAL FREE ENERGY PREDICTED BY IDOCK:  -10.50 KCAL/MOL
REMARK 923 INTER-LIGAND FREE ENERGY PREDICTED BY IDOCK:   -9.48 KCAL/MOL
REMARK 924 INTRA-LIGAND FREE ENERGY PREDICTED BY IDOCK:   -1.02 KCAL/MOL
REMARK 927      BINDING AFFINITY PREDICTED BY RF-SCORE:    0.00 PKD
ROOT
HETATM    1  C   UNL     1      -9.404  10.206  63.013  1.00  0.00    -0.330 C  
HETATM    2  C   UNL     1      -9.933  10.483  64.385  1.00  0.00    -0.343 A  
HETATM    3  N   UNL     1     -10.687  11.586  64.540  1.00  0.00    -0.315 NA 
HETATM    4  C   UNL     1     -11.262  11.752  65.737  1.00  0.00    -0.281 A  
HETATM    5  C   UNL     1     -10.239   9.774  66.550  1.00  0.00    -0.219 A  
HETATM    6  C   UNL     1     -11.118  10.821  66.731  1.00  0.00    -0.153 A  
HETATM    7  N   UNL     1      -9.663   9.584  65.351  1.00  0.00    -0.288 NA 
ENDROOT
BRANCH   4   8
HETATM    8  N   UNL     1     -12.031  12.898  65.903  1.00  0.00    -0.428 NA 
HETATM    9  H   UNL     1     -12.805  13.016  65.249  1.00  0.00     0.000 HD 
BRANCH   8  10
HETATM   10  C   UNL     1     -11.880  13.873  66.823  1.00  0.00    -0.424 A  
HETATM   11  S   UNL     1     -11.090  15.311  66.327  1.00  0.00    -0.218 SA 
HETATM   12  N   UNL     1     -12.254  13.869  68.089  1.00  0.00    -0.263 NA 
HETATM   13  C   UNL     1     -11.755  14.979  68.742  1.00  0.00    -0.334 A  
HETATM   14  C   UNL     1     -11.035  15.847  67.951  1.00  0.00    -0.327 A  
BRANCH  14  15
HETATM   15  C   UNL     1     -10.267  17.006  68.337  1.00  0.00    -0.331 C  
HETATM   16  O   UNL     1     -10.504  17.643  69.358  1.00  0.00    -0.242 OA 
HETATM   17  H   UNL     1      -9.242  16.837  66.542  1.00  0.00     0.000 HD 
HETATM   18  N   UNL     1      -9.278  17.344  67.426  1.00  0.00    -0.235 N  
BRANCH  18  19
HETATM   19  C   UNL     1      -8.323  18.347  67.657  1.00  0.00    -0.251 A  
HETATM   20  C   UNL     1      -7.637  20.654  67.449  1.00  0.00    -0.375 A  
HETATM   21  C   UNL     1      -9.834  20.037  66.450  1.00  0.00    -0.578 C  
HETATM   22  C   UNL     1      -8.584  19.649  67.192  1.00  0.00    -0.357 A  
HETATM   23  C   UNL     1      -6.451  20.369  68.128  1.00  0.00    -0.339 A  
HETATM   24  C   UNL     1      -6.171  19.069  68.529  1.00  0.00    -0.244 A  
HETATM   25  C   UNL     1      -7.096  18.055  68.289  1.00  0.00    -0.241 A  
HETATM   26 CL   UNL     1      -6.586  16.429  68.618  1.00  0.00    -0.136 Cl 
ENDBRANCH  18  19
ENDBRANCH  14  15
ENDBRANCH   8  10
ENDBRANCH   4   8
BRANCH   5  27
HETATM   27  N   UNL     1     -10.004   8.896  67.615  1.00  0.00    -0.183 NA 
HETATM   28  C   UNL     1     -10.251   7.468  67.322  1.00  0.00    -0.267 C  
HETATM   29  C   UNL     1     -10.532   9.316  68.922  1.00  0.00    -0.215 C  
HETATM   30  N   UNL     1     -10.161   6.912  69.805  1.00  0.00    -0.191 NA 
HETATM   31  C   UNL     1      -9.660   6.597  68.447  1.00  0.00    -0.123 C  
HETATM   32  C   UNL     1      -9.974   8.377  70.029  1.00  0.00    -0.188 C  
BRANCH  30  33
HETATM   33  C   UNL     1     -11.580   6.537  69.998  1.00  0.00    -0.390 C  
BRANCH  33  34
HETATM   34  C   UNL     1     -12.191   7.086  71.300  1.00  0.00    -0.377 C  
HETATM   35  H   UNL     1     -12.542   6.437  73.129  1.00  0.00     0.000 HD 
HETATM   36  O   UNL     1     -12.165   6.098  72.326  1.00  0.00    -0.293 OA 
ENDBRANCH  33  34
ENDBRANCH  30  33
ENDBRANCH   5  27
TORSDOF 7
ENDMDL
MODEL       28
REMARK 921   NORMALIZED FREE ENERGY PREDICTED BY IDOCK:   -7.18 KCAL/MOL
REMARK 922        TOTAL FREE ENERGY PREDICTED BY IDOCK:  -10.49 KCAL/MOL
REMARK 923 INTER-LIGAND FREE ENERGY PREDICTED BY IDOCK:   -9.62 KCAL/MOL
REMARK 924 INTRA-LIGAND FREE ENERGY PREDICTED BY IDOCK:   -0.87 KCAL/MOL
REMARK 927      BINDING AFFINITY PREDICTED BY RF-SCORE:    0.00 PKD
ROOT
HETATM    1  C   UNL     1     -12.655  12.600  65.010  1.00  0.00    -0.504 C  
HETATM    2  C   UNL     1     -11.944  13.193  66.186  1.00  0.00    -0.422 A  
HETATM    3  N   UNL     1     -11.456  12.339  67.102  1.00  0.00    -0.333 NA 
HETATM    4  C   UNL     1     -10.711  12.872  68.078  1.00  0.00    -0.228 A  
HETATM    5  C   UNL     1     -11.056  15.050  67.210  1.00  0.00    -0.334 A  
HETATM    6  C   UNL     1     -10.431  14.213  68.108  1.00  0.00    -0.244 A  
HETATM    7  N   UNL     1     -11.798  14.532  66.217  1.00  0.00    -0.371 NA 
ENDROOT
BRANCH   4   8
HETATM    8  N   UNL     1     -10.215  11.991  69.034  1.00  0.00    -0.420 NA 
HETATM    9  H   UNL     1      -9.734  12.417  69.826  1.00  0.00     0.000 HD 
BRANCH   8  10
HETATM   10  C   UNL     1     -10.293  10.645  69.042  1.00  0.00    -0.218 A  
HETATM   11  S   UNL     1     -11.281   9.919  70.238  1.00  0.00    -0.320 SA 
HETATM   12  N   UNL     1      -9.686   9.786  68.244  1.00  0.00    -0.144 NA 
HETATM   13  C   UNL     1      -9.879   8.494  68.693  1.00  0.00    -0.170 A  
HETATM   14  C   UNL     1     -10.671   8.378  69.814  1.00  0.00    -0.211 A  
BRANCH  14  15
HETATM   15  C   UNL     1     -10.950   7.209  70.614  1.00  0.00    -0.258 C  
HETATM   16  O   UNL     1     -12.092   6.824  70.843  1.00  0.00    -0.377 OA 
HETATM   17  H   UNL     1      -8.916   7.071  70.994  1.00  0.00     0.000 HD 
HETATM   18  N   UNL     1      -9.813   6.604  71.126  1.00  0.00    -0.181 N  
BRANCH  18  19
HETATM   19  C   UNL     1      -9.830   5.382  71.816  1.00  0.00    -0.174 A  
HETATM   20  C   UNL     1      -9.769   2.966  71.772  1.00  0.00    -0.224 A  
HETATM   21  C   UNL     1      -9.709   4.135  69.573  1.00  0.00    -0.254 C  
HETATM   22  C   UNL     1      -9.777   4.186  71.075  1.00  0.00    -0.260 A  
HETATM   23  C   UNL     1      -9.834   2.934  73.166  1.00  0.00    -0.169 A  
HETATM   24  C   UNL     1      -9.948   4.115  73.888  1.00  0.00    -0.173 A  
HETATM   25  C   UNL     1      -9.956   5.338  73.220  1.00  0.00    -0.165 A  
HETATM   26 CL   UNL     1     -10.321   6.748  74.163  1.00  0.00    -0.388 Cl 
ENDBRANCH  18  19
ENDBRANCH  14  15
ENDBRANCH   8  10
ENDBRANCH   4   8
BRANCH   5  27
HETATM   27  N   UNL     1     -10.862  16.433  67.325  1.00  0.00    -0.251 NA 
HETATM   28  C   UNL     1     -10.381  17.106  66.100  1.00  0.00    -0.322 C  
HETATM   29  C   UNL     1     -10.169  16.884  68.541  1.00  0.00    -0.310 C  
HETATM   30  N   UNL     1      -9.813  19.197  67.437  1.00  0.00    -0.317 NA 
HETATM   31  C   UNL     1     -10.514  18.633  66.261  1.00  0.00    -0.424 C  
HETATM   32  C   UNL     1     -10.260  18.433  68.641  1.00  0.00    -0.339 C  
BRANCH  30  33
HETATM   33  C   UNL     1      -8.339  19.146  67.311  1.00  0.00    -0.277 C  
BRANCH  33  34
HETATM   34  C   UNL     1      -7.811  19.757  66.001  1.00  0.00    -0.336 C  
HETATM   35  H   UNL     1      -6.742  19.170  64.450  1.00  0.00     0.000 HD 
HETATM   36  O   UNL     1      -7.068  18.793  65.259  1.00  0.00    -0.503 OA 
ENDBRANCH  33  34
ENDBRANCH  30  33
ENDBRANCH   5  27
TORSDOF 7
ENDMDL
MODEL       29
REMARK 921   NORMALIZED FREE ENERGY PREDICTED BY IDOCK:   -7.17 KCAL/MOL
REMARK 922        TOTAL FREE ENERGY PREDICTED BY IDOCK:  -10.49 KCAL/MOL
REMARK 923 INTER-LIGAND FREE ENERGY PREDICTED BY IDOCK:   -9.97 KCAL/MOL
REMARK 924 INTRA-LIGAND FREE ENERGY PREDICTED BY IDOCK:   -0.52 KCAL/MOL
REMARK 927      BINDING AFFINITY PREDICTED BY RF-SCORE:    0.00 PKD
ROOT
HETATM    1  C   UNL     1     -12.578  15.304  71.211  1.00  0.00    -0.449 C  
HETATM    2  C   UNL     1     -11.961  15.395  69.851  1.00  0.00    -0.359 A  
HETATM    3  N   UNL     1     -12.153  14.357  69.019  1.00  0.00    -0.297 NA 
HETATM    4  C   UNL     1     -11.710  14.506  67.766  1.00  0.00    -0.374 A  
HETATM    5  C   UNL     1     -10.857  16.658  68.279  1.00  0.00    -0.356 A  
HETATM    6  C   UNL     1     -11.131  15.677  67.350  1.00  0.00    -0.260 A  
HETATM    7  N   UNL     1     -11.305  16.530  69.539  1.00  0.00    -0.181 NA 
ENDROOT
BRANCH   4   8
HETATM    8  N   UNL     1     -11.897  13.428  66.907  1.00  0.00    -0.390 NA 
HETATM    9  H   UNL     1     -12.413  13.624  66.050  1.00  0.00     0.000 HD 
BRANCH   8  10
HETATM   10  C   UNL     1     -11.479  12.156  67.069  1.00  0.00    -0.350 A  
HETATM   11  S   UNL     1     -11.881  11.375  68.540  1.00  0.00    -0.236 SA 
HETATM   12  N   UNL     1     -10.773  11.415  66.237  1.00  0.00    -0.268 NA 
HETATM   13  C   UNL     1     -10.393  10.235  66.846  1.00  0.00    -0.239 A  
HETATM   14  C   UNL     1     -10.852  10.070  68.134  1.00  0.00    -0.255 A  
BRANCH  14  15
HETATM   15  C   UNL     1     -10.525   9.040  69.092  1.00  0.00    -0.225 C  
HETATM   16  O   UNL     1     -10.302   7.880  68.761  1.00  0.00    -0.203 OA 
HETATM   17  H   UNL     1     -10.861  10.429  70.595  1.00  0.00     0.000 HD 
HETATM   18  N   UNL     1     -10.534   9.482  70.406  1.00  0.00    -0.256 N  
BRANCH  18  19
HETATM   19  C   UNL     1     -10.115   8.695  71.490  1.00  0.00    -0.274 A  
HETATM   20  C   UNL     1     -10.667   7.332  73.407  1.00  0.00    -0.415 A  
HETATM   21  C   UNL     1     -12.570   8.344  72.159  1.00  0.00    -0.412 C  
HETATM   22  C   UNL     1     -11.090   8.140  72.339  1.00  0.00    -0.437 A  
HETATM   23  C   UNL     1      -9.310   7.101  73.640  1.00  0.00    -0.252 A  
HETATM   24  C   UNL     1      -8.350   7.702  72.836  1.00  0.00    -0.176 A  
HETATM   25  C   UNL     1      -8.745   8.506  71.768  1.00  0.00    -0.201 A  
HETATM   26 CL   UNL     1      -7.500   9.394  70.949  1.00  0.00    -0.128 Cl 
ENDBRANCH  18  19
ENDBRANCH  14  15
ENDBRANCH   8  10
ENDBRANCH   4   8
BRANCH   5  27
HETATM   27  N   UNL     1     -10.154  17.798  67.871  1.00  0.00    -0.324 NA 
HETATM   28  C   UNL     1     -10.243  18.112  66.429  1.00  0.00    -0.399 C  
HETATM   29  C   UNL     1      -8.793  17.939  68.409  1.00  0.00    -0.289 C  
HETATM   30  N   UNL     1      -8.322  19.769  66.641  1.00  0.00    -0.311 NA 
HETATM   31  C   UNL     1      -9.707  19.534  66.173  1.00  0.00    -0.387 C  
HETATM   32  C   UNL     1      -8.252  19.358  68.076  1.00  0.00    -0.318 C  
BRANCH  30  33
HETATM   33  C   UNL     1      -7.311  19.038  65.845  1.00  0.00    -0.239 C  
BRANCH  33  34
HETATM   34  C   UNL     1      -6.448  19.951  64.955  1.00  0.00    -0.284 C  
HETATM   35  H   UNL     1      -5.545  19.844  63.205  1.00  0.00     0.000 HD 
HETATM   36  O   UNL     1      -6.077  19.281  63.754  1.00  0.00    -0.422 OA 
ENDBRANCH  33  34
ENDBRANCH  30  33
ENDBRANCH   5  27
TORSDOF 7
ENDMDL
MODEL       30
REMARK 921   NORMALIZED FREE ENERGY PREDICTED BY IDOCK:   -7.15 KCAL/MOL
REMARK 922        TOTAL FREE ENERGY PREDICTED BY IDOCK:  -10.46 KCAL/MOL
REMARK 923 INTER-LIGAND FREE ENERGY PREDICTED BY IDOCK:   -9.55 KCAL/MOL
REMARK 924 INTRA-LIGAND FREE ENERGY PREDICTED BY IDOCK:   -0.91 KCAL/MOL
REMARK 927      BINDING AFFINITY PREDICTED BY RF-SCORE:    0.00 PKD
ROOT
HETATM    1  C   UNL     1     -11.619  12.824  63.615  1.00  0.00    -0.572 C  
HETATM    2  C   UNL     1     -11.457  13.095  65.078  1.00  0.00    -0.308 A  
HETATM    3  N   UNL     1     -11.955  12.182  65.930  1.00  0.00    -0.571 NA 
HETATM    4  C   UNL     1     -11.690  12.369  67.228  1.00  0.00    -0.349 A  
HETATM    5  C   UNL     1     -10.531  14.380  66.744  1.00  0.00    -0.273 A  
HETATM    6  C   UNL     1     -10.913  13.415  67.652  1.00  0.00    -0.277 A  
HETATM    7  N   UNL     1     -10.778  14.202  65.436  1.00  0.00    -0.322 NA 
ENDROOT
BRANCH   4   8
HETATM    8  N   UNL     1     -12.215  11.433  68.111  1.00  0.00    -0.523 NA 
HETATM    9  H   UNL     1     -13.210  11.231  68.009  1.00  0.00     0.000 HD 
BRANCH   8  10
HETATM   10  C   UNL     1     -11.572  10.760  69.088  1.00  0.00    -0.305 A  
HETATM   11  S   UNL     1     -10.579   9.446  68.616  1.00  0.00    -0.169 SA 
HETATM   12  N   UNL     1     -11.614  10.969  70.390  1.00  0.00    -0.312 NA 
HETATM   13  C   UNL     1     -10.964   9.952  71.062  1.00  0.00    -0.290 A  
HETATM   14  C   UNL     1     -10.393   8.992  70.256  1.00  0.00    -0.209 A  
BRANCH  14  15
HETATM   15  C   UNL     1      -9.777   7.741  70.627  1.00  0.00    -0.177 C  
HETATM   16  O   UNL     1      -8.560   7.601  70.699  1.00  0.00    -0.132 OA 
HETATM   17  H   UNL     1     -11.669   6.892  70.634  1.00  0.00     0.000 HD 
HETATM   18  N   UNL     1     -10.687   6.719  70.847  1.00  0.00    -0.228 N  
BRANCH  18  19
HETATM   19  C   UNL     1     -10.329   5.458  71.349  1.00  0.00    -0.228 A  
HETATM   20  C   UNL     1      -9.943   4.003  73.240  1.00  0.00    -0.190 A  
HETATM   21  C   UNL     1     -10.579   6.359  73.741  1.00  0.00    -0.271 C  
HETATM   22  C   UNL     1     -10.277   5.274  72.743  1.00  0.00    -0.228 A  
HETATM   23  C   UNL     1      -9.645   2.949  72.374  1.00  0.00    -0.192 A  
HETATM   24  C   UNL     1      -9.638   3.152  71.001  1.00  0.00    -0.228 A  
HETATM   25  C   UNL     1      -9.968   4.404  70.483  1.00  0.00    -0.185 A  
HETATM   26 CL   UNL     1      -9.725   4.642  68.782  1.00  0.00    -0.235 Cl 
ENDBRANCH  18  19
ENDBRANCH  14  15
ENDBRANCH   8  10
ENDBRANCH   4   8
BRANCH   5  27
HETATM   27  N   UNL     1      -9.843  15.509  67.206  1.00  0.00    -0.223 NA 
HETATM   28  C   UNL     1     -10.685  16.693  67.478  1.00  0.00    -0.278 C  
HETATM   29  C   UNL     1      -8.598  15.837  66.494  1.00  0.00    -0.308 C  
HETATM   30  N   UNL     1      -8.616  18.170  67.613  1.00  0.00    -0.249 NA 
HETATM   31  C   UNL     1      -9.873  17.738  68.267  1.00  0.00    -0.340 C  
HETATM   32  C   UNL     1      -7.834  16.942  67.276  1.00  0.00    -0.178 C  
BRANCH  30  33
HETATM   33  C   UNL     1      -8.846  18.985  66.399  1.00  0.00    -0.321 C  
BRANCH  33  34
HETATM   34  C   UNL     1     -10.006  19.987  66.540  1.00  0.00    -0.479 C  
HETATM   35  H   UNL     1     -11.583  20.543  65.493  1.00  0.00     0.000 HD 
HETATM   36  O   UNL     1     -10.867  19.924  65.406  1.00  0.00    -0.398 OA 
ENDBRANCH  33  34
ENDBRANCH  30  33
ENDBRANCH   5  27
TORSDOF 7
ENDMDL
MODEL       31
REMARK 921   NORMALIZED FREE ENERGY PREDICTED BY IDOCK:   -7.12 KCAL/MOL
REMARK 922        TOTAL FREE ENERGY PREDICTED BY IDOCK:  -10.41 KCAL/MOL
REMARK 923 INTER-LIGAND FREE ENERGY PREDICTED BY IDOCK:   -9.48 KCAL/MOL
REMARK 924 INTRA-LIGAND FREE ENERGY PREDICTED BY IDOCK:   -0.93 KCAL/MOL
REMARK 927      BINDING AFFINITY PREDICTED BY RF-SCORE:    0.00 PKD
ROOT
HETATM    1  C   UNL     1     -12.580  15.426  71.953  1.00  0.00    -0.455 C  
HETATM    2  C   UNL     1     -11.979  15.545  70.588  1.00  0.00    -0.378 A  
HETATM    3  N   UNL     1     -12.343  14.628  69.675  1.00  0.00    -0.271 NA 
HETATM    4  C   UNL     1     -11.903  14.820  68.427  1.00  0.00    -0.286 A  
HETATM    5  C   UNL     1     -10.718  16.761  69.098  1.00  0.00    -0.329 A  
HETATM    6  C   UNL     1     -11.156  15.921  68.097  1.00  0.00    -0.338 A  
HETATM    7  N   UNL     1     -11.160  16.590  70.355  1.00  0.00    -0.254 NA 
ENDROOT
BRANCH   4   8
HETATM    8  N   UNL     1     -12.268  13.865  67.484  1.00  0.00    -0.494 NA 
HETATM    9  H   UNL     1     -13.099  14.077  66.932  1.00  0.00     0.000 HD 
BRANCH   8  10
HETATM   10  C   UNL     1     -11.658  12.694  67.209  1.00  0.00    -0.364 A  
HETATM   11  S   UNL     1     -11.841  11.424  68.346  1.00  0.00    -0.209 SA 
HETATM   12  N   UNL     1     -10.909  12.386  66.168  1.00  0.00    -0.265 NA 
HETATM   13  C   UNL     1     -10.320  11.150  66.347  1.00  0.00    -0.252 A  
HETATM   14  C   UNL     1     -10.661  10.505  67.515  1.00  0.00    -0.276 A  
BRANCH  14  15
HETATM   15  C   UNL     1     -10.123   9.287  68.073  1.00  0.00    -0.193 C  
HETATM   16  O   UNL     1      -9.000   8.877  67.798  1.00  0.00    -0.134 OA 
HETATM   17  H   UNL     1     -11.967   8.964  68.966  1.00  0.00     0.000 HD 
HETATM   18  N   UNL     1     -11.010   8.618  68.902  1.00  0.00     0.024 N  
BRANCH  18  19
HETATM   19  C   UNL     1     -10.660   7.490  69.660  1.00  0.00    -0.239 A  
HETATM   20  C   UNL     1      -9.920   6.537  71.754  1.00  0.00    -0.192 A  
HETATM   21  C   UNL     1     -10.146   9.016  71.661  1.00  0.00    -0.405 C  
HETATM   22  C   UNL     1     -10.245   7.672  70.992  1.00  0.00    -0.200 A  
HETATM   23  C   UNL     1      -9.983   5.257  71.200  1.00  0.00    -0.265 A  
HETATM   24  C   UNL     1     -10.334   5.088  69.867  1.00  0.00    -0.298 A  
HETATM   25  C   UNL     1     -10.663   6.199  69.091  1.00  0.00    -0.316 A  
HETATM   26 CL   UNL     1     -10.874   5.936  67.389  1.00  0.00    -0.361 Cl 
ENDBRANCH  18  19
ENDBRANCH  14  15
ENDBRANCH   8  10
ENDBRANCH   4   8
BRANCH   5  27
HETATM   27  N   UNL     1      -9.854  17.813  68.770  1.00  0.00    -0.346 NA 
HETATM   28  C   UNL     1     -10.422  18.838  67.869  1.00  0.00    -0.389 C  
HETATM   29  C   UNL     1      -8.481  17.427  68.412  1.00  0.00    -0.263 C  
HETATM   30  N   UNL     1      -8.102  19.800  67.453  1.00  0.00    -0.287 NA 
HETATM   31  C   UNL     1      -9.504  20.075  67.845  1.00  0.00    -0.351 C  
HETATM   32  C   UNL     1      -7.593  18.700  68.327  1.00  0.00    -0.284 C  
BRANCH  30  33
HETATM   33  C   UNL     1      -7.962  19.432  66.026  1.00  0.00    -0.269 C  
BRANCH  33  34
HETATM   34  C   UNL     1      -6.639  19.900  65.395  1.00  0.00    -0.280 C  
HETATM   35  H   UNL     1      -5.459  21.478  65.492  1.00  0.00     0.000 HD 
HETATM   36  O   UNL     1      -6.276  21.189  65.881  1.00  0.00    -0.258 OA 
ENDBRANCH  33  34
ENDBRANCH  30  33
ENDBRANCH   5  27
TORSDOF 7
ENDMDL
MODEL       32
REMARK 921   NORMALIZED FREE ENERGY PREDICTED BY IDOCK:   -7.07 KCAL/MOL
REMARK 922        TOTAL FREE ENERGY PREDICTED BY IDOCK:  -10.34 KCAL/MOL
REMARK 923 INTER-LIGAND FREE ENERGY PREDICTED BY IDOCK:   -9.29 KCAL/MOL
REMARK 924 INTRA-LIGAND FREE ENERGY PREDICTED BY IDOCK:   -1.05 KCAL/MOL
REMARK 927      BINDING AFFINITY PREDICTED BY RF-SCORE:    0.00 PKD
ROOT
HETATM    1  C   UNL     1      -7.143   7.961  66.817  1.00  0.00    -0.077 C  
HETATM    2  C   UNL     1      -8.430   8.631  67.183  1.00  0.00    -0.114 A  
HETATM    3  N   UNL     1      -8.916   9.538  66.319  1.00  0.00    -0.151 NA 
HETATM    4  C   UNL     1     -10.128  10.033  66.591  1.00  0.00    -0.227 A  
HETATM    5  C   UNL     1     -10.248   8.755  68.585  1.00  0.00    -0.194 A  
HETATM    6  C   UNL     1     -10.848   9.598  67.674  1.00  0.00    -0.276 A  
HETATM    7  N   UNL     1      -9.036   8.240  68.321  1.00  0.00    -0.136 NA 
ENDROOT
BRANCH   4   8
HETATM    8  N   UNL     1     -10.627  10.982  65.705  1.00  0.00    -0.228 NA 
HETATM    9  H   UNL     1     -10.698  10.689  64.731  1.00  0.00     0.000 HD 
BRANCH   8  10
HETATM   10  C   UNL     1     -11.029  12.240  65.976  1.00  0.00    -0.292 A  
HETATM   11  S   UNL     1      -9.812  13.421  66.223  1.00  0.00    -0.277 SA 
HETATM   12  N   UNL     1     -12.261  12.698  66.095  1.00  0.00    -0.586 NA 
HETATM   13  C   UNL     1     -12.249  13.999  66.559  1.00  0.00    -0.451 A  
HETATM   14  C   UNL     1     -10.996  14.538  66.751  1.00  0.00    -0.316 A  
BRANCH  14  15
HETATM   15  C   UNL     1     -10.630  15.797  67.354  1.00  0.00    -0.313 C  
HETATM   16  O   UNL     1     -11.286  16.313  68.253  1.00  0.00    -0.352 OA 
HETATM   17  H   UNL     1      -9.101  15.940  65.959  1.00  0.00     0.000 HD 
HETATM   18  N   UNL     1      -9.503  16.375  66.790  1.00  0.00    -0.236 N  
BRANCH  18  19
HETATM   19  C   UNL     1      -8.885  17.526  67.301  1.00  0.00    -0.231 A  
HETATM   20  C   UNL     1      -7.322  18.540  68.841  1.00  0.00    -0.289 A  
HETATM   21  C   UNL     1      -7.586  16.066  68.968  1.00  0.00    -0.209 C  
HETATM   22  C   UNL     1      -7.957  17.387  68.350  1.00  0.00    -0.259 A  
HETATM   23  C   UNL     1      -7.619  19.801  68.320  1.00  0.00    -0.338 A  
HETATM   24  C   UNL     1      -8.581  19.939  67.328  1.00  0.00    -0.384 A  
HETATM   25  C   UNL     1      -9.222  18.810  66.822  1.00  0.00    -0.315 A  
HETATM   26 CL   UNL     1     -10.560  19.078  65.750  1.00  0.00    -0.491 Cl 
ENDBRANCH  18  19
ENDBRANCH  14  15
ENDBRANCH   8  10
ENDBRANCH   4   8
BRANCH   5  27
HETATM   27  N   UNL     1     -10.943   8.413  69.751  1.00  0.00    -0.182 NA 
HETATM   28  C   UNL     1     -10.850   9.396  70.852  1.00  0.00    -0.322 C  
HETATM   29  C   UNL     1     -10.791   7.023  70.205  1.00  0.00    -0.256 C  
HETATM   30  N   UNL     1     -11.801   7.694  72.490  1.00  0.00    -0.295 NA 
HETATM   31  C   UNL     1     -11.896   9.064  71.934  1.00  0.00    -0.376 C  
HETATM   32  C   UNL     1     -11.810   6.737  71.343  1.00  0.00    -0.338 C  
BRANCH  30  33
HETATM   33  C   UNL     1     -10.595   7.491  73.323  1.00  0.00    -0.384 C  
BRANCH  33  34
HETATM   34  C   UNL     1     -10.466   6.064  73.883  1.00  0.00    -0.272 C  
HETATM   35  H   UNL     1      -9.048   4.708  74.099  1.00  0.00     0.000 HD 
HETATM   36  O   UNL     1      -9.128   5.590  73.753  1.00  0.00    -0.124 OA 
ENDBRANCH  33  34
ENDBRANCH  30  33
ENDBRANCH   5  27
TORSDOF 7
ENDMDL
MODEL       33
REMARK 921   NORMALIZED FREE ENERGY PREDICTED BY IDOCK:   -7.02 KCAL/MOL
REMARK 922        TOTAL FREE ENERGY PREDICTED BY IDOCK:  -10.27 KCAL/MOL
REMARK 923 INTER-LIGAND FREE ENERGY PREDICTED BY IDOCK:   -9.50 KCAL/MOL
REMARK 924 INTRA-LIGAND FREE ENERGY PREDICTED BY IDOCK:   -0.77 KCAL/MOL
REMARK 927      BINDING AFFINITY PREDICTED BY RF-SCORE:    0.00 PKD
ROOT
HETATM    1  C   UNL     1     -11.818  12.029  65.629  1.00  0.00    -0.242 C  
HETATM    2  C   UNL     1     -11.459  12.881  66.806  1.00  0.00    -0.340 A  
HETATM    3  N   UNL     1     -12.013  12.559  67.988  1.00  0.00    -0.363 NA 
HETATM    4  C   UNL     1     -11.585  13.243  69.054  1.00  0.00    -0.312 A  
HETATM    5  C   UNL     1     -10.159  14.558  67.691  1.00  0.00    -0.228 A  
HETATM    6  C   UNL     1     -10.601  14.192  68.944  1.00  0.00    -0.249 A  
HETATM    7  N   UNL     1     -10.569  13.873  66.610  1.00  0.00    -0.273 NA 
ENDROOT
BRANCH   4   8
HETATM    8  N   UNL     1     -12.166  12.921  70.275  1.00  0.00    -0.326 NA 
HETATM    9  H   UNL     1     -12.524  13.705  70.821  1.00  0.00     0.000 HD 
BRANCH   8  10
HETATM   10  C   UNL     1     -12.314  11.699  70.827  1.00  0.00    -0.358 A  
HETATM   11  S   UNL     1     -11.261  10.458  70.291  1.00  0.00    -0.316 SA 
HETATM   12  N   UNL     1     -13.189  11.312  71.736  1.00  0.00    -0.436 NA 
HETATM   13  C   UNL     1     -13.137   9.942  71.903  1.00  0.00    -0.459 A  
HETATM   14  C   UNL     1     -12.186   9.298  71.143  1.00  0.00    -0.301 A  
BRANCH  14  15
HETATM   15  C   UNL     1     -11.966   7.882  70.968  1.00  0.00    -0.252 C  
HETATM   16  O   UNL     1     -12.827   7.046  71.223  1.00  0.00    -0.377 OA 
HETATM   17  H   UNL     1     -10.000   8.319  70.475  1.00  0.00     0.000 HD 
HETATM   18  N   UNL     1     -10.688   7.569  70.532  1.00  0.00    -0.230 N  
BRANCH  18  19
HETATM   19  C   UNL     1     -10.292   6.274  70.165  1.00  0.00    -0.205 A  
HETATM   20  C   UNL     1     -10.001   4.593  68.452  1.00  0.00    -0.134 A  
HETATM   21  C   UNL     1     -10.975   6.772  67.740  1.00  0.00    -0.321 C  
HETATM   22  C   UNL     1     -10.424   5.882  68.820  1.00  0.00    -0.314 A  
HETATM   23  C   UNL     1      -9.483   3.709  69.400  1.00  0.00    -0.249 A  
HETATM   24  C   UNL     1      -9.412   4.079  70.737  1.00  0.00    -0.240 A  
HETATM   25  C   UNL     1      -9.823   5.353  71.126  1.00  0.00    -0.185 A  
HETATM   26 CL   UNL     1      -9.913   5.666  72.830  1.00  0.00    -0.190 Cl 
ENDBRANCH  18  19
ENDBRANCH  14  15
ENDBRANCH   8  10
ENDBRANCH   4   8
BRANCH   5  27
HETATM   27  N   UNL     1      -9.245  15.613  67.577  1.00  0.00    -0.199 NA 
HETATM   28  C   UNL     1      -9.529  16.788  68.427  1.00  0.00    -0.241 C  
HETATM   29  C   UNL     1      -8.849  15.974  66.207  1.00  0.00    -0.344 C  
HETATM   30  N   UNL     1      -7.848  18.180  67.116  1.00  0.00    -0.215 NA 
HETATM   31  C   UNL     1      -8.303  17.722  68.449  1.00  0.00    -0.295 C  
HETATM   32  C   UNL     1      -7.657  16.970  66.261  1.00  0.00    -0.305 C  
BRANCH  30  33
HETATM   33  C   UNL     1      -8.794  19.121  66.474  1.00  0.00    -0.334 C  
BRANCH  33  34
HETATM   34  C   UNL     1      -8.904  20.474  67.199  1.00  0.00    -0.284 C  
HETATM   35  H   UNL     1      -7.703  21.951  67.713  1.00  0.00     0.000 HD 
HETATM   36  O   UNL     1      -7.634  21.116  67.266  1.00  0.00    -0.383 OA 
ENDBRANCH  33  34
ENDBRANCH  30  33
ENDBRANCH   5  27
TORSDOF 7
ENDMDL
MODEL       34
REMARK 921   NORMALIZED FREE ENERGY PREDICTED BY IDOCK:   -7.01 KCAL/MOL
REMARK 922        TOTAL FREE ENERGY PREDICTED BY IDOCK:  -10.26 KCAL/MOL
REMARK 923 INTER-LIGAND FREE ENERGY PREDICTED BY IDOCK:   -9.29 KCAL/MOL
REMARK 924 INTRA-LIGAND FREE ENERGY PREDICTED BY IDOCK:   -0.97 KCAL/MOL
REMARK 927      BINDING AFFINITY PREDICTED BY RF-SCORE:    0.00 PKD
ROOT
HETATM    1  C   UNL     1      -8.714   8.299  65.763  1.00  0.00    -0.196 C  
HETATM    2  C   UNL     1      -9.358   8.797  67.019  1.00  0.00    -0.157 A  
HETATM    3  N   UNL     1     -10.293   9.754  66.890  1.00  0.00    -0.240 NA 
HETATM    4  C   UNL     1     -10.954  10.097  68.001  1.00  0.00    -0.270 A  
HETATM    5  C   UNL     1      -9.662   8.581  69.287  1.00  0.00    -0.173 A  
HETATM    6  C   UNL     1     -10.712   9.469  69.195  1.00  0.00    -0.228 A  
HETATM    7  N   UNL     1      -8.996   8.216  68.179  1.00  0.00    -0.135 NA 
ENDROOT
BRANCH   4   8
HETATM    8  N   UNL     1     -11.912  11.096  67.872  1.00  0.00    -0.680 NA 
HETATM    9  H   UNL     1     -12.868  10.832  68.115  1.00  0.00     0.000 HD 
BRANCH   8  10
HETATM   10  C   UNL     1     -11.735  12.370  67.467  1.00  0.00    -0.357 A  
HETATM   11  S   UNL     1     -10.691  13.357  68.401  1.00  0.00    -0.261 SA 
HETATM   12  N   UNL     1     -12.278  12.982  66.432  1.00  0.00    -0.435 NA 
HETATM   13  C   UNL     1     -11.988  14.333  66.465  1.00  0.00    -0.427 A  
HETATM   14  C   UNL     1     -11.186  14.732  67.511  1.00  0.00    -0.332 A  
BRANCH  14  15
HETATM   15  C   UNL     1     -10.819  16.067  67.918  1.00  0.00    -0.333 C  
HETATM   16  O   UNL     1     -11.392  16.659  68.827  1.00  0.00    -0.274 OA 
HETATM   17  H   UNL     1      -9.475  16.103  66.339  1.00  0.00     0.000 HD 
HETATM   18  N   UNL     1      -9.799  16.618  67.159  1.00  0.00    -0.251 N  
BRANCH  18  19
HETATM   19  C   UNL     1      -9.187  17.845  67.457  1.00  0.00    -0.249 A  
HETATM   20  C   UNL     1      -9.041  20.233  67.121  1.00  0.00    -0.499 A  
HETATM   21  C   UNL     1     -10.745  19.009  65.780  1.00  0.00    -0.350 C  
HETATM   22  C   UNL     1      -9.639  19.004  66.799  1.00  0.00    -0.374 A  
HETATM   23  C   UNL     1      -8.005  20.307  68.054  1.00  0.00    -0.172 A  
HETATM   24  C   UNL     1      -7.521  19.151  68.654  1.00  0.00    -0.370 A  
HETATM   25  C   UNL     1      -8.100  17.920  68.354  1.00  0.00    -0.299 A  
HETATM   26 CL   UNL     1      -7.305  16.505  68.968  1.00  0.00    -0.220 Cl 
ENDBRANCH  18  19
ENDBRANCH  14  15
ENDBRANCH   8  10
ENDBRANCH   4   8
BRANCH   5  27
HETATM   27  N   UNL     1      -9.343   8.037  70.538  1.00  0.00    -0.154 NA 
HETATM   28  C   UNL     1      -9.543   6.578  70.660  1.00  0.00    -0.172 C  
HETATM   29  C   UNL     1      -9.829   8.786  71.706  1.00  0.00    -0.321 C  
HETATM   30  N   UNL     1      -9.320   6.730  73.192  1.00  0.00    -0.131 NA 
HETATM   31  C   UNL     1      -8.867   6.067  71.947  1.00  0.00    -0.138 C  
HETATM   32  C   UNL     1      -9.184   8.205  72.996  1.00  0.00    -0.273 C  
BRANCH  30  33
HETATM   33  C   UNL     1     -10.712   6.384  73.557  1.00  0.00    -0.244 C  
BRANCH  33  34
HETATM   34  C   UNL     1     -11.038   4.888  73.395  1.00  0.00    -0.342 C  
HETATM   35  H   UNL     1     -10.748   3.218  74.404  1.00  0.00     0.000 HD 
HETATM   36  O   UNL     1     -10.547   4.141  74.504  1.00  0.00    -0.233 OA 
ENDBRANCH  33  34
ENDBRANCH  30  33
ENDBRANCH   5  27
TORSDOF 7
ENDMDL
MODEL       35
REMARK 921   NORMALIZED FREE ENERGY PREDICTED BY IDOCK:   -6.99 KCAL/MOL
REMARK 922        TOTAL FREE ENERGY PREDICTED BY IDOCK:  -10.23 KCAL/MOL
REMARK 923 INTER-LIGAND FREE ENERGY PREDICTED BY IDOCK:   -9.13 KCAL/MOL
REMARK 924 INTRA-LIGAND FREE ENERGY PREDICTED BY IDOCK:   -1.11 KCAL/MOL
REMARK 927      BINDING AFFINITY PREDICTED BY RF-SCORE:    0.00 PKD
ROOT
HETATM    1  C   UNL     1      -6.969   8.004  66.642  1.00  0.00    -0.072 C  
HETATM    2  C   UNL     1      -8.255   8.651  67.049  1.00  0.00    -0.106 A  
HETATM    3  N   UNL     1      -8.762   9.582  66.222  1.00  0.00    -0.140 NA 
HETATM    4  C   UNL     1      -9.974  10.057  66.529  1.00  0.00    -0.225 A  
HETATM    5  C   UNL     1     -10.051   8.716  68.483  1.00  0.00    -0.190 A  
HETATM    6  C   UNL     1     -10.672   9.582  67.609  1.00  0.00    -0.314 A  
HETATM    7  N   UNL     1      -8.839   8.219  68.184  1.00  0.00    -0.139 NA 
ENDROOT
BRANCH   4   8
HETATM    8  N   UNL     1     -10.495  11.029  65.682  1.00  0.00    -0.249 NA 
HETATM    9  H   UNL     1     -10.536  10.784  64.693  1.00  0.00     0.000 HD 
BRANCH   8  10
HETATM   10  C   UNL     1     -10.952  12.256  66.008  1.00  0.00    -0.292 A  
HETATM   11  S   UNL     1      -9.789  13.485  66.277  1.00  0.00    -0.286 SA 
HETATM   12  N   UNL     1     -12.202  12.647  66.166  1.00  0.00    -0.586 NA 
HETATM   13  C   UNL     1     -12.244  13.929  66.678  1.00  0.00    -0.424 A  
HETATM   14  C   UNL     1     -11.015  14.522  66.868  1.00  0.00    -0.316 A  
BRANCH  14  15
HETATM   15  C   UNL     1     -10.699  15.774  67.511  1.00  0.00    -0.317 C  
HETATM   16  O   UNL     1     -11.339  16.205  68.465  1.00  0.00    -0.359 OA 
HETATM   17  H   UNL     1      -9.257  16.079  66.052  1.00  0.00     0.000 HD 
HETATM   18  N   UNL     1      -9.642  16.450  66.921  1.00  0.00    -0.237 N  
BRANCH  18  19
HETATM   19  C   UNL     1      -9.073  17.615  67.456  1.00  0.00    -0.239 A  
HETATM   20  C   UNL     1      -8.992  20.028  67.572  1.00  0.00    -0.437 A  
HETATM   21  C   UNL     1     -10.635  19.030  65.988  1.00  0.00    -0.499 C  
HETATM   22  C   UNL     1      -9.547  18.865  67.014  1.00  0.00    -0.348 A  
HETATM   23  C   UNL     1      -7.976  19.953  68.527  1.00  0.00    -0.220 A  
HETATM   24  C   UNL     1      -7.469  18.720  68.913  1.00  0.00    -0.321 A  
HETATM   25  C   UNL     1      -8.005  17.551  68.376  1.00  0.00    -0.261 A  
HETATM   26 CL   UNL     1      -7.180  16.067  68.736  1.00  0.00    -0.146 Cl 
ENDBRANCH  18  19
ENDBRANCH  14  15
ENDBRANCH   8  10
ENDBRANCH   4   8
BRANCH   5  27
HETATM   27  N   UNL     1     -10.725   8.331  69.649  1.00  0.00    -0.221 NA 
HETATM   28  C   UNL     1     -10.784   9.358  70.711  1.00  0.00    -0.305 C  
HETATM   29  C   UNL     1     -10.407   6.989  70.160  1.00  0.00    -0.197 C  
HETATM   30  N   UNL     1     -11.549   7.611  72.398  1.00  0.00    -0.326 NA 
HETATM   31  C   UNL     1     -11.805   8.935  71.785  1.00  0.00    -0.358 C  
HETATM   32  C   UNL     1     -11.409   6.618  71.289  1.00  0.00    -0.299 C  
BRANCH  30  33
HETATM   33  C   UNL     1     -10.347   7.595  73.260  1.00  0.00    -0.345 C  
BRANCH  33  34
HETATM   34  C   UNL     1     -10.031   6.210  73.852  1.00  0.00    -0.227 C  
HETATM   35  H   UNL     1      -8.450   5.053  74.084  1.00  0.00     0.000 HD 
HETATM   36  O   UNL     1      -8.645   5.908  73.719  1.00  0.00    -0.121 OA 
ENDBRANCH  33  34
ENDBRANCH  30  33
ENDBRANCH   5  27
TORSDOF 7
ENDMDL
MODEL       36
REMARK 921   NORMALIZED FREE ENERGY PREDICTED BY IDOCK:   -6.99 KCAL/MOL
REMARK 922        TOTAL FREE ENERGY PREDICTED BY IDOCK:  -10.23 KCAL/MOL
REMARK 923 INTER-LIGAND FREE ENERGY PREDICTED BY IDOCK:   -9.57 KCAL/MOL
REMARK 924 INTRA-LIGAND FREE ENERGY PREDICTED BY IDOCK:   -0.66 KCAL/MOL
REMARK 927      BINDING AFFINITY PREDICTED BY RF-SCORE:    0.00 PKD
ROOT
HETATM    1  C   UNL     1      -9.919  18.066  67.889  1.00  0.00    -0.335 C  
HETATM    2  C   UNL     1     -10.662  16.775  68.028  1.00  0.00    -0.355 A  
HETATM    3  N   UNL     1     -11.160  16.483  69.242  1.00  0.00    -0.293 NA 
HETATM    4  C   UNL     1     -11.932  15.393  69.324  1.00  0.00    -0.310 A  
HETATM    5  C   UNL     1     -11.594  14.929  67.025  1.00  0.00    -0.304 A  
HETATM    6  C   UNL     1     -12.229  14.646  68.215  1.00  0.00    -0.112 A  
HETATM    7  N   UNL     1     -10.825  16.025  66.921  1.00  0.00    -0.258 NA 
ENDROOT
BRANCH   4   8
HETATM    8  N   UNL     1     -12.438  15.082  70.582  1.00  0.00    -0.339 NA 
HETATM    9  H   UNL     1     -12.707  15.876  71.164  1.00  0.00     0.000 HD 
BRANCH   8  10
HETATM   10  C   UNL     1     -12.617  13.861  71.126  1.00  0.00    -0.370 A  
HETATM   11  S   UNL     1     -11.811  12.542  70.387  1.00  0.00    -0.015 SA 
HETATM   12  N   UNL     1     -13.358  13.530  72.166  1.00  0.00    -0.466 NA 
HETATM   13  C   UNL     1     -13.424  12.156  72.293  1.00  0.00    -0.193 A  
HETATM   14  C   UNL     1     -12.692  11.449  71.364  1.00  0.00    -0.384 A  
BRANCH  14  15
HETATM   15  C   UNL     1     -12.657  10.026  71.125  1.00  0.00    -0.381 C  
HETATM   16  O   UNL     1     -13.666   9.329  71.153  1.00  0.00    -0.296 OA 
HETATM   17  H   UNL     1     -10.590  10.163  71.034  1.00  0.00     0.000 HD 
HETATM   18  N   UNL     1     -11.381   9.531  70.907  1.00  0.00    -0.312 N  
BRANCH  18  19
HETATM   19  C   UNL     1     -11.119   8.208  70.520  1.00  0.00    -0.253 A  
HETATM   20  C   UNL     1     -10.772   5.894  71.122  1.00  0.00    -0.328 A  
HETATM   21  C   UNL     1     -11.149   7.499  72.988  1.00  0.00    -0.413 C  
HETATM   22  C   UNL     1     -11.009   7.221  71.516  1.00  0.00    -0.259 A  
HETATM   23  C   UNL     1     -10.626   5.559  69.774  1.00  0.00    -0.388 A  
HETATM   24  C   UNL     1     -10.675   6.547  68.799  1.00  0.00    -0.320 A  
HETATM   25  C   UNL     1     -10.911   7.871  69.166  1.00  0.00    -0.038 A  
HETATM   26 CL   UNL     1     -10.739   9.074  67.927  1.00  0.00    -0.245 Cl 
ENDBRANCH  18  19
ENDBRANCH  14  15
ENDBRANCH   8  10
ENDBRANCH   4   8
BRANCH   5  27
HETATM   27  N   UNL     1     -11.807  14.086  65.927  1.00  0.00    -0.367 NA 
HETATM   28  C   UNL     1     -11.409  12.676  66.127  1.00  0.00    -0.330 C  
HETATM   29  C   UNL     1     -11.397  14.620  64.619  1.00  0.00    -0.369 C  
HETATM   30  N   UNL     1     -11.589  12.239  63.625  1.00  0.00    -0.460 NA 
HETATM   31  C   UNL     1     -11.980  11.809  64.988  1.00  0.00     0.049 C  
HETATM   32  C   UNL     1     -11.927  13.688  63.493  1.00  0.00    -0.249 C  
BRANCH  30  33
HETATM   33  C   UNL     1     -10.155  12.014  63.336  1.00  0.00    -0.408 C  
BRANCH  33  34
HETATM   34  C   UNL     1      -9.674  10.591  63.673  1.00  0.00    -0.318 C  
HETATM   35  H   UNL     1      -8.130   9.752  64.569  1.00  0.00     0.000 HD 
HETATM   36  O   UNL     1      -8.427  10.630  64.361  1.00  0.00    -0.157 OA 
ENDBRANCH  33  34
ENDBRANCH  30  33
ENDBRANCH   5  27
TORSDOF 7
ENDMDL
MODEL       37
REMARK 921   NORMALIZED FREE ENERGY PREDICTED BY IDOCK:   -6.99 KCAL/MOL
REMARK 922        TOTAL FREE ENERGY PREDICTED BY IDOCK:  -10.22 KCAL/MOL
REMARK 923 INTER-LIGAND FREE ENERGY PREDICTED BY IDOCK:   -9.68 KCAL/MOL
REMARK 924 INTRA-LIGAND FREE ENERGY PREDICTED BY IDOCK:   -0.55 KCAL/MOL
REMARK 927      BINDING AFFINITY PREDICTED BY RF-SCORE:    0.00 PKD
ROOT
HETATM    1  C   UNL     1     -13.872  15.791  72.809  1.00  0.00    -0.600 C  
HETATM    2  C   UNL     1     -13.174  14.944  71.792  1.00  0.00    -0.349 A  
HETATM    3  N   UNL     1     -13.125  13.621  72.026  1.00  0.00    -0.385 NA 
HETATM    4  C   UNL     1     -12.616  12.861  71.050  1.00  0.00    -0.287 A  
HETATM    5  C   UNL     1     -12.175  14.779  69.729  1.00  0.00    -0.294 A  
HETATM    6  C   UNL     1     -12.208  13.408  69.861  1.00  0.00    -0.337 A  
HETATM    7  N   UNL     1     -12.693  15.557  70.693  1.00  0.00    -0.457 NA 
ENDROOT
BRANCH   4   8
HETATM    8  N   UNL     1     -12.553  11.493  71.294  1.00  0.00    -0.377 NA 
HETATM    9  H   UNL     1     -13.204  11.134  71.992  1.00  0.00     0.000 HD 
BRANCH   8  10
HETATM   10  C   UNL     1     -11.737  10.584  70.722  1.00  0.00    -0.356 A  
HETATM   11  S   UNL     1     -11.793   8.982  71.327  1.00  0.00    -0.331 SA 
HETATM   12  N   UNL     1     -10.869  10.765  69.744  1.00  0.00    -0.250 NA 
HETATM   13  C   UNL     1     -10.098   9.633  69.570  1.00  0.00    -0.209 A  
HETATM   14  C   UNL     1     -10.416   8.577  70.396  1.00  0.00    -0.207 A  
BRANCH  14  15
HETATM   15  C   UNL     1      -9.727   7.322  70.574  1.00  0.00    -0.176 C  
HETATM   16  O   UNL     1      -8.528   7.258  70.822  1.00  0.00    -0.129 OA 
HETATM   17  H   UNL     1     -11.492   6.361  70.060  1.00  0.00     0.000 HD 
HETATM   18  N   UNL     1     -10.540   6.213  70.395  1.00  0.00    -0.237 N  
BRANCH  18  19
HETATM   19  C   UNL     1     -10.123   4.898  70.651  1.00  0.00    -0.236 A  
HETATM   20  C   UNL     1      -9.176   2.822  69.853  1.00  0.00    -0.209 A  
HETATM   21  C   UNL     1      -9.499   4.633  68.174  1.00  0.00    -0.195 C  
HETATM   22  C   UNL     1      -9.616   4.129  69.587  1.00  0.00    -0.277 A  
HETATM   23  C   UNL     1      -9.258   2.284  71.139  1.00  0.00    -0.188 A  
HETATM   24  C   UNL     1      -9.816   3.025  72.173  1.00  0.00    -0.239 A  
HETATM   25  C   UNL     1     -10.257   4.326  71.934  1.00  0.00    -0.130 A  
HETATM   26 CL   UNL     1     -11.138   5.106  73.209  1.00  0.00    -0.370 Cl 
ENDBRANCH  18  19
ENDBRANCH  14  15
ENDBRANCH   8  10
ENDBRANCH   4   8
BRANCH   5  27
HETATM   27  N   UNL     1     -11.641  15.334  68.559  1.00  0.00    -0.343 NA 
HETATM   28  C   UNL     1     -11.155  14.356  67.562  1.00  0.00    -0.302 C  
HETATM   29  C   UNL     1     -10.725  16.469  68.746  1.00  0.00    -0.339 C  
HETATM   30  N   UNL     1      -9.950  16.205  66.292  1.00  0.00    -0.296 NA 
HETATM   31  C   UNL     1     -10.897  15.068  66.220  1.00  0.00    -0.333 C  
HETATM   32  C   UNL     1     -10.428  17.125  67.368  1.00  0.00    -0.334 C  
BRANCH  30  33
HETATM   33  C   UNL     1      -8.557  15.782  66.555  1.00  0.00    -0.308 C  
BRANCH  33  34
HETATM   34  C   UNL     1      -7.544  16.940  66.518  1.00  0.00    -0.293 C  
HETATM   35  H   UNL     1      -5.585  17.161  66.591  1.00  0.00     0.000 HD 
HETATM   36  O   UNL     1      -6.210  16.447  66.613  1.00  0.00    -0.303 OA 
ENDBRANCH  33  34
ENDBRANCH  30  33
ENDBRANCH   5  27
TORSDOF 7
ENDMDL
MODEL       38
REMARK 921   NORMALIZED FREE ENERGY PREDICTED BY IDOCK:   -6.96 KCAL/MOL
REMARK 922        TOTAL FREE ENERGY PREDICTED BY IDOCK:  -10.18 KCAL/MOL
REMARK 923 INTER-LIGAND FREE ENERGY PREDICTED BY IDOCK:   -9.35 KCAL/MOL
REMARK 924 INTRA-LIGAND FREE ENERGY PREDICTED BY IDOCK:   -0.83 KCAL/MOL
REMARK 927      BINDING AFFINITY PREDICTED BY RF-SCORE:    0.00 PKD
ROOT
HETATM    1  C   UNL     1     -12.759  10.455  71.651  1.00  0.00    -0.560 C  
HETATM    2  C   UNL     1     -12.090  10.223  70.333  1.00  0.00    -0.286 A  
HETATM    3  N   UNL     1     -12.294  11.141  69.372  1.00  0.00    -0.343 NA 
HETATM    4  C   UNL     1     -11.588  10.992  68.245  1.00  0.00    -0.284 A  
HETATM    5  C   UNL     1     -10.599   9.005  69.077  1.00  0.00    -0.190 A  
HETATM    6  C   UNL     1     -10.676   9.979  68.105  1.00  0.00    -0.282 A  
HETATM    7  N   UNL     1     -11.291   9.144  70.220  1.00  0.00    -0.227 NA 
ENDROOT
BRANCH   4   8
HETATM    8  N   UNL     1     -11.807  11.933  67.245  1.00  0.00    -0.612 NA 
HETATM    9  H   UNL     1     -12.197  11.576  66.373  1.00  0.00     0.000 HD 
BRANCH   8  10
HETATM   10  C   UNL     1     -11.567  13.260  67.287  1.00  0.00    -0.359 A  
HETATM   11  S   UNL     1     -10.364  13.878  66.235  1.00  0.00    -0.300 SA 
HETATM   12  N   UNL     1     -12.135  14.170  68.056  1.00  0.00    -0.327 NA 
HETATM   13  C   UNL     1     -11.485  15.382  67.928  1.00  0.00    -0.299 A  
HETATM   14  C   UNL     1     -10.445  15.393  67.024  1.00  0.00    -0.295 A  
BRANCH  14  15
HETATM   15  C   UNL     1      -9.481  16.434  66.759  1.00  0.00    -0.247 C  
HETATM   16  O   UNL     1      -8.832  16.482  65.720  1.00  0.00    -0.474 OA 
HETATM   17  H   UNL     1      -9.820  17.139  68.680  1.00  0.00     0.000 HD 
HETATM   18  N   UNL     1      -9.336  17.335  67.803  1.00  0.00    -0.247 N  
BRANCH  18  19
HETATM   19  C   UNL     1      -8.561  18.501  67.718  1.00  0.00    -0.271 A  
HETATM   20  C   UNL     1      -8.331  20.801  67.012  1.00  0.00    -0.181 A  
HETATM   21  C   UNL     1     -10.473  19.659  66.454  1.00  0.00    -0.618 C  
HETATM   22  C   UNL     1      -9.102  19.628  67.071  1.00  0.00    -0.402 A  
HETATM   23  C   UNL     1      -7.047  20.846  67.558  1.00  0.00    -0.389 A  
HETATM   24  C   UNL     1      -6.495  19.713  68.140  1.00  0.00    -0.280 A  
HETATM   25  C   UNL     1      -7.241  18.538  68.214  1.00  0.00    -0.264 A  
HETATM   26 CL   UNL     1      -6.412  17.111  68.751  1.00  0.00    -0.175 Cl 
ENDBRANCH  18  19
ENDBRANCH  14  15
ENDBRANCH   8  10
ENDBRANCH   4   8
BRANCH   5  27
HETATM   27  N   UNL     1      -9.755   7.907  68.869  1.00  0.00    -0.156 NA 
HETATM   28  C   UNL     1      -9.541   7.534  67.455  1.00  0.00    -0.149 C  
HETATM   29  C   UNL     1      -9.986   6.746  69.743  1.00  0.00    -0.177 C  
HETATM   30  N   UNL     1      -8.521   5.311  68.164  1.00  0.00    -0.097 NA 
HETATM   31  C   UNL     1      -8.368   6.540  67.351  1.00  0.00    -0.120 C  
HETATM   32  C   UNL     1      -8.823   5.729  69.566  1.00  0.00    -0.117 C  
BRANCH  30  33
HETATM   33  C   UNL     1      -9.579   4.410  67.655  1.00  0.00    -0.166 C  
BRANCH  33  34
HETATM   34  C   UNL     1      -9.426   4.060  66.164  1.00  0.00    -0.186 C  
HETATM   35  H   UNL     1     -10.490   4.235  64.512  1.00  0.00     0.000 HD 
HETATM   36  O   UNL     1     -10.585   4.452  65.432  1.00  0.00    -0.268 OA 
ENDBRANCH  33  34
ENDBRANCH  30  33
ENDBRANCH   5  27
TORSDOF 7
ENDMDL
MODEL       39
REMARK 921   NORMALIZED FREE ENERGY PREDICTED BY IDOCK:   -6.95 KCAL/MOL
REMARK 922        TOTAL FREE ENERGY PREDICTED BY IDOCK:  -10.18 KCAL/MOL
REMARK 923 INTER-LIGAND FREE ENERGY PREDICTED BY IDOCK:   -9.32 KCAL/MOL
REMARK 924 INTRA-LIGAND FREE ENERGY PREDICTED BY IDOCK:   -0.86 KCAL/MOL
REMARK 927      BINDING AFFINITY PREDICTED BY RF-SCORE:    0.00 PKD
ROOT
HETATM    1  C   UNL     1     -13.490   9.253  72.492  1.00  0.00    -0.471 C  
HETATM    2  C   UNL     1     -12.661   9.773  71.360  1.00  0.00    -0.386 A  
HETATM    3  N   UNL     1     -12.678  11.100  71.146  1.00  0.00    -0.405 NA 
HETATM    4  C   UNL     1     -11.834  11.566  70.218  1.00  0.00    -0.342 A  
HETATM    5  C   UNL     1     -11.084   9.369  69.736  1.00  0.00    -0.172 A  
HETATM    6  C   UNL     1     -10.971  10.731  69.557  1.00  0.00    -0.317 A  
HETATM    7  N   UNL     1     -11.917   8.884  70.671  1.00  0.00    -0.150 NA 
ENDROOT
BRANCH   4   8
HETATM    8  N   UNL     1     -11.859  12.937  69.987  1.00  0.00    -0.480 NA 
HETATM    9  H   UNL     1     -12.169  13.516  70.767  1.00  0.00     0.000 HD 
BRANCH   8  10
HETATM   10  C   UNL     1     -11.524  13.595  68.858  1.00  0.00    -0.303 A  
HETATM   11  S   UNL     1     -10.167  14.639  68.926  1.00  0.00    -0.229 SA 
HETATM   12  N   UNL     1     -12.119  13.556  67.681  1.00  0.00    -0.325 NA 
HETATM   13  C   UNL     1     -11.584  14.510  66.838  1.00  0.00    -0.385 A  
HETATM   14  C   UNL     1     -10.549  15.245  67.373  1.00  0.00    -0.282 A  
BRANCH  14  15
HETATM   15  C   UNL     1      -9.875  16.399  66.827  1.00  0.00    -0.256 C  
HETATM   16  O   UNL     1      -9.976  16.724  65.648  1.00  0.00    -0.538 OA 
HETATM   17  H   UNL     1      -8.952  16.644  68.668  1.00  0.00     0.000 HD 
HETATM   18  N   UNL     1      -9.080  17.064  67.747  1.00  0.00    -0.226 N  
BRANCH  18  19
HETATM   19  C   UNL     1      -8.441  18.285  67.479  1.00  0.00    -0.249 A  
HETATM   20  C   UNL     1      -8.552  20.690  67.273  1.00  0.00    -0.310 A  
HETATM   21  C   UNL     1     -10.674  19.507  67.822  1.00  0.00    -0.487 C  
HETATM   22  C   UNL     1      -9.201  19.468  67.516  1.00  0.00    -0.391 A  
HETATM   23  C   UNL     1      -7.188  20.733  66.977  1.00  0.00    -0.369 A  
HETATM   24  C   UNL     1      -6.456  19.556  66.882  1.00  0.00    -0.200 A  
HETATM   25  C   UNL     1      -7.077  18.332  67.121  1.00  0.00    -0.195 A  
HETATM   26 CL   UNL     1      -6.160  16.901  66.770  1.00  0.00    -0.224 Cl 
ENDBRANCH  18  19
ENDBRANCH  14  15
ENDBRANCH   8  10
ENDBRANCH   4   8
BRANCH   5  27
HETATM   27  N   UNL     1     -10.284   8.517  68.965  1.00  0.00    -0.204 NA 
HETATM   28  C   UNL     1     -10.532   8.564  67.508  1.00  0.00    -0.258 C  
HETATM   29  C   UNL     1     -10.126   7.148  69.478  1.00  0.00    -0.179 C  
HETATM   30  N   UNL     1      -9.181   6.432  67.178  1.00  0.00    -0.121 NA 
HETATM   31  C   UNL     1      -9.395   7.838  66.764  1.00  0.00    -0.180 C  
HETATM   32  C   UNL     1      -9.022   6.416  68.664  1.00  0.00    -0.125 C  
BRANCH  30  33
HETATM   33  C   UNL     1     -10.283   5.533  66.768  1.00  0.00    -0.233 C  
BRANCH  33  34
HETATM   34  C   UNL     1      -9.893   4.551  65.649  1.00  0.00    -0.216 C  
HETATM   35  H   UNL     1      -8.251   3.682  64.983  1.00  0.00     0.000 HD 
HETATM   36  O   UNL     1      -8.492   4.289  65.673  1.00  0.00    -0.112 OA 
ENDBRANCH  33  34
ENDBRANCH  30  33
ENDBRANCH   5  27
TORSDOF 7
ENDMDL
MODEL       40
REMARK 921   NORMALIZED FREE ENERGY PREDICTED BY IDOCK:   -6.95 KCAL/MOL
REMARK 922        TOTAL FREE ENERGY PREDICTED BY IDOCK:  -10.18 KCAL/MOL
REMARK 923 INTER-LIGAND FREE ENERGY PREDICTED BY IDOCK:   -9.25 KCAL/MOL
REMARK 924 INTRA-LIGAND FREE ENERGY PREDICTED BY IDOCK:   -0.92 KCAL/MOL
REMARK 927      BINDING AFFINITY PREDICTED BY RF-SCORE:    0.00 PKD
ROOT
HETATM    1  C   UNL     1     -13.274  11.181  71.946  1.00  0.00    -0.488 C  
HETATM    2  C   UNL     1     -12.425  10.555  70.884  1.00  0.00    -0.390 A  
HETATM    3  N   UNL     1     -12.480  11.099  69.656  1.00  0.00    -0.211 NA 
HETATM    4  C   UNL     1     -11.621  10.616  68.751  1.00  0.00    -0.239 A  
HETATM    5  C   UNL     1     -10.781   9.051  70.320  1.00  0.00    -0.230 A  
HETATM    6  C   UNL     1     -10.708   9.649  69.081  1.00  0.00    -0.237 A  
HETATM    7  N   UNL     1     -11.628   9.530  71.246  1.00  0.00    -0.344 NA 
ENDROOT
BRANCH   4   8
HETATM    8  N   UNL     1     -11.685  11.168  67.476  1.00  0.00    -0.578 NA 
HETATM    9  H   UNL     1     -11.899  10.520  66.719  1.00  0.00     0.000 HD 
BRANCH   8  10
HETATM   10  C   UNL     1     -11.499  12.455  67.118  1.00  0.00    -0.357 A  
HETATM   11  S   UNL     1     -10.380  13.375  68.035  1.00  0.00    -0.247 SA 
HETATM   12  N   UNL     1     -12.084  13.127  66.145  1.00  0.00    -0.421 NA 
HETATM   13  C   UNL     1     -11.760  14.467  66.221  1.00  0.00    -0.358 A  
HETATM   14  C   UNL     1     -10.890  14.799  67.236  1.00  0.00    -0.309 A  
BRANCH  14  15
HETATM   15  C   UNL     1     -10.467  16.106  67.681  1.00  0.00    -0.292 C  
HETATM   16  O   UNL     1     -10.915  16.634  68.694  1.00  0.00    -0.339 OA 
HETATM   17  H   UNL     1      -9.338  16.253  65.948  1.00  0.00     0.000 HD 
HETATM   18  N   UNL     1      -9.551  16.710  66.835  1.00  0.00    -0.241 N  
BRANCH  18  19
HETATM   19  C   UNL     1      -8.900  17.917  67.133  1.00  0.00    -0.247 A  
HETATM   20  C   UNL     1      -8.821  20.329  66.993  1.00  0.00    -0.427 A  
HETATM   21  C   UNL     1     -10.727  19.196  65.859  1.00  0.00    -0.435 C  
HETATM   22  C   UNL     1      -9.462  19.122  66.669  1.00  0.00    -0.387 A  
HETATM   23  C   UNL     1      -7.640  20.338  67.738  1.00  0.00    -0.310 A  
HETATM   24  C   UNL     1      -7.057  19.144  68.140  1.00  0.00    -0.289 A  
HETATM   25  C   UNL     1      -7.676  17.933  67.833  1.00  0.00    -0.224 A  
HETATM   26 CL   UNL     1      -6.783  16.484  68.173  1.00  0.00    -0.138 Cl 
ENDBRANCH  18  19
ENDBRANCH  14  15
ENDBRANCH   8  10
ENDBRANCH   4   8
BRANCH   5  27
HETATM   27  N   UNL     1      -9.926   7.979  70.606  1.00  0.00    -0.189 NA 
HETATM   28  C   UNL     1     -10.035   6.823  69.691  1.00  0.00    -0.173 C  
HETATM   29  C   UNL     1      -9.839   7.588  72.021  1.00  0.00    -0.163 C  
HETATM   30  N   UNL     1      -8.694   5.381  71.304  1.00  0.00    -0.129 NA 
HETATM   31  C   UNL     1      -8.845   5.870  69.914  1.00  0.00    -0.129 C  
HETATM   32  C   UNL     1      -8.675   6.573  72.204  1.00  0.00    -0.131 C  
BRANCH  30  33
HETATM   33  C   UNL     1      -9.766   4.445  71.708  1.00  0.00    -0.170 C  
BRANCH  33  34
HETATM   34  C   UNL     1      -9.882   4.261  73.232  1.00  0.00    -0.131 C  
HETATM   35  H   UNL     1     -11.282   4.412  74.613  1.00  0.00     0.000 HD 
HETATM   36  O   UNL     1     -11.211   4.526  73.672  1.00  0.00    -0.302 OA 
ENDBRANCH  33  34
ENDBRANCH  30  33
ENDBRANCH   5  27
TORSDOF 7
ENDMDL
MODEL       41
REMARK 921   NORMALIZED FREE ENERGY PREDICTED BY IDOCK:   -6.95 KCAL/MOL
REMARK 922        TOTAL FREE ENERGY PREDICTED BY IDOCK:  -10.17 KCAL/MOL
REMARK 923 INTER-LIGAND FREE ENERGY PREDICTED BY IDOCK:   -9.36 KCAL/MOL
REMARK 924 INTRA-LIGAND FREE ENERGY PREDICTED BY IDOCK:   -0.80 KCAL/MOL
REMARK 927      BINDING AFFINITY PREDICTED BY RF-SCORE:    0.00 PKD
ROOT
HETATM    1  C   UNL     1     -12.815   8.364  72.363  1.00  0.00    -0.323 C  
HETATM    2  C   UNL     1     -12.354   9.414  71.402  1.00  0.00    -0.357 A  
HETATM    3  N   UNL     1     -12.784  10.670  71.614  1.00  0.00    -0.427 NA 
HETATM    4  C   UNL     1     -12.262  11.620  70.829  1.00  0.00    -0.344 A  
HETATM    5  C   UNL     1     -10.996  10.004  69.643  1.00  0.00    -0.264 A  
HETATM    6  C   UNL     1     -11.308  11.323  69.891  1.00  0.00    -0.329 A  
HETATM    7  N   UNL     1     -11.501   9.038  70.429  1.00  0.00    -0.220 NA 
ENDROOT
BRANCH   4   8
HETATM    8  N   UNL     1     -12.714  12.918  71.038  1.00  0.00    -0.305 NA 
HETATM    9  H   UNL     1     -13.545  13.013  71.622  1.00  0.00     0.000 HD 
BRANCH   8  10
HETATM   10  C   UNL     1     -12.190  14.067  70.563  1.00  0.00    -0.365 A  
HETATM   11  S   UNL     1     -12.021  14.213  68.864  1.00  0.00    -0.314 SA 
HETATM   12  N   UNL     1     -11.765  15.114  71.243  1.00  0.00    -0.331 NA 
HETATM   13  C   UNL     1     -11.130  16.008  70.403  1.00  0.00    -0.364 A  
HETATM   14  C   UNL     1     -11.114  15.649  69.074  1.00  0.00    -0.279 A  
BRANCH  14  15
HETATM   15  C   UNL     1     -10.420  16.270  67.971  1.00  0.00    -0.293 C  
HETATM   16  O   UNL     1     -10.747  16.092  66.802  1.00  0.00    -0.317 OA 
HETATM   17  H   UNL     1      -9.060  17.023  69.344  1.00  0.00     0.000 HD 
HETATM   18  N   UNL     1      -9.337  17.041  68.362  1.00  0.00    -0.257 N  
BRANCH  18  19
HETATM   19  C   UNL     1      -8.600  17.846  67.479  1.00  0.00    -0.239 A  
HETATM   20  C   UNL     1      -6.658  18.157  66.074  1.00  0.00    -0.298 A  
HETATM   21  C   UNL     1      -6.803  16.016  67.339  1.00  0.00    -0.222 C  
HETATM   22  C   UNL     1      -7.379  17.358  66.978  1.00  0.00    -0.220 A  
HETATM   23  C   UNL     1      -7.127  19.416  65.696  1.00  0.00    -0.292 A  
HETATM   24  C   UNL     1      -8.302  19.918  66.241  1.00  0.00    -0.371 A  
HETATM   25  C   UNL     1      -9.036  19.144  67.138  1.00  0.00    -0.288 A  
HETATM   26 CL   UNL     1     -10.366  19.917  67.941  1.00  0.00    -0.557 Cl 
ENDBRANCH  18  19
ENDBRANCH  14  15
ENDBRANCH   8  10
ENDBRANCH   4   8
BRANCH   5  27
HETATM   27  N   UNL     1     -10.113   9.701  68.599  1.00  0.00    -0.172 NA 
HETATM   28  C   UNL     1      -8.972  10.629  68.450  1.00  0.00    -0.149 C  
HETATM   29  C   UNL     1     -10.736   9.341  67.316  1.00  0.00    -0.174 C  
HETATM   30  N   UNL     1      -8.444   9.657  66.156  1.00  0.00    -0.119 NA 
HETATM   31  C   UNL     1      -7.927  10.017  67.497  1.00  0.00    -0.106 C  
HETATM   32  C   UNL     1      -9.647   8.792  66.352  1.00  0.00    -0.249 C  
BRANCH  30  33
HETATM   33  C   UNL     1      -8.786  10.838  65.332  1.00  0.00    -0.181 C  
BRANCH  33  34
HETATM   34  C   UNL     1      -9.297  10.481  63.925  1.00  0.00    -0.275 C  
HETATM   35  H   UNL     1      -9.982  11.436  62.340  1.00  0.00     0.000 HD 
HETATM   36  O   UNL     1      -9.666  11.656  63.209  1.00  0.00    -0.363 OA 
ENDBRANCH  33  34
ENDBRANCH  30  33
ENDBRANCH   5  27
TORSDOF 7
ENDMDL
MODEL       42
REMARK 921   NORMALIZED FREE ENERGY PREDICTED BY IDOCK:   -6.94 KCAL/MOL
REMARK 922        TOTAL FREE ENERGY PREDICTED BY IDOCK:  -10.16 KCAL/MOL
REMARK 923 INTER-LIGAND FREE ENERGY PREDICTED BY IDOCK:   -9.50 KCAL/MOL
REMARK 924 INTRA-LIGAND FREE ENERGY PREDICTED BY IDOCK:   -0.65 KCAL/MOL
REMARK 927      BINDING AFFINITY PREDICTED BY RF-SCORE:    0.00 PKD
ROOT
HETATM    1  C   UNL     1     -13.647  15.632  72.761  1.00  0.00    -0.678 C  
HETATM    2  C   UNL     1     -13.226  14.394  72.034  1.00  0.00    -0.369 A  
HETATM    3  N   UNL     1     -13.605  13.216  72.559  1.00  0.00    -0.625 NA 
HETATM    4  C   UNL     1     -13.337  12.124  71.833  1.00  0.00    -0.318 A  
HETATM    5  C   UNL     1     -12.277  13.440  70.170  1.00  0.00    -0.315 A  
HETATM    6  C   UNL     1     -12.746  12.217  70.600  1.00  0.00    -0.139 A  
HETATM    7  N   UNL     1     -12.548  14.548  70.880  1.00  0.00    -0.323 NA 
ENDROOT
BRANCH   4   8
HETATM    8  N   UNL     1     -13.716  10.904  72.381  1.00  0.00    -0.338 NA 
HETATM    9  H   UNL     1     -14.446  10.941  73.093  1.00  0.00     0.000 HD 
BRANCH   8  10
HETATM   10  C   UNL     1     -13.238   9.677  72.086  1.00  0.00    -0.444 A  
HETATM   11  S   UNL     1     -11.588   9.560  71.641  1.00  0.00    -0.318 SA 
HETATM   12  N   UNL     1     -13.885   8.527  72.080  1.00  0.00    -0.406 NA 
HETATM   13  C   UNL     1     -13.091   7.531  71.546  1.00  0.00    -0.356 A  
HETATM   14  C   UNL     1     -11.821   7.928  71.186  1.00  0.00    -0.287 A  
BRANCH  14  15
HETATM   15  C   UNL     1     -10.804   7.189  70.478  1.00  0.00    -0.246 C  
HETATM   16  O   UNL     1      -9.638   7.567  70.415  1.00  0.00    -0.169 OA 
HETATM   17  H   UNL     1     -12.289   5.887  69.845  1.00  0.00     0.000 HD 
HETATM   18  N   UNL     1     -11.282   6.050  69.849  1.00  0.00    -0.399 N  
BRANCH  18  19
HETATM   19  C   UNL     1     -10.455   5.108  69.218  1.00  0.00    -0.123 A  
HETATM   20  C   UNL     1      -8.977   3.202  69.373  1.00  0.00    -0.178 A  
HETATM   21  C   UNL     1      -9.895   4.093  71.510  1.00  0.00    -0.255 C  
HETATM   22  C   UNL     1      -9.784   4.158  70.011  1.00  0.00    -0.282 A  
HETATM   23  C   UNL     1      -8.822   3.203  67.985  1.00  0.00    -0.158 A  
HETATM   24  C   UNL     1      -9.437   4.180  67.214  1.00  0.00    -0.220 A  
HETATM   25  C   UNL     1     -10.245   5.139  67.824  1.00  0.00    -0.132 A  
HETATM   26 CL   UNL     1     -10.798   6.450  66.831  1.00  0.00    -0.432 Cl 
ENDBRANCH  18  19
ENDBRANCH  14  15
ENDBRANCH   8  10
ENDBRANCH   4   8
BRANCH   5  27
HETATM   27  N   UNL     1     -11.565  13.506  68.966  1.00  0.00    -0.288 NA 
HETATM   28  C   UNL     1     -11.287  12.204  68.325  1.00  0.00    -0.289 C  
HETATM   29  C   UNL     1     -10.408  14.414  68.954  1.00  0.00    -0.231 C  
HETATM   30  N   UNL     1      -9.600  13.299  66.763  1.00  0.00    -0.251 NA 
HETATM   31  C   UNL     1     -10.794  12.430  66.882  1.00  0.00    -0.251 C  
HETATM   32  C   UNL     1      -9.889  14.568  67.496  1.00  0.00    -0.222 C  
BRANCH  30  33
HETATM   33  C   UNL     1      -8.370  12.668  67.289  1.00  0.00    -0.189 C  
BRANCH  33  34
HETATM   34  C   UNL     1      -8.068  11.293  66.666  1.00  0.00    -0.160 C  
HETATM   35  H   UNL     1      -8.114   9.401  67.224  1.00  0.00     0.000 HD 
HETATM   36  O   UNL     1      -8.301  10.250  67.608  1.00  0.00    -0.114 OA 
ENDBRANCH  33  34
ENDBRANCH  30  33
ENDBRANCH   5  27
TORSDOF 7
ENDMDL
MODEL       43
REMARK 921   NORMALIZED FREE ENERGY PREDICTED BY IDOCK:   -6.90 KCAL/MOL
REMARK 922        TOTAL FREE ENERGY PREDICTED BY IDOCK:  -10.10 KCAL/MOL
REMARK 923 INTER-LIGAND FREE ENERGY PREDICTED BY IDOCK:   -9.52 KCAL/MOL
REMARK 924 INTRA-LIGAND FREE ENERGY PREDICTED BY IDOCK:   -0.58 KCAL/MOL
REMARK 927      BINDING AFFINITY PREDICTED BY RF-SCORE:    0.00 PKD
ROOT
HETATM    1  C   UNL     1      -8.517   7.294  65.658  1.00  0.00    -0.138 C  
HETATM    2  C   UNL     1      -8.614   8.746  66.005  1.00  0.00    -0.148 A  
HETATM    3  N   UNL     1      -7.549   9.305  66.606  1.00  0.00    -0.093 NA 
HETATM    4  C   UNL     1      -7.595  10.629  66.792  1.00  0.00    -0.120 A  
HETATM    5  C   UNL     1      -9.768  10.728  65.848  1.00  0.00    -0.224 A  
HETATM    6  C   UNL     1      -8.658  11.373  66.349  1.00  0.00    -0.174 A  
HETATM    7  N   UNL     1      -9.734   9.401  65.643  1.00  0.00    -0.286 NA 
ENDROOT
BRANCH   4   8
HETATM    8  N   UNL     1      -6.501  11.208  67.425  1.00  0.00    -0.065 NA 
HETATM    9  H   UNL     1      -5.763  10.567  67.716  1.00  0.00     0.000 HD 
BRANCH   8  10
HETATM   10  C   UNL     1      -6.296  12.512  67.703  1.00  0.00    -0.140 A  
HETATM   11  S   UNL     1      -7.631  13.414  68.286  1.00  0.00    -0.146 SA 
HETATM   12  N   UNL     1      -5.185  13.211  67.570  1.00  0.00    -0.312 NA 
HETATM   13  C   UNL     1      -5.432  14.553  67.783  1.00  0.00    -0.013 A  
HETATM   14  C   UNL     1      -6.732  14.860  68.120  1.00  0.00    -0.130 A  
BRANCH  14  15
HETATM   15  C   UNL     1      -7.353  16.155  68.265  1.00  0.00    -0.140 C  
HETATM   16  O   UNL     1      -7.200  16.851  69.264  1.00  0.00    -0.239 OA 
HETATM   17  H   UNL     1      -8.334  15.807  66.472  1.00  0.00     0.000 HD 
HETATM   18  N   UNL     1      -8.162  16.505  67.195  1.00  0.00    -0.168 N  
BRANCH  18  19
HETATM   19  C   UNL     1      -8.755  17.769  67.054  1.00  0.00    -0.244 A  
HETATM   20  C   UNL     1      -8.646  20.040  66.236  1.00  0.00    -0.337 A  
HETATM   21  C   UNL     1      -6.653  18.600  65.835  1.00  0.00    -0.291 C  
HETATM   22  C   UNL     1      -8.037  18.785  66.397  1.00  0.00    -0.296 A  
HETATM   23  C   UNL     1      -9.926  20.287  66.735  1.00  0.00    -0.587 A  
HETATM   24  C   UNL     1     -10.606  19.300  67.437  1.00  0.00    -0.594 A  
HETATM   25  C   UNL     1     -10.023  18.045  67.607  1.00  0.00    -0.329 A  
HETATM   26 CL   UNL     1     -10.830  16.941  68.676  1.00  0.00    -0.338 Cl 
ENDBRANCH  18  19
ENDBRANCH  14  15
ENDBRANCH   8  10
ENDBRANCH   4   8
BRANCH   5  27
HETATM   27  N   UNL     1     -10.897  11.485  65.513  1.00  0.00    -0.276 NA 
HETATM   28  C   UNL     1     -11.175  11.597  64.065  1.00  0.00    -0.369 C  
HETATM   29  C   UNL     1     -11.050  12.761  66.229  1.00  0.00    -0.288 C  
HETATM   30  N   UNL     1     -12.835  13.478  64.499  1.00  0.00    -0.649 NA 
HETATM   31  C   UNL     1     -12.590  12.169  63.851  1.00  0.00    -0.438 C  
HETATM   32  C   UNL     1     -12.460  13.348  65.939  1.00  0.00    -0.408 C  
BRANCH  30  33
HETATM   33  C   UNL     1     -12.084  14.586  63.867  1.00  0.00    -0.100 C  
BRANCH  33  34
HETATM   34  C   UNL     1     -11.467  15.568  64.879  1.00  0.00    -0.279 C  
HETATM   35  H   UNL     1     -10.843  17.439  64.894  1.00  0.00     0.000 HD 
HETATM   36  O   UNL     1     -11.223  16.833  64.269  1.00  0.00    -1.163 OA 
ENDBRANCH  33  34
ENDBRANCH  30  33
ENDBRANCH   5  27
TORSDOF 7
ENDMDL
MODEL       44
REMARK 921   NORMALIZED FREE ENERGY PREDICTED BY IDOCK:   -6.89 KCAL/MOL
REMARK 922        TOTAL FREE ENERGY PREDICTED BY IDOCK:  -10.09 KCAL/MOL
REMARK 923 INTER-LIGAND FREE ENERGY PREDICTED BY IDOCK:   -9.20 KCAL/MOL
REMARK 924 INTRA-LIGAND FREE ENERGY PREDICTED BY IDOCK:   -0.89 KCAL/MOL
REMARK 927      BINDING AFFINITY PREDICTED BY RF-SCORE:    0.00 PKD
ROOT
HETATM    1  C   UNL     1     -12.182  12.920  63.340  1.00  0.00    -0.574 C  
HETATM    2  C   UNL     1     -11.863  13.355  64.736  1.00  0.00    -0.380 A  
HETATM    3  N   UNL     1     -12.195  12.514  65.731  1.00  0.00    -0.626 NA 
HETATM    4  C   UNL     1     -11.788  12.852  66.960  1.00  0.00    -0.374 A  
HETATM    5  C   UNL     1     -10.828  14.857  66.135  1.00  0.00    -0.327 A  
HETATM    6  C   UNL     1     -11.035  13.977  67.176  1.00  0.00    -0.303 A  
HETATM    7  N   UNL     1     -11.219  14.528  64.893  1.00  0.00    -0.373 NA 
ENDROOT
BRANCH   4   8
HETATM    8  N   UNL     1     -12.142  11.991  67.992  1.00  0.00    -0.478 NA 
HETATM    9  H   UNL     1     -12.986  12.237  68.509  1.00  0.00     0.000 HD 
BRANCH   8  10
HETATM   10  C   UNL     1     -11.507  10.870  68.393  1.00  0.00    -0.304 A  
HETATM   11  S   UNL     1     -11.530  10.508  70.068  1.00  0.00    -0.339 SA 
HETATM   12  N   UNL     1     -10.842  10.000  67.658  1.00  0.00    -0.287 NA 
HETATM   13  C   UNL     1     -10.183   9.092  68.465  1.00  0.00    -0.198 A  
HETATM   14  C   UNL     1     -10.390   9.257  69.817  1.00  0.00    -0.218 A  
BRANCH  14  15
HETATM   15  C   UNL     1      -9.749   8.587  70.923  1.00  0.00    -0.187 C  
HETATM   16  O   UNL     1      -9.373   9.184  71.927  1.00  0.00    -0.349 OA 
HETATM   17  H   UNL     1      -9.788   6.845  69.799  1.00  0.00     0.000 HD 
HETATM   18  N   UNL     1      -9.566   7.229  70.718  1.00  0.00    -0.171 N  
BRANCH  18  19
HETATM   19  C   UNL     1      -9.090   6.353  71.706  1.00  0.00    -0.143 A  
HETATM   20  C   UNL     1      -7.248   5.164  72.722  1.00  0.00    -0.089 A  
HETATM   21  C   UNL     1      -6.728   6.546  70.716  1.00  0.00    -0.058 C  
HETATM   22  C   UNL     1      -7.723   6.020  71.715  1.00  0.00    -0.101 A  
HETATM   23  C   UNL     1      -8.112   4.634  73.682  1.00  0.00    -0.106 A  
HETATM   24  C   UNL     1      -9.471   4.916  73.631  1.00  0.00    -0.132 A  
HETATM   25  C   UNL     1      -9.966   5.765  72.643  1.00  0.00    -0.176 A  
HETATM   26 CL   UNL     1     -11.691   5.896  72.509  1.00  0.00    -0.335 Cl 
ENDBRANCH  18  19
ENDBRANCH  14  15
ENDBRANCH   8  10
ENDBRANCH   4   8
BRANCH   5  27
HETATM   27  N   UNL     1     -10.164  16.063  66.391  1.00  0.00    -0.291 NA 
HETATM   28  C   UNL     1      -8.690  16.007  66.286  1.00  0.00    -0.336 C  
HETATM   29  C   UNL     1     -10.630  16.816  67.565  1.00  0.00    -0.309 C  
HETATM   30  N   UNL     1      -8.492  18.268  67.440  1.00  0.00    -0.247 NA 
HETATM   31  C   UNL     1      -8.115  17.436  66.273  1.00  0.00    -0.263 C  
HETATM   32  C   UNL     1      -9.980  18.228  67.563  1.00  0.00    -0.335 C  
BRANCH  30  33
HETATM   33  C   UNL     1      -7.857  17.818  68.699  1.00  0.00    -0.278 C  
BRANCH  33  34
HETATM   34  C   UNL     1      -6.653  18.677  69.123  1.00  0.00    -0.270 C  
HETATM   35  H   UNL     1      -5.127  18.531  70.365  1.00  0.00     0.000 HD 
HETATM   36  O   UNL     1      -5.870  18.000  70.103  1.00  0.00    -0.240 OA 
ENDBRANCH  33  34
ENDBRANCH  30  33
ENDBRANCH   5  27
TORSDOF 7
ENDMDL
MODEL       45
REMARK 921   NORMALIZED FREE ENERGY PREDICTED BY IDOCK:   -6.87 KCAL/MOL
REMARK 922        TOTAL FREE ENERGY PREDICTED BY IDOCK:  -10.06 KCAL/MOL
REMARK 923 INTER-LIGAND FREE ENERGY PREDICTED BY IDOCK:   -9.03 KCAL/MOL
REMARK 924 INTRA-LIGAND FREE ENERGY PREDICTED BY IDOCK:   -1.03 KCAL/MOL
REMARK 927      BINDING AFFINITY PREDICTED BY RF-SCORE:    0.00 PKD
ROOT
HETATM    1  C   UNL     1     -12.425  12.071  63.360  1.00  0.00    -0.625 C  
HETATM    2  C   UNL     1     -11.461  12.035  64.504  1.00  0.00    -0.319 A  
HETATM    3  N   UNL     1     -10.630  10.980  64.572  1.00  0.00    -0.339 NA 
HETATM    4  C   UNL     1      -9.687  11.023  65.520  1.00  0.00    -0.229 A  
HETATM    5  C   UNL     1     -10.511  13.104  66.304  1.00  0.00    -0.285 A  
HETATM    6  C   UNL     1      -9.557  12.109  66.346  1.00  0.00    -0.243 A  
HETATM    7  N   UNL     1     -11.457  13.083  65.350  1.00  0.00    -0.304 NA 
ENDROOT
BRANCH   4   8
HETATM    8  N   UNL     1      -8.834   9.928  65.600  1.00  0.00    -0.150 NA 
HETATM    9  H   UNL     1      -8.183   9.811  64.824  1.00  0.00     0.000 HD 
BRANCH   8  10
HETATM   10  C   UNL     1      -8.762   9.001  66.578  1.00  0.00    -0.129 A  
HETATM   11  S   UNL     1     -10.163   8.062  66.879  1.00  0.00    -0.307 SA 
HETATM   12  N   UNL     1      -7.741   8.721  67.365  1.00  0.00    -0.096 NA 
HETATM   13  C   UNL     1      -8.126   7.839  68.357  1.00  0.00    -0.124 A  
HETATM   14  C   UNL     1      -9.437   7.422  68.290  1.00  0.00    -0.142 A  
BRANCH  14  15
HETATM   15  C   UNL     1     -10.189   6.632  69.234  1.00  0.00    -0.183 C  
HETATM   16  O   UNL     1     -11.341   6.268  69.019  1.00  0.00    -0.390 OA 
HETATM   17  H   UNL     1      -8.602   6.826  70.554  1.00  0.00     0.000 HD 
HETATM   18  N   UNL     1      -9.503   6.370  70.410  1.00  0.00    -0.162 N  
BRANCH  18  19
HETATM   19  C   UNL     1      -9.981   5.511  71.411  1.00  0.00    -0.186 A  
HETATM   20  C   UNL     1     -10.159   3.284  72.332  1.00  0.00    -0.226 A  
HETATM   21  C   UNL     1      -8.913   3.521  70.188  1.00  0.00    -0.174 C  
HETATM   22  C   UNL     1      -9.699   4.136  71.314  1.00  0.00    -0.255 A  
HETATM   23  C   UNL     1     -10.898   3.781  73.406  1.00  0.00    -0.315 A  
HETATM   24  C   UNL     1     -11.226   5.130  73.465  1.00  0.00    -0.300 A  
HETATM   25  C   UNL     1     -10.780   5.995  72.468  1.00  0.00    -0.227 A  
HETATM   26 CL   UNL     1     -11.409   7.612  72.489  1.00  0.00    -0.375 Cl 
ENDBRANCH  18  19
ENDBRANCH  14  15
ENDBRANCH   8  10
ENDBRANCH   4   8
BRANCH   5  27
HETATM   27  N   UNL     1     -10.441  14.148  67.234  1.00  0.00    -0.271 NA 
HETATM   28  C   UNL     1      -9.508  13.930  68.360  1.00  0.00    -0.211 C  
HETATM   29  C   UNL     1     -11.729  14.720  67.654  1.00  0.00    -0.341 C  
HETATM   30  N   UNL     1     -10.526  15.892  69.623  1.00  0.00    -0.274 NA 
HETATM   31  C   UNL     1      -9.289  15.253  69.117  1.00  0.00    -0.236 C  
HETATM   32  C   UNL     1     -11.474  16.016  68.475  1.00  0.00    -0.357 C  
BRANCH  30  33
HETATM   33  C   UNL     1     -11.153  15.139  70.732  1.00  0.00    -0.255 C  
BRANCH  33  34
HETATM   34  C   UNL     1     -12.139  15.977  71.566  1.00  0.00    -0.452 C  
HETATM   35  H   UNL     1     -14.093  16.201  71.717  1.00  0.00     0.000 HD 
HETATM   36  O   UNL     1     -13.485  15.683  71.202  1.00  0.00    -0.552 OA 
ENDBRANCH  33  34
ENDBRANCH  30  33
ENDBRANCH   5  27
TORSDOF 7
ENDMDL
MODEL       46
REMARK 921   NORMALIZED FREE ENERGY PREDICTED BY IDOCK:   -6.86 KCAL/MOL
REMARK 922        TOTAL FREE ENERGY PREDICTED BY IDOCK:  -10.04 KCAL/MOL
REMARK 923 INTER-LIGAND FREE ENERGY PREDICTED BY IDOCK:   -9.06 KCAL/MOL
REMARK 924 INTRA-LIGAND FREE ENERGY PREDICTED BY IDOCK:   -0.98 KCAL/MOL
REMARK 927      BINDING AFFINITY PREDICTED BY RF-SCORE:    0.00 PKD
ROOT
HETATM    1  C   UNL     1     -13.427  13.637  72.504  1.00  0.00    -0.675 C  
HETATM    2  C   UNL     1     -12.904  12.712  71.451  1.00  0.00    -0.261 A  
HETATM    3  N   UNL     1     -13.056  11.393  71.664  1.00  0.00    -0.450 NA 
HETATM    4  C   UNL     1     -12.705  10.582  70.660  1.00  0.00    -0.355 A  
HETATM    5  C   UNL     1     -12.012  12.433  69.351  1.00  0.00    -0.260 A  
HETATM    6  C   UNL     1     -12.256  11.081  69.465  1.00  0.00    -0.352 A  
HETATM    7  N   UNL     1     -12.370  13.264  70.345  1.00  0.00    -0.323 NA 
ENDROOT
BRANCH   4   8
HETATM    8  N   UNL     1     -12.849   9.217  70.882  1.00  0.00    -0.516 NA 
HETATM    9  H   UNL     1     -13.740   8.810  70.598  1.00  0.00     0.000 HD 
BRANCH   8  10
HETATM   10  C   UNL     1     -11.956   8.366  71.427  1.00  0.00    -0.297 A  
HETATM   11  S   UNL     1     -11.055   7.376  70.357  1.00  0.00    -0.257 SA 
HETATM   12  N   UNL     1     -11.682   8.174  72.704  1.00  0.00    -0.398 NA 
HETATM   13  C   UNL     1     -10.843   7.088  72.859  1.00  0.00    -0.301 A  
HETATM   14  C   UNL     1     -10.450   6.483  71.685  1.00  0.00    -0.213 A  
BRANCH  14  15
HETATM   15  C   UNL     1      -9.708   5.259  71.496  1.00  0.00    -0.162 C  
HETATM   16  O   UNL     1     -10.092   4.365  70.749  1.00  0.00    -0.204 OA 
HETATM   17  H   UNL     1      -8.392   5.914  72.959  1.00  0.00     0.000 HD 
HETATM   18  N   UNL     1      -8.560   5.182  72.269  1.00  0.00    -0.124 N  
BRANCH  18  19
HETATM   19  C   UNL     1      -7.615   4.151  72.151  1.00  0.00    -0.075 A  
HETATM   20  C   UNL     1      -5.583   3.293  71.163  1.00  0.00    -0.012 A  
HETATM   21  C   UNL     1      -6.339   5.543  70.410  1.00  0.00    -0.027 C  
HETATM   22  C   UNL     1      -6.539   4.317  71.259  1.00  0.00    -0.030 A  
HETATM   23  C   UNL     1      -5.704   2.124  71.917  1.00  0.00    -0.008 A  
HETATM   24  C   UNL     1      -6.801   1.938  72.749  1.00  0.00    -0.022 A  
HETATM   25  C   UNL     1      -7.762   2.941  72.862  1.00  0.00    -0.051 A  
HETATM   26 CL   UNL     1      -9.206   2.553  73.743  1.00  0.00    -0.083 Cl 
ENDBRANCH  18  19
ENDBRANCH  14  15
ENDBRANCH   8  10
ENDBRANCH   4   8
BRANCH   5  27
HETATM   27  N   UNL     1     -11.437  12.920  68.170  1.00  0.00    -0.292 NA 
HETATM   28  C   UNL     1     -11.855  14.284  67.781  1.00  0.00    -0.379 C  
HETATM   29  C   UNL     1     -11.404  11.982  67.039  1.00  0.00    -0.336 C  
HETATM   30  N   UNL     1     -10.857  13.959  65.461  1.00  0.00    -0.297 NA 
HETATM   31  C   UNL     1     -10.929  14.813  66.669  1.00  0.00    -0.326 C  
HETATM   32  C   UNL     1     -10.519  12.573  65.905  1.00  0.00    -0.265 C  
BRANCH  30  33
HETATM   33  C   UNL     1     -12.113  13.957  64.678  1.00  0.00    -0.431 C  
BRANCH  33  34
HETATM   34  C   UNL     1     -12.064  13.052  63.435  1.00  0.00    -0.515 C  
HETATM   35  H   UNL     1     -13.082  11.529  62.703  1.00  0.00     0.000 HD 
HETATM   36  O   UNL     1     -13.113  12.088  63.470  1.00  0.00    -0.764 OA 
ENDBRANCH  33  34
ENDBRANCH  30  33
ENDBRANCH   5  27
TORSDOF 7
ENDMDL
MODEL       47
REMARK 921   NORMALIZED FREE ENERGY PREDICTED BY IDOCK:   -6.86 KCAL/MOL
REMARK 922        TOTAL FREE ENERGY PREDICTED BY IDOCK:  -10.04 KCAL/MOL
REMARK 923 INTER-LIGAND FREE ENERGY PREDICTED BY IDOCK:   -9.09 KCAL/MOL
REMARK 924 INTRA-LIGAND FREE ENERGY PREDICTED BY IDOCK:   -0.95 KCAL/MOL
REMARK 927      BINDING AFFINITY PREDICTED BY RF-SCORE:    0.00 PKD
ROOT
HETATM    1  C   UNL     1     -13.102  11.087  71.668  1.00  0.00    -0.543 C  
HETATM    2  C   UNL     1     -12.307  10.413  70.595  1.00  0.00    -0.346 A  
HETATM    3  N   UNL     1     -12.241  11.029  69.402  1.00  0.00    -0.360 NA 
HETATM    4  C   UNL     1     -11.423  10.486  68.494  1.00  0.00    -0.215 A  
HETATM    5  C   UNL     1     -10.865   8.730  69.985  1.00  0.00    -0.223 A  
HETATM    6  C   UNL     1     -10.664   9.383  68.788  1.00  0.00    -0.200 A  
HETATM    7  N   UNL     1     -11.673   9.268  70.914  1.00  0.00    -0.288 NA 
ENDROOT
BRANCH   4   8
HETATM    8  N   UNL     1     -11.362  11.115  67.255  1.00  0.00    -0.457 NA 
HETATM    9  H   UNL     1     -11.395  10.501  66.440  1.00  0.00     0.000 HD 
BRANCH   8  10
HETATM   10  C   UNL     1     -11.266  12.435  66.998  1.00  0.00    -0.303 A  
HETATM   11  S   UNL     1     -10.077  13.321  67.857  1.00  0.00    -0.241 SA 
HETATM   12  N   UNL     1     -11.989  13.162  66.167  1.00  0.00    -0.406 NA 
HETATM   13  C   UNL     1     -11.705  14.504  66.327  1.00  0.00    -0.358 A  
HETATM   14  C   UNL     1     -10.730  14.785  67.259  1.00  0.00    -0.294 A  
BRANCH  14  15
HETATM   15  C   UNL     1     -10.302  16.066  67.769  1.00  0.00    -0.279 C  
HETATM   16  O   UNL     1     -10.717  16.525  68.829  1.00  0.00    -0.296 OA 
HETATM   17  H   UNL     1      -9.239  16.334  66.009  1.00  0.00     0.000 HD 
HETATM   18  N   UNL     1      -9.423  16.732  66.930  1.00  0.00    -0.234 N  
BRANCH  18  19
HETATM   19  C   UNL     1      -8.772  17.925  67.280  1.00  0.00    -0.239 A  
HETATM   20  C   UNL     1      -8.671  20.339  67.209  1.00  0.00    -0.441 A  
HETATM   21  C   UNL     1     -10.553  19.254  65.992  1.00  0.00    -0.550 C  
HETATM   22  C   UNL     1      -9.311  19.146  66.834  1.00  0.00    -0.363 A  
HETATM   23  C   UNL     1      -7.511  20.318  67.986  1.00  0.00    -0.265 A  
HETATM   24  C   UNL     1      -6.948  19.108  68.371  1.00  0.00    -0.303 A  
HETATM   25  C   UNL     1      -7.567  17.911  68.014  1.00  0.00    -0.238 A  
HETATM   26 CL   UNL     1      -6.695  16.446  68.338  1.00  0.00    -0.137 Cl 
ENDBRANCH  18  19
ENDBRANCH  14  15
ENDBRANCH   8  10
ENDBRANCH   4   8
BRANCH   5  27
HETATM   27  N   UNL     1     -10.176   7.535  70.228  1.00  0.00    -0.202 NA 
HETATM   28  C   UNL     1      -8.778   7.504  69.749  1.00  0.00    -0.140 C  
HETATM   29  C   UNL     1     -10.914   6.298  69.933  1.00  0.00    -0.370 C  
HETATM   30  N   UNL     1      -8.692   4.979  70.071  1.00  0.00    -0.097 NA 
HETATM   31  C   UNL     1      -8.050   6.285  70.349  1.00  0.00    -0.116 C  
HETATM   32  C   UNL     1     -10.123   5.080  70.488  1.00  0.00    -0.253 C  
BRANCH  30  33
HETATM   33  C   UNL     1      -8.595   4.578  68.650  1.00  0.00    -0.089 C  
BRANCH  33  34
HETATM   34  C   UNL     1      -9.296   3.244  68.337  1.00  0.00    -0.180 C  
HETATM   35  H   UNL     1      -9.003   1.327  68.699  1.00  0.00     0.000 HD 
HETATM   36  O   UNL     1      -8.570   2.151  68.892  1.00  0.00    -0.060 OA 
ENDBRANCH  33  34
ENDBRANCH  30  33
ENDBRANCH   5  27
TORSDOF 7
ENDMDL
MODEL       48
REMARK 921   NORMALIZED FREE ENERGY PREDICTED BY IDOCK:   -6.84 KCAL/MOL
REMARK 922        TOTAL FREE ENERGY PREDICTED BY IDOCK:  -10.02 KCAL/MOL
REMARK 923 INTER-LIGAND FREE ENERGY PREDICTED BY IDOCK:   -9.20 KCAL/MOL
REMARK 924 INTRA-LIGAND FREE ENERGY PREDICTED BY IDOCK:   -0.82 KCAL/MOL
REMARK 927      BINDING AFFINITY PREDICTED BY RF-SCORE:    0.00 PKD
ROOT
HETATM    1  C   UNL     1     -12.033  12.248  63.423  1.00  0.00    -0.588 C  
HETATM    2  C   UNL     1     -11.168  12.272  64.645  1.00  0.00    -0.315 A  
HETATM    3  N   UNL     1     -10.658  11.098  65.057  1.00  0.00    -0.293 NA 
HETATM    4  C   UNL     1      -9.783  11.151  66.069  1.00  0.00    -0.226 A  
HETATM    5  C   UNL     1     -10.048  13.501  66.231  1.00  0.00    -0.298 A  
HETATM    6  C   UNL     1      -9.402  12.347  66.619  1.00  0.00    -0.227 A  
HETATM    7  N   UNL     1     -10.919  13.469  65.210  1.00  0.00    -0.287 NA 
ENDROOT
BRANCH   4   8
HETATM    8  N   UNL     1      -9.264   9.937  66.506  1.00  0.00    -0.151 NA 
HETATM    9  H   UNL     1      -8.257   9.816  66.394  1.00  0.00     0.000 HD 
BRANCH   8  10
HETATM   10  C   UNL     1      -9.927   8.901  67.060  1.00  0.00    -0.233 A  
HETATM   11  S   UNL     1     -10.318   9.015  68.724  1.00  0.00    -0.207 SA 
HETATM   12  N   UNL     1     -10.314   7.778  66.487  1.00  0.00    -0.177 NA 
HETATM   13  C   UNL     1     -10.798   6.896  67.434  1.00  0.00    -0.326 A  
HETATM   14  C   UNL     1     -10.813   7.377  68.724  1.00  0.00    -0.043 A  
BRANCH  14  15
HETATM   15  C   UNL     1     -11.113   6.680  69.952  1.00  0.00    -0.348 C  
HETATM   16  O   UNL     1     -12.262   6.485  70.335  1.00  0.00    -0.306 OA 
HETATM   17  H   UNL     1      -9.076   6.621  70.334  1.00  0.00     0.000 HD 
HETATM   18  N   UNL     1      -9.986   6.299  70.663  1.00  0.00    -0.184 N  
BRANCH  18  19
HETATM   19  C   UNL     1     -10.030   5.493  71.811  1.00  0.00    -0.179 A  
HETATM   20  C   UNL     1      -9.831   3.312  72.831  1.00  0.00    -0.195 A  
HETATM   21  C   UNL     1      -9.534   3.432  70.361  1.00  0.00    -0.245 C  
HETATM   22  C   UNL     1      -9.811   4.110  71.676  1.00  0.00    -0.254 A  
HETATM   23  C   UNL     1     -10.086   3.869  74.086  1.00  0.00    -0.206 A  
HETATM   24  C   UNL     1     -10.363   5.225  74.205  1.00  0.00    -0.308 A  
HETATM   25  C   UNL     1     -10.346   6.038  73.074  1.00  0.00    -0.204 A  
HETATM   26 CL   UNL     1     -10.914   7.666  73.265  1.00  0.00    -0.421 Cl 
ENDBRANCH  18  19
ENDBRANCH  14  15
ENDBRANCH   8  10
ENDBRANCH   4   8
BRANCH   5  27
HETATM   27  N   UNL     1      -9.740  14.701  66.885  1.00  0.00    -0.234 NA 
HETATM   28  C   UNL     1     -10.725  15.138  67.897  1.00  0.00    -0.268 C  
HETATM   29  C   UNL     1      -9.271  15.798  66.025  1.00  0.00    -0.344 C  
HETATM   30  N   UNL     1      -9.658  17.449  67.980  1.00  0.00    -0.268 NA 
HETATM   31  C   UNL     1     -10.124  16.272  68.750  1.00  0.00    -0.243 C  
HETATM   32  C   UNL     1      -8.735  16.956  66.913  1.00  0.00    -0.223 C  
BRANCH  30  33
HETATM   33  C   UNL     1     -10.768  18.225  67.384  1.00  0.00    -0.350 C  
BRANCH  33  34
HETATM   34  C   UNL     1     -10.336  19.109  66.200  1.00  0.00    -0.484 C  
HETATM   35  H   UNL     1     -10.726  19.250  64.272  1.00  0.00     0.000 HD 
HETATM   36  O   UNL     1     -10.993  18.704  65.002  1.00  0.00    -0.559 OA 
ENDBRANCH  33  34
ENDBRANCH  30  33
ENDBRANCH   5  27
TORSDOF 7
ENDMDL
MODEL       49
REMARK 921   NORMALIZED FREE ENERGY PREDICTED BY IDOCK:   -6.84 KCAL/MOL
REMARK 922        TOTAL FREE ENERGY PREDICTED BY IDOCK:  -10.02 KCAL/MOL
REMARK 923 INTER-LIGAND FREE ENERGY PREDICTED BY IDOCK:   -9.00 KCAL/MOL
REMARK 924 INTRA-LIGAND FREE ENERGY PREDICTED BY IDOCK:   -1.02 KCAL/MOL
REMARK 927      BINDING AFFINITY PREDICTED BY RF-SCORE:    0.00 PKD
ROOT
HETATM    1  C   UNL     1     -12.476  12.946  63.724  1.00  0.00    -0.434 C  
HETATM    2  C   UNL     1     -11.511  13.278  64.818  1.00  0.00    -0.327 A  
HETATM    3  N   UNL     1     -10.609  12.338  65.147  1.00  0.00    -0.276 NA 
HETATM    4  C   UNL     1      -9.671  12.693  66.032  1.00  0.00    -0.229 A  
HETATM    5  C   UNL     1     -10.636  14.847  66.253  1.00  0.00    -0.308 A  
HETATM    6  C   UNL     1      -9.616  13.966  66.538  1.00  0.00    -0.299 A  
HETATM    7  N   UNL     1     -11.579  14.511  65.357  1.00  0.00    -0.349 NA 
ENDROOT
BRANCH   4   8
HETATM    8  N   UNL     1      -8.745  11.718  66.384  1.00  0.00    -0.290 NA 
HETATM    9  H   UNL     1      -8.098  11.430  65.649  1.00  0.00     0.000 HD 
BRANCH   8  10
HETATM   10  C   UNL     1      -8.596  11.105  67.576  1.00  0.00    -0.129 A  
HETATM   11  S   UNL     1      -9.804   9.983  68.042  1.00  0.00    -0.145 SA 
HETATM   12  N   UNL     1      -7.632  11.264  68.463  1.00  0.00    -0.115 NA 
HETATM   13  C   UNL     1      -7.938  10.595  69.632  1.00  0.00    -0.003 A  
HETATM   14  C   UNL     1      -9.123   9.893  69.609  1.00  0.00    -0.227 A  
BRANCH  14  15
HETATM   15  C   UNL     1      -9.801   9.217  70.689  1.00  0.00    -0.270 C  
HETATM   16  O   UNL     1     -10.824   9.658  71.203  1.00  0.00    -0.337 OA 
HETATM   17  H   UNL     1      -8.246   7.845  70.713  1.00  0.00     0.000 HD 
HETATM   18  N   UNL     1      -9.162   8.061  71.109  1.00  0.00    -0.146 N  
BRANCH  18  19
HETATM   19  C   UNL     1      -9.707   7.172  72.047  1.00  0.00    -0.157 A  
HETATM   20  C   UNL     1      -9.807   6.343  74.315  1.00  0.00    -0.320 A  
HETATM   21  C   UNL     1      -8.175   8.168  73.853  1.00  0.00    -0.311 C  
HETATM   22  C   UNL     1      -9.239   7.218  73.374  1.00  0.00    -0.227 A  
HETATM   23  C   UNL     1     -10.796   5.430  73.944  1.00  0.00    -0.228 A  
HETATM   24  C   UNL     1     -11.209   5.347  72.620  1.00  0.00    -0.333 A  
HETATM   25  C   UNL     1     -10.663   6.206  71.668  1.00  0.00    -0.245 A  
HETATM   26 CL   UNL     1     -11.062   5.898  70.008  1.00  0.00    -0.435 Cl 
ENDBRANCH  18  19
ENDBRANCH  14  15
ENDBRANCH   8  10
ENDBRANCH   4   8
BRANCH   5  27
HETATM   27  N   UNL     1     -10.638  16.104  66.871  1.00  0.00    -0.306 NA 
HETATM   28  C   UNL     1     -10.386  17.250  65.972  1.00  0.00    -0.305 C  
HETATM   29  C   UNL     1      -9.903  16.194  68.142  1.00  0.00    -0.227 C  
HETATM   30  N   UNL     1     -10.004  18.775  67.976  1.00  0.00    -0.337 NA 
HETATM   31  C   UNL     1     -10.727  18.565  66.700  1.00  0.00    -0.233 C  
HETATM   32  C   UNL     1     -10.212  17.559  68.819  1.00  0.00    -0.373 C  
BRANCH  30  33
HETATM   33  C   UNL     1      -8.559  19.031  67.786  1.00  0.00    -0.298 C  
BRANCH  33  34
HETATM   34  C   UNL     1      -8.244  19.920  66.570  1.00  0.00    -0.331 C  
HETATM   35  H   UNL     1      -7.253  19.764  64.872  1.00  0.00     0.000 HD 
HETATM   36  O   UNL     1      -7.447  19.215  65.623  1.00  0.00    -0.448 OA 
ENDBRANCH  33  34
ENDBRANCH  30  33
ENDBRANCH   5  27
TORSDOF 7
ENDMDL
MODEL       50
REMARK 921   NORMALIZED FREE ENERGY PREDICTED BY IDOCK:   -6.83 KCAL/MOL
REMARK 922        TOTAL FREE ENERGY PREDICTED BY IDOCK:  -10.01 KCAL/MOL
REMARK 923 INTER-LIGAND FREE ENERGY PREDICTED BY IDOCK:   -9.16 KCAL/MOL
REMARK 924 INTRA-LIGAND FREE ENERGY PREDICTED BY IDOCK:   -0.84 KCAL/MOL
REMARK 927      BINDING AFFINITY PREDICTED BY RF-SCORE:    0.00 PKD
ROOT
HETATM    1  C   UNL     1     -13.054  10.487  71.947  1.00  0.00    -0.567 C  
HETATM    2  C   UNL     1     -12.307  10.218  70.678  1.00  0.00    -0.325 A  
HETATM    3  N   UNL     1     -12.452  11.108  69.681  1.00  0.00    -0.211 NA 
HETATM    4  C   UNL     1     -11.680  10.928  68.603  1.00  0.00    -0.263 A  
HETATM    5  C   UNL     1     -10.745   8.965  69.548  1.00  0.00    -0.199 A  
HETATM    6  C   UNL     1     -10.762   9.912  68.547  1.00  0.00    -0.260 A  
HETATM    7  N   UNL     1     -11.504   9.136  70.643  1.00  0.00    -0.269 NA 
ENDROOT
BRANCH   4   8
HETATM    8  N   UNL     1     -11.837  11.841  67.566  1.00  0.00    -0.617 NA 
HETATM    9  H   UNL     1     -12.170  11.458  66.681  1.00  0.00     0.000 HD 
BRANCH   8  10
HETATM   10  C   UNL     1     -11.604  13.169  67.586  1.00  0.00    -0.349 A  
HETATM   11  S   UNL     1     -10.430  13.780  66.497  1.00  0.00    -0.285 SA 
HETATM   12  N   UNL     1     -12.157  14.085  68.357  1.00  0.00    -0.336 NA 
HETATM   13  C   UNL     1     -11.517  15.299  68.199  1.00  0.00    -0.346 A  
HETATM   14  C   UNL     1     -10.500  15.305  67.270  1.00  0.00    -0.275 A  
BRANCH  14  15
HETATM   15  C   UNL     1      -9.548  16.347  66.970  1.00  0.00    -0.237 C  
HETATM   16  O   UNL     1      -8.967  16.418  65.891  1.00  0.00    -0.433 OA 
HETATM   17  H   UNL     1      -9.756  17.004  68.926  1.00  0.00     0.000 HD 
HETATM   18  N   UNL     1      -9.329  17.220  68.025  1.00  0.00    -0.257 N  
BRANCH  18  19
HETATM   19  C   UNL     1      -8.553  18.384  67.918  1.00  0.00    -0.272 A  
HETATM   20  C   UNL     1      -6.477  19.546  68.341  1.00  0.00    -0.283 A  
HETATM   21  C   UNL     1      -6.652  17.210  69.186  1.00  0.00    -0.231 C  
HETATM   22  C   UNL     1      -7.259  18.387  68.473  1.00  0.00    -0.298 A  
HETATM   23  C   UNL     1      -6.975  20.680  67.697  1.00  0.00    -0.376 A  
HETATM   24  C   UNL     1      -8.274  20.692  67.206  1.00  0.00    -0.309 A  
HETATM   25  C   UNL     1      -9.069  19.554  67.322  1.00  0.00    -0.305 A  
HETATM   26 CL   UNL     1     -10.741  19.713  66.888  1.00  0.00    -0.592 Cl 
ENDBRANCH  18  19
ENDBRANCH  14  15
ENDBRANCH   8  10
ENDBRANCH   4   8
BRANCH   5  27
HETATM   27  N   UNL     1      -9.891   7.863  69.423  1.00  0.00    -0.177 NA 
HETATM   28  C   UNL     1      -9.616   7.432  68.036  1.00  0.00    -0.141 C  
HETATM   29  C   UNL     1     -10.158   6.738  70.333  1.00  0.00    -0.183 C  
HETATM   30  N   UNL     1      -8.625   5.244  68.880  1.00  0.00    -0.091 NA 
HETATM   31  C   UNL     1      -8.438   6.439  68.024  1.00  0.00    -0.118 C  
HETATM   32  C   UNL     1      -8.987   5.719  70.249  1.00  0.00    -0.141 C  
BRANCH  30  33
HETATM   33  C   UNL     1      -9.659   4.320  68.364  1.00  0.00    -0.133 C  
BRANCH  33  34
HETATM   34  C   UNL     1      -9.084   3.024  67.764  1.00  0.00    -0.181 C  
HETATM   35  H   UNL     1      -8.134   2.477  66.124  1.00  0.00     0.000 HD 
HETATM   36  O   UNL     1      -8.489   3.276  66.494  1.00  0.00    -0.100 OA 
ENDBRANCH  33  34
ENDBRANCH  30  33
ENDBRANCH   5  27
TORSDOF 7
ENDMDL
MODEL       51
REMARK 921   NORMALIZED FREE ENERGY PREDICTED BY IDOCK:   -6.81 KCAL/MOL
REMARK 922        TOTAL FREE ENERGY PREDICTED BY IDOCK:   -9.97 KCAL/MOL
REMARK 923 INTER-LIGAND FREE ENERGY PREDICTED BY IDOCK:   -9.00 KCAL/MOL
REMARK 924 INTRA-LIGAND FREE ENERGY PREDICTED BY IDOCK:   -0.97 KCAL/MOL
REMARK 927      BINDING AFFINITY PREDICTED BY RF-SCORE:    0.00 PKD
ROOT
HETATM    1  C   UNL     1     -12.075  12.885  63.392  1.00  0.00    -0.610 C  
HETATM    2  C   UNL     1     -11.916  13.229  64.840  1.00  0.00    -0.378 A  
HETATM    3  N   UNL     1     -12.061  12.230  65.728  1.00  0.00    -0.603 NA 
HETATM    4  C   UNL     1     -11.788  12.522  67.004  1.00  0.00    -0.323 A  
HETATM    5  C   UNL     1     -11.328  14.777  66.435  1.00  0.00    -0.339 A  
HETATM    6  C   UNL     1     -11.343  13.765  67.371  1.00  0.00    -0.348 A  
HETATM    7  N   UNL     1     -11.587  14.500  65.146  1.00  0.00    -0.359 NA 
ENDROOT
BRANCH   4   8
HETATM    8  N   UNL     1     -11.949  11.493  67.926  1.00  0.00    -0.641 NA 
HETATM    9  H   UNL     1     -12.861  11.440  68.381  1.00  0.00     0.000 HD 
BRANCH   8  10
HETATM   10  C   UNL     1     -11.049  10.558  68.293  1.00  0.00    -0.284 A  
HETATM   11  S   UNL     1     -11.132   9.971  69.900  1.00  0.00    -0.302 SA 
HETATM   12  N   UNL     1     -10.079  10.029  67.571  1.00  0.00    -0.186 NA 
HETATM   13  C   UNL     1      -9.263   9.245  68.362  1.00  0.00    -0.131 A  
HETATM   14  C   UNL     1      -9.646   9.150  69.682  1.00  0.00    -0.176 A  
BRANCH  14  15
HETATM   15  C   UNL     1      -8.950   8.543  70.790  1.00  0.00    -0.165 C  
HETATM   16  O   UNL     1      -8.128   9.154  71.466  1.00  0.00    -0.337 OA 
HETATM   17  H   UNL     1      -9.859   6.748  70.289  1.00  0.00     0.000 HD 
HETATM   18  N   UNL     1      -9.267   7.207  70.981  1.00  0.00    -0.158 N  
BRANCH  18  19
HETATM   19  C   UNL     1      -8.819   6.453  72.076  1.00  0.00    -0.134 A  
HETATM   20  C   UNL     1      -9.144   5.676  74.341  1.00  0.00    -0.123 A  
HETATM   21  C   UNL     1     -10.866   7.223  73.422  1.00  0.00    -0.370 C  
HETATM   22  C   UNL     1      -9.585   6.452  73.257  1.00  0.00    -0.158 A  
HETATM   23  C   UNL     1      -7.962   4.937  74.263  1.00  0.00    -0.096 A  
HETATM   24  C   UNL     1      -7.178   4.991  73.118  1.00  0.00    -0.086 A  
HETATM   25  C   UNL     1      -7.595   5.753  72.028  1.00  0.00    -0.101 A  
HETATM   26 CL   UNL     1      -6.465   5.948  70.725  1.00  0.00    -0.039 Cl 
ENDBRANCH  18  19
ENDBRANCH  14  15
ENDBRANCH   8  10
ENDBRANCH   4   8
BRANCH   5  27
HETATM   27  N   UNL     1     -10.991  16.073  66.844  1.00  0.00    -0.197 NA 
HETATM   28  C   UNL     1     -10.260  16.880  65.845  1.00  0.00    -0.314 C  
HETATM   29  C   UNL     1     -10.435  16.193  68.201  1.00  0.00    -0.279 C  
HETATM   30  N   UNL     1      -9.651  18.592  67.629  1.00  0.00    -0.281 NA 
HETATM   31  C   UNL     1     -10.234  18.356  66.287  1.00  0.00    -0.406 C  
HETATM   32  C   UNL     1     -10.356  17.696  68.594  1.00  0.00    -0.359 C  
BRANCH  30  33
HETATM   33  C   UNL     1      -8.191  18.353  67.675  1.00  0.00    -0.254 C  
BRANCH  33  34
HETATM   34  C   UNL     1      -7.401  19.156  66.626  1.00  0.00    -0.222 C  
HETATM   35  H   UNL     1      -6.118  18.786  65.174  1.00  0.00     0.000 HD 
HETATM   36  O   UNL     1      -6.605  18.290  65.822  1.00  0.00    -0.241 OA 
ENDBRANCH  33  34
ENDBRANCH  30  33
ENDBRANCH   5  27
TORSDOF 7
ENDMDL
MODEL       52
REMARK 921   NORMALIZED FREE ENERGY PREDICTED BY IDOCK:   -6.80 KCAL/MOL
REMARK 922        TOTAL FREE ENERGY PREDICTED BY IDOCK:   -9.96 KCAL/MOL
REMARK 923 INTER-LIGAND FREE ENERGY PREDICTED BY IDOCK:   -8.97 KCAL/MOL
REMARK 924 INTRA-LIGAND FREE ENERGY PREDICTED BY IDOCK:   -1.00 KCAL/MOL
REMARK 927      BINDING AFFINITY PREDICTED BY RF-SCORE:    0.00 PKD
ROOT
HETATM    1  C   UNL     1     -10.241  11.108  64.805  1.00  0.00    -0.365 C  
HETATM    2  C   UNL     1     -10.696  11.784  66.060  1.00  0.00    -0.279 A  
HETATM    3  N   UNL     1     -11.491  11.077  66.883  1.00  0.00    -0.353 NA 
HETATM    4  C   UNL     1     -11.783  11.641  68.061  1.00  0.00    -0.281 A  
HETATM    5  C   UNL     1     -10.548  13.582  67.485  1.00  0.00    -0.244 A  
HETATM    6  C   UNL     1     -11.259  12.856  68.417  1.00  0.00    -0.305 A  
HETATM    7  N   UNL     1     -10.235  13.026  66.303  1.00  0.00    -0.281 NA 
ENDROOT
BRANCH   4   8
HETATM    8  N   UNL     1     -12.615  10.918  68.908  1.00  0.00    -0.604 NA 
HETATM    9  H   UNL     1     -13.574  10.787  68.587  1.00  0.00     0.000 HD 
BRANCH   8  10
HETATM   10  C   UNL     1     -12.310  10.368  70.101  1.00  0.00    -0.208 A  
HETATM   11  S   UNL     1     -10.848   9.480  70.210  1.00  0.00    -0.290 SA 
HETATM   12  N   UNL     1     -13.005  10.408  71.222  1.00  0.00    -0.394 NA 
HETATM   13  C   UNL     1     -12.445   9.570  72.166  1.00  0.00    -0.301 A  
HETATM   14  C   UNL     1     -11.296   8.925  71.765  1.00  0.00    -0.361 A  
BRANCH  14  15
HETATM   15  C   UNL     1     -10.552   7.888  72.439  1.00  0.00    -0.298 C  
HETATM   16  O   UNL     1     -10.918   7.400  73.503  1.00  0.00    -0.344 OA 
HETATM   17  H   UNL     1      -9.088   8.089  70.984  1.00  0.00     0.000 HD 
HETATM   18  N   UNL     1      -9.378   7.537  71.791  1.00  0.00    -0.144 N  
BRANCH  18  19
HETATM   19  C   UNL     1      -8.566   6.463  72.187  1.00  0.00    -0.125 A  
HETATM   20  C   UNL     1      -7.975   4.126  72.009  1.00  0.00    -0.085 A  
HETATM   21  C   UNL     1      -9.894   4.911  70.629  1.00  0.00    -0.289 C  
HETATM   22  C   UNL     1      -8.806   5.193  71.630  1.00  0.00    -0.145 A  
HETATM   23  C   UNL     1      -6.947   4.311  72.936  1.00  0.00    -0.062 A  
HETATM   24  C   UNL     1      -6.755   5.552  73.529  1.00  0.00    -0.078 A  
HETATM   25  C   UNL     1      -7.565   6.626  73.167  1.00  0.00    -0.088 A  
HETATM   26 CL   UNL     1      -7.412   8.079  74.103  1.00  0.00    -0.203 Cl 
ENDBRANCH  18  19
ENDBRANCH  14  15
ENDBRANCH   8  10
ENDBRANCH   4   8
BRANCH   5  27
HETATM   27  N   UNL     1     -10.122  14.874  67.815  1.00  0.00    -0.233 NA 
HETATM   28  C   UNL     1     -11.190  15.895  67.876  1.00  0.00    -0.297 C  
HETATM   29  C   UNL     1      -8.912  15.346  67.124  1.00  0.00    -0.218 C  
HETATM   30  N   UNL     1      -9.452  17.755  67.900  1.00  0.00    -0.265 NA 
HETATM   31  C   UNL     1     -10.650  17.172  68.548  1.00  0.00    -0.361 C  
HETATM   32  C   UNL     1      -8.430  16.672  67.778  1.00  0.00    -0.187 C  
BRANCH  30  33
HETATM   33  C   UNL     1      -9.741  18.344  66.574  1.00  0.00    -0.348 C  
BRANCH  33  34
HETATM   34  C   UNL     1     -10.449  19.709  66.646  1.00  0.00    -0.497 C  
HETATM   35  H   UNL     1      -9.988  21.562  67.142  1.00  0.00     0.000 HD 
HETATM   36  O   UNL     1      -9.551  20.720  67.098  1.00  0.00    -0.433 OA 
ENDBRANCH  33  34
ENDBRANCH  30  33
ENDBRANCH   5  27
TORSDOF 7
ENDMDL
MODEL       53
REMARK 921   NORMALIZED FREE ENERGY PREDICTED BY IDOCK:   -6.79 KCAL/MOL
REMARK 922        TOTAL FREE ENERGY PREDICTED BY IDOCK:   -9.94 KCAL/MOL
REMARK 923 INTER-LIGAND FREE ENERGY PREDICTED BY IDOCK:   -9.29 KCAL/MOL
REMARK 924 INTRA-LIGAND FREE ENERGY PREDICTED BY IDOCK:   -0.66 KCAL/MOL
REMARK 927      BINDING AFFINITY PREDICTED BY RF-SCORE:    0.00 PKD
ROOT
HETATM    1  C   UNL     1     -13.035  16.052  73.696  1.00  0.00    -0.673 C  
HETATM    2  C   UNL     1     -12.630  15.182  72.548  1.00  0.00    -0.354 A  
HETATM    3  N   UNL     1     -13.039  13.901  72.576  1.00  0.00    -0.442 NA 
HETATM    4  C   UNL     1     -12.784  13.170  71.485  1.00  0.00    -0.269 A  
HETATM    5  C   UNL     1     -11.677  15.001  70.464  1.00  0.00    -0.297 A  
HETATM    6  C   UNL     1     -12.177  13.718  70.385  1.00  0.00    -0.433 A  
HETATM    7  N   UNL     1     -11.934  15.754  71.546  1.00  0.00    -0.398 NA 
ENDROOT
BRANCH   4   8
HETATM    8  N   UNL     1     -13.194  11.842  71.516  1.00  0.00    -0.296 NA 
HETATM    9  H   UNL     1     -14.147  11.676  71.842  1.00  0.00     0.000 HD 
BRANCH   8  10
HETATM   10  C   UNL     1     -12.488  10.746  71.169  1.00  0.00    -0.414 A  
HETATM   11  S   UNL     1     -12.986   9.245  71.829  1.00  0.00    -0.428 SA 
HETATM   12  N   UNL     1     -11.432  10.669  70.383  1.00  0.00    -0.325 NA 
HETATM   13  C   UNL     1     -10.890   9.399  70.427  1.00  0.00    -0.269 A  
HETATM   14  C   UNL     1     -11.570   8.503  71.221  1.00  0.00    -0.283 A  
BRANCH  14  15
HETATM   15  C   UNL     1     -11.200   7.160  71.599  1.00  0.00    -0.244 C  
HETATM   16  O   UNL     1     -11.992   6.380  72.118  1.00  0.00    -0.325 OA 
HETATM   17  H   UNL     1      -9.253   7.616  71.049  1.00  0.00     0.000 HD 
HETATM   18  N   UNL     1      -9.867   6.863  71.358  1.00  0.00    -0.178 N  
BRANCH  18  19
HETATM   19  C   UNL     1      -9.319   5.581  71.518  1.00  0.00    -0.147 A  
HETATM   20  C   UNL     1      -7.991   4.033  72.814  1.00  0.00    -0.084 A  
HETATM   21  C   UNL     1      -8.201   6.351  73.699  1.00  0.00    -0.113 C  
HETATM   22  C   UNL     1      -8.516   5.324  72.645  1.00  0.00    -0.117 A  
HETATM   23  C   UNL     1      -8.236   3.028  71.876  1.00  0.00    -0.059 A  
HETATM   24  C   UNL     1      -8.978   3.304  70.734  1.00  0.00    -0.165 A  
HETATM   25  C   UNL     1      -9.512   4.578  70.545  1.00  0.00    -0.176 A  
HETATM   26 CL   UNL     1     -10.234   4.908  69.003  1.00  0.00    -0.216 Cl 
ENDBRANCH  18  19
ENDBRANCH  14  15
ENDBRANCH   8  10
ENDBRANCH   4   8
BRANCH   5  27
HETATM   27  N   UNL     1     -10.950  15.511  69.381  1.00  0.00    -0.255 NA 
HETATM   28  C   UNL     1     -10.158  16.726  69.670  1.00  0.00    -0.025 C  
HETATM   29  C   UNL     1     -11.670  15.583  68.101  1.00  0.00    -0.229 C  
HETATM   30  N   UNL     1      -9.807  17.125  67.180  1.00  0.00    -0.263 NA 
HETATM   31  C   UNL     1      -9.176  16.993  68.513  1.00  0.00    -0.266 C  
HETATM   32  C   UNL     1     -10.665  15.921  66.963  1.00  0.00    -0.292 C  
BRANCH  30  33
HETATM   33  C   UNL     1     -10.608  18.361  67.039  1.00  0.00    -0.366 C  
BRANCH  33  34
HETATM   34  C   UNL     1      -9.960  19.414  66.122  1.00  0.00    -0.425 C  
HETATM   35  H   UNL     1      -8.209  19.716  65.264  1.00  0.00     0.000 HD 
HETATM   36  O   UNL     1      -8.609  19.067  65.830  1.00  0.00    -0.461 OA 
ENDBRANCH  33  34
ENDBRANCH  30  33
ENDBRANCH   5  27
TORSDOF 7
ENDMDL
MODEL       54
REMARK 921   NORMALIZED FREE ENERGY PREDICTED BY IDOCK:   -6.75 KCAL/MOL
REMARK 922        TOTAL FREE ENERGY PREDICTED BY IDOCK:   -9.89 KCAL/MOL
REMARK 923 INTER-LIGAND FREE ENERGY PREDICTED BY IDOCK:   -9.15 KCAL/MOL
REMARK 924 INTRA-LIGAND FREE ENERGY PREDICTED BY IDOCK:   -0.75 KCAL/MOL
REMARK 927      BINDING AFFINITY PREDICTED BY RF-SCORE:    0.00 PKD
ROOT
HETATM    1  C   UNL     1      -8.325   4.211  65.865  1.00  0.00    -0.109 C  
HETATM    2  C   UNL     1      -8.705   5.562  66.382  1.00  0.00    -0.123 A  
HETATM    3  N   UNL     1      -8.623   6.593  65.523  1.00  0.00    -0.130 NA 
HETATM    4  C   UNL     1      -9.089   7.770  65.956  1.00  0.00    -0.121 A  
HETATM    5  C   UNL     1      -9.604   6.834  68.073  1.00  0.00    -0.117 A  
HETATM    6  C   UNL     1      -9.657   7.897  67.197  1.00  0.00    -0.222 A  
HETATM    7  N   UNL     1      -9.151   5.642  67.651  1.00  0.00    -0.107 NA 
ENDROOT
BRANCH   4   8
HETATM    8  N   UNL     1      -8.993   8.840  65.074  1.00  0.00    -0.403 NA 
HETATM    9  H   UNL     1      -8.339   8.724  64.300  1.00  0.00     0.000 HD 
BRANCH   8  10
HETATM   10  C   UNL     1      -9.660  10.012  65.115  1.00  0.00    -0.291 A  
HETATM   11  S   UNL     1      -9.624  10.888  66.587  1.00  0.00    -0.190 SA 
HETATM   12  N   UNL     1     -10.365  10.586  64.159  1.00  0.00    -0.235 NA 
HETATM   13  C   UNL     1     -11.042  11.684  64.653  1.00  0.00    -0.278 A  
HETATM   14  C   UNL     1     -10.810  11.963  65.982  1.00  0.00    -0.299 A  
BRANCH  14  15
HETATM   15  C   UNL     1     -11.456  12.932  66.834  1.00  0.00    -0.341 C  
HETATM   16  O   UNL     1     -12.456  13.552  66.487  1.00  0.00    -0.359 OA 
HETATM   17  H   UNL     1      -9.916  12.656  68.196  1.00  0.00     0.000 HD 
HETATM   18  N   UNL     1     -10.814  13.117  68.049  1.00  0.00    -0.235 N  
BRANCH  18  19
HETATM   19  C   UNL     1     -11.335  13.904  69.087  1.00  0.00    -0.286 A  
HETATM   20  C   UNL     1     -12.557  14.063  71.166  1.00  0.00    -0.445 A  
HETATM   21  C   UNL     1     -12.320  11.793  70.169  1.00  0.00    -0.272 C  
HETATM   22  C   UNL     1     -12.060  13.274  70.116  1.00  0.00    -0.403 A  
HETATM   23  C   UNL     1     -12.359  15.445  71.183  1.00  0.00    -0.444 A  
HETATM   24  C   UNL     1     -11.696  16.070  70.134  1.00  0.00    -0.290 A  
HETATM   25  C   UNL     1     -11.192  15.308  69.082  1.00  0.00    -0.278 A  
HETATM   26 CL   UNL     1     -10.574  16.171  67.709  1.00  0.00    -0.302 Cl 
ENDBRANCH  18  19
ENDBRANCH  14  15
ENDBRANCH   8  10
ENDBRANCH   4   8
BRANCH   5  27
HETATM   27  N   UNL     1     -10.075   7.010  69.380  1.00  0.00    -0.166 NA 
HETATM   28  C   UNL     1     -10.911   5.908  69.903  1.00  0.00    -0.369 C  
HETATM   29  C   UNL     1     -10.614   8.342  69.694  1.00  0.00    -0.222 C  
HETATM   30  N   UNL     1     -11.672   7.368  71.845  1.00  0.00    -0.279 NA 
HETATM   31  C   UNL     1     -11.092   6.071  71.424  1.00  0.00    -0.274 C  
HETATM   32  C   UNL     1     -10.852   8.453  71.226  1.00  0.00    -0.239 C  
BRANCH  30  33
HETATM   33  C   UNL     1     -13.095   7.515  71.467  1.00  0.00    -0.356 C  
BRANCH  33  34
HETATM   34  C   UNL     1     -13.658   8.925  71.723  1.00  0.00    -0.412 C  
HETATM   35  H   UNL     1     -14.741   9.830  73.100  1.00  0.00     0.000 HD 
HETATM   36  O   UNL     1     -14.393   8.960  72.942  1.00  0.00    -0.548 OA 
ENDBRANCH  33  34
ENDBRANCH  30  33
ENDBRANCH   5  27
TORSDOF 7
ENDMDL
MODEL       55
REMARK 921   NORMALIZED FREE ENERGY PREDICTED BY IDOCK:   -6.73 KCAL/MOL
REMARK 922        TOTAL FREE ENERGY PREDICTED BY IDOCK:   -9.86 KCAL/MOL
REMARK 923 INTER-LIGAND FREE ENERGY PREDICTED BY IDOCK:   -8.85 KCAL/MOL
REMARK 924 INTRA-LIGAND FREE ENERGY PREDICTED BY IDOCK:   -1.02 KCAL/MOL
REMARK 927      BINDING AFFINITY PREDICTED BY RF-SCORE:    0.00 PKD
ROOT
HETATM    1  C   UNL     1     -13.802  14.184  72.512  1.00  0.00    -0.590 C  
HETATM    2  C   UNL     1     -13.062  13.205  71.656  1.00  0.00    -0.353 A  
HETATM    3  N   UNL     1     -13.018  11.930  72.079  1.00  0.00    -0.352 NA 
HETATM    4  C   UNL     1     -12.469  11.041  71.244  1.00  0.00    -0.370 A  
HETATM    5  C   UNL     1     -11.981  12.753  69.678  1.00  0.00    -0.288 A  
HETATM    6  C   UNL     1     -12.016  11.415  70.005  1.00  0.00    -0.442 A  
HETATM    7  N   UNL     1     -12.539  13.658  70.499  1.00  0.00    -0.299 NA 
ENDROOT
BRANCH   4   8
HETATM    8  N   UNL     1     -12.411   9.724  71.685  1.00  0.00    -0.384 NA 
HETATM    9  H   UNL     1     -13.244   9.375  72.160  1.00  0.00     0.000 HD 
BRANCH   8  10
HETATM   10  C   UNL     1     -11.390   8.851  71.564  1.00  0.00    -0.325 A  
HETATM   11  S   UNL     1     -11.419   7.786  70.222  1.00  0.00    -0.022 SA 
HETATM   12  N   UNL     1     -10.353   8.690  72.362  1.00  0.00    -0.301 NA 
HETATM   13  C   UNL     1      -9.630   7.572  71.994  1.00  0.00    -0.154 A  
HETATM   14  C   UNL     1     -10.105   6.911  70.882  1.00  0.00    -0.194 A  
BRANCH  14  15
HETATM   15  C   UNL     1      -9.683   5.649  70.324  1.00  0.00    -0.178 C  
HETATM   16  O   UNL     1     -10.039   4.571  70.789  1.00  0.00    -0.214 OA 
HETATM   17  H   UNL     1      -8.466   6.711  69.023  1.00  0.00     0.000 HD 
HETATM   18  N   UNL     1      -8.811   5.780  69.254  1.00  0.00    -0.116 N  
BRANCH  18  19
HETATM   19  C   UNL     1      -8.379   4.698  68.472  1.00  0.00    -0.086 A  
HETATM   20  C   UNL     1      -6.671   3.080  67.920  1.00  0.00    -0.044 A  
HETATM   21  C   UNL     1      -6.131   4.720  69.715  1.00  0.00    -0.018 C  
HETATM   22  C   UNL     1      -7.089   4.179  68.689  1.00  0.00    -0.055 A  
HETATM   23  C   UNL     1      -7.503   2.526  66.945  1.00  0.00    -0.069 A  
HETATM   24  C   UNL     1      -8.750   3.081  66.693  1.00  0.00    -0.135 A  
HETATM   25  C   UNL     1      -9.189   4.171  67.444  1.00  0.00    -0.157 A  
HETATM   26 CL   UNL     1     -10.654   4.945  66.928  1.00  0.00    -0.202 Cl 
ENDBRANCH  18  19
ENDBRANCH  14  15
ENDBRANCH   8  10
ENDBRANCH   4   8
BRANCH   5  27
HETATM   27  N   UNL     1     -11.403  13.138  68.461  1.00  0.00    -0.265 NA 
HETATM   28  C   UNL     1     -11.725  14.510  68.015  1.00  0.00    -0.342 C  
HETATM   29  C   UNL     1     -11.473  12.147  67.376  1.00  0.00    -0.345 C  
HETATM   30  N   UNL     1     -10.820  13.999  65.691  1.00  0.00    -0.288 NA 
HETATM   31  C   UNL     1     -10.792  14.912  66.857  1.00  0.00    -0.319 C  
HETATM   32  C   UNL     1     -10.577  12.613  66.194  1.00  0.00    -0.258 C  
BRANCH  30  33
HETATM   33  C   UNL     1     -12.094  14.060  64.940  1.00  0.00    -0.420 C  
BRANCH  33  34
HETATM   34  C   UNL     1     -12.043  13.338  63.581  1.00  0.00    -0.485 C  
HETATM   35  H   UNL     1     -12.965  11.835  62.697  1.00  0.00     0.000 HD 
HETATM   36  O   UNL     1     -12.996  12.280  63.536  1.00  0.00    -0.776 OA 
ENDBRANCH  33  34
ENDBRANCH  30  33
ENDBRANCH   5  27
TORSDOF 7
ENDMDL
MODEL       56
REMARK 921   NORMALIZED FREE ENERGY PREDICTED BY IDOCK:   -6.72 KCAL/MOL
REMARK 922        TOTAL FREE ENERGY PREDICTED BY IDOCK:   -9.85 KCAL/MOL
REMARK 923 INTER-LIGAND FREE ENERGY PREDICTED BY IDOCK:   -8.58 KCAL/MOL
REMARK 924 INTRA-LIGAND FREE ENERGY PREDICTED BY IDOCK:   -1.27 KCAL/MOL
REMARK 927      BINDING AFFINITY PREDICTED BY RF-SCORE:    0.00 PKD
ROOT
HETATM    1  C   UNL     1      -7.448  19.227  65.965  1.00  0.00    -0.295 C  
HETATM    2  C   UNL     1      -7.738  17.780  66.208  1.00  0.00    -0.273 A  
HETATM    3  N   UNL     1      -6.752  17.038  66.744  1.00  0.00    -0.210 NA 
HETATM    4  C   UNL     1      -7.065  15.781  67.078  1.00  0.00    -0.134 A  
HETATM    5  C   UNL     1      -9.271  16.067  66.258  1.00  0.00    -0.333 A  
HETATM    6  C   UNL     1      -8.337  15.298  66.919  1.00  0.00    -0.278 A  
HETATM    7  N   UNL     1      -8.978  17.335  65.926  1.00  0.00    -0.531 NA 
ENDROOT
BRANCH   4   8
HETATM    8  N   UNL     1      -6.043  15.009  67.620  1.00  0.00    -0.288 NA 
HETATM    9  H   UNL     1      -5.106  15.407  67.566  1.00  0.00     0.000 HD 
BRANCH   8  10
HETATM   10  C   UNL     1      -6.140  13.799  68.209  1.00  0.00    -0.111 A  
HETATM   11  S   UNL     1      -6.516  12.462  67.206  1.00  0.00    -0.094 SA 
HETATM   12  N   UNL     1      -5.995  13.497  69.485  1.00  0.00    -0.104 NA 
HETATM   13  C   UNL     1      -6.353  12.183  69.712  1.00  0.00    -0.102 A  
HETATM   14  C   UNL     1      -6.731  11.479  68.590  1.00  0.00    -0.072 A  
BRANCH  14  15
HETATM   15  C   UNL     1      -7.294  10.154  68.494  1.00  0.00    -0.081 C  
HETATM   16  O   UNL     1      -6.609   9.139  68.573  1.00  0.00    -0.054 OA 
HETATM   17  H   UNL     1      -9.124  11.037  68.077  1.00  0.00     0.000 HD 
HETATM   18  N   UNL     1      -8.661  10.147  68.262  1.00  0.00    -0.114 N  
BRANCH  18  19
HETATM   19  C   UNL     1      -9.441   8.981  68.268  1.00  0.00    -0.146 A  
HETATM   20  C   UNL     1     -10.572   7.227  67.050  1.00  0.00    -0.415 A  
HETATM   21  C   UNL     1      -9.426   8.978  65.700  1.00  0.00    -0.273 C  
HETATM   22  C   UNL     1      -9.813   8.408  67.038  1.00  0.00    -0.296 A  
HETATM   23  C   UNL     1     -10.973   6.642  68.253  1.00  0.00    -0.321 A  
HETATM   24  C   UNL     1     -10.656   7.245  69.463  1.00  0.00    -0.244 A  
HETATM   25  C   UNL     1      -9.901   8.416  69.477  1.00  0.00    -0.181 A  
HETATM   26 CL   UNL     1      -9.733   9.227  71.002  1.00  0.00    -0.352 Cl 
ENDBRANCH  18  19
ENDBRANCH  14  15
ENDBRANCH   8  10
ENDBRANCH   4   8
BRANCH   5  27
HETATM   27  N   UNL     1     -10.531  15.519  65.990  1.00  0.00    -0.307 NA 
HETATM   28  C   UNL     1     -11.023  14.547  66.989  1.00  0.00    -0.312 C  
HETATM   29  C   UNL     1     -10.761  15.086  64.603  1.00  0.00    -0.217 C  
HETATM   30  N   UNL     1     -12.854  13.785  65.392  1.00  0.00    -0.705 NA 
HETATM   31  C   UNL     1     -12.520  14.269  66.752  1.00  0.00    -0.101 C  
HETATM   32  C   UNL     1     -12.266  14.747  64.411  1.00  0.00    -0.428 C  
BRANCH  30  33
HETATM   33  C   UNL     1     -12.362  12.415  65.129  1.00  0.00    -0.332 C  
BRANCH  33  34
HETATM   34  C   UNL     1     -12.336  12.045  63.635  1.00  0.00    -0.539 C  
HETATM   35  H   UNL     1     -11.030  11.345  62.333  1.00  0.00     0.000 HD 
HETATM   36  O   UNL     1     -11.046  11.574  63.255  1.00  0.00    -0.341 OA 
ENDBRANCH  33  34
ENDBRANCH  30  33
ENDBRANCH   5  27
TORSDOF 7
ENDMDL
MODEL       57
REMARK 921   NORMALIZED FREE ENERGY PREDICTED BY IDOCK:   -6.69 KCAL/MOL
REMARK 922        TOTAL FREE ENERGY PREDICTED BY IDOCK:   -9.80 KCAL/MOL
REMARK 923 INTER-LIGAND FREE ENERGY PREDICTED BY IDOCK:   -8.58 KCAL/MOL
REMARK 924 INTRA-LIGAND FREE ENERGY PREDICTED BY IDOCK:   -1.22 KCAL/MOL
REMARK 927      BINDING AFFINITY PREDICTED BY RF-SCORE:    0.00 PKD
ROOT
HETATM    1  C   UNL     1      -7.597   5.661  63.697  1.00  0.00    -0.081 C  
HETATM    2  C   UNL     1      -8.080   6.712  64.646  1.00  0.00    -0.088 A  
HETATM    3  N   UNL     1      -8.199   7.963  64.167  1.00  0.00    -0.082 NA 
HETATM    4  C   UNL     1      -8.754   8.865  64.985  1.00  0.00    -0.166 A  
HETATM    5  C   UNL     1      -8.958   7.245  66.703  1.00  0.00    -0.150 A  
HETATM    6  C   UNL     1      -9.215   8.513  66.226  1.00  0.00    -0.262 A  
HETATM    7  N   UNL     1      -8.412   6.323  65.893  1.00  0.00    -0.141 NA 
ENDROOT
BRANCH   4   8
HETATM    8  N   UNL     1      -8.866  10.162  64.496  1.00  0.00    -0.186 NA 
HETATM    9  H   UNL     1      -8.138  10.459  63.846  1.00  0.00     0.000 HD 
BRANCH   8  10
HETATM   10  C   UNL     1      -9.819  11.075  64.775  1.00  0.00    -0.276 A  
HETATM   11  S   UNL     1      -9.549  12.114  66.111  1.00  0.00    -0.225 SA 
HETATM   12  N   UNL     1     -10.966  11.276  64.155  1.00  0.00    -0.357 NA 
HETATM   13  C   UNL     1     -11.742  12.178  64.857  1.00  0.00    -0.313 A  
HETATM   14  C   UNL     1     -11.155  12.692  65.993  1.00  0.00    -0.287 A  
BRANCH  14  15
HETATM   15  C   UNL     1     -11.732  13.529  67.016  1.00  0.00    -0.383 C  
HETATM   16  O   UNL     1     -12.730  14.217  66.820  1.00  0.00    -0.178 OA 
HETATM   17  H   UNL     1     -10.138  13.016  68.239  1.00  0.00     0.000 HD 
HETATM   18  N   UNL     1     -11.029  13.512  68.210  1.00  0.00    -0.249 N  
BRANCH  18  19
HETATM   19  C   UNL     1     -11.477  14.139  69.383  1.00  0.00    -0.288 A  
HETATM   20  C   UNL     1     -11.661  16.132  70.737  1.00  0.00    -0.382 A  
HETATM   21  C   UNL     1     -10.412  16.338  68.592  1.00  0.00    -0.282 C  
HETATM   22  C   UNL     1     -11.187  15.502  69.574  1.00  0.00    -0.300 A  
HETATM   23  C   UNL     1     -12.384  15.420  71.697  1.00  0.00    -0.444 A  
HETATM   24  C   UNL     1     -12.614  14.060  71.532  1.00  0.00    -0.432 A  
HETATM   25  C   UNL     1     -12.156  13.413  70.385  1.00  0.00    -0.333 A  
HETATM   26 CL   UNL     1     -12.286  11.683  70.351  1.00  0.00    -0.441 Cl 
ENDBRANCH  18  19
ENDBRANCH  14  15
ENDBRANCH   8  10
ENDBRANCH   4   8
BRANCH   5  27
HETATM   27  N   UNL     1      -9.321   6.930  68.019  1.00  0.00    -0.124 NA 
HETATM   28  C   UNL     1     -10.772   6.766  68.250  1.00  0.00    -0.235 C  
HETATM   29  C   UNL     1      -8.653   7.708  69.072  1.00  0.00    -0.136 C  
HETATM   30  N   UNL     1     -10.409   6.853  70.769  1.00  0.00    -0.202 NA 
HETATM   31  C   UNL     1     -11.008   6.120  69.629  1.00  0.00    -0.389 C  
HETATM   32  C   UNL     1      -8.965   7.075  70.457  1.00  0.00    -0.155 C  
BRANCH  30  33
HETATM   33  C   UNL     1     -11.082   8.142  71.045  1.00  0.00    -0.253 C  
BRANCH  33  34
HETATM   34  C   UNL     1     -11.689   8.231  72.457  1.00  0.00    -0.383 C  
HETATM   35  H   UNL     1     -11.293   7.530  74.257  1.00  0.00     0.000 HD 
HETATM   36  O   UNL     1     -10.918   7.474  73.386  1.00  0.00    -0.380 OA 
ENDBRANCH  33  34
ENDBRANCH  30  33
ENDBRANCH   5  27
TORSDOF 7
ENDMDL
MODEL       58
REMARK 921   NORMALIZED FREE ENERGY PREDICTED BY IDOCK:   -6.67 KCAL/MOL
REMARK 922        TOTAL FREE ENERGY PREDICTED BY IDOCK:   -9.78 KCAL/MOL
REMARK 923 INTER-LIGAND FREE ENERGY PREDICTED BY IDOCK:   -8.70 KCAL/MOL
REMARK 924 INTRA-LIGAND FREE ENERGY PREDICTED BY IDOCK:   -1.08 KCAL/MOL
REMARK 927      BINDING AFFINITY PREDICTED BY RF-SCORE:    0.00 PKD
ROOT
HETATM    1  C   UNL     1     -13.281   9.712  72.032  1.00  0.00    -0.546 C  
HETATM    2  C   UNL     1     -12.222   9.873  70.988  1.00  0.00    -0.353 A  
HETATM    3  N   UNL     1     -12.531  10.614  69.910  1.00  0.00    -0.252 NA 
HETATM    4  C   UNL     1     -11.537  10.859  69.048  1.00  0.00    -0.316 A  
HETATM    5  C   UNL     1     -10.037   9.559  70.344  1.00  0.00    -0.271 A  
HETATM    6  C   UNL     1     -10.264  10.411  69.284  1.00  0.00    -0.248 A  
HETATM    7  N   UNL     1     -11.020   9.312  71.226  1.00  0.00    -0.323 NA 
ENDROOT
BRANCH   4   8
HETATM    8  N   UNL     1     -11.858  11.615  67.926  1.00  0.00    -0.596 NA 
HETATM    9  H   UNL     1     -12.247  11.099  67.136  1.00  0.00     0.000 HD 
BRANCH   8  10
HETATM   10  C   UNL     1     -11.720  12.945  67.753  1.00  0.00    -0.362 A  
HETATM   11  S   UNL     1     -10.521  13.477  66.649  1.00  0.00    -0.277 SA 
HETATM   12  N   UNL     1     -12.386  13.920  68.341  1.00  0.00    -0.139 NA 
HETATM   13  C   UNL     1     -11.823  15.143  68.033  1.00  0.00    -0.202 A  
HETATM   14  C   UNL     1     -10.749  15.090  67.172  1.00  0.00    -0.303 A  
BRANCH  14  15
HETATM   15  C   UNL     1      -9.854  16.147  66.767  1.00  0.00    -0.245 C  
HETATM   16  O   UNL     1      -9.517  16.314  65.599  1.00  0.00    -0.463 OA 
HETATM   17  H   UNL     1      -9.618  16.620  68.772  1.00  0.00     0.000 HD 
HETATM   18  N   UNL     1      -9.389  16.915  67.823  1.00  0.00    -0.233 N  
BRANCH  18  19
HETATM   19  C   UNL     1      -8.620  18.077  67.656  1.00  0.00    -0.247 A  
HETATM   20  C   UNL     1      -6.466  19.171  67.699  1.00  0.00    -0.225 A  
HETATM   21  C   UNL     1      -6.518  16.761  68.325  1.00  0.00    -0.141 C  
HETATM   22  C   UNL     1      -7.234  18.012  67.893  1.00  0.00    -0.222 A  
HETATM   23  C   UNL     1      -7.061  20.371  67.303  1.00  0.00    -0.343 A  
HETATM   24  C   UNL     1      -8.437  20.445  67.131  1.00  0.00    -0.393 A  
HETATM   25  C   UNL     1      -9.221  19.307  67.314  1.00  0.00    -0.303 A  
HETATM   26 CL   UNL     1     -10.942  19.525  67.298  1.00  0.00    -0.563 Cl 
ENDBRANCH  18  19
ENDBRANCH  14  15
ENDBRANCH   8  10
ENDBRANCH   4   8
BRANCH   5  27
HETATM   27  N   UNL     1      -8.761   9.006  70.508  1.00  0.00    -0.186 NA 
HETATM   28  C   UNL     1      -8.462   8.498  71.863  1.00  0.00    -0.170 C  
HETATM   29  C   UNL     1      -7.650   9.772  69.921  1.00  0.00    -0.152 C  
HETATM   30  N   UNL     1      -5.986   8.340  71.290  1.00  0.00    -0.034 NA 
HETATM   31  C   UNL     1      -7.179   7.645  71.827  1.00  0.00    -0.064 C  
HETATM   32  C   UNL     1      -6.355   8.913  69.961  1.00  0.00    -0.037 C  
BRANCH  30  33
HETATM   33  C   UNL     1      -5.483   9.403  72.189  1.00  0.00    -0.063 C  
BRANCH  33  34
HETATM   34  C   UNL     1      -5.210   8.918  73.624  1.00  0.00    -0.093 C  
HETATM   35  H   UNL     1      -5.838   9.340  75.446  1.00  0.00     0.000 HD 
HETATM   36  O   UNL     1      -6.007   9.639  74.560  1.00  0.00    -0.337 OA 
ENDBRANCH  33  34
ENDBRANCH  30  33
ENDBRANCH   5  27
TORSDOF 7
ENDMDL
MODEL       59
REMARK 921   NORMALIZED FREE ENERGY PREDICTED BY IDOCK:   -6.66 KCAL/MOL
REMARK 922        TOTAL FREE ENERGY PREDICTED BY IDOCK:   -9.77 KCAL/MOL
REMARK 923 INTER-LIGAND FREE ENERGY PREDICTED BY IDOCK:   -8.71 KCAL/MOL
REMARK 924 INTRA-LIGAND FREE ENERGY PREDICTED BY IDOCK:   -1.06 KCAL/MOL
REMARK 927      BINDING AFFINITY PREDICTED BY RF-SCORE:    0.00 PKD
ROOT
HETATM    1  C   UNL     1      -5.894   7.856  67.143  1.00  0.00    -0.041 C  
HETATM    2  C   UNL     1      -7.353   8.155  67.297  1.00  0.00    -0.089 A  
HETATM    3  N   UNL     1      -7.995   8.644  66.222  1.00  0.00    -0.101 NA 
HETATM    4  C   UNL     1      -9.321   8.783  66.330  1.00  0.00    -0.204 A  
HETATM    5  C   UNL     1      -9.259   8.019  68.574  1.00  0.00    -0.135 A  
HETATM    6  C   UNL     1      -9.986   8.403  67.467  1.00  0.00    -0.259 A  
HETATM    7  N   UNL     1      -7.928   7.863  68.479  1.00  0.00    -0.119 NA 
ENDROOT
BRANCH   4   8
HETATM    8  N   UNL     1      -9.986   9.301  65.224  1.00  0.00    -0.345 NA 
HETATM    9  H   UNL     1     -10.463   8.622  64.632  1.00  0.00     0.000 HD 
BRANCH   8  10
HETATM   10  C   UNL     1     -10.076  10.590  64.839  1.00  0.00    -0.333 A  
HETATM   11  S   UNL     1      -9.617  11.787  65.975  1.00  0.00    -0.230 SA 
HETATM   12  N   UNL     1     -10.494  11.071  63.683  1.00  0.00    -0.359 NA 
HETATM   13  C   UNL     1     -10.611  12.446  63.747  1.00  0.00    -0.452 A  
HETATM   14  C   UNL     1     -10.239  13.007  64.949  1.00  0.00    -0.284 A  
BRANCH  14  15
HETATM   15  C   UNL     1     -10.373  14.373  65.396  1.00  0.00    -0.378 C  
HETATM   16  O   UNL     1     -11.048  15.200  64.791  1.00  0.00    -0.395 OA 
HETATM   17  H   UNL     1      -9.002  13.945  66.891  1.00  0.00     0.000 HD 
HETATM   18  N   UNL     1      -9.637  14.659  66.535  1.00  0.00    -0.275 N  
BRANCH  18  19
HETATM   19  C   UNL     1      -9.721  15.878  67.225  1.00  0.00    -0.224 A  
HETATM   20  C   UNL     1      -8.774  18.036  67.759  1.00  0.00    -0.251 A  
HETATM   21  C   UNL     1      -7.451  16.570  66.241  1.00  0.00    -0.094 C  
HETATM   22  C   UNL     1      -8.673  16.807  67.087  1.00  0.00    -0.218 A  
HETATM   23  C   UNL     1      -9.875  18.326  68.566  1.00  0.00    -0.400 A  
HETATM   24  C   UNL     1     -10.877  17.381  68.748  1.00  0.00    -0.081 A  
HETATM   25  C   UNL     1     -10.801  16.155  68.090  1.00  0.00    -0.329 A  
HETATM   26 CL   UNL     1     -11.966  14.948  68.534  1.00  0.00    -0.314 Cl 
ENDBRANCH  18  19
ENDBRANCH  14  15
ENDBRANCH   8  10
ENDBRANCH   4   8
BRANCH   5  27
HETATM   27  N   UNL     1      -9.938   7.751  69.770  1.00  0.00    -0.186 NA 
HETATM   28  C   UNL     1     -11.071   6.809  69.654  1.00  0.00    -0.292 C  
HETATM   29  C   UNL     1     -10.242   8.919  70.610  1.00  0.00    -0.217 C  
HETATM   30  N   UNL     1     -11.890   7.464  71.974  1.00  0.00    -0.291 NA 
HETATM   31  C   UNL     1     -11.518   6.360  71.059  1.00  0.00    -0.334 C  
HETATM   32  C   UNL     1     -10.757   8.437  71.996  1.00  0.00    -0.317 C  
BRANCH  30  33
HETATM   33  C   UNL     1     -13.146   8.142  71.582  1.00  0.00    -0.335 C  
BRANCH  33  34
HETATM   34  C   UNL     1     -13.481   9.368  72.449  1.00  0.00    -0.432 C  
HETATM   35  H   UNL     1     -13.510  11.330  72.245  1.00  0.00     0.000 HD 
HETATM   36  O   UNL     1     -13.303  10.573  71.710  1.00  0.00    -0.394 OA 
ENDBRANCH  33  34
ENDBRANCH  30  33
ENDBRANCH   5  27
TORSDOF 7
ENDMDL
MODEL       60
REMARK 921   NORMALIZED FREE ENERGY PREDICTED BY IDOCK:   -6.66 KCAL/MOL
REMARK 922        TOTAL FREE ENERGY PREDICTED BY IDOCK:   -9.76 KCAL/MOL
REMARK 923 INTER-LIGAND FREE ENERGY PREDICTED BY IDOCK:   -8.69 KCAL/MOL
REMARK 924 INTRA-LIGAND FREE ENERGY PREDICTED BY IDOCK:   -1.07 KCAL/MOL
REMARK 927      BINDING AFFINITY PREDICTED BY RF-SCORE:    0.00 PKD
ROOT
HETATM    1  C   UNL     1     -13.652   9.379  72.398  1.00  0.00    -0.498 C  
HETATM    2  C   UNL     1     -12.553   9.656  71.422  1.00  0.00    -0.371 A  
HETATM    3  N   UNL     1     -12.833  10.487  70.403  1.00  0.00    -0.285 NA 
HETATM    4  C   UNL     1     -11.809  10.830  69.613  1.00  0.00    -0.320 A  
HETATM    5  C   UNL     1     -10.335   9.446  70.851  1.00  0.00    -0.310 A  
HETATM    6  C   UNL     1     -10.536  10.387  69.864  1.00  0.00    -0.299 A  
HETATM    7  N   UNL     1     -11.349   9.099  71.661  1.00  0.00    -0.355 NA 
ENDROOT
BRANCH   4   8
HETATM    8  N   UNL     1     -12.099  11.679  68.551  1.00  0.00    -0.499 NA 
HETATM    9  H   UNL     1     -12.558  11.249  67.748  1.00  0.00     0.000 HD 
BRANCH   8  10
HETATM   10  C   UNL     1     -11.848  13.001  68.452  1.00  0.00    -0.334 A  
HETATM   11  S   UNL     1     -10.810  13.514  67.188  1.00  0.00    -0.287 SA 
HETATM   12  N   UNL     1     -12.290  13.977  69.221  1.00  0.00    -0.267 NA 
HETATM   13  C   UNL     1     -11.660  15.164  68.904  1.00  0.00    -0.341 A  
HETATM   14  C   UNL     1     -10.765  15.088  67.859  1.00  0.00    -0.268 A  
BRANCH  14  15
HETATM   15  C   UNL     1      -9.845  16.088  67.374  1.00  0.00    -0.236 C  
HETATM   16  O   UNL     1      -9.391  16.069  66.234  1.00  0.00    -0.267 OA 
HETATM   17  H   UNL     1      -9.821  16.892  69.285  1.00  0.00     0.000 HD 
HETATM   18  N   UNL     1      -9.499  17.033  68.328  1.00  0.00    -0.257 N  
BRANCH  18  19
HETATM   19  C   UNL     1      -8.730  18.172  68.046  1.00  0.00    -0.269 A  
HETATM   20  C   UNL     1      -6.610  19.329  68.146  1.00  0.00    -0.264 A  
HETATM   21  C   UNL     1      -6.710  17.068  69.186  1.00  0.00    -0.241 C  
HETATM   22  C   UNL     1      -7.383  18.197  68.454  1.00  0.00    -0.276 A  
HETATM   23  C   UNL     1      -7.167  20.418  67.473  1.00  0.00    -0.353 A  
HETATM   24  C   UNL     1      -8.512  20.414  67.128  1.00  0.00    -0.393 A  
HETATM   25  C   UNL     1      -9.299  19.301  67.420  1.00  0.00    -0.307 A  
HETATM   26 CL   UNL     1     -11.008  19.454  67.160  1.00  0.00    -0.552 Cl 
ENDBRANCH  18  19
ENDBRANCH  14  15
ENDBRANCH   8  10
ENDBRANCH   4   8
BRANCH   5  27
HETATM   27  N   UNL     1      -9.055   8.905  71.021  1.00  0.00    -0.222 NA 
HETATM   28  C   UNL     1      -7.985   9.559  70.237  1.00  0.00    -0.175 C  
HETATM   29  C   UNL     1      -8.970   7.437  70.998  1.00  0.00    -0.151 C  
HETATM   30  N   UNL     1      -6.404   7.624  70.724  1.00  0.00    -0.038 NA 
HETATM   31  C   UNL     1      -6.608   9.091  70.746  1.00  0.00    -0.063 C  
HETATM   32  C   UNL     1      -7.549   6.996  71.450  1.00  0.00    -0.086 C  
BRANCH  30  33
HETATM   33  C   UNL     1      -6.297   7.076  69.354  1.00  0.00    -0.035 C  
BRANCH  33  34
HETATM   34  C   UNL     1      -5.264   7.805  68.477  1.00  0.00    -0.027 C  
HETATM   35  H   UNL     1      -5.222   8.699  66.718  1.00  0.00     0.000 HD 
HETATM   36  O   UNL     1      -5.859   8.248  67.260  1.00  0.00    -0.041 OA 
ENDBRANCH  33  34
ENDBRANCH  30  33
ENDBRANCH   5  27
TORSDOF 7
ENDMDL
MODEL       61
REMARK 921   NORMALIZED FREE ENERGY PREDICTED BY IDOCK:   -6.63 KCAL/MOL
REMARK 922        TOTAL FREE ENERGY PREDICTED BY IDOCK:   -9.73 KCAL/MOL
REMARK 923 INTER-LIGAND FREE ENERGY PREDICTED BY IDOCK:   -9.15 KCAL/MOL
REMARK 924 INTRA-LIGAND FREE ENERGY PREDICTED BY IDOCK:   -0.58 KCAL/MOL
REMARK 927      BINDING AFFINITY PREDICTED BY RF-SCORE:    0.00 PKD
ROOT
HETATM    1  C   UNL     1     -10.028   6.496  74.427  1.00  0.00    -0.374 C  
HETATM    2  C   UNL     1     -10.728   6.777  73.134  1.00  0.00    -0.296 A  
HETATM    3  N   UNL     1     -11.578   7.818  73.111  1.00  0.00    -0.217 NA 
HETATM    4  C   UNL     1     -12.096   8.139  71.920  1.00  0.00    -0.323 A  
HETATM    5  C   UNL     1     -10.955   6.335  70.890  1.00  0.00    -0.286 A  
HETATM    6  C   UNL     1     -11.738   7.464  70.782  1.00  0.00    -0.305 A  
HETATM    7  N   UNL     1     -10.417   6.004  72.075  1.00  0.00    -0.203 NA 
ENDROOT
BRANCH   4   8
HETATM    8  N   UNL     1     -12.986   9.207  71.896  1.00  0.00    -0.372 NA 
HETATM    9  H   UNL     1     -13.881   9.054  72.360  1.00  0.00     0.000 HD 
BRANCH   8  10
HETATM   10  C   UNL     1     -12.811  10.421  71.334  1.00  0.00    -0.452 A  
HETATM   11  S   UNL     1     -12.110  10.474  69.771  1.00  0.00    -0.162 SA 
HETATM   12  N   UNL     1     -13.099  11.606  71.840  1.00  0.00    -0.455 NA 
HETATM   13  C   UNL     1     -12.600  12.608  71.032  1.00  0.00    -0.262 A  
HETATM   14  C   UNL     1     -11.967  12.175  69.887  1.00  0.00    -0.309 A  
BRANCH  14  15
HETATM   15  C   UNL     1     -11.219  12.937  68.917  1.00  0.00    -0.279 C  
HETATM   16  O   UNL     1     -10.098  12.607  68.542  1.00  0.00    -0.222 OA 
HETATM   17  H   UNL     1     -12.737  14.349  68.959  1.00  0.00     0.000 HD 
HETATM   18  N   UNL     1     -11.868  14.086  68.494  1.00  0.00    -0.352 N  
BRANCH  18  19
HETATM   19  C   UNL     1     -11.395  14.906  67.458  1.00  0.00    -0.342 A  
HETATM   20  C   UNL     1     -10.365  16.973  66.745  1.00  0.00    -0.302 A  
HETATM   21  C   UNL     1     -10.771  16.699  69.187  1.00  0.00    -0.342 C  
HETATM   22  C   UNL     1     -10.861  16.167  67.783  1.00  0.00    -0.318 A  
HETATM   23  C   UNL     1     -10.419  16.548  65.416  1.00  0.00    -0.291 A  
HETATM   24  C   UNL     1     -11.003  15.329  65.095  1.00  0.00    -0.428 A  
HETATM   25  C   UNL     1     -11.500  14.511  66.108  1.00  0.00    -0.357 A  
HETATM   26 CL   UNL     1     -12.407  13.115  65.618  1.00  0.00    -0.515 Cl 
ENDBRANCH  18  19
ENDBRANCH  14  15
ENDBRANCH   8  10
ENDBRANCH   4   8
BRANCH   5  27
HETATM   27  N   UNL     1     -10.695   5.579  69.740  1.00  0.00    -0.324 NA 
HETATM   28  C   UNL     1      -9.492   4.722  69.806  1.00  0.00    -0.162 C  
HETATM   29  C   UNL     1     -10.825   6.293  68.460  1.00  0.00    -0.323 C  
HETATM   30  N   UNL     1      -9.584   4.347  67.289  1.00  0.00    -0.178 NA 
HETATM   31  C   UNL     1      -9.500   3.725  68.631  1.00  0.00    -0.147 C  
HETATM   32  C   UNL     1     -10.759   5.270  67.291  1.00  0.00    -0.027 C  
BRANCH  30  33
HETATM   33  C   UNL     1      -8.354   5.078  66.912  1.00  0.00    -0.107 C  
BRANCH  33  34
HETATM   34  C   UNL     1      -7.065   4.262  67.116  1.00  0.00    -0.067 C  
HETATM   35  H   UNL     1      -6.059   2.866  66.151  1.00  0.00     0.000 HD 
HETATM   36  O   UNL     1      -6.855   3.370  66.025  1.00  0.00    -0.050 OA 
ENDBRANCH  33  34
ENDBRANCH  30  33
ENDBRANCH   5  27
TORSDOF 7
ENDMDL
MODEL       62
REMARK 921   NORMALIZED FREE ENERGY PREDICTED BY IDOCK:   -6.63 KCAL/MOL
REMARK 922        TOTAL FREE ENERGY PREDICTED BY IDOCK:   -9.72 KCAL/MOL
REMARK 923 INTER-LIGAND FREE ENERGY PREDICTED BY IDOCK:   -9.26 KCAL/MOL
REMARK 924 INTRA-LIGAND FREE ENERGY PREDICTED BY IDOCK:   -0.46 KCAL/MOL
REMARK 927      BINDING AFFINITY PREDICTED BY RF-SCORE:    0.00 PKD
ROOT
HETATM    1  C   UNL     1     -10.255  17.177  67.020  1.00  0.00    -0.313 C  
HETATM    2  C   UNL     1     -10.756  15.796  67.304  1.00  0.00    -0.313 A  
HETATM    3  N   UNL     1     -11.354  15.593  68.491  1.00  0.00    -0.342 NA 
HETATM    4  C   UNL     1     -11.914  14.392  68.680  1.00  0.00    -0.297 A  
HETATM    5  C   UNL     1     -11.180  13.667  66.545  1.00  0.00    -0.310 A  
HETATM    6  C   UNL     1     -11.909  13.441  67.693  1.00  0.00    -0.394 A  
HETATM    7  N   UNL     1     -10.622  14.871  66.334  1.00  0.00    -0.299 NA 
ENDROOT
BRANCH   4   8
HETATM    8  N   UNL     1     -12.521  14.175  69.912  1.00  0.00    -0.423 NA 
HETATM    9  H   UNL     1     -12.997  14.979  70.323  1.00  0.00     0.000 HD 
BRANCH   8  10
HETATM   10  C   UNL     1     -12.559  13.034  70.630  1.00  0.00    -0.193 A  
HETATM   11  S   UNL     1     -11.696  11.687  70.016  1.00  0.00    -0.290 SA 
HETATM   12  N   UNL     1     -13.197  12.800  71.761  1.00  0.00    -0.420 NA 
HETATM   13  C   UNL     1     -13.137  11.457  72.079  1.00  0.00    -0.318 A  
HETATM   14  C   UNL     1     -12.413  10.682  71.200  1.00  0.00    -0.418 A  
BRANCH  14  15
HETATM   15  C   UNL     1     -12.275   9.246  71.155  1.00  0.00    -0.301 C  
HETATM   16  O   UNL     1     -13.218   8.487  71.352  1.00  0.00    -0.299 OA 
HETATM   17  H   UNL     1     -10.236   9.521  70.896  1.00  0.00     0.000 HD 
HETATM   18  N   UNL     1     -10.978   8.821  70.914  1.00  0.00    -0.249 N  
BRANCH  18  19
HETATM   19  C   UNL     1     -10.631   7.479  70.693  1.00  0.00    -0.224 A  
HETATM   20  C   UNL     1     -10.220   5.663  69.153  1.00  0.00    -0.305 A  
HETATM   21  C   UNL     1     -10.909   7.843  68.165  1.00  0.00     0.002 C  
HETATM   22  C   UNL     1     -10.592   6.999  69.370  1.00  0.00    -0.248 A  
HETATM   23  C   UNL     1      -9.916   4.818  70.222  1.00  0.00    -0.320 A  
HETATM   24  C   UNL     1     -10.016   5.280  71.528  1.00  0.00    -0.241 A  
HETATM   25  C   UNL     1     -10.381   6.603  71.770  1.00  0.00    -0.196 A  
HETATM   26 CL   UNL     1     -10.698   7.044  73.418  1.00  0.00    -0.372 Cl 
ENDBRANCH  18  19
ENDBRANCH  14  15
ENDBRANCH   8  10
ENDBRANCH   4   8
BRANCH   5  27
HETATM   27  N   UNL     1     -11.078  12.643  65.595  1.00  0.00    -0.284 NA 
HETATM   28  C   UNL     1     -10.059  11.613  65.885  1.00  0.00    -0.230 C  
HETATM   29  C   UNL     1     -11.081  13.072  64.188  1.00  0.00    -0.401 C  
HETATM   30  N   UNL     1     -10.242  10.720  63.508  1.00  0.00    -0.312 NA 
HETATM   31  C   UNL     1     -10.265  10.402  64.954  1.00  0.00    -0.260 C  
HETATM   32  C   UNL     1     -11.221  11.824  63.271  1.00  0.00    -0.267 C  
BRANCH  30  33
HETATM   33  C   UNL     1      -8.899  11.108  63.022  1.00  0.00    -0.151 C  
BRANCH  33  34
HETATM   34  C   UNL     1      -7.900   9.938  62.973  1.00  0.00    -0.138 C  
HETATM   35  H   UNL     1      -6.222   9.419  63.871  1.00  0.00     0.000 HD 
HETATM   36  O   UNL     1      -6.839  10.141  63.902  1.00  0.00    -0.131 OA 
ENDBRANCH  33  34
ENDBRANCH  30  33
ENDBRANCH   5  27
TORSDOF 7
ENDMDL
MODEL       63
REMARK 921   NORMALIZED FREE ENERGY PREDICTED BY IDOCK:   -6.58 KCAL/MOL
REMARK 922        TOTAL FREE ENERGY PREDICTED BY IDOCK:   -9.65 KCAL/MOL
REMARK 923 INTER-LIGAND FREE ENERGY PREDICTED BY IDOCK:   -8.64 KCAL/MOL
REMARK 924 INTRA-LIGAND FREE ENERGY PREDICTED BY IDOCK:   -1.01 KCAL/MOL
REMARK 927      BINDING AFFINITY PREDICTED BY RF-SCORE:    0.00 PKD
ROOT
HETATM    1  C   UNL     1     -12.930  15.407  72.395  1.00  0.00    -0.495 C  
HETATM    2  C   UNL     1     -12.397  14.738  71.168  1.00  0.00    -0.331 A  
HETATM    3  N   UNL     1     -12.485  13.398  71.112  1.00  0.00    -0.357 NA 
HETATM    4  C   UNL     1     -12.126  12.823  69.959  1.00  0.00    -0.285 A  
HETATM    5  C   UNL     1     -11.552  14.931  69.038  1.00  0.00    -0.305 A  
HETATM    6  C   UNL     1     -11.733  13.573  68.881  1.00  0.00    -0.379 A  
HETATM    7  N   UNL     1     -11.918  15.526  70.185  1.00  0.00    -0.343 NA 
ENDROOT
BRANCH   4   8
HETATM    8  N   UNL     1     -12.204  11.436  69.904  1.00  0.00    -0.293 NA 
HETATM    9  H   UNL     1     -13.082  11.051  69.554  1.00  0.00     0.000 HD 
BRANCH   8  10
HETATM   10  C   UNL     1     -11.262  10.536  70.256  1.00  0.00    -0.313 A  
HETATM   11  S   UNL     1     -11.751   9.230  71.251  1.00  0.00    -0.374 SA 
HETATM   12  N   UNL     1      -9.980  10.531  69.943  1.00  0.00    -0.059 NA 
HETATM   13  C   UNL     1      -9.317   9.545  70.649  1.00  0.00    -0.199 A  
HETATM   14  C   UNL     1     -10.116   8.776  71.467  1.00  0.00    -0.301 A  
BRANCH  14  15
HETATM   15  C   UNL     1      -9.731   7.777  72.434  1.00  0.00    -0.192 C  
HETATM   16  O   UNL     1     -10.305   7.647  73.511  1.00  0.00    -0.336 OA 
HETATM   17  H   UNL     1      -8.144   7.287  71.193  1.00  0.00     0.000 HD 
HETATM   18  N   UNL     1      -8.637   7.020  72.045  1.00  0.00    -0.119 N  
BRANCH  18  19
HETATM   19  C   UNL     1      -8.173   5.905  72.760  1.00  0.00    -0.118 A  
HETATM   20  C   UNL     1      -6.565   4.927  74.275  1.00  0.00    -0.069 A  
HETATM   21  C   UNL     1      -6.221   7.314  73.655  1.00  0.00    -0.064 C  
HETATM   22  C   UNL     1      -7.010   6.038  73.541  1.00  0.00    -0.081 A  
HETATM   23  C   UNL     1      -7.243   3.707  74.216  1.00  0.00    -0.053 A  
HETATM   24  C   UNL     1      -8.354   3.564  73.395  1.00  0.00    -0.079 A  
HETATM   25  C   UNL     1      -8.817   4.653  72.659  1.00  0.00    -0.114 A  
HETATM   26 CL   UNL     1     -10.066   4.344  71.495  1.00  0.00    -0.249 Cl 
ENDBRANCH  18  19
ENDBRANCH  14  15
ENDBRANCH   8  10
ENDBRANCH   4   8
BRANCH   5  27
HETATM   27  N   UNL     1     -11.032  15.672  67.970  1.00  0.00    -0.308 NA 
HETATM   28  C   UNL     1     -10.172  14.915  67.036  1.00  0.00    -0.256 C  
HETATM   29  C   UNL     1     -10.486  16.994  68.312  1.00  0.00    -0.363 C  
HETATM   30  N   UNL     1      -9.343  17.085  65.993  1.00  0.00    -0.497 NA 
HETATM   31  C   UNL     1      -9.933  15.746  65.760  1.00  0.00    -0.358 C  
HETATM   32  C   UNL     1     -10.190  17.784  67.006  1.00  0.00    -0.346 C  
BRANCH  30  33
HETATM   33  C   UNL     1      -7.937  17.025  66.448  1.00  0.00    -0.307 C  
BRANCH  33  34
HETATM   34  C   UNL     1      -7.256  18.403  66.528  1.00  0.00    -0.229 C  
HETATM   35  H   UNL     1      -6.837  19.892  65.303  1.00  0.00     0.000 HD 
HETATM   36  O   UNL     1      -7.257  19.041  65.254  1.00  0.00    -0.466 OA 
ENDBRANCH  33  34
ENDBRANCH  30  33
ENDBRANCH   5  27
TORSDOF 7
ENDMDL
MODEL       64
REMARK 921   NORMALIZED FREE ENERGY PREDICTED BY IDOCK:   -6.56 KCAL/MOL
REMARK 922        TOTAL FREE ENERGY PREDICTED BY IDOCK:   -9.63 KCAL/MOL
REMARK 923 INTER-LIGAND FREE ENERGY PREDICTED BY IDOCK:   -8.85 KCAL/MOL
REMARK 924 INTRA-LIGAND FREE ENERGY PREDICTED BY IDOCK:   -0.78 KCAL/MOL
REMARK 927      BINDING AFFINITY PREDICTED BY RF-SCORE:    0.00 PKD
ROOT
HETATM    1  C   UNL     1      -8.488   9.270  62.557  1.00  0.00    -0.206 C  
HETATM    2  C   UNL     1      -9.200   9.926  63.698  1.00  0.00    -0.240 A  
HETATM    3  N   UNL     1     -10.033  10.939  63.400  1.00  0.00    -0.345 NA 
HETATM    4  C   UNL     1     -10.761  11.430  64.409  1.00  0.00    -0.342 A  
HETATM    5  C   UNL     1      -9.731   9.936  65.935  1.00  0.00    -0.262 A  
HETATM    6  C   UNL     1     -10.687  10.892  65.668  1.00  0.00    -0.178 A  
HETATM    7  N   UNL     1      -8.999   9.423  64.931  1.00  0.00    -0.213 NA 
ENDROOT
BRANCH   4   8
HETATM    8  N   UNL     1     -11.613  12.486  64.106  1.00  0.00    -0.358 NA 
HETATM    9  H   UNL     1     -12.456  12.244  63.585  1.00  0.00     0.000 HD 
BRANCH   8  10
HETATM   10  C   UNL     1     -11.462  13.790  64.415  1.00  0.00    -0.372 A  
HETATM   11  S   UNL     1     -10.187  14.204  65.483  1.00  0.00    -0.350 SA 
HETATM   12  N   UNL     1     -12.187  14.816  64.011  1.00  0.00    -0.645 NA 
HETATM   13  C   UNL     1     -11.826  15.960  64.696  1.00  0.00    -0.027 A  
HETATM   14  C   UNL     1     -10.793  15.801  65.593  1.00  0.00    -0.307 A  
BRANCH  14  15
HETATM   15  C   UNL     1     -10.275  16.739  66.559  1.00  0.00    -0.316 C  
HETATM   16  O   UNL     1     -10.892  17.048  67.574  1.00  0.00    -0.305 OA 
HETATM   17  H   UNL     1      -8.674  17.064  65.282  1.00  0.00     0.000 HD 
HETATM   18  N   UNL     1      -9.048  17.279  66.206  1.00  0.00    -0.242 N  
BRANCH  18  19
HETATM   19  C   UNL     1      -8.293  18.105  67.053  1.00  0.00    -0.240 A  
HETATM   20  C   UNL     1      -6.639  18.338  68.799  1.00  0.00    -0.242 A  
HETATM   21  C   UNL     1      -7.231  16.019  68.110  1.00  0.00    -0.137 C  
HETATM   22  C   UNL     1      -7.411  17.506  67.972  1.00  0.00    -0.214 A  
HETATM   23  C   UNL     1      -6.756  19.728  68.732  1.00  0.00    -0.353 A  
HETATM   24  C   UNL     1      -7.671  20.311  67.866  1.00  0.00    -0.260 A  
HETATM   25  C   UNL     1      -8.448  19.507  67.033  1.00  0.00    -0.296 A  
HETATM   26 CL   UNL     1      -9.717  20.288  66.144  1.00  0.00    -0.484 Cl 
ENDBRANCH  18  19
ENDBRANCH  14  15
ENDBRANCH   8  10
ENDBRANCH   4   8
BRANCH   5  27
HETATM   27  N   UNL     1      -9.577   9.481  67.250  1.00  0.00    -0.146 NA 
HETATM   28  C   UNL     1      -9.237   8.048  67.387  1.00  0.00    -0.134 C  
HETATM   29  C   UNL     1     -10.604   9.923  68.206  1.00  0.00    -0.229 C  
HETATM   30  N   UNL     1      -9.775   8.127  69.874  1.00  0.00    -0.175 NA 
HETATM   31  C   UNL     1      -8.790   7.756  68.832  1.00  0.00    -0.135 C  
HETATM   32  C   UNL     1     -10.158   9.554  69.649  1.00  0.00    -0.212 C  
BRANCH  30  33
HETATM   33  C   UNL     1     -10.976   7.263  69.868  1.00  0.00    -0.243 C  
BRANCH  33  34
HETATM   34  C   UNL     1     -11.591   7.052  71.263  1.00  0.00    -0.303 C  
HETATM   35  H   UNL     1     -13.383   6.755  72.032  1.00  0.00     0.000 HD 
HETATM   36  O   UNL     1     -13.003   6.885  71.171  1.00  0.00    -0.336 OA 
ENDBRANCH  33  34
ENDBRANCH  30  33
ENDBRANCH   5  27
TORSDOF 7
ENDMDL
MODEL       65
REMARK 921   NORMALIZED FREE ENERGY PREDICTED BY IDOCK:   -6.56 KCAL/MOL
REMARK 922        TOTAL FREE ENERGY PREDICTED BY IDOCK:   -9.62 KCAL/MOL
REMARK 923 INTER-LIGAND FREE ENERGY PREDICTED BY IDOCK:   -8.97 KCAL/MOL
REMARK 924 INTRA-LIGAND FREE ENERGY PREDICTED BY IDOCK:   -0.66 KCAL/MOL
REMARK 927      BINDING AFFINITY PREDICTED BY RF-SCORE:    0.00 PKD
ROOT
HETATM    1  C   UNL     1     -12.410  12.350  63.360  1.00  0.00    -0.603 C  
HETATM    2  C   UNL     1     -11.670  11.917  64.586  1.00  0.00    -0.232 A  
HETATM    3  N   UNL     1     -12.080  12.426  65.761  1.00  0.00    -0.610 NA 
HETATM    4  C   UNL     1     -11.499  11.932  66.861  1.00  0.00    -0.322 A  
HETATM    5  C   UNL     1     -10.104  10.535  65.547  1.00  0.00    -0.283 A  
HETATM    6  C   UNL     1     -10.566  10.930  66.784  1.00  0.00    -0.313 A  
HETATM    7  N   UNL     1     -10.685  11.011  64.433  1.00  0.00    -0.329 NA 
ENDROOT
BRANCH   4   8
HETATM    8  N   UNL     1     -11.912  12.466  68.076  1.00  0.00    -0.412 NA 
HETATM    9  H   UNL     1     -12.321  11.806  68.738  1.00  0.00     0.000 HD 
BRANCH   8  10
HETATM   10  C   UNL     1     -11.838  13.749  68.488  1.00  0.00    -0.370 A  
HETATM   11  S   UNL     1     -10.941  14.838  67.516  1.00  0.00    -0.314 SA 
HETATM   12  N   UNL     1     -12.363  14.292  69.570  1.00  0.00    -0.291 NA 
HETATM   13  C   UNL     1     -11.907  15.586  69.729  1.00  0.00    -0.359 A  
HETATM   14  C   UNL     1     -11.064  16.033  68.735  1.00  0.00    -0.338 A  
BRANCH  14  15
HETATM   15  C   UNL     1     -10.306  17.260  68.668  1.00  0.00    -0.357 C  
HETATM   16  O   UNL     1     -10.490  18.191  69.446  1.00  0.00    -0.065 OA 
HETATM   17  H   UNL     1      -9.406  16.528  66.950  1.00  0.00     0.000 HD 
HETATM   18  N   UNL     1      -9.395  17.292  67.624  1.00  0.00    -0.235 N  
BRANCH  18  19
HETATM   19  C   UNL     1      -8.458  18.322  67.447  1.00  0.00    -0.249 A  
HETATM   20  C   UNL     1      -6.299  19.281  67.957  1.00  0.00    -0.231 A  
HETATM   21  C   UNL     1      -6.887  17.153  69.110  1.00  0.00    -0.236 C  
HETATM   22  C   UNL     1      -7.244  18.262  68.157  1.00  0.00    -0.255 A  
HETATM   23  C   UNL     1      -6.561  20.345  67.091  1.00  0.00    -0.281 A  
HETATM   24  C   UNL     1      -7.785  20.431  66.441  1.00  0.00    -0.204 A  
HETATM   25  C   UNL     1      -8.739  19.431  66.621  1.00  0.00    -0.335 A  
HETATM   26 CL   UNL     1     -10.316  19.716  65.956  1.00  0.00    -0.599 Cl 
ENDBRANCH  18  19
ENDBRANCH  14  15
ENDBRANCH   8  10
ENDBRANCH   4   8
BRANCH   5  27
HETATM   27  N   UNL     1      -9.064   9.600  65.480  1.00  0.00    -0.188 NA 
HETATM   28  C   UNL     1      -8.536   9.340  64.124  1.00  0.00    -0.188 C  
HETATM   29  C   UNL     1      -9.252   8.374  66.271  1.00  0.00    -0.208 C  
HETATM   30  N   UNL     1      -7.304   7.277  64.968  1.00  0.00    -0.074 NA 
HETATM   31  C   UNL     1      -7.214   8.555  64.224  1.00  0.00    -0.095 C  
HETATM   32  C   UNL     1      -7.922   7.569  66.296  1.00  0.00    -0.109 C  
BRANCH  30  33
HETATM   33  C   UNL     1      -8.085   6.245  64.250  1.00  0.00    -0.080 C  
BRANCH  33  34
HETATM   34  C   UNL     1      -7.798   4.811  64.730  1.00  0.00    -0.092 C  
HETATM   35  H   UNL     1      -8.652   3.037  64.605  1.00  0.00     0.000 HD 
HETATM   36  O   UNL     1      -8.829   3.922  64.309  1.00  0.00    -0.116 OA 
ENDBRANCH  33  34
ENDBRANCH  30  33
ENDBRANCH   5  27
TORSDOF 7
ENDMDL
MODEL       66
REMARK 921   NORMALIZED FREE ENERGY PREDICTED BY IDOCK:   -6.56 KCAL/MOL
REMARK 922        TOTAL FREE ENERGY PREDICTED BY IDOCK:   -9.62 KCAL/MOL
REMARK 923 INTER-LIGAND FREE ENERGY PREDICTED BY IDOCK:   -8.66 KCAL/MOL
REMARK 924 INTRA-LIGAND FREE ENERGY PREDICTED BY IDOCK:   -0.96 KCAL/MOL
REMARK 927      BINDING AFFINITY PREDICTED BY RF-SCORE:    0.00 PKD
ROOT
HETATM    1  C   UNL     1      -8.693   5.686  66.019  1.00  0.00    -0.144 C  
HETATM    2  C   UNL     1      -9.214   6.916  66.695  1.00  0.00    -0.157 A  
HETATM    3  N   UNL     1      -9.185   8.061  65.991  1.00  0.00    -0.157 NA 
HETATM    4  C   UNL     1      -9.772   9.123  66.554  1.00  0.00    -0.241 A  
HETATM    5  C   UNL     1     -10.297   7.859  68.490  1.00  0.00    -0.200 A  
HETATM    6  C   UNL     1     -10.404   9.027  67.766  1.00  0.00    -0.304 A  
HETATM    7  N   UNL     1      -9.722   6.779  67.935  1.00  0.00    -0.127 NA 
ENDROOT
BRANCH   4   8
HETATM    8  N   UNL     1      -9.732  10.311  65.833  1.00  0.00    -0.210 NA 
HETATM    9  H   UNL     1      -9.941  10.237  64.837  1.00  0.00     0.000 HD 
BRANCH   8  10
HETATM   10  C   UNL     1      -9.452  11.550  66.288  1.00  0.00    -0.217 A  
HETATM   11  S   UNL     1     -10.463  12.830  65.765  1.00  0.00    -0.280 SA 
HETATM   12  N   UNL     1      -8.473  11.924  67.090  1.00  0.00    -0.167 NA 
HETATM   13  C   UNL     1      -8.417  13.302  67.170  1.00  0.00    -0.176 A  
HETATM   14  C   UNL     1      -9.388  13.968  66.455  1.00  0.00    -0.255 A  
BRANCH  14  15
HETATM   15  C   UNL     1      -9.526  15.383  66.208  1.00  0.00    -0.309 C  
HETATM   16  O   UNL     1     -10.138  15.826  65.242  1.00  0.00    -0.388 OA 
HETATM   17  H   UNL     1      -8.273  15.717  67.827  1.00  0.00     0.000 HD 
HETATM   18  N   UNL     1      -8.867  16.175  67.136  1.00  0.00    -0.191 N  
BRANCH  18  19
HETATM   19  C   UNL     1      -8.975  17.573  67.175  1.00  0.00    -0.238 A  
HETATM   20  C   UNL     1      -8.136  19.744  66.524  1.00  0.00    -0.351 A  
HETATM   21  C   UNL     1      -6.851  17.759  65.743  1.00  0.00    -0.211 C  
HETATM   22  C   UNL     1      -8.009  18.346  66.504  1.00  0.00    -0.294 A  
HETATM   23  C   UNL     1      -9.182  20.361  67.214  1.00  0.00    -0.525 A  
HETATM   24  C   UNL     1     -10.097  19.597  67.926  1.00  0.00    -0.543 A  
HETATM   25  C   UNL     1      -9.994  18.207  67.918  1.00  0.00    -0.333 A  
HETATM   26 CL   UNL     1     -11.031  17.334  69.001  1.00  0.00    -0.043 Cl 
ENDBRANCH  18  19
ENDBRANCH  14  15
ENDBRANCH   8  10
ENDBRANCH   4   8
BRANCH   5  27
HETATM   27  N   UNL     1     -10.840   7.809  69.780  1.00  0.00    -0.239 NA 
HETATM   28  C   UNL     1      -9.962   8.322  70.853  1.00  0.00    -0.190 C  
HETATM   29  C   UNL     1     -11.522   6.557  70.141  1.00  0.00    -0.415 C  
HETATM   30  N   UNL     1     -11.474   7.289  72.623  1.00  0.00    -0.285 NA 
HETATM   31  C   UNL     1     -10.779   8.507  72.147  1.00  0.00    -0.356 C  
HETATM   32  C   UNL     1     -12.280   6.753  71.484  1.00  0.00    -0.366 C  
BRANCH  30  33
HETATM   33  C   UNL     1     -10.545   6.254  73.130  1.00  0.00    -0.250 C  
BRANCH  33  34
HETATM   34  C   UNL     1     -11.193   4.867  73.286  1.00  0.00    -0.345 C  
HETATM   35  H   UNL     1     -10.747   2.996  72.849  1.00  0.00     0.000 HD 
HETATM   36  O   UNL     1     -10.347   3.852  72.752  1.00  0.00    -0.159 OA 
ENDBRANCH  33  34
ENDBRANCH  30  33
ENDBRANCH   5  27
TORSDOF 7
ENDMDL
MODEL       67
REMARK 921   NORMALIZED FREE ENERGY PREDICTED BY IDOCK:   -6.56 KCAL/MOL
REMARK 922        TOTAL FREE ENERGY PREDICTED BY IDOCK:   -9.62 KCAL/MOL
REMARK 923 INTER-LIGAND FREE ENERGY PREDICTED BY IDOCK:   -8.56 KCAL/MOL
REMARK 924 INTRA-LIGAND FREE ENERGY PREDICTED BY IDOCK:   -1.06 KCAL/MOL
REMARK 927      BINDING AFFINITY PREDICTED BY RF-SCORE:    0.00 PKD
ROOT
HETATM    1  C   UNL     1     -13.417   8.398  72.547  1.00  0.00    -0.175 C  
HETATM    2  C   UNL     1     -12.799   9.369  71.592  1.00  0.00    -0.378 A  
HETATM    3  N   UNL     1     -13.171  10.657  71.700  1.00  0.00    -0.412 NA 
HETATM    4  C   UNL     1     -12.516  11.534  70.931  1.00  0.00    -0.366 A  
HETATM    5  C   UNL     1     -11.236   9.792  69.959  1.00  0.00    -0.251 A  
HETATM    6  C   UNL     1     -11.492  11.137  70.113  1.00  0.00    -0.361 A  
HETATM    7  N   UNL     1     -11.876   8.897  70.732  1.00  0.00    -0.242 NA 
ENDROOT
BRANCH   4   8
HETATM    8  N   UNL     1     -12.909  12.864  71.032  1.00  0.00    -0.240 NA 
HETATM    9  H   UNL     1     -13.799  13.033  71.501  1.00  0.00     0.000 HD 
BRANCH   8  10
HETATM   10  C   UNL     1     -12.259  13.958  70.585  1.00  0.00    -0.373 A  
HETATM   11  S   UNL     1     -12.159  14.178  68.889  1.00  0.00    -0.239 SA 
HETATM   12  N   UNL     1     -11.661  14.899  71.291  1.00  0.00    -0.327 NA 
HETATM   13  C   UNL     1     -10.954  15.747  70.461  1.00  0.00    -0.343 A  
HETATM   14  C   UNL     1     -11.055  15.466  69.116  1.00  0.00    -0.266 A  
BRANCH  14  15
HETATM   15  C   UNL     1     -10.340  16.052  68.007  1.00  0.00    -0.266 C  
HETATM   16  O   UNL     1     -10.536  15.713  66.845  1.00  0.00    -0.295 OA 
HETATM   17  H   UNL     1      -9.209  17.109  69.387  1.00  0.00     0.000 HD 
HETATM   18  N   UNL     1      -9.394  16.989  68.391  1.00  0.00    -0.257 N  
BRANCH  18  19
HETATM   19  C   UNL     1      -8.679  17.784  67.482  1.00  0.00    -0.239 A  
HETATM   20  C   UNL     1      -8.483  19.831  66.213  1.00  0.00    -0.390 A  
HETATM   21  C   UNL     1     -10.526  19.564  67.613  1.00  0.00    -0.593 C  
HETATM   22  C   UNL     1      -9.215  19.029  67.103  1.00  0.00    -0.326 A  
HETATM   23  C   UNL     1      -7.261  19.399  65.694  1.00  0.00    -0.258 A  
HETATM   24  C   UNL     1      -6.766  18.143  66.023  1.00  0.00    -0.312 A  
HETATM   25  C   UNL     1      -7.473  17.330  66.907  1.00  0.00    -0.207 A  
HETATM   26 CL   UNL     1      -6.911  15.699  67.098  1.00  0.00    -0.220 Cl 
ENDBRANCH  18  19
ENDBRANCH  14  15
ENDBRANCH   8  10
ENDBRANCH   4   8
BRANCH   5  27
HETATM   27  N   UNL     1     -10.271   9.387  69.029  1.00  0.00    -0.198 NA 
HETATM   28  C   UNL     1      -9.065   8.756  69.604  1.00  0.00    -0.149 C  
HETATM   29  C   UNL     1      -9.964  10.353  67.963  1.00  0.00    -0.155 C  
HETATM   30  N   UNL     1      -7.849   8.982  67.379  1.00  0.00    -0.099 NA 
HETATM   31  C   UNL     1      -8.248   8.081  68.485  1.00  0.00    -0.126 C  
HETATM   32  C   UNL     1      -9.081   9.665  66.883  1.00  0.00    -0.138 C  
BRANCH  30  33
HETATM   33  C   UNL     1      -6.832   9.979  67.783  1.00  0.00    -0.076 C  
BRANCH  33  34
HETATM   34  C   UNL     1      -6.478  10.983  66.672  1.00  0.00    -0.129 C  
HETATM   35  H   UNL     1      -6.167  12.925  66.511  1.00  0.00     0.000 HD 
HETATM   36  O   UNL     1      -6.386  12.305  67.197  1.00  0.00    -0.152 OA 
ENDBRANCH  33  34
ENDBRANCH  30  33
ENDBRANCH   5  27
TORSDOF 7
ENDMDL
MODEL       68
REMARK 921   NORMALIZED FREE ENERGY PREDICTED BY IDOCK:   -6.53 KCAL/MOL
REMARK 922        TOTAL FREE ENERGY PREDICTED BY IDOCK:   -9.58 KCAL/MOL
REMARK 923 INTER-LIGAND FREE ENERGY PREDICTED BY IDOCK:   -8.63 KCAL/MOL
REMARK 924 INTRA-LIGAND FREE ENERGY PREDICTED BY IDOCK:   -0.95 KCAL/MOL
REMARK 927      BINDING AFFINITY PREDICTED BY RF-SCORE:    0.00 PKD
ROOT
HETATM    1  C   UNL     1     -12.213  12.604  63.373  1.00  0.00    -0.610 C  
HETATM    2  C   UNL     1     -11.907  13.070  64.762  1.00  0.00    -0.363 A  
HETATM    3  N   UNL     1     -12.208  12.233  65.770  1.00  0.00    -0.603 NA 
HETATM    4  C   UNL     1     -11.811  12.604  66.993  1.00  0.00    -0.345 A  
HETATM    5  C   UNL     1     -10.922  14.628  66.136  1.00  0.00    -0.329 A  
HETATM    6  C   UNL     1     -11.097  13.756  67.190  1.00  0.00    -0.315 A  
HETATM    7  N   UNL     1     -11.303  14.267  64.900  1.00  0.00    -0.354 NA 
ENDROOT
BRANCH   4   8
HETATM    8  N   UNL     1     -12.134  11.746  68.038  1.00  0.00    -0.542 NA 
HETATM    9  H   UNL     1     -13.108  11.757  68.341  1.00  0.00     0.000 HD 
BRANCH   8  10
HETATM   10  C   UNL     1     -11.317  10.901  68.701  1.00  0.00    -0.295 A  
HETATM   11  S   UNL     1     -10.486   9.721  67.778  1.00  0.00    -0.261 SA 
HETATM   12  N   UNL     1     -11.075  10.846  69.997  1.00  0.00    -0.250 NA 
HETATM   13  C   UNL     1     -10.326   9.725  70.299  1.00  0.00    -0.291 A  
HETATM   14  C   UNL     1      -9.969   8.953  69.216  1.00  0.00    -0.192 A  
BRANCH  14  15
HETATM   15  C   UNL     1      -9.325   7.661  69.192  1.00  0.00    -0.147 C  
HETATM   16  O   UNL     1      -9.233   6.953  70.189  1.00  0.00    -0.155 OA 
HETATM   17  H   UNL     1      -8.797   8.039  67.222  1.00  0.00     0.000 HD 
HETATM   18  N   UNL     1      -8.790   7.331  67.957  1.00  0.00    -0.130 N  
BRANCH  18  19
HETATM   19  C   UNL     1      -8.240   6.074  67.662  1.00  0.00    -0.109 A  
HETATM   20  C   UNL     1      -8.498   3.853  66.745  1.00  0.00    -0.105 A  
HETATM   21  C   UNL     1     -10.508   5.324  66.717  1.00  0.00    -0.330 C  
HETATM   22  C   UNL     1      -9.060   5.100  67.062  1.00  0.00    -0.112 A  
HETATM   23  C   UNL     1      -7.163   3.570  67.040  1.00  0.00    -0.063 A  
HETATM   24  C   UNL     1      -6.375   4.513  67.688  1.00  0.00    -0.037 A  
HETATM   25  C   UNL     1      -6.910   5.759  68.010  1.00  0.00    -0.064 A  
HETATM   26 CL   UNL     1      -5.942   6.797  69.009  1.00  0.00    -0.022 Cl 
ENDBRANCH  18  19
ENDBRANCH  14  15
ENDBRANCH   8  10
ENDBRANCH   4   8
BRANCH   5  27
HETATM   27  N   UNL     1     -10.299  15.860  66.372  1.00  0.00    -0.296 NA 
HETATM   28  C   UNL     1      -8.828  15.862  66.226  1.00  0.00    -0.351 C  
HETATM   29  C   UNL     1     -10.761  16.595  67.560  1.00  0.00    -0.278 C  
HETATM   30  N   UNL     1      -8.687  18.130  67.373  1.00  0.00    -0.243 NA 
HETATM   31  C   UNL     1      -8.312  17.313  66.196  1.00  0.00    -0.203 C  
HETATM   32  C   UNL     1     -10.169  18.032  67.539  1.00  0.00    -0.369 C  
BRANCH  30  33
HETATM   33  C   UNL     1      -7.999  17.708  68.613  1.00  0.00    -0.275 C  
BRANCH  33  34
HETATM   34  C   UNL     1      -6.777  18.575  68.966  1.00  0.00    -0.272 C  
HETATM   35  H   UNL     1      -6.432  20.362  69.727  1.00  0.00     0.000 HD 
HETATM   36  O   UNL     1      -7.186  19.827  69.509  1.00  0.00    -0.325 OA 
ENDBRANCH  33  34
ENDBRANCH  30  33
ENDBRANCH   5  27
TORSDOF 7
ENDMDL
MODEL       69
REMARK 921   NORMALIZED FREE ENERGY PREDICTED BY IDOCK:   -6.53 KCAL/MOL
REMARK 922        TOTAL FREE ENERGY PREDICTED BY IDOCK:   -9.58 KCAL/MOL
REMARK 923 INTER-LIGAND FREE ENERGY PREDICTED BY IDOCK:   -8.86 KCAL/MOL
REMARK 924 INTRA-LIGAND FREE ENERGY PREDICTED BY IDOCK:   -0.72 KCAL/MOL
REMARK 927      BINDING AFFINITY PREDICTED BY RF-SCORE:    0.00 PKD
ROOT
HETATM    1  C   UNL     1     -10.015  16.316  68.315  1.00  0.00    -0.236 C  
HETATM    2  C   UNL     1     -10.538  14.914  68.341  1.00  0.00    -0.244 A  
HETATM    3  N   UNL     1     -11.093  14.489  69.489  1.00  0.00    -0.260 NA 
HETATM    4  C   UNL     1     -11.674  13.284  69.461  1.00  0.00    -0.322 A  
HETATM    5  C   UNL     1     -11.043  12.987  67.195  1.00  0.00    -0.273 A  
HETATM    6  C   UNL     1     -11.732  12.548  68.305  1.00  0.00    -0.390 A  
HETATM    7  N   UNL     1     -10.465  14.199  67.202  1.00  0.00    -0.269 NA 
ENDROOT
BRANCH   4   8
HETATM    8  N   UNL     1     -12.238  12.836  70.650  1.00  0.00    -0.452 NA 
HETATM    9  H   UNL     1     -12.555  13.561  71.295  1.00  0.00     0.000 HD 
BRANCH   8  10
HETATM   10  C   UNL     1     -12.417  11.563  71.057  1.00  0.00    -0.356 A  
HETATM   11  S   UNL     1     -11.304  10.390  70.489  1.00  0.00    -0.317 SA 
HETATM   12  N   UNL     1     -13.363  11.079  71.839  1.00  0.00    -0.390 NA 
HETATM   13  C   UNL     1     -13.307   9.699  71.867  1.00  0.00    -0.438 A  
HETATM   14  C   UNL     1     -12.284   9.143  71.131  1.00  0.00    -0.285 A  
BRANCH  14  15
HETATM   15  C   UNL     1     -12.031   7.754  70.830  1.00  0.00    -0.210 C  
HETATM   16  O   UNL     1     -12.902   6.894  70.907  1.00  0.00    -0.294 OA 
HETATM   17  H   UNL     1     -10.030   8.244  70.586  1.00  0.00     0.000 HD 
HETATM   18  N   UNL     1     -10.712   7.491  70.494  1.00  0.00    -0.230 N  
BRANCH  18  19
HETATM   19  C   UNL     1     -10.265   6.243  70.033  1.00  0.00    -0.188 A  
HETATM   20  C   UNL     1      -9.160   4.138  70.467  1.00  0.00    -0.176 A  
HETATM   21  C   UNL     1      -9.294   5.751  72.360  1.00  0.00    -0.152 C  
HETATM   22  C   UNL     1      -9.582   5.396  70.926  1.00  0.00    -0.226 A  
HETATM   23  C   UNL     1      -9.388   3.740  69.148  1.00  0.00    -0.243 A  
HETATM   24  C   UNL     1     -10.007   4.604  68.254  1.00  0.00    -0.130 A  
HETATM   25  C   UNL     1     -10.438   5.857  68.687  1.00  0.00    -0.240 A  
HETATM   26 CL   UNL     1     -10.999   6.961  67.471  1.00  0.00    -0.354 Cl 
ENDBRANCH  18  19
ENDBRANCH  14  15
ENDBRANCH   8  10
ENDBRANCH   4   8
BRANCH   5  27
HETATM   27  N   UNL     1     -11.004  12.171  66.057  1.00  0.00    -0.281 NA 
HETATM   28  C   UNL     1      -9.839  11.264  65.971  1.00  0.00    -0.229 C  
HETATM   29  C   UNL     1     -11.314  12.834  64.781  1.00  0.00    -0.309 C  
HETATM   30  N   UNL     1     -10.356  10.785  63.524  1.00  0.00    -0.256 NA 
HETATM   31  C   UNL     1     -10.076  10.219  64.864  1.00  0.00    -0.276 C  
HETATM   32  C   UNL     1     -11.479  11.759  63.670  1.00  0.00    -0.431 C  
BRANCH  30  33
HETATM   33  C   UNL     1      -9.178  11.443  62.916  1.00  0.00    -0.281 C  
BRANCH  33  34
HETATM   34  C   UNL     1      -8.063  10.461  62.514  1.00  0.00    -0.165 C  
HETATM   35  H   UNL     1      -6.101  10.340  62.682  1.00  0.00     0.000 HD 
HETATM   36  O   UNL     1      -6.789  10.946  62.930  1.00  0.00     0.044 OA 
ENDBRANCH  33  34
ENDBRANCH  30  33
ENDBRANCH   5  27
TORSDOF 7
ENDMDL
MODEL       70
REMARK 921   NORMALIZED FREE ENERGY PREDICTED BY IDOCK:   -6.51 KCAL/MOL
REMARK 922        TOTAL FREE ENERGY PREDICTED BY IDOCK:   -9.56 KCAL/MOL
REMARK 923 INTER-LIGAND FREE ENERGY PREDICTED BY IDOCK:   -8.83 KCAL/MOL
REMARK 924 INTRA-LIGAND FREE ENERGY PREDICTED BY IDOCK:   -0.73 KCAL/MOL
REMARK 927      BINDING AFFINITY PREDICTED BY RF-SCORE:    0.00 PKD
ROOT
HETATM    1  C   UNL     1     -12.440  11.143  71.051  1.00  0.00    -0.506 C  
HETATM    2  C   UNL     1     -11.919  10.726  69.711  1.00  0.00    -0.325 A  
HETATM    3  N   UNL     1     -12.180  11.538  68.672  1.00  0.00    -0.461 NA 
HETATM    4  C   UNL     1     -11.599  11.223  67.508  1.00  0.00    -0.175 A  
HETATM    5  C   UNL     1     -10.619   9.292  68.472  1.00  0.00    -0.183 A  
HETATM    6  C   UNL     1     -10.752  10.152  67.403  1.00  0.00    -0.336 A  
HETATM    7  N   UNL     1     -11.184   9.598  69.651  1.00  0.00    -0.189 NA 
ENDROOT
BRANCH   4   8
HETATM    8  N   UNL     1     -11.878  12.055  66.429  1.00  0.00    -0.593 NA 
HETATM    9  H   UNL     1     -12.508  11.675  65.723  1.00  0.00     0.000 HD 
BRANCH   8  10
HETATM   10  C   UNL     1     -11.417  13.302  66.202  1.00  0.00    -0.328 A  
HETATM   11  S   UNL     1     -10.413  14.003  67.401  1.00  0.00    -0.264 SA 
HETATM   12  N   UNL     1     -11.650  14.083  65.164  1.00  0.00    -0.329 NA 
HETATM   13  C   UNL     1     -11.149  15.350  65.393  1.00  0.00    -0.326 A  
HETATM   14  C   UNL     1     -10.498  15.511  66.597  1.00  0.00    -0.299 A  
BRANCH  14  15
HETATM   15  C   UNL     1      -9.993  16.719  67.204  1.00  0.00    -0.274 C  
HETATM   16  O   UNL     1     -10.550  17.261  68.154  1.00  0.00    -0.363 OA 
HETATM   17  H   UNL     1      -8.546  16.777  65.720  1.00  0.00     0.000 HD 
HETATM   18  N   UNL     1      -8.859  17.220  66.584  1.00  0.00    -0.243 N  
BRANCH  18  19
HETATM   19  C   UNL     1      -8.119  18.303  67.082  1.00  0.00    -0.225 A  
HETATM   20  C   UNL     1      -6.258  19.129  68.385  1.00  0.00    -0.247 A  
HETATM   21  C   UNL     1      -6.569  16.659  68.304  1.00  0.00    -0.138 C  
HETATM   22  C   UNL     1      -7.011  18.042  67.910  1.00  0.00    -0.211 A  
HETATM   23  C   UNL     1      -6.610  20.441  68.065  1.00  0.00    -0.340 A  
HETATM   24  C   UNL     1      -7.740  20.696  67.299  1.00  0.00    -0.359 A  
HETATM   25  C   UNL     1      -8.502  19.634  66.814  1.00  0.00    -0.311 A  
HETATM   26 CL   UNL     1     -10.012  20.030  66.055  1.00  0.00    -0.571 Cl 
ENDBRANCH  18  19
ENDBRANCH  14  15
ENDBRANCH   8  10
ENDBRANCH   4   8
BRANCH   5  27
HETATM   27  N   UNL     1      -9.849   8.132  68.316  1.00  0.00    -0.166 NA 
HETATM   28  C   UNL     1      -8.612   8.298  67.523  1.00  0.00    -0.129 C  
HETATM   29  C   UNL     1     -10.592   6.909  67.977  1.00  0.00    -0.222 C  
HETATM   30  N   UNL     1      -8.358   5.771  67.337  1.00  0.00    -0.105 NA 
HETATM   31  C   UNL     1      -7.715   7.057  67.695  1.00  0.00    -0.112 C  
HETATM   32  C   UNL     1      -9.644   5.682  68.091  1.00  0.00    -0.114 C  
BRANCH  30  33
HETATM   33  C   UNL     1      -8.601   5.631  65.884  1.00  0.00    -0.144 C  
BRANCH  33  34
HETATM   34  C   UNL     1      -9.203   4.272  65.487  1.00  0.00    -0.150 C  
HETATM   35  H   UNL     1      -8.749   2.363  65.698  1.00  0.00     0.000 HD 
HETATM   36  O   UNL     1      -8.378   3.203  65.942  1.00  0.00    -0.093 OA 
ENDBRANCH  33  34
ENDBRANCH  30  33
ENDBRANCH   5  27
TORSDOF 7
ENDMDL
MODEL       71
REMARK 921   NORMALIZED FREE ENERGY PREDICTED BY IDOCK:   -6.48 KCAL/MOL
REMARK 922        TOTAL FREE ENERGY PREDICTED BY IDOCK:   -9.51 KCAL/MOL
REMARK 923 INTER-LIGAND FREE ENERGY PREDICTED BY IDOCK:   -8.94 KCAL/MOL
REMARK 924 INTRA-LIGAND FREE ENERGY PREDICTED BY IDOCK:   -0.57 KCAL/MOL
REMARK 927      BINDING AFFINITY PREDICTED BY RF-SCORE:    0.00 PKD
ROOT
HETATM    1  C   UNL     1      -7.729   7.125  64.455  1.00  0.00    -0.117 C  
HETATM    2  C   UNL     1      -8.575   7.914  65.404  1.00  0.00    -0.095 A  
HETATM    3  N   UNL     1      -9.046   9.096  64.969  1.00  0.00    -0.194 NA 
HETATM    4  C   UNL     1      -9.906   9.729  65.775  1.00  0.00    -0.290 A  
HETATM    5  C   UNL     1      -9.706   8.017  67.403  1.00  0.00    -0.166 A  
HETATM    6  C   UNL     1     -10.313   9.173  66.959  1.00  0.00    -0.333 A  
HETATM    7  N   UNL     1      -8.849   7.362  66.602  1.00  0.00    -0.136 NA 
ENDROOT
BRANCH   4   8
HETATM    8  N   UNL     1     -10.384  10.957  65.333  1.00  0.00    -0.272 NA 
HETATM    9  H   UNL     1     -10.937  10.939  64.476  1.00  0.00     0.000 HD 
BRANCH   8  10
HETATM   10  C   UNL     1     -10.206  12.169  65.897  1.00  0.00    -0.244 A  
HETATM   11  S   UNL     1     -10.580  13.545  64.946  1.00  0.00    -0.415 SA 
HETATM   12  N   UNL     1      -9.759  12.451  67.106  1.00  0.00    -0.204 NA 
HETATM   13  C   UNL     1      -9.548  13.810  67.237  1.00  0.00    -0.237 A  
HETATM   14  C   UNL     1      -9.878  14.561  66.131  1.00  0.00    -0.318 A  
BRANCH  14  15
HETATM   15  C   UNL     1      -9.650  15.964  65.882  1.00  0.00    -0.343 C  
HETATM   16  O   UNL     1     -10.249  16.585  65.010  1.00  0.00    -0.564 OA 
HETATM   17  H   UNL     1      -8.129  15.894  67.290  1.00  0.00     0.000 HD 
HETATM   18  N   UNL     1      -8.666  16.517  66.687  1.00  0.00    -0.225 N  
BRANCH  18  19
HETATM   19  C   UNL     1      -8.371  17.888  66.718  1.00  0.00    -0.252 A  
HETATM   20  C   UNL     1      -6.774  19.680  66.439  1.00  0.00    -0.208 A  
HETATM   21  C   UNL     1      -5.935  17.360  66.098  1.00  0.00    -0.177 C  
HETATM   22  C   UNL     1      -7.057  18.305  66.432  1.00  0.00    -0.271 A  
HETATM   23  C   UNL     1      -7.763  20.617  66.744  1.00  0.00    -0.229 A  
HETATM   24  C   UNL     1      -9.042  20.197  67.086  1.00  0.00    -0.489 A  
HETATM   25  C   UNL     1      -9.349  18.837  67.084  1.00  0.00    -0.297 A  
HETATM   26 CL   UNL     1     -10.892  18.377  67.730  1.00  0.00    -0.356 Cl 
ENDBRANCH  18  19
ENDBRANCH  14  15
ENDBRANCH   8  10
ENDBRANCH   4   8
BRANCH   5  27
HETATM   27  N   UNL     1     -10.037   7.522  68.670  1.00  0.00    -0.179 NA 
HETATM   28  C   UNL     1     -11.022   6.419  68.679  1.00  0.00    -0.330 C  
HETATM   29  C   UNL     1     -10.294   8.533  69.707  1.00  0.00    -0.212 C  
HETATM   30  N   UNL     1     -11.351   6.694  71.189  1.00  0.00    -0.290 NA 
HETATM   31  C   UNL     1     -11.056   5.765  70.074  1.00  0.00    -0.258 C  
HETATM   32  C   UNL     1     -10.393   7.836  71.093  1.00  0.00    -0.200 C  
BRANCH  30  33
HETATM   33  C   UNL     1     -12.746   7.188  71.176  1.00  0.00    -0.315 C  
BRANCH  33  34
HETATM   34  C   UNL     1     -12.968   8.433  72.053  1.00  0.00    -0.358 C  
HETATM   35  H   UNL     1     -13.664  10.265  71.829  1.00  0.00     0.000 HD 
HETATM   36  O   UNL     1     -13.527   9.496  71.288  1.00  0.00    -0.370 OA 
ENDBRANCH  33  34
ENDBRANCH  30  33
ENDBRANCH   5  27
TORSDOF 7
ENDMDL
MODEL       72
REMARK 921   NORMALIZED FREE ENERGY PREDICTED BY IDOCK:   -6.45 KCAL/MOL
REMARK 922        TOTAL FREE ENERGY PREDICTED BY IDOCK:   -9.46 KCAL/MOL
REMARK 923 INTER-LIGAND FREE ENERGY PREDICTED BY IDOCK:   -8.61 KCAL/MOL
REMARK 924 INTRA-LIGAND FREE ENERGY PREDICTED BY IDOCK:   -0.85 KCAL/MOL
REMARK 927      BINDING AFFINITY PREDICTED BY RF-SCORE:    0.00 PKD
ROOT
HETATM    1  C   UNL     1      -9.052  15.954  65.985  1.00  0.00    -0.363 C  
HETATM    2  C   UNL     1     -10.001  14.874  66.399  1.00  0.00    -0.275 A  
HETATM    3  N   UNL     1     -10.087  13.794  65.602  1.00  0.00    -0.308 NA 
HETATM    4  C   UNL     1     -10.837  12.781  66.048  1.00  0.00    -0.276 A  
HETATM    5  C   UNL     1     -11.417  14.010  67.991  1.00  0.00    -0.311 A  
HETATM    6  C   UNL     1     -11.447  12.833  67.275  1.00  0.00    -0.393 A  
HETATM    7  N   UNL     1     -10.659  15.034  67.564  1.00  0.00    -0.261 NA 
ENDROOT
BRANCH   4   8
HETATM    8  N   UNL     1     -10.938  11.669  65.220  1.00  0.00    -0.290 NA 
HETATM    9  H   UNL     1     -11.622  11.733  64.466  1.00  0.00     0.000 HD 
BRANCH   8  10
HETATM   10  C   UNL     1     -10.242  10.515  65.290  1.00  0.00    -0.282 A  
HETATM   11  S   UNL     1     -10.660   9.416  66.536  1.00  0.00     0.046 SA 
HETATM   12  N   UNL     1      -9.248  10.112  64.521  1.00  0.00    -0.234 NA 
HETATM   13  C   UNL     1      -8.682   8.960  65.031  1.00  0.00    -0.166 A  
HETATM   14  C   UNL     1      -9.282   8.470  66.170  1.00  0.00    -0.211 A  
BRANCH  14  15
HETATM   15  C   UNL     1      -8.861   7.388  67.027  1.00  0.00    -0.128 C  
HETATM   16  O   UNL     1      -7.679   7.122  67.219  1.00  0.00    -0.105 OA 
HETATM   17  H   UNL     1     -10.858   6.874  67.244  1.00  0.00     0.000 HD 
HETATM   18  N   UNL     1      -9.913   6.664  67.566  1.00  0.00    -0.127 N  
BRANCH  18  19
HETATM   19  C   UNL     1      -9.748   5.659  68.531  1.00  0.00    -0.136 A  
HETATM   20  C   UNL     1      -9.530   5.017  70.850  1.00  0.00    -0.222 A  
HETATM   21  C   UNL     1      -9.747   7.451  70.371  1.00  0.00    -0.175 C  
HETATM   22  C   UNL     1      -9.670   6.029  69.886  1.00  0.00    -0.200 A  
HETATM   23  C   UNL     1      -9.447   3.674  70.476  1.00  0.00    -0.255 A  
HETATM   24  C   UNL     1      -9.463   3.320  69.133  1.00  0.00    -0.189 A  
HETATM   25  C   UNL     1      -9.603   4.306  68.158  1.00  0.00    -0.137 A  
HETATM   26 CL   UNL     1      -9.394   3.817  66.506  1.00  0.00    -0.189 Cl 
ENDBRANCH  18  19
ENDBRANCH  14  15
ENDBRANCH   8  10
ENDBRANCH   4   8
BRANCH   5  27
HETATM   27  N   UNL     1     -12.145  14.095  69.184  1.00  0.00    -0.344 NA 
HETATM   28  C   UNL     1     -12.267  15.454  69.753  1.00  0.00    -0.306 C  
HETATM   29  C   UNL     1     -11.839  13.072  70.196  1.00  0.00    -0.252 C  
HETATM   30  N   UNL     1     -13.099  14.489  71.958  1.00  0.00    -0.324 NA 
HETATM   31  C   UNL     1     -13.336  15.458  70.863  1.00  0.00    -0.418 C  
HETATM   32  C   UNL     1     -12.893  13.146  71.337  1.00  0.00    -0.311 C  
BRANCH  30  33
HETATM   33  C   UNL     1     -11.941  14.849  72.806  1.00  0.00    -0.233 C  
BRANCH  33  34
HETATM   34  C   UNL     1     -12.337  15.396  74.189  1.00  0.00    -0.663 C  
HETATM   35  H   UNL     1     -13.571  16.752  74.919  1.00  0.00     0.000 HD 
HETATM   36  O   UNL     1     -13.326  16.414  74.065  1.00  0.00    -0.572 OA 
ENDBRANCH  33  34
ENDBRANCH  30  33
ENDBRANCH   5  27
TORSDOF 7
ENDMDL
MODEL       73
REMARK 921   NORMALIZED FREE ENERGY PREDICTED BY IDOCK:   -6.44 KCAL/MOL
REMARK 922        TOTAL FREE ENERGY PREDICTED BY IDOCK:   -9.46 KCAL/MOL
REMARK 923 INTER-LIGAND FREE ENERGY PREDICTED BY IDOCK:   -8.51 KCAL/MOL
REMARK 924 INTRA-LIGAND FREE ENERGY PREDICTED BY IDOCK:   -0.94 KCAL/MOL
REMARK 927      BINDING AFFINITY PREDICTED BY RF-SCORE:    0.00 PKD
ROOT
HETATM    1  C   UNL     1     -13.720  15.276  71.365  1.00  0.00    -0.602 C  
HETATM    2  C   UNL     1     -12.536  15.063  70.476  1.00  0.00    -0.371 A  
HETATM    3  N   UNL     1     -12.406  13.852  69.907  1.00  0.00    -0.326 NA 
HETATM    4  C   UNL     1     -11.420  13.714  69.013  1.00  0.00    -0.301 A  
HETATM    5  C   UNL     1     -10.724  15.952  69.375  1.00  0.00    -0.272 A  
HETATM    6  C   UNL     1     -10.617  14.771  68.671  1.00  0.00    -0.255 A  
HETATM    7  N   UNL     1     -11.716  16.111  70.266  1.00  0.00    -0.272 NA 
ENDROOT
BRANCH   4   8
HETATM    8  N   UNL     1     -11.276  12.459  68.433  1.00  0.00    -0.251 NA 
HETATM    9  H   UNL     1     -11.918  12.243  67.670  1.00  0.00     0.000 HD 
BRANCH   8  10
HETATM   10  C   UNL     1     -10.393  11.492  68.755  1.00  0.00    -0.196 A  
HETATM   11  S   UNL     1     -10.922  10.265  69.828  1.00  0.00    -0.307 SA 
HETATM   12  N   UNL     1      -9.141  11.363  68.359  1.00  0.00    -0.175 NA 
HETATM   13  C   UNL     1      -8.518  10.345  69.055  1.00  0.00    -0.155 A  
HETATM   14  C   UNL     1      -9.321   9.676  69.952  1.00  0.00    -0.228 A  
BRANCH  14  15
HETATM   15  C   UNL     1      -8.958   8.676  70.927  1.00  0.00    -0.187 C  
HETATM   16  O   UNL     1      -8.080   8.861  71.765  1.00  0.00    -0.313 OA 
HETATM   17  H   UNL     1     -10.276   7.380  69.987  1.00  0.00     0.000 HD 
HETATM   18  N   UNL     1      -9.662   7.489  70.794  1.00  0.00    -0.174 N  
BRANCH  18  19
HETATM   19  C   UNL     1      -9.575   6.431  71.711  1.00  0.00    -0.152 A  
HETATM   20  C   UNL     1     -10.382   5.336  73.708  1.00  0.00    -0.278 A  
HETATM   21  C   UNL     1     -11.493   7.471  73.066  1.00  0.00    -0.247 C  
HETATM   22  C   UNL     1     -10.456   6.412  72.808  1.00  0.00    -0.238 A  
HETATM   23  C   UNL     1      -9.443   4.318  73.537  1.00  0.00    -0.127 A  
HETATM   24  C   UNL     1      -8.535   4.374  72.487  1.00  0.00    -0.109 A  
HETATM   25  C   UNL     1      -8.590   5.429  71.579  1.00  0.00    -0.131 A  
HETATM   26 CL   UNL     1      -7.294   5.549  70.431  1.00  0.00    -0.069 Cl 
ENDBRANCH  18  19
ENDBRANCH  14  15
ENDBRANCH   8  10
ENDBRANCH   4   8
BRANCH   5  27
HETATM   27  N   UNL     1      -9.818  16.985  69.104  1.00  0.00    -0.236 NA 
HETATM   28  C   UNL     1     -10.343  18.080  68.261  1.00  0.00    -0.380 C  
HETATM   29  C   UNL     1      -8.461  16.565  68.725  1.00  0.00    -0.248 C  
HETATM   30  N   UNL     1      -7.986  18.971  67.898  1.00  0.00    -0.271 NA 
HETATM   31  C   UNL     1      -9.376  19.279  68.306  1.00  0.00    -0.351 C  
HETATM   32  C   UNL     1      -7.523  17.805  68.710  1.00  0.00    -0.263 C  
BRANCH  30  33
HETATM   33  C   UNL     1      -7.859  18.676  66.453  1.00  0.00    -0.283 C  
BRANCH  33  34
HETATM   34  C   UNL     1      -7.146  19.785  65.658  1.00  0.00    -0.309 C  
HETATM   35  H   UNL     1      -6.028  19.924  64.039  1.00  0.00     0.000 HD 
HETATM   36  O   UNL     1      -6.468  19.240  64.530  1.00  0.00    -0.438 OA 
ENDBRANCH  33  34
ENDBRANCH  30  33
ENDBRANCH   5  27
TORSDOF 7
ENDMDL
MODEL       74
REMARK 921   NORMALIZED FREE ENERGY PREDICTED BY IDOCK:   -6.41 KCAL/MOL
REMARK 922        TOTAL FREE ENERGY PREDICTED BY IDOCK:   -9.40 KCAL/MOL
REMARK 923 INTER-LIGAND FREE ENERGY PREDICTED BY IDOCK:   -8.38 KCAL/MOL
REMARK 924 INTRA-LIGAND FREE ENERGY PREDICTED BY IDOCK:   -1.02 KCAL/MOL
REMARK 927      BINDING AFFINITY PREDICTED BY RF-SCORE:    0.00 PKD
ROOT
HETATM    1  C   UNL     1     -11.696  12.958  63.870  1.00  0.00    -0.526 C  
HETATM    2  C   UNL     1     -11.552  13.122  65.350  1.00  0.00    -0.333 A  
HETATM    3  N   UNL     1     -12.015  12.125  66.125  1.00  0.00    -0.600 NA 
HETATM    4  C   UNL     1     -11.764  12.221  67.435  1.00  0.00    -0.335 A  
HETATM    5  C   UNL     1     -10.689  14.310  67.119  1.00  0.00    -0.282 A  
HETATM    6  C   UNL     1     -11.034  13.263  67.945  1.00  0.00    -0.270 A  
HETATM    7  N   UNL     1     -10.923  14.225  65.798  1.00  0.00    -0.299 NA 
ENDROOT
BRANCH   4   8
HETATM    8  N   UNL     1     -12.253  11.198  68.240  1.00  0.00    -0.709 NA 
HETATM    9  H   UNL     1     -13.228  10.938  68.088  1.00  0.00     0.000 HD 
BRANCH   8  10
HETATM   10  C   UNL     1     -11.598  10.508  69.195  1.00  0.00    -0.224 A  
HETATM   11  S   UNL     1     -10.585   9.223  68.686  1.00  0.00    -0.149 SA 
HETATM   12  N   UNL     1     -11.642  10.679  70.503  1.00  0.00    -0.336 NA 
HETATM   13  C   UNL     1     -10.975   9.654  71.145  1.00  0.00    -0.360 A  
HETATM   14  C   UNL     1     -10.389   8.727  70.312  1.00  0.00    -0.203 A  
BRANCH  14  15
HETATM   15  C   UNL     1      -9.753   7.475  70.647  1.00  0.00    -0.175 C  
HETATM   16  O   UNL     1     -10.226   6.389  70.327  1.00  0.00    -0.186 OA 
HETATM   17  H   UNL     1      -8.352   8.557  71.727  1.00  0.00     0.000 HD 
HETATM   18  N   UNL     1      -8.596   7.624  71.395  1.00  0.00    -0.118 N  
BRANCH  18  19
HETATM   19  C   UNL     1      -7.740   6.560  71.718  1.00  0.00    -0.095 A  
HETATM   20  C   UNL     1      -6.980   4.911  73.312  1.00  0.00    -0.071 A  
HETATM   21  C   UNL     1      -8.773   6.466  74.067  1.00  0.00    -0.140 C  
HETATM   22  C   UNL     1      -7.820   5.993  73.003  1.00  0.00    -0.105 A  
HETATM   23  C   UNL     1      -6.066   4.420  72.377  1.00  0.00    -0.017 A  
HETATM   24  C   UNL     1      -5.948   5.023  71.132  1.00  0.00    -0.017 A  
HETATM   25  C   UNL     1      -6.773   6.097  70.800  1.00  0.00    -0.061 A  
HETATM   26 CL   UNL     1      -6.420   6.935  69.323  1.00  0.00    -0.042 Cl 
ENDBRANCH  18  19
ENDBRANCH  14  15
ENDBRANCH   8  10
ENDBRANCH   4   8
BRANCH   5  27
HETATM   27  N   UNL     1     -10.052  15.428  67.672  1.00  0.00    -0.234 NA 
HETATM   28  C   UNL     1     -10.870  16.659  67.725  1.00  0.00    -0.292 C  
HETATM   29  C   UNL     1      -8.674  15.671  67.218  1.00  0.00    -0.194 C  
HETATM   30  N   UNL     1      -8.798  18.050  68.229  1.00  0.00    -0.279 NA 
HETATM   31  C   UNL     1     -10.181  17.701  68.627  1.00  0.00    -0.377 C  
HETATM   32  C   UNL     1      -8.028  16.775  68.101  1.00  0.00    -0.181 C  
BRANCH  30  33
HETATM   33  C   UNL     1      -8.736  18.819  66.966  1.00  0.00    -0.283 C  
BRANCH  33  34
HETATM   34  C   UNL     1      -9.685  20.030  66.935  1.00  0.00    -0.425 C  
HETATM   35  H   UNL     1     -11.266  20.612  65.909  1.00  0.00     0.000 HD 
HETATM   36  O   UNL     1     -10.680  19.865  65.928  1.00  0.00    -0.465 OA 
ENDBRANCH  33  34
ENDBRANCH  30  33
ENDBRANCH   5  27
TORSDOF 7
ENDMDL
MODEL       75
REMARK 921   NORMALIZED FREE ENERGY PREDICTED BY IDOCK:   -6.40 KCAL/MOL
REMARK 922        TOTAL FREE ENERGY PREDICTED BY IDOCK:   -9.40 KCAL/MOL
REMARK 923 INTER-LIGAND FREE ENERGY PREDICTED BY IDOCK:   -8.24 KCAL/MOL
REMARK 924 INTRA-LIGAND FREE ENERGY PREDICTED BY IDOCK:   -1.16 KCAL/MOL
REMARK 927      BINDING AFFINITY PREDICTED BY RF-SCORE:    0.00 PKD
ROOT
HETATM    1  C   UNL     1      -8.496   4.161  66.770  1.00  0.00    -0.104 C  
HETATM    2  C   UNL     1      -8.748   5.562  67.230  1.00  0.00    -0.107 A  
HETATM    3  N   UNL     1      -8.397   6.554  66.393  1.00  0.00    -0.115 NA 
HETATM    4  C   UNL     1      -8.747   7.794  66.757  1.00  0.00    -0.135 A  
HETATM    5  C   UNL     1      -9.691   6.981  68.774  1.00  0.00    -0.143 A  
HETATM    6  C   UNL     1      -9.464   8.024  67.902  1.00  0.00    -0.161 A  
HETATM    7  N   UNL     1      -9.357   5.729  68.420  1.00  0.00    -0.119 NA 
ENDROOT
BRANCH   4   8
HETATM    8  N   UNL     1      -8.373   8.823  65.899  1.00  0.00    -0.120 NA 
HETATM    9  H   UNL     1      -7.466   8.719  65.445  1.00  0.00     0.000 HD 
BRANCH   8  10
HETATM   10  C   UNL     1      -9.063   9.941  65.594  1.00  0.00    -0.178 A  
HETATM   11  S   UNL     1      -8.706  11.357  66.489  1.00  0.00    -0.180 SA 
HETATM   12  N   UNL     1     -10.010  10.096  64.688  1.00  0.00    -0.305 NA 
HETATM   13  C   UNL     1     -10.594  11.342  64.811  1.00  0.00    -0.312 A  
HETATM   14  C   UNL     1     -10.054  12.145  65.790  1.00  0.00    -0.247 A  
BRANCH  14  15
HETATM   15  C   UNL     1     -10.513  13.425  66.273  1.00  0.00    -0.289 C  
HETATM   16  O   UNL     1     -11.640  13.592  66.728  1.00  0.00    -0.330 OA 
HETATM   17  H   UNL     1      -8.721  14.237  65.619  1.00  0.00     0.000 HD 
HETATM   18  N   UNL     1      -9.580  14.440  66.130  1.00  0.00    -0.299 N  
BRANCH  18  19
HETATM   19  C   UNL     1      -9.754  15.731  66.651  1.00  0.00    -0.249 A  
HETATM   20  C   UNL     1      -9.468  17.298  68.469  1.00  0.00    -0.285 A  
HETATM   21  C   UNL     1      -8.670  14.970  68.851  1.00  0.00    -0.197 C  
HETATM   22  C   UNL     1      -9.315  15.997  67.962  1.00  0.00    -0.202 A  
HETATM   23  C   UNL     1     -10.062  18.303  67.703  1.00  0.00    -0.368 A  
HETATM   24  C   UNL     1     -10.549  18.019  66.434  1.00  0.00    -0.259 A  
HETATM   25  C   UNL     1     -10.407  16.737  65.907  1.00  0.00    -0.328 A  
HETATM   26 CL   UNL     1     -11.229  16.402  64.416  1.00  0.00    -0.269 Cl 
ENDBRANCH  18  19
ENDBRANCH  14  15
ENDBRANCH   8  10
ENDBRANCH   4   8
BRANCH   5  27
HETATM   27  N   UNL     1     -10.315   7.246  69.999  1.00  0.00    -0.208 NA 
HETATM   28  C   UNL     1     -11.640   6.616  70.182  1.00  0.00    -0.386 C  
HETATM   29  C   UNL     1     -10.274   8.646  70.450  1.00  0.00    -0.193 C  
HETATM   30  N   UNL     1     -12.098   8.098  72.202  1.00  0.00    -0.337 NA 
HETATM   31  C   UNL     1     -12.064   6.719  71.660  1.00  0.00    -0.359 C  
HETATM   32  C   UNL     1     -10.773   8.728  71.920  1.00  0.00    -0.359 C  
BRANCH  30  33
HETATM   33  C   UNL     1     -13.191   8.916  71.632  1.00  0.00    -0.362 C  
BRANCH  33  34
HETATM   34  C   UNL     1     -13.044  10.423  71.911  1.00  0.00    -0.458 C  
HETATM   35  H   UNL     1     -12.739  12.071  70.871  1.00  0.00     0.000 HD 
HETATM   36  O   UNL     1     -12.830  11.141  70.699  1.00  0.00    -0.274 OA 
ENDBRANCH  33  34
ENDBRANCH  30  33
ENDBRANCH   5  27
TORSDOF 7
ENDMDL
MODEL       76
REMARK 921   NORMALIZED FREE ENERGY PREDICTED BY IDOCK:   -6.38 KCAL/MOL
REMARK 922        TOTAL FREE ENERGY PREDICTED BY IDOCK:   -9.37 KCAL/MOL
REMARK 923 INTER-LIGAND FREE ENERGY PREDICTED BY IDOCK:   -8.77 KCAL/MOL
REMARK 924 INTRA-LIGAND FREE ENERGY PREDICTED BY IDOCK:   -0.60 KCAL/MOL
REMARK 927      BINDING AFFINITY PREDICTED BY RF-SCORE:    0.00 PKD
ROOT
HETATM    1  C   UNL     1      -7.795  12.234  67.127  1.00  0.00    -0.149 C  
HETATM    2  C   UNL     1      -8.953  13.063  67.588  1.00  0.00    -0.192 A  
HETATM    3  N   UNL     1     -10.029  12.407  68.055  1.00  0.00    -0.201 NA 
HETATM    4  C   UNL     1     -11.002  13.157  68.585  1.00  0.00    -0.265 A  
HETATM    5  C   UNL     1      -9.805  15.140  68.080  1.00  0.00    -0.218 A  
HETATM    6  C   UNL     1     -10.878  14.518  68.682  1.00  0.00    -0.259 A  
HETATM    7  N   UNL     1      -8.814  14.402  67.554  1.00  0.00    -0.183 NA 
ENDROOT
BRANCH   4   8
HETATM    8  N   UNL     1     -12.122  12.481  69.057  1.00  0.00    -0.213 NA 
HETATM    9  H   UNL     1     -13.007  12.713  68.606  1.00  0.00     0.000 HD 
BRANCH   8  10
HETATM   10  C   UNL     1     -12.182  11.557  70.038  1.00  0.00    -0.278 A  
HETATM   11  S   UNL     1     -11.268  10.123  69.827  1.00  0.00    -0.272 SA 
HETATM   12  N   UNL     1     -12.876  11.598  71.159  1.00  0.00    -0.343 NA 
HETATM   13  C   UNL     1     -12.814  10.380  71.809  1.00  0.00    -0.456 A  
HETATM   14  C   UNL     1     -12.033   9.429  71.191  1.00  0.00    -0.337 A  
BRANCH  14  15
HETATM   15  C   UNL     1     -11.872   8.032  71.517  1.00  0.00    -0.292 C  
HETATM   16  O   UNL     1     -12.806   7.332  71.894  1.00  0.00    -0.313 OA 
HETATM   17  H   UNL     1      -9.834   8.268  71.214  1.00  0.00     0.000 HD 
HETATM   18  N   UNL     1     -10.566   7.583  71.404  1.00  0.00    -0.211 N  
BRANCH  18  19
HETATM   19  C   UNL     1     -10.196   6.236  71.538  1.00  0.00    -0.200 A  
HETATM   20  C   UNL     1      -9.318   4.444  72.902  1.00  0.00    -0.146 A  
HETATM   21  C   UNL     1      -9.458   6.697  73.954  1.00  0.00    -0.212 C  
HETATM   22  C   UNL     1      -9.663   5.799  72.765  1.00  0.00    -0.169 A  
HETATM   23  C   UNL     1      -9.476   3.552  71.840  1.00  0.00    -0.206 A  
HETATM   24  C   UNL     1      -9.944   4.001  70.612  1.00  0.00    -0.141 A  
HETATM   25  C   UNL     1     -10.296   5.340  70.452  1.00  0.00    -0.275 A  
HETATM   26 CL   UNL     1     -10.660   5.873  68.841  1.00  0.00    -0.330 Cl 
ENDBRANCH  18  19
ENDBRANCH  14  15
ENDBRANCH   8  10
ENDBRANCH   4   8
BRANCH   5  27
HETATM   27  N   UNL     1      -9.749  16.539  68.075  1.00  0.00    -0.233 NA 
HETATM   28  C   UNL     1     -10.460  17.196  66.958  1.00  0.00    -0.282 C  
HETATM   29  C   UNL     1      -8.429  17.129  68.345  1.00  0.00    -0.241 C  
HETATM   30  N   UNL     1      -9.309  19.405  67.484  1.00  0.00    -0.305 NA 
HETATM   31  C   UNL     1     -10.592  18.704  67.241  1.00  0.00    -0.430 C  
HETATM   32  C   UNL     1      -8.583  18.662  68.558  1.00  0.00    -0.340 C  
BRANCH  30  33
HETATM   33  C   UNL     1      -8.469  19.511  66.270  1.00  0.00    -0.352 C  
BRANCH  33  34
HETATM   34  C   UNL     1      -7.052  20.044  66.546  1.00  0.00    -0.251 C  
HETATM   35  H   UNL     1      -6.228  21.706  67.218  1.00  0.00     0.000 HD 
HETATM   36  O   UNL     1      -7.103  21.377  67.047  1.00  0.00    -0.480 OA 
ENDBRANCH  33  34
ENDBRANCH  30  33
ENDBRANCH   5  27
TORSDOF 7
ENDMDL
MODEL       77
REMARK 921   NORMALIZED FREE ENERGY PREDICTED BY IDOCK:   -6.38 KCAL/MOL
REMARK 922        TOTAL FREE ENERGY PREDICTED BY IDOCK:   -9.36 KCAL/MOL
REMARK 923 INTER-LIGAND FREE ENERGY PREDICTED BY IDOCK:   -8.75 KCAL/MOL
REMARK 924 INTRA-LIGAND FREE ENERGY PREDICTED BY IDOCK:   -0.61 KCAL/MOL
REMARK 927      BINDING AFFINITY PREDICTED BY RF-SCORE:    0.00 PKD
ROOT
HETATM    1  C   UNL     1     -11.862   8.298  72.663  1.00  0.00    -0.382 C  
HETATM    2  C   UNL     1     -11.667   9.204  71.488  1.00  0.00    -0.363 A  
HETATM    3  N   UNL     1     -12.263  10.409  71.538  1.00  0.00    -0.355 NA 
HETATM    4  C   UNL     1     -11.976  11.258  70.545  1.00  0.00    -0.371 A  
HETATM    5  C   UNL     1     -10.600   9.636  69.499  1.00  0.00    -0.229 A  
HETATM    6  C   UNL     1     -11.086  10.925  69.558  1.00  0.00    -0.326 A  
HETATM    7  N   UNL     1     -10.868   8.773  70.493  1.00  0.00    -0.227 NA 
ENDROOT
BRANCH   4   8
HETATM    8  N   UNL     1     -12.601  12.500  70.588  1.00  0.00    -0.214 NA 
HETATM    9  H   UNL     1     -13.590  12.493  70.837  1.00  0.00     0.000 HD 
BRANCH   8  10
HETATM   10  C   UNL     1     -12.060  13.710  70.340  1.00  0.00    -0.351 A  
HETATM   11  S   UNL     1     -11.623  14.063  68.721  1.00  0.00    -0.355 SA 
HETATM   12  N   UNL     1     -11.801  14.681  71.196  1.00  0.00    -0.333 NA 
HETATM   13  C   UNL     1     -11.080  15.686  70.581  1.00  0.00    -0.359 A  
HETATM   14  C   UNL     1     -10.830  15.487  69.240  1.00  0.00    -0.252 A  
BRANCH  14  15
HETATM   15  C   UNL     1      -9.996  16.254  68.347  1.00  0.00    -0.234 C  
HETATM   16  O   UNL     1      -9.808  15.930  67.179  1.00  0.00    -0.227 OA 
HETATM   17  H   UNL     1      -9.510  17.468  69.957  1.00  0.00     0.000 HD 
HETATM   18  N   UNL     1      -9.402  17.353  68.949  1.00  0.00    -0.228 N  
BRANCH  18  19
HETATM   19  C   UNL     1      -8.663  18.316  68.245  1.00  0.00    -0.288 A  
HETATM   20  C   UNL     1      -6.526  19.290  67.673  1.00  0.00    -0.229 A  
HETATM   21  C   UNL     1      -6.504  17.392  69.286  1.00  0.00    -0.245 C  
HETATM   22  C   UNL     1      -7.264  18.341  68.400  1.00  0.00    -0.276 A  
HETATM   23  C   UNL     1      -7.163  20.206  66.833  1.00  0.00    -0.292 A  
HETATM   24  C   UNL     1      -8.548  20.217  66.733  1.00  0.00    -0.334 A  
HETATM   25  C   UNL     1      -9.302  19.284  67.442  1.00  0.00    -0.307 A  
HETATM   26 CL   UNL     1     -11.024  19.497  67.441  1.00  0.00    -0.535 Cl 
ENDBRANCH  18  19
ENDBRANCH  14  15
ENDBRANCH   8  10
ENDBRANCH   4   8
BRANCH   5  27
HETATM   27  N   UNL     1      -9.789   9.267  68.418  1.00  0.00    -0.151 NA 
HETATM   28  C   UNL     1     -10.508   8.991  67.156  1.00  0.00    -0.263 C  
HETATM   29  C   UNL     1      -8.739   8.281  68.711  1.00  0.00    -0.137 C  
HETATM   30  N   UNL     1      -8.422   7.914  66.169  1.00  0.00    -0.126 NA 
HETATM   31  C   UNL     1      -9.501   8.913  65.992  1.00  0.00    -0.252 C  
HETATM   32  C   UNL     1      -7.779   8.173  67.493  1.00  0.00    -0.102 C  
BRANCH  30  33
HETATM   33  C   UNL     1      -8.907   6.519  66.095  1.00  0.00    -0.150 C  
BRANCH  33  34
HETATM   34  C   UNL     1      -8.433   5.767  64.839  1.00  0.00    -0.103 C  
HETATM   35  H   UNL     1      -8.901   4.113  63.870  1.00  0.00     0.000 HD 
HETATM   36  O   UNL     1      -9.194   4.577  64.645  1.00  0.00    -0.154 OA 
ENDBRANCH  33  34
ENDBRANCH  30  33
ENDBRANCH   5  27
TORSDOF 7
ENDMDL
MODEL       78
REMARK 921   NORMALIZED FREE ENERGY PREDICTED BY IDOCK:   -6.36 KCAL/MOL
REMARK 922        TOTAL FREE ENERGY PREDICTED BY IDOCK:   -9.34 KCAL/MOL
REMARK 923 INTER-LIGAND FREE ENERGY PREDICTED BY IDOCK:   -8.84 KCAL/MOL
REMARK 924 INTRA-LIGAND FREE ENERGY PREDICTED BY IDOCK:   -0.51 KCAL/MOL
REMARK 927      BINDING AFFINITY PREDICTED BY RF-SCORE:    0.00 PKD
ROOT
HETATM    1  C   UNL     1     -13.520  15.917  73.190  1.00  0.00    -0.650 C  
HETATM    2  C   UNL     1     -13.070  14.780  72.327  1.00  0.00    -0.356 A  
HETATM    3  N   UNL     1     -13.472  13.547  72.680  1.00  0.00    -0.633 NA 
HETATM    4  C   UNL     1     -13.175  12.557  71.831  1.00  0.00    -0.392 A  
HETATM    5  C   UNL     1     -12.044  14.068  70.398  1.00  0.00    -0.356 A  
HETATM    6  C   UNL     1     -12.533  12.804  70.646  1.00  0.00    -0.328 A  
HETATM    7  N   UNL     1     -12.343  15.077  71.233  1.00  0.00    -0.298 NA 
ENDROOT
BRANCH   4   8
HETATM    8  N   UNL     1     -13.579  11.278  72.200  1.00  0.00    -0.436 NA 
HETATM    9  H   UNL     1     -14.497  11.209  72.639  1.00  0.00     0.000 HD 
BRANCH   8  10
HETATM   10  C   UNL     1     -12.906  10.119  72.049  1.00  0.00    -0.376 A  
HETATM   11  S   UNL     1     -11.841   9.994  70.712  1.00  0.00    -0.371 SA 
HETATM   12  N   UNL     1     -12.966   9.035  72.799  1.00  0.00    -0.295 NA 
HETATM   13  C   UNL     1     -12.266   8.001  72.207  1.00  0.00    -0.318 A  
HETATM   14  C   UNL     1     -11.640   8.323  71.023  1.00  0.00    -0.275 A  
BRANCH  14  15
HETATM   15  C   UNL     1     -10.961   7.458  70.089  1.00  0.00    -0.255 C  
HETATM   16  O   UNL     1     -11.341   6.316  69.852  1.00  0.00    -0.397 OA 
HETATM   17  H   UNL     1      -9.514   8.930  69.887  1.00  0.00     0.000 HD 
HETATM   18  N   UNL     1      -9.827   8.028  69.530  1.00  0.00    -0.178 N  
BRANCH  18  19
HETATM   19  C   UNL     1      -9.088   7.428  68.499  1.00  0.00    -0.136 A  
HETATM   20  C   UNL     1      -8.689   7.112  66.136  1.00  0.00    -0.164 A  
HETATM   21  C   UNL     1     -10.593   8.586  66.770  1.00  0.00    -0.227 C  
HETATM   22  C   UNL     1      -9.448   7.694  67.165  1.00  0.00    -0.196 A  
HETATM   23  C   UNL     1      -7.614   6.269  66.425  1.00  0.00    -0.094 A  
HETATM   24  C   UNL     1      -7.301   5.961  67.743  1.00  0.00    -0.077 A  
HETATM   25  C   UNL     1      -8.038   6.528  68.781  1.00  0.00    -0.118 A  
HETATM   26 CL   UNL     1      -7.735   5.930  70.381  1.00  0.00    -0.094 Cl 
ENDBRANCH  18  19
ENDBRANCH  14  15
ENDBRANCH   8  10
ENDBRANCH   4   8
BRANCH   5  27
HETATM   27  N   UNL     1     -11.281  14.284  69.243  1.00  0.00    -0.265 NA 
HETATM   28  C   UNL     1     -10.787  13.062  68.575  1.00  0.00    -0.258 C  
HETATM   29  C   UNL     1     -10.264  15.343  69.335  1.00  0.00    -0.262 C  
HETATM   30  N   UNL     1      -9.185  14.446  67.161  1.00  0.00    -0.212 NA 
HETATM   31  C   UNL     1     -10.249  13.416  67.175  1.00  0.00    -0.247 C  
HETATM   32  C   UNL     1      -9.690  15.630  67.919  1.00  0.00    -0.211 C  
BRANCH  30  33
HETATM   33  C   UNL     1      -7.910  13.968  67.739  1.00  0.00    -0.171 C  
BRANCH  33  34
HETATM   34  C   UNL     1      -7.538  12.536  67.315  1.00  0.00    -0.131 C  
HETATM   35  H   UNL     1      -6.556  11.003  68.073  1.00  0.00     0.000 HD 
HETATM   36  O   UNL     1      -6.785  11.887  68.335  1.00  0.00    -0.059 OA 
ENDBRANCH  33  34
ENDBRANCH  30  33
ENDBRANCH   5  27
TORSDOF 7
ENDMDL
MODEL       79
REMARK 921   NORMALIZED FREE ENERGY PREDICTED BY IDOCK:   -6.35 KCAL/MOL
REMARK 922        TOTAL FREE ENERGY PREDICTED BY IDOCK:   -9.33 KCAL/MOL
REMARK 923 INTER-LIGAND FREE ENERGY PREDICTED BY IDOCK:   -8.48 KCAL/MOL
REMARK 924 INTRA-LIGAND FREE ENERGY PREDICTED BY IDOCK:   -0.85 KCAL/MOL
REMARK 927      BINDING AFFINITY PREDICTED BY RF-SCORE:    0.00 PKD
ROOT
HETATM    1  C   UNL     1     -12.233  12.528  64.906  1.00  0.00    -0.534 C  
HETATM    2  C   UNL     1     -11.969  13.330  66.142  1.00  0.00    -0.418 A  
HETATM    3  N   UNL     1     -12.265  12.755  67.321  1.00  0.00    -0.364 NA 
HETATM    4  C   UNL     1     -11.905  13.426  68.420  1.00  0.00    -0.366 A  
HETATM    5  C   UNL     1     -11.061  15.209  67.105  1.00  0.00    -0.335 A  
HETATM    6  C   UNL     1     -11.231  14.616  68.338  1.00  0.00    -0.290 A  
HETATM    7  N   UNL     1     -11.406  14.544  65.990  1.00  0.00    -0.338 NA 
ENDROOT
BRANCH   4   8
HETATM    8  N   UNL     1     -12.222  12.839  69.640  1.00  0.00    -0.187 NA 
HETATM    9  H   UNL     1     -12.845  13.374  70.245  1.00  0.00     0.000 HD 
BRANCH   8  10
HETATM   10  C   UNL     1     -11.806  11.649  70.122  1.00  0.00    -0.344 A  
HETATM   11  S   UNL     1     -10.401  10.962  69.422  1.00  0.00    -0.085 SA 
HETATM   12  N   UNL     1     -12.354  10.916  71.072  1.00  0.00    -0.377 NA 
HETATM   13  C   UNL     1     -11.735   9.683  71.145  1.00  0.00    -0.372 A  
HETATM   14  C   UNL     1     -10.687   9.504  70.270  1.00  0.00    -0.265 A  
BRANCH  14  15
HETATM   15  C   UNL     1      -9.932   8.306  69.987  1.00  0.00    -0.188 C  
HETATM   16  O   UNL     1      -9.830   7.387  70.792  1.00  0.00    -0.179 OA 
HETATM   17  H   UNL     1      -9.342   9.184  68.203  1.00  0.00     0.000 HD 
HETATM   18  N   UNL     1      -9.310   8.323  68.748  1.00  0.00    -0.144 N  
BRANCH  18  19
HETATM   19  C   UNL     1      -8.638   7.217  68.204  1.00  0.00    -0.122 A  
HETATM   20  C   UNL     1      -6.581   6.000  67.848  1.00  0.00    -0.056 A  
HETATM   21  C   UNL     1      -6.418   8.147  69.102  1.00  0.00    -0.040 C  
HETATM   22  C   UNL     1      -7.244   7.122  68.372  1.00  0.00    -0.091 A  
HETATM   23  C   UNL     1      -7.280   5.010  67.155  1.00  0.00    -0.077 A  
HETATM   24  C   UNL     1      -8.646   5.140  66.939  1.00  0.00    -0.105 A  
HETATM   25  C   UNL     1      -9.327   6.243  67.451  1.00  0.00    -0.115 A  
HETATM   26 CL   UNL     1     -10.978   6.449  66.957  1.00  0.00    -0.465 Cl 
ENDBRANCH  18  19
ENDBRANCH  14  15
ENDBRANCH   8  10
ENDBRANCH   4   8
BRANCH   5  27
HETATM   27  N   UNL     1     -10.482  16.483  67.040  1.00  0.00    -0.304 NA 
HETATM   28  C   UNL     1      -9.120  16.528  66.468  1.00  0.00    -0.276 C  
HETATM   29  C   UNL     1     -10.630  17.317  68.243  1.00  0.00    -0.383 C  
HETATM   30  N   UNL     1      -8.808  18.906  67.321  1.00  0.00    -0.278 NA 
HETATM   31  C   UNL     1      -8.734  17.988  66.162  1.00  0.00    -0.088 C  
HETATM   32  C   UNL     1     -10.168  18.767  67.924  1.00  0.00    -0.396 C  
BRANCH  30  33
HETATM   33  C   UNL     1      -7.764  18.641  68.336  1.00  0.00    -0.306 C  
BRANCH  33  34
HETATM   34  C   UNL     1      -6.962  19.892  68.737  1.00  0.00    -0.316 C  
HETATM   35  H   UNL     1      -5.596  20.378  70.075  1.00  0.00     0.000 HD 
HETATM   36  O   UNL     1      -6.092  19.606  69.828  1.00  0.00    -0.272 OA 
ENDBRANCH  33  34
ENDBRANCH  30  33
ENDBRANCH   5  27
TORSDOF 7
ENDMDL
MODEL       80
REMARK 921   NORMALIZED FREE ENERGY PREDICTED BY IDOCK:   -6.35 KCAL/MOL
REMARK 922        TOTAL FREE ENERGY PREDICTED BY IDOCK:   -9.32 KCAL/MOL
REMARK 923 INTER-LIGAND FREE ENERGY PREDICTED BY IDOCK:   -8.39 KCAL/MOL
REMARK 924 INTRA-LIGAND FREE ENERGY PREDICTED BY IDOCK:   -0.93 KCAL/MOL
REMARK 927      BINDING AFFINITY PREDICTED BY RF-SCORE:    0.00 PKD
ROOT
HETATM    1  C   UNL     1     -12.057  12.241  63.339  1.00  0.00    -0.615 C  
HETATM    2  C   UNL     1     -11.672  12.800  64.673  1.00  0.00    -0.355 A  
HETATM    3  N   UNL     1     -12.078  12.124  65.762  1.00  0.00    -0.554 NA 
HETATM    4  C   UNL     1     -11.618  12.559  66.940  1.00  0.00    -0.370 A  
HETATM    5  C   UNL     1     -10.460  14.336  65.881  1.00  0.00    -0.307 A  
HETATM    6  C   UNL     1     -10.745  13.613  67.019  1.00  0.00    -0.278 A  
HETATM    7  N   UNL     1     -10.903  13.907  64.687  1.00  0.00    -0.409 NA 
ENDROOT
BRANCH   4   8
HETATM    8  N   UNL     1     -12.047  11.869  68.069  1.00  0.00    -0.507 NA 
HETATM    9  H   UNL     1     -13.034  11.968  68.304  1.00  0.00     0.000 HD 
BRANCH   8  10
HETATM   10  C   UNL     1     -11.318  11.086  68.890  1.00  0.00    -0.280 A  
HETATM   11  S   UNL     1     -10.106  10.107  68.176  1.00  0.00    -0.160 SA 
HETATM   12  N   UNL     1     -11.420  10.955  70.199  1.00  0.00    -0.313 NA 
HETATM   13  C   UNL     1     -10.620   9.920  70.643  1.00  0.00    -0.271 A  
HETATM   14  C   UNL     1      -9.878   9.296  69.665  1.00  0.00    -0.186 A  
BRANCH  14  15
HETATM   15  C   UNL     1      -9.065   8.107  69.759  1.00  0.00    -0.148 C  
HETATM   16  O   UNL     1      -8.466   7.640  68.796  1.00  0.00    -0.128 OA 
HETATM   17  H   UNL     1      -9.701   7.913  71.724  1.00  0.00     0.000 HD 
HETATM   18  N   UNL     1      -9.068   7.531  71.020  1.00  0.00    -0.148 N  
BRANCH  18  19
HETATM   19  C   UNL     1      -8.247   6.453  71.381  1.00  0.00    -0.121 A  
HETATM   20  C   UNL     1      -6.205   5.636  72.383  1.00  0.00    -0.040 A  
HETATM   21  C   UNL     1      -6.508   8.107  72.298  1.00  0.00    -0.069 C  
HETATM   22  C   UNL     1      -7.012   6.720  72.000  1.00  0.00    -0.074 A  
HETATM   23  C   UNL     1      -6.603   4.321  72.136  1.00  0.00    -0.022 A  
HETATM   24  C   UNL     1      -7.794   4.065  71.469  1.00  0.00    -0.065 A  
HETATM   25  C   UNL     1      -8.614   5.123  71.082  1.00  0.00    -0.122 A  
HETATM   26 CL   UNL     1      -9.967   4.741  70.066  1.00  0.00    -0.303 Cl 
ENDBRANCH  18  19
ENDBRANCH  14  15
ENDBRANCH   8  10
ENDBRANCH   4   8
BRANCH   5  27
HETATM   27  N   UNL     1      -9.666  15.485  65.989  1.00  0.00    -0.318 NA 
HETATM   28  C   UNL     1      -8.451  15.336  66.817  1.00  0.00    -0.255 C  
HETATM   29  C   UNL     1     -10.388  16.741  66.244  1.00  0.00    -0.310 C  
HETATM   30  N   UNL     1      -8.141  17.863  66.870  1.00  0.00    -0.221 NA 
HETATM   31  C   UNL     1      -7.522  16.545  66.597  1.00  0.00    -0.261 C  
HETATM   32  C   UNL     1      -9.409  17.939  66.083  1.00  0.00    -0.132 C  
BRANCH  30  33
HETATM   33  C   UNL     1      -8.411  18.088  68.307  1.00  0.00    -0.290 C  
BRANCH  33  34
HETATM   34  C   UNL     1      -8.869  19.522  68.631  1.00  0.00    -0.339 C  
HETATM   35  H   UNL     1     -10.542  20.434  69.140  1.00  0.00     0.000 HD 
HETATM   36  O   UNL     1     -10.259  19.549  68.940  1.00  0.00    -0.423 OA 
ENDBRANCH  33  34
ENDBRANCH  30  33
ENDBRANCH   5  27
TORSDOF 7
ENDMDL
MODEL       81
REMARK 921   NORMALIZED FREE ENERGY PREDICTED BY IDOCK:   -6.33 KCAL/MOL
REMARK 922        TOTAL FREE ENERGY PREDICTED BY IDOCK:   -9.29 KCAL/MOL
REMARK 923 INTER-LIGAND FREE ENERGY PREDICTED BY IDOCK:   -8.95 KCAL/MOL
REMARK 924 INTRA-LIGAND FREE ENERGY PREDICTED BY IDOCK:   -0.35 KCAL/MOL
REMARK 927      BINDING AFFINITY PREDICTED BY RF-SCORE:    0.00 PKD
ROOT
HETATM    1  C   UNL     1     -10.569  10.357  66.655  1.00  0.00    -0.245 C  
HETATM    2  C   UNL     1     -10.981  11.522  67.498  1.00  0.00    -0.255 A  
HETATM    3  N   UNL     1     -11.469  11.251  68.721  1.00  0.00    -0.264 NA 
HETATM    4  C   UNL     1     -11.710  12.302  69.514  1.00  0.00    -0.332 A  
HETATM    5  C   UNL     1     -11.042  13.800  67.803  1.00  0.00    -0.268 A  
HETATM    6  C   UNL     1     -11.429  13.580  69.107  1.00  0.00    -0.345 A  
HETATM    7  N   UNL     1     -10.783  12.757  66.997  1.00  0.00    -0.250 NA 
ENDROOT
BRANCH   4   8
HETATM    8  N   UNL     1     -12.227  12.025  70.775  1.00  0.00    -0.410 NA 
HETATM    9  H   UNL     1     -12.431  12.833  71.362  1.00  0.00     0.000 HD 
BRANCH   8  10
HETATM   10  C   UNL     1     -12.492  10.818  71.316  1.00  0.00    -0.399 A  
HETATM   11  S   UNL     1     -11.252   9.637  71.257  1.00  0.00    -0.346 SA 
HETATM   12  N   UNL     1     -13.608  10.405  71.887  1.00  0.00    -0.244 NA 
HETATM   13  C   UNL     1     -13.543   9.050  72.148  1.00  0.00    -0.469 A  
HETATM   14  C   UNL     1     -12.352   8.447  71.806  1.00  0.00    -0.331 A  
BRANCH  14  15
HETATM   15  C   UNL     1     -12.009   7.046  71.808  1.00  0.00    -0.326 C  
HETATM   16  O   UNL     1     -12.850   6.162  71.939  1.00  0.00    -0.029 OA 
HETATM   17  H   UNL     1     -10.014   7.606  71.724  1.00  0.00     0.000 HD 
HETATM   18  N   UNL     1     -10.649   6.807  71.693  1.00  0.00    -0.213 N  
BRANCH  18  19
HETATM   19  C   UNL     1     -10.097   5.527  71.535  1.00  0.00    -0.205 A  
HETATM   20  C   UNL     1      -9.291   3.773  70.082  1.00  0.00    -0.244 A  
HETATM   21  C   UNL     1     -10.183   5.823  68.985  1.00  0.00    -0.282 C  
HETATM   22  C   UNL     1      -9.867   5.045  70.233  1.00  0.00    -0.304 A  
HETATM   23  C   UNL     1      -8.974   2.990  71.194  1.00  0.00    -0.165 A  
HETATM   24  C   UNL     1      -9.261   3.445  72.474  1.00  0.00    -0.143 A  
HETATM   25  C   UNL     1      -9.830   4.705  72.650  1.00  0.00    -0.150 A  
HETATM   26 CL   UNL     1     -10.360   5.113  74.252  1.00  0.00    -0.290 Cl 
ENDBRANCH  18  19
ENDBRANCH  14  15
ENDBRANCH   8  10
ENDBRANCH   4   8
BRANCH   5  27
HETATM   27  N   UNL     1     -10.876  15.118  67.359  1.00  0.00    -0.295 NA 
HETATM   28  C   UNL     1      -9.953  15.288  66.216  1.00  0.00    -0.284 C  
HETATM   29  C   UNL     1     -10.686  16.129  68.409  1.00  0.00    -0.298 C  
HETATM   30  N   UNL     1      -9.889  17.803  66.604  1.00  0.00    -0.307 NA 
HETATM   31  C   UNL     1     -10.105  16.706  65.633  1.00  0.00    -0.217 C  
HETATM   32  C   UNL     1     -10.775  17.548  67.780  1.00  0.00    -0.332 C  
BRANCH  30  33
HETATM   33  C   UNL     1      -8.479  17.925  67.036  1.00  0.00    -0.236 C  
BRANCH  33  34
HETATM   34  C   UNL     1      -7.470  17.391  66.004  1.00  0.00    -0.220 C  
HETATM   35  H   UNL     1      -6.025  16.050  65.941  1.00  0.00     0.000 HD 
HETATM   36  O   UNL     1      -6.648  16.379  66.578  1.00  0.00    -0.245 OA 
ENDBRANCH  33  34
ENDBRANCH  30  33
ENDBRANCH   5  27
TORSDOF 7
ENDMDL
MODEL       82
REMARK 921   NORMALIZED FREE ENERGY PREDICTED BY IDOCK:   -6.31 KCAL/MOL
REMARK 922        TOTAL FREE ENERGY PREDICTED BY IDOCK:   -9.27 KCAL/MOL
REMARK 923 INTER-LIGAND FREE ENERGY PREDICTED BY IDOCK:   -7.99 KCAL/MOL
REMARK 924 INTRA-LIGAND FREE ENERGY PREDICTED BY IDOCK:   -1.28 KCAL/MOL
REMARK 927      BINDING AFFINITY PREDICTED BY RF-SCORE:    0.00 PKD
ROOT
HETATM    1  C   UNL     1      -6.974  18.897  65.877  1.00  0.00    -0.304 C  
HETATM    2  C   UNL     1      -7.350  17.485  66.200  1.00  0.00    -0.311 A  
HETATM    3  N   UNL     1      -6.406  16.715  66.770  1.00  0.00    -0.258 NA 
HETATM    4  C   UNL     1      -6.792  15.499  67.173  1.00  0.00    -0.041 A  
HETATM    5  C   UNL     1      -8.983  15.874  66.350  1.00  0.00    -0.326 A  
HETATM    6  C   UNL     1      -8.092  15.086  67.047  1.00  0.00    -0.225 A  
HETATM    7  N   UNL     1      -8.617  17.102  65.948  1.00  0.00    -0.529 NA 
ENDROOT
BRANCH   4   8
HETATM    8  N   UNL     1      -5.814  14.696  67.751  1.00  0.00    -0.286 NA 
HETATM    9  H   UNL     1      -4.858  15.046  67.696  1.00  0.00     0.000 HD 
BRANCH   8  10
HETATM   10  C   UNL     1      -5.975  13.511  68.376  1.00  0.00    -0.095 A  
HETATM   11  S   UNL     1      -6.314  12.144  67.400  1.00  0.00    -0.153 SA 
HETATM   12  N   UNL     1      -5.921  13.255  69.669  1.00  0.00    -0.110 NA 
HETATM   13  C   UNL     1      -6.322  11.957  69.920  1.00  0.00    -0.104 A  
HETATM   14  C   UNL     1      -6.641  11.219  68.801  1.00  0.00    -0.062 A  
BRANCH  14  15
HETATM   15  C   UNL     1      -7.225   9.902  68.716  1.00  0.00    -0.076 C  
HETATM   16  O   UNL     1      -7.181   9.101  69.644  1.00  0.00    -0.056 OA 
HETATM   17  H   UNL     1      -7.662  10.300  66.729  1.00  0.00     0.000 HD 
HETATM   18  N   UNL     1      -7.791   9.625  67.482  1.00  0.00    -0.095 N  
BRANCH  18  19
HETATM   19  C   UNL     1      -8.534   8.465  67.213  1.00  0.00    -0.124 A  
HETATM   20  C   UNL     1      -8.606   6.165  66.474  1.00  0.00    -0.126 A  
HETATM   21  C   UNL     1      -6.384   7.288  66.445  1.00  0.00    -0.044 C  
HETATM   22  C   UNL     1      -7.863   7.332  66.716  1.00  0.00    -0.113 A  
HETATM   23  C   UNL     1      -9.984   6.131  66.697  1.00  0.00    -0.207 A  
HETATM   24  C   UNL     1     -10.651   7.270  67.129  1.00  0.00    -0.416 A  
HETATM   25  C   UNL     1      -9.935   8.440  67.379  1.00  0.00    -0.212 A  
HETATM   26 CL   UNL     1     -10.856   9.874  67.701  1.00  0.00    -0.340 Cl 
ENDBRANCH  18  19
ENDBRANCH  14  15
ENDBRANCH   8  10
ENDBRANCH   4   8
BRANCH   5  27
HETATM   27  N   UNL     1     -10.276  15.390  66.118  1.00  0.00    -0.289 NA 
HETATM   28  C   UNL     1     -10.738  14.345  67.056  1.00  0.00    -0.285 C  
HETATM   29  C   UNL     1     -10.608  15.093  64.716  1.00  0.00    -0.276 C  
HETATM   30  N   UNL     1     -12.692  13.788  65.522  1.00  0.00    -0.601 NA 
HETATM   31  C   UNL     1     -12.256  14.135  66.895  1.00  0.00    -0.365 C  
HETATM   32  C   UNL     1     -12.134  14.817  64.595  1.00  0.00    -0.427 C  
BRANCH  30  33
HETATM   33  C   UNL     1     -12.266  12.433  65.106  1.00  0.00    -0.384 C  
BRANCH  33  34
HETATM   34  C   UNL     1     -12.471  12.156  63.606  1.00  0.00    -0.549 C  
HETATM   35  H   UNL     1     -11.350  11.749  62.036  1.00  0.00     0.000 HD 
HETATM   36  O   UNL     1     -11.223  11.920  62.962  1.00  0.00    -0.203 OA 
ENDBRANCH  33  34
ENDBRANCH  30  33
ENDBRANCH   5  27
TORSDOF 7
ENDMDL
MODEL       83
REMARK 921   NORMALIZED FREE ENERGY PREDICTED BY IDOCK:   -6.28 KCAL/MOL
REMARK 922        TOTAL FREE ENERGY PREDICTED BY IDOCK:   -9.23 KCAL/MOL
REMARK 923 INTER-LIGAND FREE ENERGY PREDICTED BY IDOCK:   -8.42 KCAL/MOL
REMARK 924 INTRA-LIGAND FREE ENERGY PREDICTED BY IDOCK:   -0.81 KCAL/MOL
REMARK 927      BINDING AFFINITY PREDICTED BY RF-SCORE:    0.00 PKD
ROOT
HETATM    1  C   UNL     1     -12.269  11.744  70.656  1.00  0.00    -0.443 C  
HETATM    2  C   UNL     1     -11.615  11.599  69.318  1.00  0.00    -0.320 A  
HETATM    3  N   UNL     1     -11.440  10.349  68.854  1.00  0.00    -0.222 NA 
HETATM    4  C   UNL     1     -10.976  10.236  67.604  1.00  0.00    -0.294 A  
HETATM    5  C   UNL     1     -10.822  12.593  67.403  1.00  0.00    -0.243 A  
HETATM    6  C   UNL     1     -10.736  11.342  66.831  1.00  0.00    -0.319 A  
HETATM    7  N   UNL     1     -11.297  12.726  68.652  1.00  0.00    -0.271 NA 
ENDROOT
BRANCH   4   8
HETATM    8  N   UNL     1     -10.783   8.944  67.126  1.00  0.00    -0.358 NA 
HETATM    9  H   UNL     1     -11.340   8.681  66.313  1.00  0.00     0.000 HD 
BRANCH   8  10
HETATM   10  C   UNL     1      -9.950   7.998  67.606  1.00  0.00    -0.180 A  
HETATM   11  S   UNL     1     -10.622   6.803  68.633  1.00  0.00    -0.235 SA 
HETATM   12  N   UNL     1      -8.653   7.869  67.399  1.00  0.00    -0.125 NA 
HETATM   13  C   UNL     1      -8.132   6.882  68.212  1.00  0.00    -0.119 A  
HETATM   14  C   UNL     1      -9.052   6.235  69.007  1.00  0.00    -0.129 A  
BRANCH  14  15
HETATM   15  C   UNL     1      -8.829   5.273  70.059  1.00  0.00    -0.120 C  
HETATM   16  O   UNL     1      -7.712   5.032  70.506  1.00  0.00    -0.067 OA 
HETATM   17  H   UNL     1     -10.844   4.794  69.955  1.00  0.00     0.000 HD 
HETATM   18  N   UNL     1      -9.983   4.627  70.475  1.00  0.00    -0.228 N  
BRANCH  18  19
HETATM   19  C   UNL     1     -10.030   3.755  71.573  1.00  0.00    -0.124 A  
HETATM   20  C   UNL     1      -9.685   1.547  72.494  1.00  0.00    -0.147 A  
HETATM   21  C   UNL     1      -9.221   1.840  70.065  1.00  0.00    -0.169 C  
HETATM   22  C   UNL     1      -9.661   2.410  71.386  1.00  0.00    -0.217 A  
HETATM   23  C   UNL     1     -10.086   2.003  73.752  1.00  0.00    -0.153 A  
HETATM   24  C   UNL     1     -10.508   3.316  73.917  1.00  0.00    -0.256 A  
HETATM   25  C   UNL     1     -10.491   4.192  72.833  1.00  0.00    -0.172 A  
HETATM   26 CL   UNL     1     -11.234   5.743  73.061  1.00  0.00    -0.304 Cl 
ENDBRANCH  18  19
ENDBRANCH  14  15
ENDBRANCH   8  10
ENDBRANCH   4   8
BRANCH   5  27
HETATM   27  N   UNL     1     -10.455  13.711  66.644  1.00  0.00    -0.270 NA 
HETATM   28  C   UNL     1      -9.470  14.611  67.281  1.00  0.00    -0.219 C  
HETATM   29  C   UNL     1     -11.558  14.433  65.991  1.00  0.00    -0.363 C  
HETATM   30  N   UNL     1      -9.953  16.414  65.549  1.00  0.00    -0.549 NA 
HETATM   31  C   UNL     1      -8.922  15.603  66.237  1.00  0.00    -0.342 C  
HETATM   32  C   UNL     1     -10.974  15.474  64.995  1.00  0.00    -0.440 C  
BRANCH  30  33
HETATM   33  C   UNL     1     -10.594  17.408  66.438  1.00  0.00    -0.192 C  
BRANCH  33  34
HETATM   34  C   UNL     1     -10.542  18.847  65.894  1.00  0.00    -0.373 C  
HETATM   35  H   UNL     1     -10.605  20.680  66.620  1.00  0.00     0.000 HD 
HETATM   36  O   UNL     1     -10.638  19.792  66.956  1.00  0.00    -0.458 OA 
ENDBRANCH  33  34
ENDBRANCH  30  33
ENDBRANCH   5  27
TORSDOF 7
ENDMDL
MODEL       84
REMARK 921   NORMALIZED FREE ENERGY PREDICTED BY IDOCK:   -6.26 KCAL/MOL
REMARK 922        TOTAL FREE ENERGY PREDICTED BY IDOCK:   -9.20 KCAL/MOL
REMARK 923 INTER-LIGAND FREE ENERGY PREDICTED BY IDOCK:   -8.80 KCAL/MOL
REMARK 924 INTRA-LIGAND FREE ENERGY PREDICTED BY IDOCK:   -0.40 KCAL/MOL
REMARK 927      BINDING AFFINITY PREDICTED BY RF-SCORE:    0.00 PKD
ROOT
HETATM    1  C   UNL     1     -10.493   4.594  74.020  1.00  0.00    -0.322 C  
HETATM    2  C   UNL     1     -10.711   5.479  72.834  1.00  0.00    -0.249 A  
HETATM    3  N   UNL     1     -11.035   6.761  73.076  1.00  0.00    -0.272 NA 
HETATM    4  C   UNL     1     -11.098   7.573  72.014  1.00  0.00    -0.247 A  
HETATM    5  C   UNL     1     -10.595   5.772  70.556  1.00  0.00    -0.289 A  
HETATM    6  C   UNL     1     -10.804   7.120  70.754  1.00  0.00    -0.267 A  
HETATM    7  N   UNL     1     -10.516   4.945  71.612  1.00  0.00    -0.167 NA 
ENDROOT
BRANCH   4   8
HETATM    8  N   UNL     1     -11.446   8.896  72.261  1.00  0.00    -0.311 NA 
HETATM    9  H   UNL     1     -11.518   9.163  73.243  1.00  0.00     0.000 HD 
BRANCH   8  10
HETATM   10  C   UNL     1     -11.698   9.870  71.363  1.00  0.00    -0.371 A  
HETATM   11  S   UNL     1     -10.597  10.048  70.062  1.00  0.00    -0.303 SA 
HETATM   12  N   UNL     1     -12.693  10.736  71.354  1.00  0.00    -0.416 NA 
HETATM   13  C   UNL     1     -12.496  11.687  70.371  1.00  0.00    -0.221 A  
HETATM   14  C   UNL     1     -11.363  11.509  69.608  1.00  0.00    -0.256 A  
BRANCH  14  15
HETATM   15  C   UNL     1     -10.790  12.383  68.612  1.00  0.00    -0.240 C  
HETATM   16  O   UNL     1      -9.624  12.287  68.243  1.00  0.00    -0.211 OA 
HETATM   17  H   UNL     1     -12.574  13.440  68.616  1.00  0.00     0.000 HD 
HETATM   18  N   UNL     1     -11.668  13.354  68.156  1.00  0.00    -0.341 N  
BRANCH  18  19
HETATM   19  C   UNL     1     -11.376  14.224  67.094  1.00  0.00    -0.337 A  
HETATM   20  C   UNL     1     -11.351  14.675  64.720  1.00  0.00    -0.398 A  
HETATM   21  C   UNL     1     -12.176  12.435  65.433  1.00  0.00    -0.386 C  
HETATM   22  C   UNL     1     -11.621  13.791  65.777  1.00  0.00    -0.342 A  
HETATM   23  C   UNL     1     -10.831  15.947  64.962  1.00  0.00    -0.444 A  
HETATM   24  C   UNL     1     -10.533  16.347  66.258  1.00  0.00    -0.298 A  
HETATM   25  C   UNL     1     -10.794  15.488  67.325  1.00  0.00    -0.313 A  
HETATM   26 CL   UNL     1     -10.197  15.963  68.883  1.00  0.00    -0.215 Cl 
ENDBRANCH  18  19
ENDBRANCH  14  15
ENDBRANCH   8  10
ENDBRANCH   4   8
BRANCH   5  27
HETATM   27  N   UNL     1     -10.417   5.299  69.250  1.00  0.00    -0.223 NA 
HETATM   28  C   UNL     1      -9.287   4.364  69.066  1.00  0.00    -0.154 C  
HETATM   29  C   UNL     1     -10.511   6.308  68.184  1.00  0.00    -0.226 C  
HETATM   30  N   UNL     1      -9.453   4.616  66.537  1.00  0.00    -0.151 NA 
HETATM   31  C   UNL     1      -9.396   3.684  67.687  1.00  0.00    -0.200 C  
HETATM   32  C   UNL     1     -10.549   5.596  66.803  1.00  0.00    -0.304 C  
BRANCH  30  33
HETATM   33  C   UNL     1      -8.174   5.322  66.301  1.00  0.00    -0.109 C  
BRANCH  33  34
HETATM   34  C   UNL     1      -8.007   5.828  64.857  1.00  0.00    -0.123 C  
HETATM   35  H   UNL     1      -8.247   7.520  63.872  1.00  0.00     0.000 HD 
HETATM   36  O   UNL     1      -8.350   7.208  64.763  1.00  0.00    -0.091 OA 
ENDBRANCH  33  34
ENDBRANCH  30  33
ENDBRANCH   5  27
TORSDOF 7
ENDMDL
MODEL       85
REMARK 921   NORMALIZED FREE ENERGY PREDICTED BY IDOCK:   -6.26 KCAL/MOL
REMARK 922        TOTAL FREE ENERGY PREDICTED BY IDOCK:   -9.19 KCAL/MOL
REMARK 923 INTER-LIGAND FREE ENERGY PREDICTED BY IDOCK:   -8.34 KCAL/MOL
REMARK 924 INTRA-LIGAND FREE ENERGY PREDICTED BY IDOCK:   -0.85 KCAL/MOL
REMARK 927      BINDING AFFINITY PREDICTED BY RF-SCORE:    0.00 PKD
ROOT
HETATM    1  C   UNL     1      -8.746   9.501  63.678  1.00  0.00    -0.239 C  
HETATM    2  C   UNL     1      -9.324   9.427  65.056  1.00  0.00    -0.191 A  
HETATM    3  N   UNL     1     -10.189  10.393  65.411  1.00  0.00    -0.285 NA 
HETATM    4  C   UNL     1     -10.798  10.245  66.593  1.00  0.00    -0.045 A  
HETATM    5  C   UNL     1      -9.593   8.246  67.010  1.00  0.00    -0.191 A  
HETATM    6  C   UNL     1     -10.577   9.140  67.374  1.00  0.00    -0.315 A  
HETATM    7  N   UNL     1      -8.981   8.372  65.821  1.00  0.00    -0.177 NA 
ENDROOT
BRANCH   4   8
HETATM    8  N   UNL     1     -11.682  11.250  66.968  1.00  0.00    -0.457 NA 
HETATM    9  H   UNL     1     -12.504  10.949  67.492  1.00  0.00     0.000 HD 
BRANCH   8  10
HETATM   10  C   UNL     1     -11.587  12.573  66.725  1.00  0.00    -0.382 A  
HETATM   11  S   UNL     1     -10.389  13.448  67.581  1.00  0.00    -0.241 SA 
HETATM   12  N   UNL     1     -12.318  13.309  65.909  1.00  0.00    -0.433 NA 
HETATM   13  C   UNL     1     -12.030  14.649  66.081  1.00  0.00    -0.241 A  
HETATM   14  C   UNL     1     -11.046  14.920  67.006  1.00  0.00    -0.338 A  
BRANCH  14  15
HETATM   15  C   UNL     1     -10.611  16.194  67.526  1.00  0.00    -0.314 C  
HETATM   16  O   UNL     1     -11.198  16.768  68.438  1.00  0.00    -0.332 OA 
HETATM   17  H   UNL     1      -9.170  16.232  66.035  1.00  0.00     0.000 HD 
HETATM   18  N   UNL     1      -9.508  16.715  66.868  1.00  0.00    -0.228 N  
BRANCH  18  19
HETATM   19  C   UNL     1      -8.831  17.871  67.286  1.00  0.00    -0.243 A  
HETATM   20  C   UNL     1      -7.148  18.908  68.676  1.00  0.00    -0.327 A  
HETATM   21  C   UNL     1      -7.461  16.450  68.931  1.00  0.00    -0.214 C  
HETATM   22  C   UNL     1      -7.840  17.752  68.279  1.00  0.00    -0.279 A  
HETATM   23  C   UNL     1      -7.448  20.153  68.119  1.00  0.00    -0.264 A  
HETATM   24  C   UNL     1      -8.468  20.273  67.185  1.00  0.00    -0.407 A  
HETATM   25  C   UNL     1      -9.168  19.141  66.773  1.00  0.00    -0.320 A  
HETATM   26 CL   UNL     1     -10.566  19.397  65.777  1.00  0.00    -0.555 Cl 
ENDBRANCH  18  19
ENDBRANCH  14  15
ENDBRANCH   8  10
ENDBRANCH   4   8
BRANCH   5  27
HETATM   27  N   UNL     1      -9.288   7.187  67.874  1.00  0.00    -0.129 NA 
HETATM   28  C   UNL     1     -10.452   6.426  68.376  1.00  0.00    -0.222 C  
HETATM   29  C   UNL     1      -8.295   7.478  68.919  1.00  0.00    -0.129 C  
HETATM   30  N   UNL     1      -8.997   5.308  70.141  1.00  0.00    -0.126 NA 
HETATM   31  C   UNL     1      -9.972   5.122  69.042  1.00  0.00    -0.195 C  
HETATM   32  C   UNL     1      -7.881   6.153  69.620  1.00  0.00    -0.103 C  
BRANCH  30  33
HETATM   33  C   UNL     1      -9.595   5.928  71.345  1.00  0.00    -0.164 C  
BRANCH  33  34
HETATM   34  C   UNL     1      -8.560   6.574  72.284  1.00  0.00    -0.123 C  
HETATM   35  H   UNL     1      -8.080   8.388  72.892  1.00  0.00     0.000 HD 
HETATM   36  O   UNL     1      -8.719   7.989  72.312  1.00  0.00    -0.132 OA 
ENDBRANCH  33  34
ENDBRANCH  30  33
ENDBRANCH   5  27
TORSDOF 7
ENDMDL
MODEL       86
REMARK 921   NORMALIZED FREE ENERGY PREDICTED BY IDOCK:   -6.25 KCAL/MOL
REMARK 922        TOTAL FREE ENERGY PREDICTED BY IDOCK:   -9.19 KCAL/MOL
REMARK 923 INTER-LIGAND FREE ENERGY PREDICTED BY IDOCK:   -8.22 KCAL/MOL
REMARK 924 INTRA-LIGAND FREE ENERGY PREDICTED BY IDOCK:   -0.97 KCAL/MOL
REMARK 927      BINDING AFFINITY PREDICTED BY RF-SCORE:    0.00 PKD
ROOT
HETATM    1  C   UNL     1     -12.164   9.876  71.666  1.00  0.00    -0.482 C  
HETATM    2  C   UNL     1     -11.741   9.847  70.231  1.00  0.00    -0.216 A  
HETATM    3  N   UNL     1     -12.077  10.903  69.471  1.00  0.00    -0.330 NA 
HETATM    4  C   UNL     1     -11.582  10.926  68.228  1.00  0.00    -0.262 A  
HETATM    5  C   UNL     1     -10.530   8.828  68.563  1.00  0.00    -0.175 A  
HETATM    6  C   UNL     1     -10.742   9.942  67.778  1.00  0.00    -0.332 A  
HETATM    7  N   UNL     1     -11.010   8.793  69.817  1.00  0.00    -0.190 NA 
ENDROOT
BRANCH   4   8
HETATM    8  N   UNL     1     -11.939  12.012  67.436  1.00  0.00    -0.585 NA 
HETATM    9  H   UNL     1     -12.940  12.165  67.312  1.00  0.00     0.000 HD 
BRANCH   8  10
HETATM   10  C   UNL     1     -11.125  12.888  66.812  1.00  0.00    -0.281 A  
HETATM   11  S   UNL     1     -10.189  13.934  67.795  1.00  0.00    -0.241 SA 
HETATM   12  N   UNL     1     -10.954  13.065  65.515  1.00  0.00    -0.272 NA 
HETATM   13  C   UNL     1     -10.175  14.181  65.280  1.00  0.00    -0.375 A  
HETATM   14  C   UNL     1      -9.721  14.824  66.411  1.00  0.00    -0.291 A  
BRANCH  14  15
HETATM   15  C   UNL     1      -9.020  16.080  66.523  1.00  0.00    -0.292 C  
HETATM   16  O   UNL     1      -8.965  16.889  65.603  1.00  0.00    -0.486 OA 
HETATM   17  H   UNL     1      -8.376  15.473  68.399  1.00  0.00     0.000 HD 
HETATM   18  N   UNL     1      -8.387  16.255  67.744  1.00  0.00    -0.160 N  
BRANCH  18  19
HETATM   19  C   UNL     1      -7.762  17.451  68.129  1.00  0.00    -0.221 A  
HETATM   20  C   UNL     1      -7.930  19.707  68.978  1.00  0.00    -0.234 A  
HETATM   21  C   UNL     1     -10.064  18.464  68.652  1.00  0.00    -0.407 C  
HETATM   22  C   UNL     1      -8.562  18.521  68.570  1.00  0.00    -0.349 A  
HETATM   23  C   UNL     1      -6.541  19.836  68.926  1.00  0.00    -0.352 A  
HETATM   24  C   UNL     1      -5.761  18.799  68.432  1.00  0.00    -0.193 A  
HETATM   25  C   UNL     1      -6.364  17.611  68.023  1.00  0.00    -0.166 A  
HETATM   26 CL   UNL     1      -5.356  16.452  67.216  1.00  0.00    -0.151 Cl 
ENDBRANCH  18  19
ENDBRANCH  14  15
ENDBRANCH   8  10
ENDBRANCH   4   8
BRANCH   5  27
HETATM   27  N   UNL     1      -9.771   7.771  68.047  1.00  0.00    -0.150 NA 
HETATM   28  C   UNL     1      -8.362   8.096  67.739  1.00  0.00    -0.128 C  
HETATM   29  C   UNL     1     -10.419   6.967  66.999  1.00  0.00    -0.316 C  
HETATM   30  N   UNL     1      -8.119   5.933  66.418  1.00  0.00    -0.102 NA 
HETATM   31  C   UNL     1      -7.572   6.797  67.490  1.00  0.00    -0.106 C  
HETATM   32  C   UNL     1      -9.564   5.699  66.719  1.00  0.00    -0.146 C  
BRANCH  30  33
HETATM   33  C   UNL     1      -7.961   6.516  65.067  1.00  0.00    -0.121 C  
BRANCH  33  34
HETATM   34  C   UNL     1      -6.497   6.796  64.685  1.00  0.00    -0.042 C  
HETATM   35  H   UNL     1      -5.445   8.300  63.960  1.00  0.00     0.000 HD 
HETATM   36  O   UNL     1      -6.349   8.126  64.196  1.00  0.00    -0.064 OA 
ENDBRANCH  33  34
ENDBRANCH  30  33
ENDBRANCH   5  27
TORSDOF 7
ENDMDL
MODEL       87
REMARK 921   NORMALIZED FREE ENERGY PREDICTED BY IDOCK:   -6.24 KCAL/MOL
REMARK 922        TOTAL FREE ENERGY PREDICTED BY IDOCK:   -9.17 KCAL/MOL
REMARK 923 INTER-LIGAND FREE ENERGY PREDICTED BY IDOCK:   -8.59 KCAL/MOL
REMARK 924 INTRA-LIGAND FREE ENERGY PREDICTED BY IDOCK:   -0.58 KCAL/MOL
REMARK 927      BINDING AFFINITY PREDICTED BY RF-SCORE:    0.00 PKD
ROOT
HETATM    1  C   UNL     1     -10.576   9.285  71.367  1.00  0.00    -0.417 C  
HETATM    2  C   UNL     1     -10.747   9.354  69.883  1.00  0.00    -0.234 A  
HETATM    3  N   UNL     1     -11.191  10.515  69.370  1.00  0.00    -0.251 NA 
HETATM    4  C   UNL     1     -11.214  10.609  68.036  1.00  0.00    -0.307 A  
HETATM    5  C   UNL     1     -10.434   8.380  67.824  1.00  0.00    -0.220 A  
HETATM    6  C   UNL     1     -10.766   9.585  67.242  1.00  0.00    -0.269 A  
HETATM    7  N   UNL     1     -10.393   8.272  69.162  1.00  0.00    -0.216 NA 
ENDROOT
BRANCH   4   8
HETATM    8  N   UNL     1     -11.686  11.804  67.504  1.00  0.00    -0.573 NA 
HETATM    9  H   UNL     1     -12.061  11.754  66.557  1.00  0.00     0.000 HD 
BRANCH   8  10
HETATM   10  C   UNL     1     -11.708  13.020  68.086  1.00  0.00    -0.351 A  
HETATM   11  S   UNL     1     -10.887  14.293  67.286  1.00  0.00    -0.289 SA 
HETATM   12  N   UNL     1     -12.278  13.372  69.223  1.00  0.00    -0.245 NA 
HETATM   13  C   UNL     1     -11.918  14.662  69.563  1.00  0.00    -0.319 A  
HETATM   14  C   UNL     1     -11.104  15.299  68.652  1.00  0.00    -0.279 A  
BRANCH  14  15
HETATM   15  C   UNL     1     -10.437  16.574  68.765  1.00  0.00    -0.309 C  
HETATM   16  O   UNL     1     -10.592  17.316  69.729  1.00  0.00    -0.142 OA 
HETATM   17  H   UNL     1      -9.687  16.271  66.855  1.00  0.00     0.000 HD 
HETATM   18  N   UNL     1      -9.650  16.887  67.667  1.00  0.00    -0.246 N  
BRANCH  18  19
HETATM   19  C   UNL     1      -8.805  18.006  67.614  1.00  0.00    -0.254 A  
HETATM   20  C   UNL     1      -6.592  18.955  67.828  1.00  0.00    -0.220 A  
HETATM   21  C   UNL     1      -6.822  16.517  68.286  1.00  0.00    -0.143 C  
HETATM   22  C   UNL     1      -7.439  17.837  67.908  1.00  0.00    -0.210 A  
HETATM   23  C   UNL     1      -7.093  20.213  67.488  1.00  0.00    -0.311 A  
HETATM   24  C   UNL     1      -8.452  20.386  67.260  1.00  0.00    -0.405 A  
HETATM   25  C   UNL     1      -9.312  19.291  67.330  1.00  0.00    -0.306 A  
HETATM   26 CL   UNL     1     -11.014  19.620  67.251  1.00  0.00    -0.525 Cl 
ENDBRANCH  18  19
ENDBRANCH  14  15
ENDBRANCH   8  10
ENDBRANCH   4   8
BRANCH   5  27
HETATM   27  N   UNL     1     -10.095   7.301  66.998  1.00  0.00    -0.222 NA 
HETATM   28  C   UNL     1     -10.718   6.010  67.360  1.00  0.00    -0.310 C  
HETATM   29  C   UNL     1      -8.670   7.178  66.656  1.00  0.00    -0.128 C  
HETATM   30  N   UNL     1      -9.115   4.771  65.818  1.00  0.00    -0.136 NA 
HETATM   31  C   UNL     1     -10.525   5.001  66.212  1.00  0.00    -0.303 C  
HETATM   32  C   UNL     1      -8.498   6.103  65.546  1.00  0.00    -0.149 C  
BRANCH  30  33
HETATM   33  C   UNL     1      -8.339   4.042  66.846  1.00  0.00    -0.100 C  
BRANCH  33  34
HETATM   34  C   UNL     1      -8.011   2.590  66.456  1.00  0.00    -0.081 C  
HETATM   35  H   UNL     1      -8.918   0.838  66.474  1.00  0.00     0.000 HD 
HETATM   36  O   UNL     1      -9.121   1.735  66.715  1.00  0.00    -0.118 OA 
ENDBRANCH  33  34
ENDBRANCH  30  33
ENDBRANCH   5  27
TORSDOF 7
ENDMDL
MODEL       88
REMARK 921   NORMALIZED FREE ENERGY PREDICTED BY IDOCK:   -6.22 KCAL/MOL
REMARK 922        TOTAL FREE ENERGY PREDICTED BY IDOCK:   -9.14 KCAL/MOL
REMARK 923 INTER-LIGAND FREE ENERGY PREDICTED BY IDOCK:   -8.16 KCAL/MOL
REMARK 924 INTRA-LIGAND FREE ENERGY PREDICTED BY IDOCK:   -0.98 KCAL/MOL
REMARK 927      BINDING AFFINITY PREDICTED BY RF-SCORE:    0.00 PKD
ROOT
HETATM    1  C   UNL     1     -12.943   9.670  72.386  1.00  0.00    -0.358 C  
HETATM    2  C   UNL     1     -12.120   9.840  71.148  1.00  0.00    -0.370 A  
HETATM    3  N   UNL     1     -12.583  10.691  70.216  1.00  0.00    -0.308 NA 
HETATM    4  C   UNL     1     -11.777  10.934  69.176  1.00  0.00    -0.326 A  
HETATM    5  C   UNL     1     -10.161   9.420  70.022  1.00  0.00    -0.226 A  
HETATM    6  C   UNL     1     -10.529  10.374  69.097  1.00  0.00    -0.248 A  
HETATM    7  N   UNL     1     -10.952   9.173  71.079  1.00  0.00    -0.277 NA 
ENDROOT
BRANCH   4   8
HETATM    8  N   UNL     1     -12.260  11.804  68.205  1.00  0.00    -0.421 NA 
HETATM    9  H   UNL     1     -13.157  11.556  67.788  1.00  0.00     0.000 HD 
BRANCH   8  10
HETATM   10  C   UNL     1     -11.687  12.937  67.746  1.00  0.00    -0.362 A  
HETATM   11  S   UNL     1     -10.940  13.964  68.896  1.00  0.00    -0.259 SA 
HETATM   12  N   UNL     1     -11.634  13.381  66.505  1.00  0.00    -0.341 NA 
HETATM   13  C   UNL     1     -11.124  14.665  66.475  1.00  0.00    -0.329 A  
HETATM   14  C   UNL     1     -10.753  15.173  67.700  1.00  0.00    -0.285 A  
BRANCH  14  15
HETATM   15  C   UNL     1     -10.328  16.510  68.040  1.00  0.00    -0.294 C  
HETATM   16  O   UNL     1     -10.744  17.102  69.030  1.00  0.00    -0.309 OA 
HETATM   17  H   UNL     1      -9.264  16.549  66.260  1.00  0.00     0.000 HD 
HETATM   18  N   UNL     1      -9.450  17.063  67.121  1.00  0.00    -0.238 N  
BRANCH  18  19
HETATM   19  C   UNL     1      -8.801  18.293  67.312  1.00  0.00    -0.255 A  
HETATM   20  C   UNL     1      -8.697  20.675  66.916  1.00  0.00    -0.217 A  
HETATM   21  C   UNL     1     -10.568  19.433  65.837  1.00  0.00    -0.551 C  
HETATM   22  C   UNL     1      -9.335  19.442  66.699  1.00  0.00    -0.408 A  
HETATM   23  C   UNL     1      -7.546  20.760  67.701  1.00  0.00    -0.253 A  
HETATM   24  C   UNL     1      -6.988  19.614  68.252  1.00  0.00    -0.333 A  
HETATM   25  C   UNL     1      -7.604  18.380  68.054  1.00  0.00    -0.259 A  
HETATM   26 CL   UNL     1      -6.738  16.973  68.583  1.00  0.00    -0.172 Cl 
ENDBRANCH  18  19
ENDBRANCH  14  15
ENDBRANCH   8  10
ENDBRANCH   4   8
BRANCH   5  27
HETATM   27  N   UNL     1      -8.935   8.762  69.864  1.00  0.00    -0.147 NA 
HETATM   28  C   UNL     1      -7.756   9.489  70.382  1.00  0.00    -0.163 C  
HETATM   29  C   UNL     1      -8.701   8.149  68.547  1.00  0.00    -0.134 C  
HETATM   30  N   UNL     1      -6.196   7.901  69.147  1.00  0.00    -0.035 NA 
HETATM   31  C   UNL     1      -6.544   8.540  70.437  1.00  0.00    -0.036 C  
HETATM   32  C   UNL     1      -7.432   7.253  68.614  1.00  0.00    -0.102 C  
BRANCH  30  33
HETATM   33  C   UNL     1      -5.647   8.856  68.158  1.00  0.00    -0.038 C  
BRANCH  33  34
HETATM   34  C   UNL     1      -5.785   8.382  66.701  1.00  0.00    -0.043 C  
HETATM   35  H   UNL     1      -6.426   9.118  64.987  1.00  0.00     0.000 HD 
HETATM   36  O   UNL     1      -6.341   9.411  65.887  1.00  0.00    -0.065 OA 
ENDBRANCH  33  34
ENDBRANCH  30  33
ENDBRANCH   5  27
TORSDOF 7
ENDMDL
MODEL       89
REMARK 921   NORMALIZED FREE ENERGY PREDICTED BY IDOCK:   -6.20 KCAL/MOL
REMARK 922        TOTAL FREE ENERGY PREDICTED BY IDOCK:   -9.11 KCAL/MOL
REMARK 923 INTER-LIGAND FREE ENERGY PREDICTED BY IDOCK:   -7.89 KCAL/MOL
REMARK 924 INTRA-LIGAND FREE ENERGY PREDICTED BY IDOCK:   -1.23 KCAL/MOL
REMARK 927      BINDING AFFINITY PREDICTED BY RF-SCORE:    0.00 PKD
ROOT
HETATM    1  C   UNL     1     -14.394   6.622  71.945  1.00  0.00    -0.190 C  
HETATM    2  C   UNL     1     -13.225   7.541  71.781  1.00  0.00    -0.316 A  
HETATM    3  N   UNL     1     -13.491   8.845  71.592  1.00  0.00    -0.370 NA 
HETATM    4  C   UNL     1     -12.440   9.673  71.579  1.00  0.00    -0.386 A  
HETATM    5  C   UNL     1     -10.948   7.853  71.862  1.00  0.00    -0.256 A  
HETATM    6  C   UNL     1     -11.168   9.212  71.792  1.00  0.00    -0.451 A  
HETATM    7  N   UNL     1     -11.992   7.008  71.889  1.00  0.00    -0.306 NA 
ENDROOT
BRANCH   4   8
HETATM    8  N   UNL     1     -12.713  11.021  71.370  1.00  0.00    -0.423 NA 
HETATM    9  H   UNL     1     -13.266  11.482  72.092  1.00  0.00     0.000 HD 
BRANCH   8  10
HETATM   10  C   UNL     1     -12.335  11.793  70.331  1.00  0.00    -0.277 A  
HETATM   11  S   UNL     1     -12.023  11.010  68.839  1.00  0.00    -0.154 SA 
HETATM   12  N   UNL     1     -12.154  13.100  70.306  1.00  0.00    -0.356 NA 
HETATM   13  C   UNL     1     -11.590  13.485  69.105  1.00  0.00    -0.310 A  
HETATM   14  C   UNL     1     -11.384  12.464  68.204  1.00  0.00    -0.291 A  
BRANCH  14  15
HETATM   15  C   UNL     1     -10.692  12.495  66.937  1.00  0.00    -0.243 C  
HETATM   16  O   UNL     1     -10.137  13.503  66.514  1.00  0.00    -0.268 OA 
HETATM   17  H   UNL     1     -11.353  10.556  66.609  1.00  0.00     0.000 HD 
HETATM   18  N   UNL     1     -10.757  11.298  66.241  1.00  0.00    -0.268 N  
BRANCH  18  19
HETATM   19  C   UNL     1     -10.047  11.052  65.056  1.00  0.00    -0.296 A  
HETATM   20  C   UNL     1      -8.052  10.249  63.954  1.00  0.00    -0.138 A  
HETATM   21  C   UNL     1      -8.064  10.194  66.444  1.00  0.00    -0.122 C  
HETATM   22  C   UNL     1      -8.748  10.517  65.144  1.00  0.00    -0.197 A  
HETATM   23  C   UNL     1      -8.621  10.527  62.710  1.00  0.00    -0.218 A  
HETATM   24  C   UNL     1      -9.878  11.112  62.630  1.00  0.00    -0.166 A  
HETATM   25  C   UNL     1     -10.590  11.385  63.797  1.00  0.00    -0.403 A  
HETATM   26 CL   UNL     1     -12.048  12.312  63.631  1.00  0.00    -0.600 Cl 
ENDBRANCH  18  19
ENDBRANCH  14  15
ENDBRANCH   8  10
ENDBRANCH   4   8
BRANCH   5  27
HETATM   27  N   UNL     1      -9.632   7.384  71.955  1.00  0.00    -0.149 NA 
HETATM   28  C   UNL     1      -8.582   8.407  71.762  1.00  0.00    -0.176 C  
HETATM   29  C   UNL     1      -9.348   6.126  71.248  1.00  0.00    -0.159 C  
HETATM   30  N   UNL     1      -6.816   6.589  71.512  1.00  0.00    -0.065 NA 
HETATM   31  C   UNL     1      -7.218   7.839  72.199  1.00  0.00    -0.075 C  
HETATM   32  C   UNL     1      -7.938   5.613  71.655  1.00  0.00    -0.117 C  
BRANCH  30  33
HETATM   33  C   UNL     1      -6.489   6.795  70.084  1.00  0.00    -0.040 C  
BRANCH  33  34
HETATM   34  C   UNL     1      -6.281   5.484  69.304  1.00  0.00    -0.029 C  
HETATM   35  H   UNL     1      -7.090   4.568  67.756  1.00  0.00     0.000 HD 
HETATM   36  O   UNL     1      -7.219   5.377  68.237  1.00  0.00    -0.068 OA 
ENDBRANCH  33  34
ENDBRANCH  30  33
ENDBRANCH   5  27
TORSDOF 7
ENDMDL
MODEL       90
REMARK 921   NORMALIZED FREE ENERGY PREDICTED BY IDOCK:   -6.17 KCAL/MOL
REMARK 922        TOTAL FREE ENERGY PREDICTED BY IDOCK:   -9.07 KCAL/MOL
REMARK 923 INTER-LIGAND FREE ENERGY PREDICTED BY IDOCK:   -8.55 KCAL/MOL
REMARK 924 INTRA-LIGAND FREE ENERGY PREDICTED BY IDOCK:   -0.52 KCAL/MOL
REMARK 927      BINDING AFFINITY PREDICTED BY RF-SCORE:    0.00 PKD
ROOT
HETATM    1  C   UNL     1     -12.921  15.439  72.405  1.00  0.00    -0.495 C  
HETATM    2  C   UNL     1     -12.406  14.824  71.142  1.00  0.00    -0.331 A  
HETATM    3  N   UNL     1     -12.485  13.486  71.036  1.00  0.00    -0.373 NA 
HETATM    4  C   UNL     1     -12.144  12.960  69.853  1.00  0.00    -0.265 A  
HETATM    5  C   UNL     1     -11.604  15.107  69.007  1.00  0.00    -0.330 A  
HETATM    6  C   UNL     1     -11.778  13.756  68.800  1.00  0.00    -0.391 A  
HETATM    7  N   UNL     1     -11.952  15.654  70.183  1.00  0.00    -0.360 NA 
ENDROOT
BRANCH   4   8
HETATM    8  N   UNL     1     -12.213  11.575  69.745  1.00  0.00    -0.272 NA 
HETATM    9  H   UNL     1     -12.780  11.100  70.447  1.00  0.00     0.000 HD 
BRANCH   8  10
HETATM   10  C   UNL     1     -11.622  10.784  68.826  1.00  0.00    -0.280 A  
HETATM   11  S   UNL     1     -10.765   9.415  69.398  1.00  0.00    -0.192 SA 
HETATM   12  N   UNL     1     -11.599  10.930  67.515  1.00  0.00    -0.522 NA 
HETATM   13  C   UNL     1     -10.736  10.015  66.944  1.00  0.00    -0.140 A  
HETATM   14  C   UNL     1     -10.136   9.147  67.830  1.00  0.00    -0.203 A  
BRANCH  14  15
HETATM   15  C   UNL     1      -9.090   8.182  67.591  1.00  0.00    -0.134 C  
HETATM   16  O   UNL     1      -8.185   7.979  68.394  1.00  0.00    -0.120 OA 
HETATM   17  H   UNL     1      -9.896   7.880  65.704  1.00  0.00     0.000 HD 
HETATM   18  N   UNL     1      -9.188   7.551  66.360  1.00  0.00    -0.172 N  
BRANCH  18  19
HETATM   19  C   UNL     1      -8.365   6.484  65.970  1.00  0.00    -0.133 A  
HETATM   20  C   UNL     1      -6.478   5.667  64.700  1.00  0.00    -0.041 A  
HETATM   21  C   UNL     1      -7.019   8.088  64.483  1.00  0.00    -0.071 C  
HETATM   22  C   UNL     1      -7.315   6.734  65.067  1.00  0.00    -0.082 A  
HETATM   23  C   UNL     1      -6.693   4.380  65.198  1.00  0.00    -0.049 A  
HETATM   24  C   UNL     1      -7.768   4.127  66.040  1.00  0.00    -0.090 A  
HETATM   25  C   UNL     1      -8.611   5.170  66.421  1.00  0.00    -0.112 A  
HETATM   26 CL   UNL     1     -10.051   4.742  67.290  1.00  0.00    -0.211 Cl 
ENDBRANCH  18  19
ENDBRANCH  14  15
ENDBRANCH   8  10
ENDBRANCH   4   8
BRANCH   5  27
HETATM   27  N   UNL     1     -11.110  15.895  67.959  1.00  0.00    -0.338 NA 
HETATM   28  C   UNL     1     -10.298  15.173  66.956  1.00  0.00    -0.271 C  
HETATM   29  C   UNL     1     -10.529  17.189  68.348  1.00  0.00    -0.376 C  
HETATM   30  N   UNL     1      -9.470  17.381  65.995  1.00  0.00    -0.509 NA 
HETATM   31  C   UNL     1     -10.092  16.065  65.717  1.00  0.00    -0.366 C  
HETATM   32  C   UNL     1     -10.267  18.040  67.073  1.00  0.00    -0.362 C  
BRANCH  30  33
HETATM   33  C   UNL     1      -8.049  17.276  66.394  1.00  0.00    -0.293 C  
BRANCH  33  34
HETATM   34  C   UNL     1      -7.303  18.622  66.376  1.00  0.00    -0.245 C  
HETATM   35  H   UNL     1      -7.543  20.408  65.574  1.00  0.00     0.000 HD 
HETATM   36  O   UNL     1      -8.004  19.577  65.585  1.00  0.00    -0.422 OA 
ENDBRANCH  33  34
ENDBRANCH  30  33
ENDBRANCH   5  27
TORSDOF 7
ENDMDL
MODEL       91
REMARK 921   NORMALIZED FREE ENERGY PREDICTED BY IDOCK:   -6.17 KCAL/MOL
REMARK 922        TOTAL FREE ENERGY PREDICTED BY IDOCK:   -9.07 KCAL/MOL
REMARK 923 INTER-LIGAND FREE ENERGY PREDICTED BY IDOCK:   -8.05 KCAL/MOL
REMARK 924 INTRA-LIGAND FREE ENERGY PREDICTED BY IDOCK:   -1.01 KCAL/MOL
REMARK 927      BINDING AFFINITY PREDICTED BY RF-SCORE:    0.00 PKD
ROOT
HETATM    1  C   UNL     1      -6.273   6.651  67.419  1.00  0.00    -0.033 C  
HETATM    2  C   UNL     1      -7.058   7.638  68.225  1.00  0.00    -0.080 A  
HETATM    3  N   UNL     1      -6.827   8.942  67.992  1.00  0.00    -0.069 NA 
HETATM    4  C   UNL     1      -7.626   9.811  68.622  1.00  0.00    -0.079 A  
HETATM    5  C   UNL     1      -8.762   8.041  69.715  1.00  0.00    -0.136 A  
HETATM    6  C   UNL     1      -8.651   9.384  69.425  1.00  0.00    -0.148 A  
HETATM    7  N   UNL     1      -7.977   7.153  69.083  1.00  0.00    -0.118 NA 
ENDROOT
BRANCH   4   8
HETATM    8  N   UNL     1      -7.380  11.161  68.393  1.00  0.00    -0.088 NA 
HETATM    9  H   UNL     1      -6.579  11.558  68.884  1.00  0.00     0.000 HD 
BRANCH   8  10
HETATM   10  C   UNL     1      -8.069  12.007  67.601  1.00  0.00    -0.155 A  
HETATM   11  S   UNL     1      -7.621  13.661  67.635  1.00  0.00    -0.182 SA 
HETATM   12  N   UNL     1      -9.076  11.735  66.793  1.00  0.00    -0.188 NA 
HETATM   13  C   UNL     1      -9.627  12.902  66.299  1.00  0.00    -0.243 A  
HETATM   14  C   UNL     1      -9.001  14.060  66.707  1.00  0.00    -0.197 A  
BRANCH  14  15
HETATM   15  C   UNL     1      -9.401  15.431  66.499  1.00  0.00    -0.282 C  
HETATM   16  O   UNL     1     -10.256  15.751  65.680  1.00  0.00    -0.330 OA 
HETATM   17  H   UNL     1      -7.913  15.992  67.830  1.00  0.00     0.000 HD 
HETATM   18  N   UNL     1      -8.697  16.337  67.277  1.00  0.00    -0.178 N  
BRANCH  18  19
HETATM   19  C   UNL     1      -9.007  17.705  67.343  1.00  0.00    -0.231 A  
HETATM   20  C   UNL     1      -8.549  19.977  66.661  1.00  0.00    -0.382 A  
HETATM   21  C   UNL     1      -7.049  18.206  65.758  1.00  0.00    -0.256 C  
HETATM   22  C   UNL     1      -8.219  18.613  66.612  1.00  0.00    -0.289 A  
HETATM   23  C   UNL     1      -9.619  20.431  67.436  1.00  0.00    -0.584 A  
HETATM   24  C   UNL     1     -10.354  19.537  68.204  1.00  0.00    -0.550 A  
HETATM   25  C   UNL     1     -10.048  18.178  68.170  1.00  0.00    -0.378 A  
HETATM   26 CL   UNL     1     -10.859  17.158  69.315  1.00  0.00    -0.154 Cl 
ENDBRANCH  18  19
ENDBRANCH  14  15
ENDBRANCH   8  10
ENDBRANCH   4   8
BRANCH   5  27
HETATM   27  N   UNL     1      -9.734   7.625  70.633  1.00  0.00    -0.175 NA 
HETATM   28  C   UNL     1     -10.792   6.753  70.081  1.00  0.00    -0.266 C  
HETATM   29  C   UNL     1     -10.255   8.667  71.531  1.00  0.00    -0.274 C  
HETATM   30  N   UNL     1     -12.203   7.088  72.174  1.00  0.00    -0.259 NA 
HETATM   31  C   UNL     1     -11.596   6.119  71.232  1.00  0.00    -0.205 C  
HETATM   32  C   UNL     1     -11.119   8.004  72.642  1.00  0.00    -0.387 C  
BRANCH  30  33
HETATM   33  C   UNL     1     -13.310   7.864  71.572  1.00  0.00    -0.303 C  
BRANCH  33  34
HETATM   34  C   UNL     1     -13.782   9.042  72.442  1.00  0.00    -0.479 C  
HETATM   35  H   UNL     1     -13.730  11.013  72.375  1.00  0.00     0.000 HD 
HETATM   36  O   UNL     1     -13.438  10.285  71.837  1.00  0.00    -0.377 OA 
ENDBRANCH  33  34
ENDBRANCH  30  33
ENDBRANCH   5  27
TORSDOF 7
ENDMDL
MODEL       92
REMARK 921   NORMALIZED FREE ENERGY PREDICTED BY IDOCK:   -6.15 KCAL/MOL
REMARK 922        TOTAL FREE ENERGY PREDICTED BY IDOCK:   -9.04 KCAL/MOL
REMARK 923 INTER-LIGAND FREE ENERGY PREDICTED BY IDOCK:   -8.27 KCAL/MOL
REMARK 924 INTRA-LIGAND FREE ENERGY PREDICTED BY IDOCK:   -0.77 KCAL/MOL
REMARK 927      BINDING AFFINITY PREDICTED BY RF-SCORE:    0.00 PKD
ROOT
HETATM    1  C   UNL     1     -11.960  12.218  63.502  1.00  0.00    -0.625 C  
HETATM    2  C   UNL     1     -11.551  12.086  64.936  1.00  0.00    -0.273 A  
HETATM    3  N   UNL     1     -12.097  12.948  65.811  1.00  0.00    -0.444 NA 
HETATM    4  C   UNL     1     -11.827  12.737  67.104  1.00  0.00    -0.350 A  
HETATM    5  C   UNL     1     -10.441  10.893  66.558  1.00  0.00    -0.253 A  
HETATM    6  C   UNL     1     -11.068  11.670  67.508  1.00  0.00    -0.333 A  
HETATM    7  N   UNL     1     -10.711  11.082  65.255  1.00  0.00    -0.211 NA 
ENDROOT
BRANCH   4   8
HETATM    8  N   UNL     1     -12.380  13.636  68.010  1.00  0.00    -0.334 NA 
HETATM    9  H   UNL     1     -13.330  13.430  68.320  1.00  0.00     0.000 HD 
BRANCH   8  10
HETATM   10  C   UNL     1     -11.815  14.746  68.528  1.00  0.00    -0.306 A  
HETATM   11  S   UNL     1     -11.098  15.851  67.433  1.00  0.00    -0.137 SA 
HETATM   12  N   UNL     1     -11.724  15.101  69.796  1.00  0.00    -0.297 NA 
HETATM   13  C   UNL     1     -10.914  16.212  69.927  1.00  0.00    -0.362 A  
HETATM   14  C   UNL     1     -10.425  16.720  68.744  1.00  0.00    -0.338 A  
BRANCH  14  15
HETATM   15  C   UNL     1      -9.450  17.765  68.536  1.00  0.00    -0.304 C  
HETATM   16  O   UNL     1      -9.163  18.580  69.406  1.00  0.00     0.086 OA 
HETATM   17  H   UNL     1      -9.311  17.145  66.561  1.00  0.00     0.000 HD 
HETATM   18  N   UNL     1      -8.915  17.777  67.257  1.00  0.00    -0.243 N  
BRANCH  18  19
HETATM   19  C   UNL     1      -7.856  18.612  66.869  1.00  0.00    -0.236 A  
HETATM   20  C   UNL     1      -5.515  18.893  66.338  1.00  0.00    -0.172 A  
HETATM   21  C   UNL     1      -6.248  16.614  67.025  1.00  0.00    -0.212 C  
HETATM   22  C   UNL     1      -6.567  18.059  66.752  1.00  0.00    -0.220 A  
HETATM   23  C   UNL     1      -5.733  20.246  66.071  1.00  0.00    -0.201 A  
HETATM   24  C   UNL     1      -6.994  20.800  66.248  1.00  0.00    -0.197 A  
HETATM   25  C   UNL     1      -8.055  19.992  66.655  1.00  0.00    -0.315 A  
HETATM   26 CL   UNL     1      -9.540  20.789  67.066  1.00  0.00    -0.496 Cl 
ENDBRANCH  18  19
ENDBRANCH  14  15
ENDBRANCH   8  10
ENDBRANCH   4   8
BRANCH   5  27
HETATM   27  N   UNL     1      -9.569   9.881  66.978  1.00  0.00    -0.169 NA 
HETATM   28  C   UNL     1     -10.017   8.502  66.691  1.00  0.00    -0.293 C  
HETATM   29  C   UNL     1      -9.011  10.037  68.330  1.00  0.00    -0.119 C  
HETATM   30  N   UNL     1      -8.241   7.567  68.258  1.00  0.00    -0.124 NA 
HETATM   31  C   UNL     1      -8.848   7.521  66.907  1.00  0.00    -0.135 C  
HETATM   32  C   UNL     1      -7.882   8.989  68.545  1.00  0.00    -0.102 C  
BRANCH  30  33
HETATM   33  C   UNL     1      -9.133   7.037  69.312  1.00  0.00    -0.137 C  
BRANCH  33  34
HETATM   34  C   UNL     1      -9.409   5.528  69.185  1.00  0.00    -0.125 C  
HETATM   35  H   UNL     1     -10.639   4.203  69.973  1.00  0.00     0.000 HD 
HETATM   36  O   UNL     1     -10.469   5.134  70.051  1.00  0.00    -0.293 OA 
ENDBRANCH  33  34
ENDBRANCH  30  33
ENDBRANCH   5  27
TORSDOF 7
ENDMDL
MODEL       93
REMARK 921   NORMALIZED FREE ENERGY PREDICTED BY IDOCK:   -6.14 KCAL/MOL
REMARK 922        TOTAL FREE ENERGY PREDICTED BY IDOCK:   -9.03 KCAL/MOL
REMARK 923 INTER-LIGAND FREE ENERGY PREDICTED BY IDOCK:   -8.11 KCAL/MOL
REMARK 924 INTRA-LIGAND FREE ENERGY PREDICTED BY IDOCK:   -0.93 KCAL/MOL
REMARK 927      BINDING AFFINITY PREDICTED BY RF-SCORE:    0.00 PKD
ROOT
HETATM    1  C   UNL     1      -6.120  12.608  68.363  1.00  0.00    -0.063 C  
HETATM    2  C   UNL     1      -7.498  12.964  67.902  1.00  0.00    -0.131 A  
HETATM    3  N   UNL     1      -8.465  12.050  68.095  1.00  0.00    -0.165 NA 
HETATM    4  C   UNL     1      -9.713  12.429  67.800  1.00  0.00    -0.201 A  
HETATM    5  C   UNL     1      -8.942  14.551  67.075  1.00  0.00    -0.240 A  
HETATM    6  C   UNL     1      -9.987  13.700  67.365  1.00  0.00    -0.234 A  
HETATM    7  N   UNL     1      -7.684  14.191  67.377  1.00  0.00    -0.185 NA 
ENDROOT
BRANCH   4   8
HETATM    8  N   UNL     1     -10.713  11.481  67.987  1.00  0.00    -0.192 NA 
HETATM    9  H   UNL     1     -11.424  11.432  67.258  1.00  0.00     0.000 HD 
BRANCH   8  10
HETATM   10  C   UNL     1     -10.857  10.618  69.014  1.00  0.00    -0.235 A  
HETATM   11  S   UNL     1     -10.382   8.993  68.751  1.00  0.00    -0.207 SA 
HETATM   12  N   UNL     1     -11.338  10.855  70.220  1.00  0.00    -0.289 NA 
HETATM   13  C   UNL     1     -11.491   9.672  70.917  1.00  0.00    -0.353 A  
HETATM   14  C   UNL     1     -11.082   8.542  70.245  1.00  0.00    -0.214 A  
BRANCH  14  15
HETATM   15  C   UNL     1     -11.235   7.156  70.619  1.00  0.00    -0.280 C  
HETATM   16  O   UNL     1     -12.334   6.627  70.753  1.00  0.00    -0.352 OA 
HETATM   17  H   UNL     1      -9.176   7.062  70.845  1.00  0.00     0.000 HD 
HETATM   18  N   UNL     1     -10.032   6.508  70.851  1.00  0.00    -0.184 N  
BRANCH  18  19
HETATM   19  C   UNL     1      -9.929   5.129  71.091  1.00  0.00    -0.206 A  
HETATM   20  C   UNL     1      -9.513   2.897  70.263  1.00  0.00    -0.200 A  
HETATM   21  C   UNL     1      -9.439   4.749  68.599  1.00  0.00    -0.208 C  
HETATM   22  C   UNL     1      -9.640   4.273  70.012  1.00  0.00    -0.274 A  
HETATM   23  C   UNL     1      -9.691   2.381  71.548  1.00  0.00    -0.225 A  
HETATM   24  C   UNL     1     -10.037   3.223  72.598  1.00  0.00    -0.232 A  
HETATM   25  C   UNL     1     -10.166   4.592  72.374  1.00  0.00    -0.189 A  
HETATM   26 CL   UNL     1     -10.812   5.544  73.673  1.00  0.00    -0.320 Cl 
ENDBRANCH  18  19
ENDBRANCH  14  15
ENDBRANCH   8  10
ENDBRANCH   4   8
BRANCH   5  27
HETATM   27  N   UNL     1      -9.224  15.803  66.514  1.00  0.00    -0.256 NA 
HETATM   28  C   UNL     1      -8.558  16.950  67.166  1.00  0.00    -0.197 C  
HETATM   29  C   UNL     1     -10.637  16.060  66.198  1.00  0.00    -0.297 C  
HETATM   30  N   UNL     1     -10.083  18.574  65.933  1.00  0.00    -0.557 NA 
HETATM   31  C   UNL     1      -8.691  18.201  66.276  1.00  0.00    -0.172 C  
HETATM   32  C   UNL     1     -10.748  17.365  65.359  1.00  0.00    -0.035 C  
BRANCH  30  33
HETATM   33  C   UNL     1     -10.848  19.082  67.093  1.00  0.00    -0.387 C  
BRANCH  33  34
HETATM   34  C   UNL     1     -10.071  20.100  67.946  1.00  0.00    -0.392 C  
HETATM   35  H   UNL     1      -9.444  20.259  69.810  1.00  0.00     0.000 HD 
HETATM   36  O   UNL     1      -9.924  19.630  69.283  1.00  0.00    -0.436 OA 
ENDBRANCH  33  34
ENDBRANCH  30  33
ENDBRANCH   5  27
TORSDOF 7
ENDMDL
MODEL       94
REMARK 921   NORMALIZED FREE ENERGY PREDICTED BY IDOCK:   -6.12 KCAL/MOL
REMARK 922        TOTAL FREE ENERGY PREDICTED BY IDOCK:   -9.00 KCAL/MOL
REMARK 923 INTER-LIGAND FREE ENERGY PREDICTED BY IDOCK:   -8.22 KCAL/MOL
REMARK 924 INTRA-LIGAND FREE ENERGY PREDICTED BY IDOCK:   -0.78 KCAL/MOL
REMARK 927      BINDING AFFINITY PREDICTED BY RF-SCORE:    0.00 PKD
ROOT
HETATM    1  C   UNL     1     -11.561   9.536  71.296  1.00  0.00    -0.445 C  
HETATM    2  C   UNL     1     -11.392   9.827  69.838  1.00  0.00    -0.192 A  
HETATM    3  N   UNL     1     -11.822  11.022  69.397  1.00  0.00    -0.312 NA 
HETATM    4  C   UNL     1     -11.547  11.322  68.122  1.00  0.00    -0.289 A  
HETATM    5  C   UNL     1     -10.519   9.210  67.802  1.00  0.00    -0.247 A  
HETATM    6  C   UNL     1     -10.828  10.467  67.329  1.00  0.00    -0.338 A  
HETATM    7  N   UNL     1     -10.776   8.896  69.083  1.00  0.00    -0.189 NA 
ENDROOT
BRANCH   4   8
HETATM    8  N   UNL     1     -12.002  12.553  67.661  1.00  0.00    -0.452 NA 
HETATM    9  H   UNL     1     -12.472  12.545  66.756  1.00  0.00     0.000 HD 
BRANCH   8  10
HETATM   10  C   UNL     1     -11.898  13.755  68.263  1.00  0.00    -0.378 A  
HETATM   11  S   UNL     1     -11.042  14.984  67.430  1.00  0.00    -0.329 SA 
HETATM   12  N   UNL     1     -12.364  14.122  69.442  1.00  0.00    -0.284 NA 
HETATM   13  C   UNL     1     -11.891  15.376  69.778  1.00  0.00    -0.347 A  
HETATM   14  C   UNL     1     -11.096  15.973  68.825  1.00  0.00    -0.338 A  
BRANCH  14  15
HETATM   15  C   UNL     1     -10.332  17.195  68.912  1.00  0.00    -0.348 C  
HETATM   16  O   UNL     1     -10.526  18.032  69.789  1.00  0.00     0.220 OA 
HETATM   17  H   UNL     1      -9.406  16.662  67.136  1.00  0.00     0.000 HD 
HETATM   18  N   UNL     1      -9.404  17.343  67.894  1.00  0.00    -0.261 N  
BRANCH  18  19
HETATM   19  C   UNL     1      -8.460  18.381  67.852  1.00  0.00    -0.261 A  
HETATM   20  C   UNL     1      -7.803  20.566  67.053  1.00  0.00    -0.345 A  
HETATM   21  C   UNL     1      -9.998  19.691  66.266  1.00  0.00    -0.563 C  
HETATM   22  C   UNL     1      -8.739  19.519  67.071  1.00  0.00    -0.349 A  
HETATM   23  C   UNL     1      -6.610  20.476  67.773  1.00  0.00    -0.343 A  
HETATM   24  C   UNL     1      -6.312  19.325  68.491  1.00  0.00    -0.275 A  
HETATM   25  C   UNL     1      -7.226  18.274  68.527  1.00  0.00    -0.283 A  
HETATM   26 CL   UNL     1      -6.694  16.792  69.257  1.00  0.00    -0.223 Cl 
ENDBRANCH  18  19
ENDBRANCH  14  15
ENDBRANCH   8  10
ENDBRANCH   4   8
BRANCH   5  27
HETATM   27  N   UNL     1      -9.893   8.298  66.943  1.00  0.00    -0.222 NA 
HETATM   28  C   UNL     1      -9.750   6.926  67.475  1.00  0.00    -0.134 C  
HETATM   29  C   UNL     1      -8.680   8.783  66.267  1.00  0.00    -0.147 C  
HETATM   30  N   UNL     1      -8.111   6.344  65.617  1.00  0.00    -0.124 NA 
HETATM   31  C   UNL     1      -9.348   5.968  66.338  1.00  0.00    -0.154 C  
HETATM   32  C   UNL     1      -8.259   7.763  65.172  1.00  0.00    -0.132 C  
BRANCH  30  33
HETATM   33  C   UNL     1      -6.891   6.186  66.440  1.00  0.00    -0.062 C  
BRANCH  33  34
HETATM   34  C   UNL     1      -6.800   4.824  67.151  1.00  0.00    -0.056 C  
HETATM   35  H   UNL     1      -5.900   4.068  68.736  1.00  0.00     0.000 HD 
HETATM   36  O   UNL     1      -5.956   4.909  68.296  1.00  0.00    -0.024 OA 
ENDBRANCH  33  34
ENDBRANCH  30  33
ENDBRANCH   5  27
TORSDOF 7
ENDMDL
MODEL       95
REMARK 921   NORMALIZED FREE ENERGY PREDICTED BY IDOCK:   -6.07 KCAL/MOL
REMARK 922        TOTAL FREE ENERGY PREDICTED BY IDOCK:   -8.93 KCAL/MOL
REMARK 923 INTER-LIGAND FREE ENERGY PREDICTED BY IDOCK:   -7.99 KCAL/MOL
REMARK 924 INTRA-LIGAND FREE ENERGY PREDICTED BY IDOCK:   -0.93 KCAL/MOL
REMARK 927      BINDING AFFINITY PREDICTED BY RF-SCORE:    0.00 PKD
ROOT
HETATM    1  C   UNL     1     -13.185  14.057  72.211  1.00  0.00    -0.558 C  
HETATM    2  C   UNL     1     -12.581  13.582  70.927  1.00  0.00    -0.337 A  
HETATM    3  N   UNL     1     -12.539  12.253  70.724  1.00  0.00    -0.268 NA 
HETATM    4  C   UNL     1     -12.118  11.847  69.521  1.00  0.00    -0.226 A  
HETATM    5  C   UNL     1     -11.744  14.089  68.847  1.00  0.00    -0.340 A  
HETATM    6  C   UNL     1     -11.792  12.746  68.539  1.00  0.00    -0.345 A  
HETATM    7  N   UNL     1     -12.174  14.516  70.046  1.00  0.00    -0.329 NA 
ENDROOT
BRANCH   4   8
HETATM    8  N   UNL     1     -12.061  10.473  69.313  1.00  0.00    -0.601 NA 
HETATM    9  H   UNL     1     -12.908  10.042  68.941  1.00  0.00     0.000 HD 
BRANCH   8  10
HETATM   10  C   UNL     1     -11.025   9.641  69.542  1.00  0.00    -0.208 A  
HETATM   11  S   UNL     1     -10.458   8.704  68.224  1.00  0.00    -0.143 SA 
HETATM   12  N   UNL     1     -10.379   9.432  70.674  1.00  0.00    -0.262 NA 
HETATM   13  C   UNL     1      -9.505   8.371  70.540  1.00  0.00    -0.169 A  
HETATM   14  C   UNL     1      -9.462   7.805  69.285  1.00  0.00    -0.155 A  
BRANCH  14  15
HETATM   15  C   UNL     1      -8.780   6.611  68.848  1.00  0.00    -0.128 C  
HETATM   16  O   UNL     1      -7.847   6.639  68.052  1.00  0.00    -0.109 OA 
HETATM   17  H   UNL     1     -10.166   5.508  69.926  1.00  0.00     0.000 HD 
HETATM   18  N   UNL     1      -9.308   5.444  69.379  1.00  0.00    -0.119 N  
BRANCH  18  19
HETATM   19  C   UNL     1      -8.724   4.180  69.204  1.00  0.00    -0.086 A  
HETATM   20  C   UNL     1      -7.281   2.423  70.024  1.00  0.00    -0.033 A  
HETATM   21  C   UNL     1      -7.480   4.466  71.433  1.00  0.00    -0.060 C  
HETATM   22  C   UNL     1      -7.843   3.699  70.191  1.00  0.00    -0.047 A  
HETATM   23  C   UNL     1      -7.568   1.653  68.894  1.00  0.00    -0.042 A  
HETATM   24  C   UNL     1      -8.388   2.158  67.894  1.00  0.00    -0.081 A  
HETATM   25  C   UNL     1      -8.960   3.422  68.038  1.00  0.00    -0.139 A  
HETATM   26 CL   UNL     1      -9.789   4.073  66.660  1.00  0.00    -0.220 Cl 
ENDBRANCH  18  19
ENDBRANCH  14  15
ENDBRANCH   8  10
ENDBRANCH   4   8
BRANCH   5  27
HETATM   27  N   UNL     1     -11.291  14.990  67.876  1.00  0.00    -0.323 NA 
HETATM   28  C   UNL     1     -10.660  14.374  66.689  1.00  0.00    -0.282 C  
HETATM   29  C   UNL     1     -10.553  16.159  68.379  1.00  0.00    -0.286 C  
HETATM   30  N   UNL     1      -9.733  16.635  65.972  1.00  0.00    -0.417 NA 
HETATM   31  C   UNL     1     -10.501  15.431  65.579  1.00  0.00    -0.380 C  
HETATM   32  C   UNL     1     -10.347  17.176  67.222  1.00  0.00    -0.320 C  
BRANCH  30  33
HETATM   33  C   UNL     1      -8.294  16.360  66.181  1.00  0.00    -0.256 C  
BRANCH  33  34
HETATM   34  C   UNL     1      -7.462  17.620  66.481  1.00  0.00    -0.264 C  
HETATM   35  H   UNL     1      -7.197  19.408  65.693  1.00  0.00     0.000 HD 
HETATM   36  O   UNL     1      -7.710  18.631  65.508  1.00  0.00    -0.457 OA 
ENDBRANCH  33  34
ENDBRANCH  30  33
ENDBRANCH   5  27
TORSDOF 7
ENDMDL
MODEL       96
REMARK 921   NORMALIZED FREE ENERGY PREDICTED BY IDOCK:   -6.05 KCAL/MOL
REMARK 922        TOTAL FREE ENERGY PREDICTED BY IDOCK:   -8.90 KCAL/MOL
REMARK 923 INTER-LIGAND FREE ENERGY PREDICTED BY IDOCK:   -8.26 KCAL/MOL
REMARK 924 INTRA-LIGAND FREE ENERGY PREDICTED BY IDOCK:   -0.65 KCAL/MOL
REMARK 927      BINDING AFFINITY PREDICTED BY RF-SCORE:    0.00 PKD
ROOT
HETATM    1  C   UNL     1      -7.979  18.457  68.130  1.00  0.00    -0.303 C  
HETATM    2  C   UNL     1      -8.127  17.038  67.679  1.00  0.00    -0.180 A  
HETATM    3  N   UNL     1      -7.106  16.203  67.941  1.00  0.00    -0.125 NA 
HETATM    4  C   UNL     1      -7.303  14.911  67.652  1.00  0.00    -0.187 A  
HETATM    5  C   UNL     1      -9.464  15.387  66.801  1.00  0.00    -0.241 A  
HETATM    6  C   UNL     1      -8.501  14.467  67.156  1.00  0.00    -0.234 A  
HETATM    7  N   UNL     1      -9.288  16.686  67.094  1.00  0.00    -0.225 NA 
ENDROOT
BRANCH   4   8
HETATM    8  N   UNL     1      -6.244  14.048  67.910  1.00  0.00    -0.149 NA 
HETATM    9  H   UNL     1      -5.327  14.355  67.584  1.00  0.00     0.000 HD 
BRANCH   8  10
HETATM   10  C   UNL     1      -6.280  12.854  68.537  1.00  0.00    -0.077 A  
HETATM   11  S   UNL     1      -6.950  11.532  67.678  1.00  0.00    -0.099 SA 
HETATM   12  N   UNL     1      -5.873  12.559  69.757  1.00  0.00    -0.110 NA 
HETATM   13  C   UNL     1      -6.250  11.273  70.092  1.00  0.00    -0.147 A  
HETATM   14  C   UNL     1      -6.910  10.582  69.100  1.00  0.00    -0.074 A  
BRANCH  14  15
HETATM   15  C   UNL     1      -7.559   9.294  69.166  1.00  0.00    -0.073 C  
HETATM   16  O   UNL     1      -6.952   8.241  69.001  1.00  0.00    -0.058 OA 
HETATM   17  H   UNL     1      -9.364  10.293  69.379  1.00  0.00     0.000 HD 
HETATM   18  N   UNL     1      -8.925   9.372  69.388  1.00  0.00    -0.148 N  
BRANCH  18  19
HETATM   19  C   UNL     1      -9.737   8.252  69.624  1.00  0.00    -0.173 A  
HETATM   20  C   UNL     1     -10.812   6.753  71.185  1.00  0.00    -0.275 A  
HETATM   21  C   UNL     1      -9.410   8.571  72.151  1.00  0.00    -0.353 C  
HETATM   22  C   UNL     1      -9.978   7.860  70.953  1.00  0.00    -0.196 A  
HETATM   23  C   UNL     1     -11.373   6.041  70.123  1.00  0.00    -0.351 A  
HETATM   24  C   UNL     1     -11.081   6.395  68.812  1.00  0.00    -0.404 A  
HETATM   25  C   UNL     1     -10.258   7.491  68.556  1.00  0.00    -0.197 A  
HETATM   26 CL   UNL     1      -9.763   7.738  66.912  1.00  0.00    -0.257 Cl 
ENDBRANCH  18  19
ENDBRANCH  14  15
ENDBRANCH   8  10
ENDBRANCH   4   8
BRANCH   5  27
HETATM   27  N   UNL     1     -10.635  14.936  66.181  1.00  0.00    -0.307 NA 
HETATM   28  C   UNL     1     -10.849  13.473  66.224  1.00  0.00    -0.289 C  
HETATM   29  C   UNL     1     -10.932  15.523  64.865  1.00  0.00    -0.436 C  
HETATM   30  N   UNL     1     -12.683  13.659  64.468  1.00  0.00    -0.655 NA 
HETATM   31  C   UNL     1     -12.295  13.147  65.803  1.00  0.00    -0.435 C  
HETATM   32  C   UNL     1     -12.371  15.120  64.434  1.00  0.00    -0.209 C  
BRANCH  30  33
HETATM   33  C   UNL     1     -11.998  12.959  63.359  1.00  0.00    -0.537 C  
BRANCH  33  34
HETATM   34  C   UNL     1     -11.354  11.625  63.775  1.00  0.00    -0.393 C  
HETATM   35  H   UNL     1      -9.635  10.693  63.510  1.00  0.00     0.000 HD 
HETATM   36  O   UNL     1     -10.033  11.517  63.252  1.00  0.00    -0.356 OA 
ENDBRANCH  33  34
ENDBRANCH  30  33
ENDBRANCH   5  27
TORSDOF 7
ENDMDL
MODEL       97
REMARK 921   NORMALIZED FREE ENERGY PREDICTED BY IDOCK:   -6.04 KCAL/MOL
REMARK 922        TOTAL FREE ENERGY PREDICTED BY IDOCK:   -8.88 KCAL/MOL
REMARK 923 INTER-LIGAND FREE ENERGY PREDICTED BY IDOCK:   -8.00 KCAL/MOL
REMARK 924 INTRA-LIGAND FREE ENERGY PREDICTED BY IDOCK:   -0.88 KCAL/MOL
REMARK 927      BINDING AFFINITY PREDICTED BY RF-SCORE:    0.00 PKD
ROOT
HETATM    1  C   UNL     1     -13.338  10.048  72.198  1.00  0.00    -0.469 C  
HETATM    2  C   UNL     1     -12.360  10.061  71.065  1.00  0.00    -0.360 A  
HETATM    3  N   UNL     1     -12.654  10.841  70.011  1.00  0.00    -0.260 NA 
HETATM    4  C   UNL     1     -11.713  10.947  69.065  1.00  0.00    -0.320 A  
HETATM    5  C   UNL     1     -10.305   9.444  70.240  1.00  0.00    -0.245 A  
HETATM    6  C   UNL     1     -10.500  10.322  69.195  1.00  0.00    -0.246 A  
HETATM    7  N   UNL     1     -11.234   9.335  71.204  1.00  0.00    -0.312 NA 
ENDROOT
BRANCH   4   8
HETATM    8  N   UNL     1     -12.020  11.743  67.968  1.00  0.00    -0.583 NA 
HETATM    9  H   UNL     1     -12.993  11.727  67.662  1.00  0.00     0.000 HD 
BRANCH   8  10
HETATM   10  C   UNL     1     -11.189  12.535  67.258  1.00  0.00    -0.295 A  
HETATM   11  S   UNL     1     -10.368  13.777  68.105  1.00  0.00    -0.257 SA 
HETATM   12  N   UNL     1     -10.925  12.493  65.966  1.00  0.00    -0.274 NA 
HETATM   13  C   UNL     1     -10.167  13.586  65.594  1.00  0.00    -0.296 A  
HETATM   14  C   UNL     1      -9.824  14.435  66.623  1.00  0.00    -0.278 A  
BRANCH  14  15
HETATM   15  C   UNL     1      -9.175  15.723  66.562  1.00  0.00    -0.283 C  
HETATM   16  O   UNL     1      -9.078  16.363  65.520  1.00  0.00    -0.390 OA 
HETATM   17  H   UNL     1      -8.654  15.477  68.554  1.00  0.00     0.000 HD 
HETATM   18  N   UNL     1      -8.642  16.134  67.774  1.00  0.00    -0.166 N  
BRANCH  18  19
HETATM   19  C   UNL     1      -8.088  17.406  67.985  1.00  0.00    -0.227 A  
HETATM   20  C   UNL     1      -6.150  18.789  68.396  1.00  0.00    -0.224 A  
HETATM   21  C   UNL     1      -5.770  16.332  68.247  1.00  0.00    -0.108 C  
HETATM   22  C   UNL     1      -6.703  17.512  68.211  1.00  0.00    -0.197 A  
HETATM   23  C   UNL     1      -6.955  19.930  68.380  1.00  0.00    -0.335 A  
HETATM   24  C   UNL     1      -8.329  19.815  68.218  1.00  0.00    -0.312 A  
HETATM   25  C   UNL     1      -8.902  18.558  68.030  1.00  0.00    -0.298 A  
HETATM   26 CL   UNL     1     -10.634  18.469  68.056  1.00  0.00    -0.381 Cl 
ENDBRANCH  18  19
ENDBRANCH  14  15
ENDBRANCH   8  10
ENDBRANCH   4   8
BRANCH   5  27
HETATM   27  N   UNL     1      -9.110   8.715  70.298  1.00  0.00    -0.155 NA 
HETATM   28  C   UNL     1      -9.181   7.343  69.752  1.00  0.00    -0.140 C  
HETATM   29  C   UNL     1      -8.372   8.793  71.568  1.00  0.00    -0.152 C  
HETATM   30  N   UNL     1      -6.941   6.772  70.820  1.00  0.00    -0.065 NA 
HETATM   31  C   UNL     1      -7.757   6.778  69.584  1.00  0.00    -0.110 C  
HETATM   32  C   UNL     1      -6.967   8.154  71.387  1.00  0.00    -0.059 C  
BRANCH  30  33
HETATM   33  C   UNL     1      -7.418   5.793  71.822  1.00  0.00    -0.095 C  
BRANCH  33  34
HETATM   34  C   UNL     1      -7.051   4.337  71.486  1.00  0.00    -0.042 C  
HETATM   35  H   UNL     1      -7.977   2.603  71.327  1.00  0.00     0.000 HD 
HETATM   36  O   UNL     1      -8.204   3.502  71.534  1.00  0.00    -0.063 OA 
ENDBRANCH  33  34
ENDBRANCH  30  33
ENDBRANCH   5  27
TORSDOF 7
ENDMDL
MODEL       98
REMARK 921   NORMALIZED FREE ENERGY PREDICTED BY IDOCK:   -6.03 KCAL/MOL
REMARK 922        TOTAL FREE ENERGY PREDICTED BY IDOCK:   -8.87 KCAL/MOL
REMARK 923 INTER-LIGAND FREE ENERGY PREDICTED BY IDOCK:   -8.24 KCAL/MOL
REMARK 924 INTRA-LIGAND FREE ENERGY PREDICTED BY IDOCK:   -0.63 KCAL/MOL
REMARK 927      BINDING AFFINITY PREDICTED BY RF-SCORE:    0.00 PKD
ROOT
HETATM    1  C   UNL     1      -6.963  15.510  69.423  1.00  0.00    -0.187 C  
HETATM    2  C   UNL     1      -7.733  14.471  68.669  1.00  0.00    -0.137 A  
HETATM    3  N   UNL     1      -7.423  13.185  68.907  1.00  0.00    -0.045 NA 
HETATM    4  C   UNL     1      -8.203  12.266  68.328  1.00  0.00    -0.167 A  
HETATM    5  C   UNL     1      -9.480  13.958  67.267  1.00  0.00    -0.239 A  
HETATM    6  C   UNL     1      -9.286  12.627  67.569  1.00  0.00    -0.190 A  
HETATM    7  N   UNL     1      -8.714  14.895  67.849  1.00  0.00    -0.160 NA 
ENDROOT
BRANCH   4   8
HETATM    8  N   UNL     1      -7.876  10.935  68.563  1.00  0.00    -0.118 NA 
HETATM    9  H   UNL     1      -6.886  10.736  68.703  1.00  0.00     0.000 HD 
BRANCH   8  10
HETATM   10  C   UNL     1      -8.708   9.875  68.628  1.00  0.00    -0.124 A  
HETATM   11  S   UNL     1      -9.395   9.503  70.153  1.00  0.00    -0.254 SA 
HETATM   12  N   UNL     1      -9.064   9.054  67.658  1.00  0.00    -0.133 NA 
HETATM   13  C   UNL     1      -9.782   7.989  68.167  1.00  0.00    -0.160 A  
HETATM   14  C   UNL     1     -10.003   8.032  69.526  1.00  0.00    -0.186 A  
BRANCH  14  15
HETATM   15  C   UNL     1     -10.580   7.027  70.386  1.00  0.00    -0.223 C  
HETATM   16  O   UNL     1     -11.783   6.789  70.407  1.00  0.00    -0.361 OA 
HETATM   17  H   UNL     1      -8.698   6.755  71.214  1.00  0.00     0.000 HD 
HETATM   18  N   UNL     1      -9.653   6.399  71.205  1.00  0.00    -0.174 N  
BRANCH  18  19
HETATM   19  C   UNL     1      -9.961   5.300  72.021  1.00  0.00    -0.187 A  
HETATM   20  C   UNL     1     -10.579   4.425  74.187  1.00  0.00    -0.329 A  
HETATM   21  C   UNL     1     -10.239   6.886  74.022  1.00  0.00    -0.384 C  
HETATM   22  C   UNL     1     -10.247   5.525  73.380  1.00  0.00    -0.222 A  
HETATM   23  C   UNL     1     -10.603   3.131  73.663  1.00  0.00    -0.273 A  
HETATM   24  C   UNL     1     -10.259   2.907  72.336  1.00  0.00    -0.204 A  
HETATM   25  C   UNL     1      -9.929   3.983  71.515  1.00  0.00    -0.150 A  
HETATM   26 CL   UNL     1      -9.301   3.610  69.941  1.00  0.00    -0.231 Cl 
ENDBRANCH  18  19
ENDBRANCH  14  15
ENDBRANCH   8  10
ENDBRANCH   4   8
BRANCH   5  27
HETATM   27  N   UNL     1     -10.515  14.308  66.390  1.00  0.00    -0.278 NA 
HETATM   28  C   UNL     1     -11.545  13.269  66.181  1.00  0.00    -0.348 C  
HETATM   29  C   UNL     1     -10.102  14.970  65.143  1.00  0.00    -0.315 C  
HETATM   30  N   UNL     1     -12.462  14.539  64.174  1.00  0.00    -0.784 NA 
HETATM   31  C   UNL     1     -12.765  13.882  65.468  1.00  0.00    -0.499 C  
HETATM   32  C   UNL     1     -11.359  15.518  64.410  1.00  0.00    -0.252 C  
BRANCH  30  33
HETATM   33  C   UNL     1     -12.083  13.579  63.114  1.00  0.00     0.040 C  
BRANCH  33  34
HETATM   34  C   UNL     1     -12.369  12.111  63.479  1.00  0.00    -0.574 C  
HETATM   35  H   UNL     1     -11.341  10.443  63.707  1.00  0.00     0.000 HD 
HETATM   36  O   UNL     1     -11.165  11.349  63.481  1.00  0.00    -0.391 OA 
ENDBRANCH  33  34
ENDBRANCH  30  33
ENDBRANCH   5  27
TORSDOF 7
ENDMDL
MODEL       99
REMARK 921   NORMALIZED FREE ENERGY PREDICTED BY IDOCK:   -6.00 KCAL/MOL
REMARK 922        TOTAL FREE ENERGY PREDICTED BY IDOCK:   -8.83 KCAL/MOL
REMARK 923 INTER-LIGAND FREE ENERGY PREDICTED BY IDOCK:   -7.87 KCAL/MOL
REMARK 924 INTRA-LIGAND FREE ENERGY PREDICTED BY IDOCK:   -0.96 KCAL/MOL
REMARK 927      BINDING AFFINITY PREDICTED BY RF-SCORE:    0.00 PKD
ROOT
HETATM    1  C   UNL     1     -10.301  16.558  65.895  1.00  0.00    -0.365 C  
HETATM    2  C   UNL     1     -10.409  15.349  66.770  1.00  0.00    -0.279 A  
HETATM    3  N   UNL     1      -9.550  14.342  66.533  1.00  0.00    -0.281 NA 
HETATM    4  C   UNL     1      -9.568  13.325  67.402  1.00  0.00    -0.223 A  
HETATM    5  C   UNL     1     -11.330  14.341  68.619  1.00  0.00    -0.275 A  
HETATM    6  C   UNL     1     -10.392  13.338  68.497  1.00  0.00    -0.244 A  
HETATM    7  N   UNL     1     -11.319  15.376  67.764  1.00  0.00    -0.327 NA 
ENDROOT
BRANCH   4   8
HETATM    8  N   UNL     1      -8.689  12.277  67.151  1.00  0.00    -0.186 NA 
HETATM    9  H   UNL     1      -8.046  12.410  66.370  1.00  0.00     0.000 HD 
BRANCH   8  10
HETATM   10  C   UNL     1      -8.582  11.107  67.814  1.00  0.00    -0.131 A  
HETATM   11  S   UNL     1      -9.219   9.709  67.054  1.00  0.00    -0.144 SA 
HETATM   12  N   UNL     1      -8.054  10.885  69.002  1.00  0.00    -0.143 NA 
HETATM   13  C   UNL     1      -8.304   9.588  69.406  1.00  0.00    -0.140 A  
HETATM   14  C   UNL     1      -8.989   8.816  68.494  1.00  0.00    -0.138 A  
BRANCH  14  15
HETATM   15  C   UNL     1      -9.531   7.487  68.653  1.00  0.00    -0.146 C  
HETATM   16  O   UNL     1     -10.700   7.286  68.964  1.00  0.00    -0.212 OA 
HETATM   17  H   UNL     1      -7.620   6.746  68.340  1.00  0.00     0.000 HD 
HETATM   18  N   UNL     1      -8.597   6.481  68.463  1.00  0.00    -0.123 N  
BRANCH  18  19
HETATM   19  C   UNL     1      -8.924   5.117  68.432  1.00  0.00    -0.106 A  
HETATM   20  C   UNL     1      -9.526   3.149  67.165  1.00  0.00    -0.147 A  
HETATM   21  C   UNL     1      -9.224   5.265  65.886  1.00  0.00    -0.166 C  
HETATM   22  C   UNL     1      -9.225   4.521  67.193  1.00  0.00    -0.148 A  
HETATM   23  C   UNL     1      -9.551   2.394  68.339  1.00  0.00    -0.112 A  
HETATM   24  C   UNL     1      -9.314   3.000  69.565  1.00  0.00    -0.213 A  
HETATM   25  C   UNL     1      -9.010   4.359  69.620  1.00  0.00    -0.099 A  
HETATM   26 CL   UNL     1      -8.944   5.090  71.192  1.00  0.00    -0.155 Cl 
ENDBRANCH  18  19
ENDBRANCH  14  15
ENDBRANCH   8  10
ENDBRANCH   4   8
BRANCH   5  27
HETATM   27  N   UNL     1     -12.251  14.281  69.673  1.00  0.00    -0.335 NA 
HETATM   28  C   UNL     1     -12.539  15.573  70.333  1.00  0.00    -0.378 C  
HETATM   29  C   UNL     1     -12.065  13.176  70.626  1.00  0.00    -0.264 C  
HETATM   30  N   UNL     1     -13.674  14.365  72.266  1.00  0.00    -0.429 NA 
HETATM   31  C   UNL     1     -13.777  15.428  71.239  1.00  0.00    -0.475 C  
HETATM   32  C   UNL     1     -13.296  13.098  71.571  1.00  0.00    -0.222 C  
BRANCH  30  33
HETATM   33  C   UNL     1     -12.695  14.682  73.330  1.00  0.00    -0.440 C  
BRANCH  33  34
HETATM   34  C   UNL     1     -12.882  16.081  73.944  1.00  0.00    -0.528 C  
HETATM   35  H   UNL     1     -11.906  17.794  73.985  1.00  0.00     0.000 HD 
HETATM   36  O   UNL     1     -11.790  16.931  73.606  1.00  0.00    -0.294 OA 
ENDBRANCH  33  34
ENDBRANCH  30  33
ENDBRANCH   5  27
TORSDOF 7
ENDMDL
MODEL      100
REMARK 921   NORMALIZED FREE ENERGY PREDICTED BY IDOCK:   -6.00 KCAL/MOL
REMARK 922        TOTAL FREE ENERGY PREDICTED BY IDOCK:   -8.83 KCAL/MOL
REMARK 923 INTER-LIGAND FREE ENERGY PREDICTED BY IDOCK:   -7.68 KCAL/MOL
REMARK 924 INTRA-LIGAND FREE ENERGY PREDICTED BY IDOCK:   -1.15 KCAL/MOL
REMARK 927      BINDING AFFINITY PREDICTED BY RF-SCORE:    0.00 PKD
ROOT
HETATM    1  C   UNL     1      -6.401   3.098  71.540  1.00  0.00    -0.015 C  
HETATM    2  C   UNL     1      -7.108   4.226  70.856  1.00  0.00    -0.037 A  
HETATM    3  N   UNL     1      -6.634   4.610  69.658  1.00  0.00    -0.032 NA 
HETATM    4  C   UNL     1      -7.351   5.527  68.999  1.00  0.00    -0.077 A  
HETATM    5  C   UNL     1      -8.899   5.666  70.789  1.00  0.00    -0.139 A  
HETATM    6  C   UNL     1      -8.528   6.011  69.507  1.00  0.00    -0.119 A  
HETATM    7  N   UNL     1      -8.198   4.738  71.461  1.00  0.00    -0.102 NA 
ENDROOT
BRANCH   4   8
HETATM    8  N   UNL     1      -6.856   5.935  67.765  1.00  0.00    -0.058 NA 
HETATM    9  H   UNL     1      -6.002   5.473  67.452  1.00  0.00     0.000 HD 
BRANCH   8  10
HETATM   10  C   UNL     1      -7.365   6.867  66.933  1.00  0.00    -0.082 A  
HETATM   11  S   UNL     1      -7.242   8.506  67.414  1.00  0.00    -0.085 SA 
HETATM   12  N   UNL     1      -7.973   6.685  65.776  1.00  0.00    -0.105 NA 
HETATM   13  C   UNL     1      -8.510   7.874  65.322  1.00  0.00    -0.104 A  
HETATM   14  C   UNL     1      -8.267   8.967  66.125  1.00  0.00    -0.116 A  
BRANCH  14  15
HETATM   15  C   UNL     1      -8.797  10.306  66.023  1.00  0.00    -0.149 C  
HETATM   16  O   UNL     1      -8.111  11.303  66.224  1.00  0.00    -0.165 OA 
HETATM   17  H   UNL     1     -10.667   9.466  65.706  1.00  0.00     0.000 HD 
HETATM   18  N   UNL     1     -10.150  10.345  65.723  1.00  0.00    -0.264 N  
BRANCH  18  19
HETATM   19  C   UNL     1     -10.846  11.531  65.442  1.00  0.00    -0.259 A  
HETATM   20  C   UNL     1     -11.535  13.212  63.848  1.00  0.00    -0.451 A  
HETATM   21  C   UNL     1     -10.068  11.386  62.998  1.00  0.00    -0.333 C  
HETATM   22  C   UNL     1     -10.815  12.039  64.130  1.00  0.00    -0.405 A  
HETATM   23  C   UNL     1     -12.248  13.876  64.848  1.00  0.00    -0.445 A  
HETATM   24  C   UNL     1     -12.224  13.404  66.154  1.00  0.00    -0.471 A  
HETATM   25  C   UNL     1     -11.519  12.241  66.459  1.00  0.00    -0.381 A  
HETATM   26 CL   UNL     1     -11.353  11.837  68.138  1.00  0.00    -0.319 Cl 
ENDBRANCH  18  19
ENDBRANCH  14  15
ENDBRANCH   8  10
ENDBRANCH   4   8
BRANCH   5  27
HETATM   27  N   UNL     1     -10.038   6.260  71.347  1.00  0.00    -0.189 NA 
HETATM   28  C   UNL     1     -11.110   6.596  70.386  1.00  0.00    -0.322 C  
HETATM   29  C   UNL     1      -9.789   7.326  72.329  1.00  0.00    -0.154 C  
HETATM   30  N   UNL     1     -12.270   8.033  72.138  1.00  0.00    -0.327 NA 
HETATM   31  C   UNL     1     -12.403   6.937  71.151  1.00  0.00    -0.370 C  
HETATM   32  C   UNL     1     -11.123   7.698  73.035  1.00  0.00    -0.381 C  
BRANCH  30  33
HETATM   33  C   UNL     1     -12.065   9.357  71.509  1.00  0.00    -0.379 C  
BRANCH  33  34
HETATM   34  C   UNL     1     -13.119  10.403  71.915  1.00  0.00    -0.458 C  
HETATM   35  H   UNL     1     -13.556  12.274  71.472  1.00  0.00     0.000 HD 
HETATM   36  O   UNL     1     -12.906  11.629  71.222  1.00  0.00    -0.391 OA 
ENDBRANCH  33  34
ENDBRANCH  30  33
ENDBRANCH   5  27
TORSDOF 7
ENDMDL
MODEL      101
REMARK 921   NORMALIZED FREE ENERGY PREDICTED BY IDOCK:   -5.96 KCAL/MOL
REMARK 922        TOTAL FREE ENERGY PREDICTED BY IDOCK:   -8.78 KCAL/MOL
REMARK 923 INTER-LIGAND FREE ENERGY PREDICTED BY IDOCK:   -7.89 KCAL/MOL
REMARK 924 INTRA-LIGAND FREE ENERGY PREDICTED BY IDOCK:   -0.89 KCAL/MOL
REMARK 927      BINDING AFFINITY PREDICTED BY RF-SCORE:    0.00 PKD
ROOT
HETATM    1  C   UNL     1      -5.553  12.831  67.996  1.00  0.00    -0.096 C  
HETATM    2  C   UNL     1      -6.811  13.442  67.464  1.00  0.00    -0.144 A  
HETATM    3  N   UNL     1      -7.863  12.623  67.288  1.00  0.00    -0.172 NA 
HETATM    4  C   UNL     1      -9.018  13.201  66.938  1.00  0.00    -0.209 A  
HETATM    5  C   UNL     1      -7.983  15.334  66.890  1.00  0.00    -0.159 A  
HETATM    6  C   UNL     1      -9.123  14.562  66.811  1.00  0.00    -0.283 A  
HETATM    7  N   UNL     1      -6.818  14.772  67.252  1.00  0.00    -0.256 NA 
ENDROOT
BRANCH   4   8
HETATM    8  N   UNL     1     -10.103  12.355  66.743  1.00  0.00    -0.212 NA 
HETATM    9  H   UNL     1     -10.813  12.683  66.088  1.00  0.00     0.000 HD 
BRANCH   8  10
HETATM   10  C   UNL     1     -10.333  11.155  67.313  1.00  0.00    -0.208 A  
HETATM   11  S   UNL     1     -10.528  11.114  69.015  1.00  0.00    -0.181 SA 
HETATM   12  N   UNL     1     -10.417   9.974  66.729  1.00  0.00    -0.221 NA 
HETATM   13  C   UNL     1     -10.477   8.971  67.677  1.00  0.00    -0.260 A  
HETATM   14  C   UNL     1     -10.480   9.404  68.985  1.00  0.00    -0.217 A  
BRANCH  14  15
HETATM   15  C   UNL     1     -10.389   8.630  70.199  1.00  0.00    -0.207 C  
HETATM   16  O   UNL     1     -10.131   9.137  71.286  1.00  0.00    -0.283 OA 
HETATM   17  H   UNL     1     -10.653   6.924  69.049  1.00  0.00     0.000 HD 
HETATM   18  N   UNL     1     -10.577   7.270  70.006  1.00  0.00    -0.228 N  
BRANCH  18  19
HETATM   19  C   UNL     1     -10.668   6.344  71.056  1.00  0.00    -0.251 A  
HETATM   20  C   UNL     1      -9.679   4.553  72.343  1.00  0.00    -0.210 A  
HETATM   21  C   UNL     1      -8.342   5.444  70.440  1.00  0.00    -0.113 C  
HETATM   22  C   UNL     1      -9.594   5.461  71.275  1.00  0.00    -0.205 A  
HETATM   23  C   UNL     1     -10.812   4.507  73.159  1.00  0.00    -0.331 A  
HETATM   24  C   UNL     1     -11.894   5.338  72.900  1.00  0.00    -0.159 A  
HETATM   25  C   UNL     1     -11.832   6.249  71.847  1.00  0.00    -0.305 A  
HETATM   26 CL   UNL     1     -13.295   7.094  71.449  1.00  0.00    -0.422 Cl 
ENDBRANCH  18  19
ENDBRANCH  14  15
ENDBRANCH   8  10
ENDBRANCH   4   8
BRANCH   5  27
HETATM   27  N   UNL     1      -8.078  16.708  66.636  1.00  0.00    -0.242 NA 
HETATM   28  C   UNL     1      -6.787  17.418  66.513  1.00  0.00    -0.254 C  
HETATM   29  C   UNL     1      -9.065  17.443  67.442  1.00  0.00    -0.236 C  
HETATM   30  N   UNL     1      -7.970  19.665  66.694  1.00  0.00    -0.285 NA 
HETATM   31  C   UNL     1      -7.021  18.824  65.929  1.00  0.00    -0.268 C  
HETATM   32  C   UNL     1      -9.229  18.880  66.872  1.00  0.00    -0.303 C  
BRANCH  30  33
HETATM   33  C   UNL     1      -7.438  20.090  68.007  1.00  0.00    -0.289 C  
BRANCH  33  34
HETATM   34  C   UNL     1      -6.061  20.773  67.922  1.00  0.00    -0.305 C  
HETATM   35  H   UNL     1      -4.724  21.511  69.171  1.00  0.00     0.000 HD 
HETATM   36  O   UNL     1      -5.574  21.090  69.223  1.00  0.00    -0.375 OA 
ENDBRANCH  33  34
ENDBRANCH  30  33
ENDBRANCH   5  27
TORSDOF 7
ENDMDL
MODEL      102
REMARK 921   NORMALIZED FREE ENERGY PREDICTED BY IDOCK:   -5.95 KCAL/MOL
REMARK 922        TOTAL FREE ENERGY PREDICTED BY IDOCK:   -8.76 KCAL/MOL
REMARK 923 INTER-LIGAND FREE ENERGY PREDICTED BY IDOCK:   -7.74 KCAL/MOL
REMARK 924 INTRA-LIGAND FREE ENERGY PREDICTED BY IDOCK:   -1.03 KCAL/MOL
REMARK 927      BINDING AFFINITY PREDICTED BY RF-SCORE:    0.00 PKD
ROOT
HETATM    1  C   UNL     1      -6.021  12.940  67.903  1.00  0.00    -0.125 C  
HETATM    2  C   UNL     1      -7.361  13.480  67.513  1.00  0.00    -0.164 A  
HETATM    3  N   UNL     1      -8.280  12.594  67.090  1.00  0.00    -0.179 NA 
HETATM    4  C   UNL     1      -9.511  13.070  66.871  1.00  0.00    -0.242 A  
HETATM    5  C   UNL     1      -8.809  15.264  67.429  1.00  0.00    -0.179 A  
HETATM    6  C   UNL     1      -9.820  14.383  67.110  1.00  0.00    -0.254 A  
HETATM    7  N   UNL     1      -7.569  14.802  67.665  1.00  0.00    -0.158 NA 
ENDROOT
BRANCH   4   8
HETATM    8  N   UNL     1     -10.460  12.158  66.421  1.00  0.00    -0.226 NA 
HETATM    9  H   UNL     1     -11.248  12.551  65.907  1.00  0.00     0.000 HD 
BRANCH   8  10
HETATM   10  C   UNL     1     -10.465  10.818  66.580  1.00  0.00    -0.246 A  
HETATM   11  S   UNL     1     -11.083  10.202  68.055  1.00  0.00    -0.176 SA 
HETATM   12  N   UNL     1     -10.035   9.894  65.743  1.00  0.00    -0.284 NA 
HETATM   13  C   UNL     1     -10.044   8.653  66.350  1.00  0.00    -0.224 A  
HETATM   14  C   UNL     1     -10.522   8.639  67.642  1.00  0.00    -0.244 A  
BRANCH  14  15
HETATM   15  C   UNL     1     -10.531   7.557  68.597  1.00  0.00    -0.183 C  
HETATM   16  O   UNL     1     -10.462   6.380  68.260  1.00  0.00    -0.176 OA 
HETATM   17  H   UNL     1     -10.854   8.966  70.084  1.00  0.00     0.000 HD 
HETATM   18  N   UNL     1     -10.669   7.978  69.911  1.00  0.00    -0.247 N  
BRANCH  18  19
HETATM   19  C   UNL     1     -10.567   7.118  71.014  1.00  0.00    -0.221 A  
HETATM   20  C   UNL     1     -11.639   5.752  72.695  1.00  0.00    -0.304 A  
HETATM   21  C   UNL     1     -13.129   6.989  71.129  1.00  0.00    -0.260 C  
HETATM   22  C   UNL     1     -11.748   6.633  71.607  1.00  0.00    -0.362 A  
HETATM   23  C   UNL     1     -10.391   5.379  73.196  1.00  0.00    -0.231 A  
HETATM   24  C   UNL     1      -9.230   5.909  72.648  1.00  0.00    -0.137 A  
HETATM   25  C   UNL     1      -9.312   6.783  71.565  1.00  0.00    -0.153 A  
HETATM   26 CL   UNL     1      -7.845   7.571  71.077  1.00  0.00    -0.090 Cl 
ENDBRANCH  18  19
ENDBRANCH  14  15
ENDBRANCH   8  10
ENDBRANCH   4   8
BRANCH   5  27
HETATM   27  N   UNL     1      -9.110  16.626  67.550  1.00  0.00    -0.201 NA 
HETATM   28  C   UNL     1      -9.635  17.268  66.326  1.00  0.00    -0.248 C  
HETATM   29  C   UNL     1      -8.107  17.446  68.246  1.00  0.00    -0.249 C  
HETATM   30  N   UNL     1      -9.269  19.574  67.341  1.00  0.00    -0.307 NA 
HETATM   31  C   UNL     1     -10.216  18.652  66.673  1.00  0.00    -0.404 C  
HETATM   32  C   UNL     1      -8.696  18.858  68.521  1.00  0.00    -0.347 C  
BRANCH  30  33
HETATM   33  C   UNL     1      -8.187  20.040  66.445  1.00  0.00    -0.302 C  
BRANCH  33  34
HETATM   34  C   UNL     1      -7.046  20.765  67.182  1.00  0.00    -0.346 C  
HETATM   35  H   UNL     1      -5.415  21.768  66.708  1.00  0.00     0.000 HD 
HETATM   36  O   UNL     1      -6.120  21.321  66.253  1.00  0.00    -0.269 OA 
ENDBRANCH  33  34
ENDBRANCH  30  33
ENDBRANCH   5  27
TORSDOF 7
ENDMDL
MODEL      103
REMARK 921   NORMALIZED FREE ENERGY PREDICTED BY IDOCK:   -5.93 KCAL/MOL
REMARK 922        TOTAL FREE ENERGY PREDICTED BY IDOCK:   -8.73 KCAL/MOL
REMARK 923 INTER-LIGAND FREE ENERGY PREDICTED BY IDOCK:   -7.68 KCAL/MOL
REMARK 924 INTRA-LIGAND FREE ENERGY PREDICTED BY IDOCK:   -1.05 KCAL/MOL
REMARK 927      BINDING AFFINITY PREDICTED BY RF-SCORE:    0.00 PKD
ROOT
HETATM    1  C   UNL     1      -9.574   4.035  64.712  1.00  0.00    -0.178 C  
HETATM    2  C   UNL     1      -9.160   5.058  65.723  1.00  0.00    -0.154 A  
HETATM    3  N   UNL     1      -8.846   6.281  65.263  1.00  0.00    -0.006 NA 
HETATM    4  C   UNL     1      -8.606   7.221  66.184  1.00  0.00    -0.149 A  
HETATM    5  C   UNL     1      -8.928   5.652  67.931  1.00  0.00    -0.108 A  
HETATM    6  C   UNL     1      -8.719   6.952  67.523  1.00  0.00    -0.120 A  
HETATM    7  N   UNL     1      -9.184   4.698  67.021  1.00  0.00    -0.121 NA 
ENDROOT
BRANCH   4   8
HETATM    8  N   UNL     1      -8.268   8.485  65.711  1.00  0.00    -0.118 NA 
HETATM    9  H   UNL     1      -7.304   8.602  65.399  1.00  0.00     0.000 HD 
BRANCH   8  10
HETATM   10  C   UNL     1      -9.058   9.573  65.613  1.00  0.00    -0.201 A  
HETATM   11  S   UNL     1      -9.254  10.534  67.019  1.00  0.00    -0.151 SA 
HETATM   12  N   UNL     1      -9.730  10.005  64.563  1.00  0.00    -0.295 NA 
HETATM   13  C   UNL     1     -10.564  11.046  64.919  1.00  0.00    -0.258 A  
HETATM   14  C   UNL     1     -10.488  11.428  66.241  1.00  0.00    -0.255 A  
BRANCH  14  15
HETATM   15  C   UNL     1     -11.312  12.366  66.966  1.00  0.00    -0.327 C  
HETATM   16  O   UNL     1     -12.397  12.752  66.545  1.00  0.00    -0.476 OA 
HETATM   17  H   UNL     1      -9.775  12.539  68.348  1.00  0.00     0.000 HD 
HETATM   18  N   UNL     1     -10.737  12.812  68.146  1.00  0.00    -0.219 N  
BRANCH  18  19
HETATM   19  C   UNL     1     -11.409  13.618  69.078  1.00  0.00    -0.287 A  
HETATM   20  C   UNL     1     -11.982  15.819  69.895  1.00  0.00    -0.346 A  
HETATM   21  C   UNL     1     -10.468  15.709  67.921  1.00  0.00    -0.267 C  
HETATM   22  C   UNL     1     -11.287  15.016  68.975  1.00  0.00    -0.306 A  
HETATM   23  C   UNL     1     -12.759  15.247  70.904  1.00  0.00    -0.496 A  
HETATM   24  C   UNL     1     -12.826  13.867  71.039  1.00  0.00    -0.394 A  
HETATM   25  C   UNL     1     -12.147  13.049  70.137  1.00  0.00    -0.307 A  
HETATM   26 CL   UNL     1     -12.096  11.352  70.496  1.00  0.00    -0.469 Cl 
ENDBRANCH  18  19
ENDBRANCH  14  15
ENDBRANCH   8  10
ENDBRANCH   4   8
BRANCH   5  27
HETATM   27  N   UNL     1      -8.920   5.363  69.302  1.00  0.00    -0.103 NA 
HETATM   28  C   UNL     1     -10.252   5.263  69.934  1.00  0.00    -0.294 C  
HETATM   29  C   UNL     1      -7.953   6.121  70.111  1.00  0.00    -0.107 C  
HETATM   30  N   UNL     1      -9.194   5.354  72.248  1.00  0.00    -0.142 NA 
HETATM   31  C   UNL     1     -10.116   4.638  71.336  1.00  0.00    -0.178 C  
HETATM   32  C   UNL     1      -7.888   5.512  71.540  1.00  0.00    -0.111 C  
BRANCH  30  33
HETATM   33  C   UNL     1      -9.712   6.673  72.676  1.00  0.00    -0.160 C  
BRANCH  33  34
HETATM   34  C   UNL     1     -11.232   6.690  72.913  1.00  0.00    -0.191 C  
HETATM   35  H   UNL     1     -12.713   7.984  72.759  1.00  0.00     0.000 HD 
HETATM   36  O   UNL     1     -11.774   7.973  72.613  1.00  0.00    -0.388 OA 
ENDBRANCH  33  34
ENDBRANCH  30  33
ENDBRANCH   5  27
TORSDOF 7
ENDMDL
MODEL      104
REMARK 921   NORMALIZED FREE ENERGY PREDICTED BY IDOCK:   -5.91 KCAL/MOL
REMARK 922        TOTAL FREE ENERGY PREDICTED BY IDOCK:   -8.71 KCAL/MOL
REMARK 923 INTER-LIGAND FREE ENERGY PREDICTED BY IDOCK:   -7.70 KCAL/MOL
REMARK 924 INTRA-LIGAND FREE ENERGY PREDICTED BY IDOCK:   -1.01 KCAL/MOL
REMARK 927      BINDING AFFINITY PREDICTED BY RF-SCORE:    0.00 PKD
ROOT
HETATM    1  C   UNL     1      -9.252   2.840  66.147  1.00  0.00    -0.083 C  
HETATM    2  C   UNL     1      -9.605   3.894  67.149  1.00  0.00    -0.189 A  
HETATM    3  N   UNL     1     -10.074   5.060  66.673  1.00  0.00    -0.218 NA 
HETATM    4  C   UNL     1     -10.509   5.944  67.579  1.00  0.00    -0.243 A  
HETATM    5  C   UNL     1      -9.908   4.486  69.350  1.00  0.00    -0.190 A  
HETATM    6  C   UNL     1     -10.510   5.648  68.917  1.00  0.00    -0.310 A  
HETATM    7  N   UNL     1      -9.478   3.582  68.453  1.00  0.00    -0.168 NA 
ENDROOT
BRANCH   4   8
HETATM    8  N   UNL     1     -10.983   7.156  67.090  1.00  0.00    -0.549 NA 
HETATM    9  H   UNL     1     -11.959   7.167  66.794  1.00  0.00     0.000 HD 
BRANCH   8  10
HETATM   10  C   UNL     1     -10.311   8.318  66.959  1.00  0.00    -0.323 A  
HETATM   11  S   UNL     1     -10.396   9.429  68.260  1.00  0.00    -0.218 SA 
HETATM   12  N   UNL     1      -9.591   8.736  65.935  1.00  0.00    -0.223 NA 
HETATM   13  C   UNL     1      -9.221  10.054  66.113  1.00  0.00    -0.165 A  
HETATM   14  C   UNL     1      -9.631  10.620  67.300  1.00  0.00    -0.163 A  
BRANCH  14  15
HETATM   15  C   UNL     1      -9.541  11.994  67.731  1.00  0.00    -0.193 C  
HETATM   16  O   UNL     1      -8.528  12.459  68.245  1.00  0.00    -0.171 OA 
HETATM   17  H   UNL     1     -11.544  12.206  67.240  1.00  0.00     0.000 HD 
HETATM   18  N   UNL     1     -10.714  12.711  67.550  1.00  0.00    -0.223 N  
BRANCH  18  19
HETATM   19  C   UNL     1     -10.819  14.093  67.768  1.00  0.00    -0.252 A  
HETATM   20  C   UNL     1     -11.444  15.931  69.208  1.00  0.00    -0.374 A  
HETATM   21  C   UNL     1     -11.855  13.631  70.073  1.00  0.00    -0.378 C  
HETATM   22  C   UNL     1     -11.365  14.546  68.983  1.00  0.00    -0.296 A  
HETATM   23  C   UNL     1     -11.013  16.841  68.241  1.00  0.00    -0.327 A  
HETATM   24  C   UNL     1     -10.533  16.389  67.019  1.00  0.00    -0.291 A  
HETATM   25  C   UNL     1     -10.442  15.020  66.774  1.00  0.00    -0.283 A  
HETATM   26 CL   UNL     1     -10.043  14.534  65.156  1.00  0.00    -0.404 Cl 
ENDBRANCH  18  19
ENDBRANCH  14  15
ENDBRANCH   8  10
ENDBRANCH   4   8
BRANCH   5  27
HETATM   27  N   UNL     1      -9.804   4.249  70.726  1.00  0.00    -0.204 NA 
HETATM   28  C   UNL     1     -10.521   5.212  71.588  1.00  0.00    -0.185 C  
HETATM   29  C   UNL     1      -8.457   3.924  71.220  1.00  0.00    -0.073 C  
HETATM   30  N   UNL     1      -9.280   4.347  73.637  1.00  0.00    -0.104 NA 
HETATM   31  C   UNL     1     -10.592   4.667  73.028  1.00  0.00    -0.213 C  
HETATM   32  C   UNL     1      -8.552   3.443  72.696  1.00  0.00    -0.085 C  
BRANCH  30  33
HETATM   33  C   UNL     1      -8.469   5.550  73.928  1.00  0.00    -0.113 C  
BRANCH  33  34
HETATM   34  C   UNL     1      -9.300   6.748  74.423  1.00  0.00    -0.230 C  
HETATM   35  H   UNL     1      -9.432   8.680  74.048  1.00  0.00     0.000 HD 
HETATM   36  O   UNL     1      -8.919   7.941  73.743  1.00  0.00    -0.261 OA 
ENDBRANCH  33  34
ENDBRANCH  30  33
ENDBRANCH   5  27
TORSDOF 7
ENDMDL
MODEL      105
REMARK 921   NORMALIZED FREE ENERGY PREDICTED BY IDOCK:   -5.91 KCAL/MOL
REMARK 922        TOTAL FREE ENERGY PREDICTED BY IDOCK:   -8.70 KCAL/MOL
REMARK 923 INTER-LIGAND FREE ENERGY PREDICTED BY IDOCK:   -7.74 KCAL/MOL
REMARK 924 INTRA-LIGAND FREE ENERGY PREDICTED BY IDOCK:   -0.96 KCAL/MOL
REMARK 927      BINDING AFFINITY PREDICTED BY RF-SCORE:    0.00 PKD
ROOT
HETATM    1  C   UNL     1     -11.964   8.896  71.907  1.00  0.00    -0.441 C  
HETATM    2  C   UNL     1     -11.102   8.819  70.687  1.00  0.00    -0.246 A  
HETATM    3  N   UNL     1     -10.388   9.914  70.370  1.00  0.00    -0.282 NA 
HETATM    4  C   UNL     1      -9.523   9.790  69.357  1.00  0.00    -0.201 A  
HETATM    5  C   UNL     1     -10.193   7.544  69.004  1.00  0.00    -0.205 A  
HETATM    6  C   UNL     1      -9.350   8.594  68.711  1.00  0.00    -0.142 A  
HETATM    7  N   UNL     1     -11.059   7.646  70.026  1.00  0.00    -0.231 NA 
ENDROOT
BRANCH   4   8
HETATM    8  N   UNL     1      -8.794  10.925  69.020  1.00  0.00    -0.308 NA 
HETATM    9  H   UNL     1      -8.019  11.159  69.641  1.00  0.00     0.000 HD 
BRANCH   8  10
HETATM   10  C   UNL     1      -8.983  11.753  67.972  1.00  0.00    -0.176 A  
HETATM   11  S   UNL     1      -8.584  13.405  68.190  1.00  0.00    -0.174 SA 
HETATM   12  N   UNL     1      -9.459  11.462  66.776  1.00  0.00    -0.179 NA 
HETATM   13  C   UNL     1      -9.672  12.618  66.049  1.00  0.00    -0.229 A  
HETATM   14  C   UNL     1      -9.313  13.784  66.689  1.00  0.00    -0.264 A  
BRANCH  14  15
HETATM   15  C   UNL     1      -9.533  15.150  66.281  1.00  0.00    -0.309 C  
HETATM   16  O   UNL     1     -10.137  15.442  65.253  1.00  0.00    -0.349 OA 
HETATM   17  H   UNL     1      -8.365  15.745  67.888  1.00  0.00     0.000 HD 
HETATM   18  N   UNL     1      -8.961  16.083  67.132  1.00  0.00    -0.195 N  
BRANCH  18  19
HETATM   19  C   UNL     1      -9.161  17.466  67.012  1.00  0.00    -0.242 A  
HETATM   20  C   UNL     1      -8.344  19.634  66.324  1.00  0.00    -0.372 A  
HETATM   21  C   UNL     1      -6.809  17.699  66.006  1.00  0.00    -0.308 C  
HETATM   22  C   UNL     1      -8.129  18.254  66.467  1.00  0.00    -0.293 A  
HETATM   23  C   UNL     1      -9.542  20.222  66.733  1.00  0.00    -0.548 A  
HETATM   24  C   UNL     1     -10.532  19.450  67.327  1.00  0.00    -0.579 A  
HETATM   25  C   UNL     1     -10.344  18.077  67.478  1.00  0.00    -0.385 A  
HETATM   26 CL   UNL     1     -11.521  17.219  68.421  1.00  0.00     0.298 Cl 
ENDBRANCH  18  19
ENDBRANCH  14  15
ENDBRANCH   8  10
ENDBRANCH   4   8
BRANCH   5  27
HETATM   27  N   UNL     1     -10.093   6.365  68.254  1.00  0.00    -0.143 NA 
HETATM   28  C   UNL     1      -8.782   5.685  68.321  1.00  0.00    -0.106 C  
HETATM   29  C   UNL     1     -10.644   6.423  66.891  1.00  0.00    -0.309 C  
HETATM   30  N   UNL     1      -9.409   4.217  66.337  1.00  0.00    -0.151 NA 
HETATM   31  C   UNL     1      -8.901   4.268  67.728  1.00  0.00    -0.111 C  
HETATM   32  C   UNL     1     -10.688   4.988  66.293  1.00  0.00    -0.199 C  
BRANCH  30  33
HETATM   33  C   UNL     1      -8.446   4.757  65.350  1.00  0.00    -0.129 C  
BRANCH  33  34
HETATM   34  C   UNL     1      -8.831   4.463  63.889  1.00  0.00    -0.139 C  
HETATM   35  H   UNL     1      -9.298   2.890  62.796  1.00  0.00     0.000 HD 
HETATM   36  O   UNL     1      -9.061   3.070  63.698  1.00  0.00    -0.095 OA 
ENDBRANCH  33  34
ENDBRANCH  30  33
ENDBRANCH   5  27
TORSDOF 7
ENDMDL
MODEL      106
REMARK 921   NORMALIZED FREE ENERGY PREDICTED BY IDOCK:   -5.90 KCAL/MOL
REMARK 922        TOTAL FREE ENERGY PREDICTED BY IDOCK:   -8.70 KCAL/MOL
REMARK 923 INTER-LIGAND FREE ENERGY PREDICTED BY IDOCK:   -7.87 KCAL/MOL
REMARK 924 INTRA-LIGAND FREE ENERGY PREDICTED BY IDOCK:   -0.83 KCAL/MOL
REMARK 927      BINDING AFFINITY PREDICTED BY RF-SCORE:    0.00 PKD
ROOT
HETATM    1  C   UNL     1     -12.053  13.696  64.411  1.00  0.00    -0.470 C  
HETATM    2  C   UNL     1     -11.375  14.108  65.680  1.00  0.00    -0.319 A  
HETATM    3  N   UNL     1     -11.050  13.132  66.546  1.00  0.00    -0.289 NA 
HETATM    4  C   UNL     1     -10.329  13.496  67.612  1.00  0.00    -0.239 A  
HETATM    5  C   UNL     1     -10.378  15.764  66.924  1.00  0.00    -0.295 A  
HETATM    6  C   UNL     1      -9.913  14.791  67.782  1.00  0.00    -0.223 A  
HETATM    7  N   UNL     1     -11.092  15.415  65.841  1.00  0.00    -0.292 NA 
ENDROOT
BRANCH   4   8
HETATM    8  N   UNL     1     -10.002  12.491  68.515  1.00  0.00    -0.334 NA 
HETATM    9  H   UNL     1     -10.148  12.710  69.501  1.00  0.00     0.000 HD 
BRANCH   8  10
HETATM   10  C   UNL     1      -9.517  11.261  68.249  1.00  0.00    -0.190 A  
HETATM   11  S   UNL     1     -10.636   9.964  68.203  1.00  0.00    -0.234 SA 
HETATM   12  N   UNL     1      -8.265  10.906  68.027  1.00  0.00    -0.117 NA 
HETATM   13  C   UNL     1      -8.156   9.530  67.977  1.00  0.00    -0.102 A  
HETATM   14  C   UNL     1      -9.343   8.846  68.121  1.00  0.00    -0.142 A  
BRANCH  14  15
HETATM   15  C   UNL     1      -9.564   7.426  68.261  1.00  0.00    -0.150 C  
HETATM   16  O   UNL     1     -10.360   6.811  67.560  1.00  0.00    -0.164 OA 
HETATM   17  H   UNL     1      -8.292   7.461  69.899  1.00  0.00     0.000 HD 
HETATM   18  N   UNL     1      -8.827   6.849  69.283  1.00  0.00    -0.138 N  
BRANCH  18  19
HETATM   19  C   UNL     1      -8.776   5.466  69.515  1.00  0.00    -0.102 A  
HETATM   20  C   UNL     1      -9.691   3.499  70.581  1.00  0.00    -0.196 A  
HETATM   21  C   UNL     1     -10.811   5.670  71.069  1.00  0.00    -0.289 C  
HETATM   22  C   UNL     1      -9.730   4.888  70.373  1.00  0.00    -0.284 A  
HETATM   23  C   UNL     1      -8.714   2.708  69.972  1.00  0.00    -0.126 A  
HETATM   24  C   UNL     1      -7.737   3.292  69.177  1.00  0.00    -0.051 A  
HETATM   25  C   UNL     1      -7.757   4.668  68.953  1.00  0.00    -0.071 A  
HETATM   26 CL   UNL     1      -6.388   5.353  68.135  1.00  0.00    -0.037 Cl 
ENDBRANCH  18  19
ENDBRANCH  14  15
ENDBRANCH   8  10
ENDBRANCH   4   8
BRANCH   5  27
HETATM   27  N   UNL     1     -10.050  17.102  67.175  1.00  0.00    -0.287 NA 
HETATM   28  C   UNL     1      -8.806  17.578  66.533  1.00  0.00    -0.266 C  
HETATM   29  C   UNL     1     -10.182  17.543  68.572  1.00  0.00    -0.378 C  
HETATM   30  N   UNL     1      -8.813  19.662  67.996  1.00  0.00    -0.315 NA 
HETATM   31  C   UNL     1      -8.731  19.114  66.622  1.00  0.00    -0.320 C  
HETATM   32  C   UNL     1     -10.033  19.089  68.641  1.00  0.00    -0.418 C  
BRANCH  30  33
HETATM   33  C   UNL     1      -7.612  19.364  68.809  1.00  0.00    -0.363 C  
BRANCH  33  34
HETATM   34  C   UNL     1      -6.417  20.284  68.503  1.00  0.00    -0.305 C  
HETATM   35  H   UNL     1      -5.191  21.459  69.508  1.00  0.00     0.000 HD 
HETATM   36  O   UNL     1      -5.929  20.891  69.697  1.00  0.00    -0.362 OA 
ENDBRANCH  33  34
ENDBRANCH  30  33
ENDBRANCH   5  27
TORSDOF 7
ENDMDL
MODEL      107
REMARK 921   NORMALIZED FREE ENERGY PREDICTED BY IDOCK:   -5.89 KCAL/MOL
REMARK 922        TOTAL FREE ENERGY PREDICTED BY IDOCK:   -8.67 KCAL/MOL
REMARK 923 INTER-LIGAND FREE ENERGY PREDICTED BY IDOCK:   -7.70 KCAL/MOL
REMARK 924 INTRA-LIGAND FREE ENERGY PREDICTED BY IDOCK:   -0.97 KCAL/MOL
REMARK 927      BINDING AFFINITY PREDICTED BY RF-SCORE:    0.00 PKD
ROOT
HETATM    1  C   UNL     1      -5.545  12.136  68.350  1.00  0.00    -0.054 C  
HETATM    2  C   UNL     1      -6.889  12.177  67.693  1.00  0.00    -0.119 A  
HETATM    3  N   UNL     1      -7.336  11.036  67.140  1.00  0.00    -0.109 NA 
HETATM    4  C   UNL     1      -8.590  11.050  66.674  1.00  0.00    -0.157 A  
HETATM    5  C   UNL     1      -8.829  13.333  67.265  1.00  0.00    -0.216 A  
HETATM    6  C   UNL     1      -9.383  12.161  66.797  1.00  0.00    -0.212 A  
HETATM    7  N   UNL     1      -7.576  13.335  67.749  1.00  0.00    -0.144 NA 
ENDROOT
BRANCH   4   8
HETATM    8  N   UNL     1      -9.050   9.875  66.090  1.00  0.00    -0.152 NA 
HETATM    9  H   UNL     1      -9.157   9.892  65.076  1.00  0.00     0.000 HD 
BRANCH   8  10
HETATM   10  C   UNL     1      -9.373   8.716  66.700  1.00  0.00    -0.192 A  
HETATM   11  S   UNL     1     -10.521   8.786  67.971  1.00  0.00    -0.169 SA 
HETATM   12  N   UNL     1      -8.905   7.506  66.458  1.00  0.00    -0.141 NA 
HETATM   13  C   UNL     1      -9.347   6.618  67.419  1.00  0.00    -0.129 A  
HETATM   14  C   UNL     1     -10.188   7.156  68.368  1.00  0.00    -0.174 A  
BRANCH  14  15
HETATM   15  C   UNL     1     -10.704   6.553  69.573  1.00  0.00    -0.270 C  
HETATM   16  O   UNL     1     -11.901   6.343  69.745  1.00  0.00    -0.357 OA 
HETATM   17  H   UNL     1      -8.779   6.610  70.343  1.00  0.00     0.000 HD 
HETATM   18  N   UNL     1      -9.728   6.280  70.519  1.00  0.00    -0.172 N  
BRANCH  18  19
HETATM   19  C   UNL     1      -9.976   5.572  71.705  1.00  0.00    -0.179 A  
HETATM   20  C   UNL     1     -10.090   3.468  72.888  1.00  0.00    -0.224 A  
HETATM   21  C   UNL     1      -9.503   3.371  70.470  1.00  0.00    -0.247 C  
HETATM   22  C   UNL     1      -9.867   4.169  71.692  1.00  0.00    -0.254 A  
HETATM   23  C   UNL     1     -10.437   4.140  74.062  1.00  0.00    -0.279 A  
HETATM   24  C   UNL     1     -10.603   5.519  74.055  1.00  0.00    -0.283 A  
HETATM   25  C   UNL     1     -10.384   6.238  72.881  1.00  0.00    -0.207 A  
HETATM   26 CL   UNL     1     -10.823   7.916  72.891  1.00  0.00    -0.450 Cl 
ENDBRANCH  18  19
ENDBRANCH  14  15
ENDBRANCH   8  10
ENDBRANCH   4   8
BRANCH   5  27
HETATM   27  N   UNL     1      -9.610  14.496  67.272  1.00  0.00    -0.221 NA 
HETATM   28  C   UNL     1      -8.924  15.720  66.809  1.00  0.00    -0.260 C  
HETATM   29  C   UNL     1     -10.426  14.713  68.477  1.00  0.00    -0.247 C  
HETATM   30  N   UNL     1     -10.807  17.162  67.734  1.00  0.00    -0.320 NA 
HETATM   31  C   UNL     1      -9.959  16.835  66.564  1.00  0.00    -0.298 C  
HETATM   32  C   UNL     1     -11.413  15.888  68.226  1.00  0.00    -0.320 C  
BRANCH  30  33
HETATM   33  C   UNL     1     -10.059  17.831  68.821  1.00  0.00    -0.381 C  
BRANCH  33  34
HETATM   34  C   UNL     1      -9.455  19.186  68.411  1.00  0.00    -0.369 C  
HETATM   35  H   UNL     1     -10.102  20.918  67.723  1.00  0.00     0.000 HD 
HETATM   36  O   UNL     1     -10.475  20.082  67.976  1.00  0.00    -0.396 OA 
ENDBRANCH  33  34
ENDBRANCH  30  33
ENDBRANCH   5  27
TORSDOF 7
ENDMDL
MODEL      108
REMARK 921   NORMALIZED FREE ENERGY PREDICTED BY IDOCK:   -5.87 KCAL/MOL
REMARK 922        TOTAL FREE ENERGY PREDICTED BY IDOCK:   -8.66 KCAL/MOL
REMARK 923 INTER-LIGAND FREE ENERGY PREDICTED BY IDOCK:   -7.69 KCAL/MOL
REMARK 924 INTRA-LIGAND FREE ENERGY PREDICTED BY IDOCK:   -0.96 KCAL/MOL
REMARK 927      BINDING AFFINITY PREDICTED BY RF-SCORE:    0.00 PKD
ROOT
HETATM    1  C   UNL     1     -13.897  13.758  72.103  1.00  0.00    -0.649 C  
HETATM    2  C   UNL     1     -12.894  13.442  71.039  1.00  0.00    -0.251 A  
HETATM    3  N   UNL     1     -12.387  12.197  71.024  1.00  0.00    -0.313 NA 
HETATM    4  C   UNL     1     -11.594  11.887  69.993  1.00  0.00    -0.220 A  
HETATM    5  C   UNL     1     -11.802  14.081  69.119  1.00  0.00    -0.350 A  
HETATM    6  C   UNL     1     -11.351  12.786  68.987  1.00  0.00    -0.346 A  
HETATM    7  N   UNL     1     -12.610  14.407  70.142  1.00  0.00    -0.332 NA 
ENDROOT
BRANCH   4   8
HETATM    8  N   UNL     1     -11.059  10.604  69.982  1.00  0.00    -0.344 NA 
HETATM    9  H   UNL     1     -11.548   9.911  70.549  1.00  0.00     0.000 HD 
BRANCH   8  10
HETATM   10  C   UNL     1      -9.973  10.162  69.315  1.00  0.00    -0.219 A  
HETATM   11  S   UNL     1     -10.218   8.965  68.114  1.00  0.00    -0.206 SA 
HETATM   12  N   UNL     1      -8.713  10.523  69.472  1.00  0.00    -0.085 NA 
HETATM   13  C   UNL     1      -7.882   9.708  68.728  1.00  0.00    -0.081 A  
HETATM   14  C   UNL     1      -8.526   8.753  67.973  1.00  0.00    -0.126 A  
BRANCH  14  15
HETATM   15  C   UNL     1      -7.964   7.665  67.209  1.00  0.00    -0.118 C  
HETATM   16  O   UNL     1      -6.817   7.263  67.382  1.00  0.00    -0.071 OA 
HETATM   17  H   UNL     1      -9.706   7.645  66.085  1.00  0.00     0.000 HD 
HETATM   18  N   UNL     1      -8.823   7.160  66.246  1.00  0.00    -0.145 N  
BRANCH  18  19
HETATM   19  C   UNL     1      -8.544   6.017  65.481  1.00  0.00    -0.143 A  
HETATM   20  C   UNL     1      -8.627   3.616  65.220  1.00  0.00    -0.114 A  
HETATM   21  C   UNL     1      -9.535   4.551  67.343  1.00  0.00    -0.189 C  
HETATM   22  C   UNL     1      -8.886   4.755  66.001  1.00  0.00    -0.123 A  
HETATM   23  C   UNL     1      -8.023   3.727  63.966  1.00  0.00    -0.085 A  
HETATM   24  C   UNL     1      -7.631   4.969  63.485  1.00  0.00    -0.063 A  
HETATM   25  C   UNL     1      -7.879   6.114  64.240  1.00  0.00    -0.114 A  
HETATM   26 CL   UNL     1      -7.170   7.596  63.681  1.00  0.00    -0.074 Cl 
ENDBRANCH  18  19
ENDBRANCH  14  15
ENDBRANCH   8  10
ENDBRANCH   4   8
BRANCH   5  27
HETATM   27  N   UNL     1     -11.446  15.025  68.148  1.00  0.00    -0.329 NA 
HETATM   28  C   UNL     1     -10.939  14.463  66.878  1.00  0.00    -0.308 C  
HETATM   29  C   UNL     1     -10.658  16.171  68.626  1.00  0.00    -0.283 C  
HETATM   30  N   UNL     1     -10.081  16.754  66.172  1.00  0.00    -0.334 NA 
HETATM   31  C   UNL     1     -10.888  15.568  65.805  1.00  0.00    -0.331 C  
HETATM   32  C   UNL     1     -10.566  17.239  67.500  1.00  0.00    -0.329 C  
BRANCH  30  33
HETATM   33  C   UNL     1      -8.629  16.472  66.224  1.00  0.00    -0.332 C  
BRANCH  33  34
HETATM   34  C   UNL     1      -7.773  17.705  66.565  1.00  0.00    -0.270 C  
HETATM   35  H   UNL     1      -6.290  18.717  65.749  1.00  0.00     0.000 HD 
HETATM   36  O   UNL     1      -6.819  17.956  65.538  1.00  0.00    -0.417 OA 
ENDBRANCH  33  34
ENDBRANCH  30  33
ENDBRANCH   5  27
TORSDOF 7
ENDMDL
MODEL      109
REMARK 921   NORMALIZED FREE ENERGY PREDICTED BY IDOCK:   -5.86 KCAL/MOL
REMARK 922        TOTAL FREE ENERGY PREDICTED BY IDOCK:   -8.64 KCAL/MOL
REMARK 923 INTER-LIGAND FREE ENERGY PREDICTED BY IDOCK:   -7.74 KCAL/MOL
REMARK 924 INTRA-LIGAND FREE ENERGY PREDICTED BY IDOCK:   -0.90 KCAL/MOL
REMARK 927      BINDING AFFINITY PREDICTED BY RF-SCORE:    0.00 PKD
ROOT
HETATM    1  C   UNL     1      -8.776   9.704  63.573  1.00  0.00    -0.236 C  
HETATM    2  C   UNL     1      -9.369   9.657  64.946  1.00  0.00    -0.242 A  
HETATM    3  N   UNL     1     -10.184  10.667  65.297  1.00  0.00    -0.290 NA 
HETATM    4  C   UNL     1     -10.811  10.548  66.473  1.00  0.00    -0.058 A  
HETATM    5  C   UNL     1      -9.718   8.487  66.894  1.00  0.00    -0.221 A  
HETATM    6  C   UNL     1     -10.656   9.431  67.252  1.00  0.00    -0.314 A  
HETATM    7  N   UNL     1      -9.089   8.584  65.711  1.00  0.00    -0.189 NA 
ENDROOT
BRANCH   4   8
HETATM    8  N   UNL     1     -11.645  11.597  66.843  1.00  0.00    -0.542 NA 
HETATM    9  H   UNL     1     -12.526  11.334  67.283  1.00  0.00     0.000 HD 
BRANCH   8  10
HETATM   10  C   UNL     1     -11.431  12.921  66.692  1.00  0.00    -0.343 A  
HETATM   11  S   UNL     1     -10.053  13.589  67.460  1.00  0.00    -0.237 SA 
HETATM   12  N   UNL     1     -12.162  13.797  66.030  1.00  0.00    -0.438 NA 
HETATM   13  C   UNL     1     -11.709  15.080  66.269  1.00  0.00    -0.096 A  
HETATM   14  C   UNL     1     -10.602  15.165  67.084  1.00  0.00    -0.295 A  
BRANCH  14  15
HETATM   15  C   UNL     1      -9.973  16.337  67.644  1.00  0.00    -0.247 C  
HETATM   16  O   UNL     1     -10.080  16.642  68.827  1.00  0.00    -0.240 OA 
HETATM   17  H   UNL     1      -9.359  16.837  65.727  1.00  0.00     0.000 HD 
HETATM   18  N   UNL     1      -9.282  17.095  66.710  1.00  0.00    -0.244 N  
BRANCH  18  19
HETATM   19  C   UNL     1      -8.483  18.198  67.047  1.00  0.00    -0.245 A  
HETATM   20  C   UNL     1      -8.226  20.590  67.276  1.00  0.00    -0.360 A  
HETATM   21  C   UNL     1     -10.416  19.768  66.420  1.00  0.00    -0.618 C  
HETATM   22  C   UNL     1      -9.021  19.491  66.913  1.00  0.00    -0.379 A  
HETATM   23  C   UNL     1      -6.920  20.411  67.738  1.00  0.00    -0.347 A  
HETATM   24  C   UNL     1      -6.372  19.137  67.810  1.00  0.00    -0.226 A  
HETATM   25  C   UNL     1      -7.143  18.030  67.458  1.00  0.00    -0.193 A  
HETATM   26 CL   UNL     1      -6.328  16.501  67.362  1.00  0.00    -0.180 Cl 
ENDBRANCH  18  19
ENDBRANCH  14  15
ENDBRANCH   8  10
ENDBRANCH   4   8
BRANCH   5  27
HETATM   27  N   UNL     1      -9.477   7.410  67.757  1.00  0.00    -0.139 NA 
HETATM   28  C   UNL     1      -8.061   7.205  68.129  1.00  0.00    -0.124 C  
HETATM   29  C   UNL     1     -10.175   6.158  67.431  1.00  0.00    -0.184 C  
HETATM   30  N   UNL     1      -8.610   4.902  69.065  1.00  0.00    -0.085 NA 
HETATM   31  C   UNL     1      -7.972   6.216  69.308  1.00  0.00    -0.108 C  
HETATM   32  C   UNL     1     -10.010   5.155  68.608  1.00  0.00    -0.158 C  
BRANCH  30  33
HETATM   33  C   UNL     1      -7.883   4.080  68.072  1.00  0.00    -0.077 C  
BRANCH  33  34
HETATM   34  C   UNL     1      -7.850   2.581  68.417  1.00  0.00    -0.054 C  
HETATM   35  H   UNL     1      -6.504   1.142  68.524  1.00  0.00     0.000 HD 
HETATM   36  O   UNL     1      -6.525   2.068  68.311  1.00  0.00    -0.028 OA 
ENDBRANCH  33  34
ENDBRANCH  30  33
ENDBRANCH   5  27
TORSDOF 7
ENDMDL
MODEL      110
REMARK 921   NORMALIZED FREE ENERGY PREDICTED BY IDOCK:   -5.83 KCAL/MOL
REMARK 922        TOTAL FREE ENERGY PREDICTED BY IDOCK:   -8.59 KCAL/MOL
REMARK 923 INTER-LIGAND FREE ENERGY PREDICTED BY IDOCK:   -7.74 KCAL/MOL
REMARK 924 INTRA-LIGAND FREE ENERGY PREDICTED BY IDOCK:   -0.85 KCAL/MOL
REMARK 927      BINDING AFFINITY PREDICTED BY RF-SCORE:    0.00 PKD
ROOT
HETATM    1  C   UNL     1     -12.716  10.700  71.077  1.00  0.00    -0.512 C  
HETATM    2  C   UNL     1     -11.443  10.041  70.647  1.00  0.00    -0.345 A  
HETATM    3  N   UNL     1     -10.701  10.681  69.727  1.00  0.00    -0.253 NA 
HETATM    4  C   UNL     1      -9.506  10.150  69.449  1.00  0.00    -0.224 A  
HETATM    5  C   UNL     1      -9.906   8.358  70.948  1.00  0.00    -0.184 A  
HETATM    6  C   UNL     1      -9.052   9.034  70.104  1.00  0.00    -0.206 A  
HETATM    7  N   UNL     1     -11.105   8.884  71.249  1.00  0.00    -0.272 NA 
ENDROOT
BRANCH   4   8
HETATM    8  N   UNL     1      -8.742  10.804  68.488  1.00  0.00    -0.142 NA 
HETATM    9  H   UNL     1      -7.745  10.589  68.488  1.00  0.00     0.000 HD 
BRANCH   8  10
HETATM   10  C   UNL     1      -9.158  11.687  67.557  1.00  0.00    -0.172 A  
HETATM   11  S   UNL     1      -8.436  13.241  67.566  1.00  0.00    -0.214 SA 
HETATM   12  N   UNL     1     -10.077  11.521  66.625  1.00  0.00    -0.206 NA 
HETATM   13  C   UNL     1     -10.341  12.719  65.991  1.00  0.00    -0.276 A  
HETATM   14  C   UNL     1      -9.585  13.787  66.422  1.00  0.00    -0.272 A  
BRANCH  14  15
HETATM   15  C   UNL     1      -9.706  15.184  66.081  1.00  0.00    -0.310 C  
HETATM   16  O   UNL     1     -10.227  15.565  65.038  1.00  0.00    -0.357 OA 
HETATM   17  H   UNL     1      -8.614  15.623  67.789  1.00  0.00     0.000 HD 
HETATM   18  N   UNL     1      -9.142  16.034  67.020  1.00  0.00    -0.206 N  
BRANCH  18  19
HETATM   19  C   UNL     1      -9.260  17.432  66.968  1.00  0.00    -0.246 A  
HETATM   20  C   UNL     1      -8.319  19.579  66.381  1.00  0.00    -0.364 A  
HETATM   21  C   UNL     1      -6.902  17.575  65.959  1.00  0.00    -0.281 C  
HETATM   22  C   UNL     1      -8.186  18.183  66.455  1.00  0.00    -0.292 A  
HETATM   23  C   UNL     1      -9.480  20.215  66.827  1.00  0.00    -0.533 A  
HETATM   24  C   UNL     1     -10.511  19.474  67.389  1.00  0.00    -0.593 A  
HETATM   25  C   UNL     1     -10.404  18.087  67.471  1.00  0.00    -0.385 A  
HETATM   26 CL   UNL     1     -11.626  17.254  68.379  1.00  0.00     0.515 Cl 
ENDBRANCH  18  19
ENDBRANCH  14  15
ENDBRANCH   8  10
ENDBRANCH   4   8
BRANCH   5  27
HETATM   27  N   UNL     1      -9.480   7.152  71.518  1.00  0.00    -0.157 NA 
HETATM   28  C   UNL     1      -9.929   5.930  70.818  1.00  0.00    -0.189 C  
HETATM   29  C   UNL     1      -9.599   7.056  72.981  1.00  0.00    -0.154 C  
HETATM   30  N   UNL     1      -9.236   4.500  72.807  1.00  0.00    -0.127 NA 
HETATM   31  C   UNL     1      -9.145   4.712  71.344  1.00  0.00    -0.131 C  
HETATM   32  C   UNL     1      -8.858   5.782  73.476  1.00  0.00    -0.122 C  
BRANCH  30  33
HETATM   33  C   UNL     1     -10.580   4.065  73.246  1.00  0.00    -0.189 C  
BRANCH  33  34
HETATM   34  C   UNL     1     -10.632   2.600  73.716  1.00  0.00    -0.163 C  
HETATM   35  H   UNL     1     -11.921   1.108  73.687  1.00  0.00     0.000 HD 
HETATM   36  O   UNL     1     -11.890   2.012  73.397  1.00  0.00    -0.175 OA 
ENDBRANCH  33  34
ENDBRANCH  30  33
ENDBRANCH   5  27
TORSDOF 7
ENDMDL
MODEL      111
REMARK 921   NORMALIZED FREE ENERGY PREDICTED BY IDOCK:   -5.82 KCAL/MOL
REMARK 922        TOTAL FREE ENERGY PREDICTED BY IDOCK:   -8.58 KCAL/MOL
REMARK 923 INTER-LIGAND FREE ENERGY PREDICTED BY IDOCK:   -7.71 KCAL/MOL
REMARK 924 INTRA-LIGAND FREE ENERGY PREDICTED BY IDOCK:   -0.87 KCAL/MOL
REMARK 927      BINDING AFFINITY PREDICTED BY RF-SCORE:    0.00 PKD
ROOT
HETATM    1  C   UNL     1     -10.717   8.167  70.449  1.00  0.00    -0.234 C  
HETATM    2  C   UNL     1     -10.506   8.852  69.136  1.00  0.00    -0.223 A  
HETATM    3  N   UNL     1     -11.323   9.878  68.841  1.00  0.00    -0.079 NA 
HETATM    4  C   UNL     1     -11.042  10.564  67.727  1.00  0.00    -0.317 A  
HETATM    5  C   UNL     1      -9.222   9.122  67.248  1.00  0.00    -0.133 A  
HETATM    6  C   UNL     1      -9.950  10.256  66.958  1.00  0.00    -0.249 A  
HETATM    7  N   UNL     1      -9.483   8.429  68.368  1.00  0.00    -0.139 NA 
ENDROOT
BRANCH   4   8
HETATM    8  N   UNL     1     -11.893  11.618  67.414  1.00  0.00    -0.630 NA 
HETATM    9  H   UNL     1     -12.892  11.420  67.477  1.00  0.00     0.000 HD 
BRANCH   8  10
HETATM   10  C   UNL     1     -11.561  12.870  67.038  1.00  0.00    -0.362 A  
HETATM   11  S   UNL     1     -10.566  13.775  68.100  1.00  0.00    -0.260 SA 
HETATM   12  N   UNL     1     -11.916  13.517  65.944  1.00  0.00    -0.382 NA 
HETATM   13  C   UNL     1     -11.522  14.839  66.017  1.00  0.00    -0.316 A  
HETATM   14  C   UNL     1     -10.829  15.179  67.158  1.00  0.00    -0.320 A  
BRANCH  14  15
HETATM   15  C   UNL     1     -10.407  16.482  67.612  1.00  0.00    -0.291 C  
HETATM   16  O   UNL     1     -11.018  17.110  68.471  1.00  0.00    -0.317 OA 
HETATM   17  H   UNL     1      -8.925  16.431  66.163  1.00  0.00     0.000 HD 
HETATM   18  N   UNL     1      -9.285  16.963  66.955  1.00  0.00    -0.229 N  
BRANCH  18  19
HETATM   19  C   UNL     1      -8.619  18.141  67.322  1.00  0.00    -0.240 A  
HETATM   20  C   UNL     1      -6.905  19.245  68.620  1.00  0.00    -0.336 A  
HETATM   21  C   UNL     1      -7.151  16.787  68.937  1.00  0.00    -0.215 C  
HETATM   22  C   UNL     1      -7.586  18.066  68.275  1.00  0.00    -0.278 A  
HETATM   23  C   UNL     1      -7.255  20.471  68.050  1.00  0.00    -0.238 A  
HETATM   24  C   UNL     1      -8.315  20.549  67.157  1.00  0.00    -0.348 A  
HETATM   25  C   UNL     1      -9.005  19.393  66.797  1.00  0.00    -0.331 A  
HETATM   26 CL   UNL     1     -10.448  19.597  65.854  1.00  0.00    -0.610 Cl 
ENDBRANCH  18  19
ENDBRANCH  14  15
ENDBRANCH   8  10
ENDBRANCH   4   8
BRANCH   5  27
HETATM   27  N   UNL     1      -8.185   8.745  66.386  1.00  0.00    -0.109 NA 
HETATM   28  C   UNL     1      -8.565   8.606  64.964  1.00  0.00    -0.158 C  
HETATM   29  C   UNL     1      -7.321   7.653  66.861  1.00  0.00    -0.090 C  
HETATM   30  N   UNL     1      -6.376   7.406  64.465  1.00  0.00    -0.040 NA 
HETATM   31  C   UNL     1      -7.297   8.506  64.095  1.00  0.00    -0.103 C  
HETATM   32  C   UNL     1      -6.085   7.530  65.926  1.00  0.00    -0.038 C  
BRANCH  30  33
HETATM   33  C   UNL     1      -6.923   6.066  64.159  1.00  0.00    -0.051 C  
BRANCH  33  34
HETATM   34  C   UNL     1      -6.272   4.933  64.972  1.00  0.00    -0.034 C  
HETATM   35  H   UNL     1      -5.510   3.146  64.627  1.00  0.00     0.000 HD 
HETATM   36  O   UNL     1      -5.913   3.846  64.125  1.00  0.00    -0.014 OA 
ENDBRANCH  33  34
ENDBRANCH  30  33
ENDBRANCH   5  27
TORSDOF 7
ENDMDL
MODEL      112
REMARK 921   NORMALIZED FREE ENERGY PREDICTED BY IDOCK:   -5.82 KCAL/MOL
REMARK 922        TOTAL FREE ENERGY PREDICTED BY IDOCK:   -8.58 KCAL/MOL
REMARK 923 INTER-LIGAND FREE ENERGY PREDICTED BY IDOCK:   -7.68 KCAL/MOL
REMARK 924 INTRA-LIGAND FREE ENERGY PREDICTED BY IDOCK:   -0.90 KCAL/MOL
REMARK 927      BINDING AFFINITY PREDICTED BY RF-SCORE:    0.00 PKD
ROOT
HETATM    1  C   UNL     1      -8.957  11.042  62.596  1.00  0.00    -0.355 C  
HETATM    2  C   UNL     1      -9.609  11.176  63.936  1.00  0.00    -0.254 A  
HETATM    3  N   UNL     1      -9.830  10.044  64.627  1.00  0.00    -0.288 NA 
HETATM    4  C   UNL     1     -10.292  10.186  65.875  1.00  0.00    -0.151 A  
HETATM    5  C   UNL     1     -10.352  12.543  65.629  1.00  0.00    -0.271 A  
HETATM    6  C   UNL     1     -10.485  11.426  66.425  1.00  0.00    -0.299 A  
HETATM    7  N   UNL     1      -9.879  12.420  64.378  1.00  0.00    -0.151 NA 
ENDROOT
BRANCH   4   8
HETATM    8  N   UNL     1     -10.533   9.016  66.586  1.00  0.00    -0.216 NA 
HETATM    9  H   UNL     1     -11.446   8.585  66.440  1.00  0.00     0.000 HD 
BRANCH   8  10
HETATM   10  C   UNL     1      -9.709   8.381  67.445  1.00  0.00    -0.170 A  
HETATM   11  S   UNL     1     -10.300   6.963  68.203  1.00  0.00    -0.205 SA 
HETATM   12  N   UNL     1      -8.484   8.717  67.802  1.00  0.00    -0.125 NA 
HETATM   13  C   UNL     1      -8.048   7.916  68.839  1.00  0.00    -0.125 A  
HETATM   14  C   UNL     1      -8.937   6.942  69.237  1.00  0.00    -0.137 A  
BRANCH  14  15
HETATM   15  C   UNL     1      -8.860   6.046  70.366  1.00  0.00    -0.148 C  
HETATM   16  O   UNL     1      -7.824   5.870  70.998  1.00  0.00    -0.105 OA 
HETATM   17  H   UNL     1     -10.819   5.492  69.970  1.00  0.00     0.000 HD 
HETATM   18  N   UNL     1     -10.049   5.383  70.630  1.00  0.00    -0.215 N  
BRANCH  18  19
HETATM   19  C   UNL     1     -10.248   4.571  71.756  1.00  0.00    -0.156 A  
HETATM   20  C   UNL     1     -10.859   4.354  74.084  1.00  0.00    -0.267 A  
HETATM   21  C   UNL     1     -10.846   6.656  73.132  1.00  0.00    -0.298 C  
HETATM   22  C   UNL     1     -10.636   5.175  72.967  1.00  0.00    -0.278 A  
HETATM   23  C   UNL     1     -10.680   2.972  74.009  1.00  0.00    -0.278 A  
HETATM   24  C   UNL     1     -10.237   2.388  72.829  1.00  0.00    -0.233 A  
HETATM   25  C   UNL     1     -10.011   3.181  71.705  1.00  0.00    -0.122 A  
HETATM   26 CL   UNL     1      -9.254   2.419  70.343  1.00  0.00    -0.182 Cl 
ENDBRANCH  18  19
ENDBRANCH  14  15
ENDBRANCH   8  10
ENDBRANCH   4   8
BRANCH   5  27
HETATM   27  N   UNL     1     -10.671  13.798  66.163  1.00  0.00    -0.281 NA 
HETATM   28  C   UNL     1      -9.830  14.918  65.689  1.00  0.00    -0.337 C  
HETATM   29  C   UNL     1     -10.915  13.834  67.613  1.00  0.00    -0.264 C  
HETATM   30  N   UNL     1     -10.723  16.413  67.546  1.00  0.00    -0.320 NA 
HETATM   31  C   UNL     1     -10.474  16.258  66.094  1.00  0.00    -0.322 C  
HETATM   32  C   UNL     1     -11.499  15.221  68.003  1.00  0.00    -0.341 C  
BRANCH  30  33
HETATM   33  C   UNL     1      -9.479  16.553  68.335  1.00  0.00    -0.223 C  
BRANCH  33  34
HETATM   34  C   UNL     1      -9.047  18.015  68.552  1.00  0.00    -0.284 C  
HETATM   35  H   UNL     1      -7.364  19.041  68.611  1.00  0.00     0.000 HD 
HETATM   36  O   UNL     1      -7.630  18.139  68.477  1.00  0.00    -0.273 OA 
ENDBRANCH  33  34
ENDBRANCH  30  33
ENDBRANCH   5  27
TORSDOF 7
ENDMDL
MODEL      113
REMARK 921   NORMALIZED FREE ENERGY PREDICTED BY IDOCK:   -5.81 KCAL/MOL
REMARK 922        TOTAL FREE ENERGY PREDICTED BY IDOCK:   -8.56 KCAL/MOL
REMARK 923 INTER-LIGAND FREE ENERGY PREDICTED BY IDOCK:   -8.33 KCAL/MOL
REMARK 924 INTRA-LIGAND FREE ENERGY PREDICTED BY IDOCK:   -0.23 KCAL/MOL
REMARK 927      BINDING AFFINITY PREDICTED BY RF-SCORE:    0.00 PKD
ROOT
HETATM    1  C   UNL     1      -9.371   4.443  66.279  1.00  0.00    -0.160 C  
HETATM    2  C   UNL     1      -9.596   5.693  67.069  1.00  0.00    -0.136 A  
HETATM    3  N   UNL     1      -9.292   6.859  66.472  1.00  0.00    -0.163 NA 
HETATM    4  C   UNL     1      -9.620   7.973  67.136  1.00  0.00    -0.175 A  
HETATM    5  C   UNL     1     -10.448   6.697  68.954  1.00  0.00    -0.212 A  
HETATM    6  C   UNL     1     -10.270   7.919  68.341  1.00  0.00    -0.232 A  
HETATM    7  N   UNL     1     -10.136   5.568  68.297  1.00  0.00    -0.162 NA 
ENDROOT
BRANCH   4   8
HETATM    8  N   UNL     1      -9.294   9.180  66.526  1.00  0.00    -0.175 NA 
HETATM    9  H   UNL     1      -8.443   9.181  65.964  1.00  0.00     0.000 HD 
BRANCH   8  10
HETATM   10  C   UNL     1      -9.966  10.348  66.586  1.00  0.00    -0.210 A  
HETATM   11  S   UNL     1      -9.888  11.228  68.054  1.00  0.00    -0.183 SA 
HETATM   12  N   UNL     1     -10.705  10.915  65.652  1.00  0.00    -0.163 NA 
HETATM   13  C   UNL     1     -11.371  12.011  66.164  1.00  0.00    -0.351 A  
HETATM   14  C   UNL     1     -11.099  12.294  67.485  1.00  0.00    -0.275 A  
BRANCH  14  15
HETATM   15  C   UNL     1     -11.723  13.262  68.355  1.00  0.00    -0.354 C  
HETATM   16  O   UNL     1     -12.494  14.121  67.940  1.00  0.00    -0.108 OA 
HETATM   17  H   UNL     1     -10.586  12.492  69.909  1.00  0.00     0.000 HD 
HETATM   18  N   UNL     1     -11.332  13.149  69.680  1.00  0.00    -0.169 N  
BRANCH  18  19
HETATM   19  C   UNL     1     -11.908  13.889  70.723  1.00  0.00    -0.180 A  
HETATM   20  C   UNL     1     -13.400  13.998  72.622  1.00  0.00    -0.643 A  
HETATM   21  C   UNL     1     -13.278  11.827  71.407  1.00  0.00    -0.193 C  
HETATM   22  C   UNL     1     -12.845  13.260  71.563  1.00  0.00    -0.419 A  
HETATM   23  C   UNL     1     -13.050  15.334  72.827  1.00  0.00    -0.561 A  
HETATM   24  C   UNL     1     -12.172  15.968  71.958  1.00  0.00    -0.582 A  
HETATM   25  C   UNL     1     -11.606  15.256  70.902  1.00  0.00    -0.343 A  
HETATM   26 CL   UNL     1     -10.697  16.165  69.736  1.00  0.00    -0.317 Cl 
ENDBRANCH  18  19
ENDBRANCH  14  15
ENDBRANCH   8  10
ENDBRANCH   4   8
BRANCH   5  27
HETATM   27  N   UNL     1     -11.001   6.659  70.240  1.00  0.00    -0.278 NA 
HETATM   28  C   UNL     1     -10.961   7.937  70.982  1.00  0.00    -0.244 C  
HETATM   29  C   UNL     1     -10.627   5.501  71.065  1.00  0.00    -0.230 C  
HETATM   30  N   UNL     1     -11.546   6.732  73.148  1.00  0.00     0.111 NA 
HETATM   31  C   UNL     1     -11.868   7.845  72.224  1.00  0.00    -0.352 C  
HETATM   32  C   UNL     1     -11.511   5.473  72.344  1.00  0.00    -0.204 C  
BRANCH  30  33
HETATM   33  C   UNL     1     -10.264   6.925  73.861  1.00  0.00    -0.367 C  
BRANCH  33  34
HETATM   34  C   UNL     1      -9.496   8.184  73.420  1.00  0.00    -0.167 C  
HETATM   35  H   UNL     1      -7.661   8.648  72.863  1.00  0.00     0.000 HD 
HETATM   36  O   UNL     1      -8.135   7.871  73.136  1.00  0.00    -0.133 OA 
ENDBRANCH  33  34
ENDBRANCH  30  33
ENDBRANCH   5  27
TORSDOF 7
ENDMDL
MODEL      114
REMARK 921   NORMALIZED FREE ENERGY PREDICTED BY IDOCK:   -5.80 KCAL/MOL
REMARK 922        TOTAL FREE ENERGY PREDICTED BY IDOCK:   -8.56 KCAL/MOL
REMARK 923 INTER-LIGAND FREE ENERGY PREDICTED BY IDOCK:   -7.84 KCAL/MOL
REMARK 924 INTRA-LIGAND FREE ENERGY PREDICTED BY IDOCK:   -0.72 KCAL/MOL
REMARK 927      BINDING AFFINITY PREDICTED BY RF-SCORE:    0.00 PKD
ROOT
HETATM    1  C   UNL     1      -9.802   4.152  66.243  1.00  0.00    -0.208 C  
HETATM    2  C   UNL     1     -10.016   5.208  67.282  1.00  0.00    -0.186 A  
HETATM    3  N   UNL     1     -10.279   6.452  66.846  1.00  0.00    -0.197 NA 
HETATM    4  C   UNL     1     -10.598   7.356  67.779  1.00  0.00    -0.210 A  
HETATM    5  C   UNL     1     -10.297   5.751  69.498  1.00  0.00    -0.263 A  
HETATM    6  C   UNL     1     -10.692   7.011  69.103  1.00  0.00    -0.240 A  
HETATM    7  N   UNL     1      -9.985   4.827  68.574  1.00  0.00    -0.125 NA 
ENDROOT
BRANCH   4   8
HETATM    8  N   UNL     1     -10.858   8.647  67.332  1.00  0.00    -0.463 NA 
HETATM    9  H   UNL     1     -11.813   8.830  67.027  1.00  0.00     0.000 HD 
BRANCH   8  10
HETATM   10  C   UNL     1     -10.001   9.686  67.253  1.00  0.00    -0.197 A  
HETATM   11  S   UNL     1     -10.477  11.158  67.990  1.00  0.00    -0.200 SA 
HETATM   12  N   UNL     1      -8.824   9.733  66.659  1.00  0.00    -0.137 NA 
HETATM   13  C   UNL     1      -8.343  11.027  66.643  1.00  0.00    -0.155 A  
HETATM   14  C   UNL     1      -9.147  11.956  67.267  1.00  0.00    -0.178 A  
BRANCH  14  15
HETATM   15  C   UNL     1      -9.018  13.393  67.305  1.00  0.00    -0.221 C  
HETATM   16  O   UNL     1      -7.930  13.958  67.256  1.00  0.00    -0.176 OA 
HETATM   17  H   UNL     1     -11.066  13.499  67.611  1.00  0.00     0.000 HD 
HETATM   18  N   UNL     1     -10.228  14.055  67.444  1.00  0.00    -0.247 N  
BRANCH  18  19
HETATM   19  C   UNL     1     -10.360  15.450  67.367  1.00  0.00    -0.262 A  
HETATM   20  C   UNL     1     -10.521  17.590  68.479  1.00  0.00    -0.361 A  
HETATM   21  C   UNL     1     -10.346  15.574  69.933  1.00  0.00    -0.322 C  
HETATM   22  C   UNL     1     -10.415  16.192  68.562  1.00  0.00    -0.269 A  
HETATM   23  C   UNL     1     -10.594  18.233  67.242  1.00  0.00    -0.406 A  
HETATM   24  C   UNL     1     -10.602  17.492  66.068  1.00  0.00    -0.217 A  
HETATM   25  C   UNL     1     -10.495  16.103  66.124  1.00  0.00    -0.325 A  
HETATM   26 CL   UNL     1     -10.732  15.234  64.641  1.00  0.00    -0.323 Cl 
ENDBRANCH  18  19
ENDBRANCH  14  15
ENDBRANCH   8  10
ENDBRANCH   4   8
BRANCH   5  27
HETATM   27  N   UNL     1     -10.277   5.446  70.865  1.00  0.00    -0.221 NA 
HETATM   28  C   UNL     1     -11.348   6.074  71.667  1.00  0.00    -0.252 C  
HETATM   29  C   UNL     1      -8.960   5.503  71.516  1.00  0.00    -0.136 C  
HETATM   30  N   UNL     1     -10.136   5.460  73.820  1.00  0.00    -0.186 NA 
HETATM   31  C   UNL     1     -11.407   5.418  73.060  1.00  0.00    -0.293 C  
HETATM   32  C   UNL     1      -9.065   4.897  72.944  1.00  0.00    -0.121 C  
BRANCH  30  33
HETATM   33  C   UNL     1      -9.775   6.823  74.267  1.00  0.00    -0.297 C  
BRANCH  33  34
HETATM   34  C   UNL     1      -8.273   7.135  74.143  1.00  0.00    -0.139 C  
HETATM   35  H   UNL     1      -7.080   8.680  74.428  1.00  0.00     0.000 HD 
HETATM   36  O   UNL     1      -8.007   8.487  74.505  1.00  0.00    -0.304 OA 
ENDBRANCH  33  34
ENDBRANCH  30  33
ENDBRANCH   5  27
TORSDOF 7
ENDMDL
MODEL      115
REMARK 921   NORMALIZED FREE ENERGY PREDICTED BY IDOCK:   -5.80 KCAL/MOL
REMARK 922        TOTAL FREE ENERGY PREDICTED BY IDOCK:   -8.55 KCAL/MOL
REMARK 923 INTER-LIGAND FREE ENERGY PREDICTED BY IDOCK:   -7.60 KCAL/MOL
REMARK 924 INTRA-LIGAND FREE ENERGY PREDICTED BY IDOCK:   -0.96 KCAL/MOL
REMARK 927      BINDING AFFINITY PREDICTED BY RF-SCORE:    0.00 PKD
ROOT
HETATM    1  C   UNL     1     -12.441  13.946  70.303  1.00  0.00    -0.380 C  
HETATM    2  C   UNL     1     -11.550  14.435  69.204  1.00  0.00    -0.307 A  
HETATM    3  N   UNL     1     -10.923  13.505  68.464  1.00  0.00    -0.258 NA 
HETATM    4  C   UNL     1     -10.236  13.948  67.405  1.00  0.00    -0.252 A  
HETATM    5  C   UNL     1     -10.779  16.193  67.940  1.00  0.00    -0.321 A  
HETATM    6  C   UNL     1     -10.215  15.278  67.076  1.00  0.00    -0.260 A  
HETATM    7  N   UNL     1     -11.483  15.765  69.001  1.00  0.00    -0.367 NA 
ENDROOT
BRANCH   4   8
HETATM    8  N   UNL     1      -9.576  12.989  66.645  1.00  0.00    -0.254 NA 
HETATM    9  H   UNL     1      -8.917  13.344  65.952  1.00  0.00     0.000 HD 
BRANCH   8  10
HETATM   10  C   UNL     1      -9.699  11.647  66.713  1.00  0.00    -0.201 A  
HETATM   11  S   UNL     1      -8.383  10.766  67.366  1.00  0.00    -0.120 SA 
HETATM   12  N   UNL     1     -10.712  10.898  66.322  1.00  0.00    -0.217 NA 
HETATM   13  C   UNL     1     -10.377   9.560  66.391  1.00  0.00    -0.173 A  
HETATM   14  C   UNL     1      -9.114   9.300  66.876  1.00  0.00    -0.131 A  
BRANCH  14  15
HETATM   15  C   UNL     1      -8.405   8.044  66.940  1.00  0.00    -0.116 C  
HETATM   16  O   UNL     1      -7.606   7.783  67.834  1.00  0.00    -0.110 OA 
HETATM   17  H   UNL     1      -9.257   7.551  65.114  1.00  0.00     0.000 HD 
HETATM   18  N   UNL     1      -8.683   7.196  65.879  1.00  0.00    -0.148 N  
BRANCH  18  19
HETATM   19  C   UNL     1      -8.217   5.874  65.803  1.00  0.00    -0.130 A  
HETATM   20  C   UNL     1      -6.631   4.274  64.927  1.00  0.00    -0.044 A  
HETATM   21  C   UNL     1      -6.390   6.633  64.165  1.00  0.00    -0.035 C  
HETATM   22  C   UNL     1      -7.110   5.594  64.980  1.00  0.00    -0.064 A  
HETATM   23  C   UNL     1      -7.251   3.255  65.653  1.00  0.00    -0.071 A  
HETATM   24  C   UNL     1      -8.381   3.526  66.414  1.00  0.00    -0.102 A  
HETATM   25  C   UNL     1      -8.873   4.828  66.485  1.00  0.00    -0.111 A  
HETATM   26 CL   UNL     1     -10.404   5.050  67.270  1.00  0.00    -0.217 Cl 
ENDBRANCH  18  19
ENDBRANCH  14  15
ENDBRANCH   8  10
ENDBRANCH   4   8
BRANCH   5  27
HETATM   27  N   UNL     1     -10.646  17.559  67.660  1.00  0.00    -0.370 NA 
HETATM   28  C   UNL     1     -10.359  17.889  66.248  1.00  0.00    -0.364 C  
HETATM   29  C   UNL     1      -9.832  18.332  68.610  1.00  0.00    -0.380 C  
HETATM   30  N   UNL     1      -9.740  20.271  66.900  1.00  0.00    -0.432 NA 
HETATM   31  C   UNL     1     -10.552  19.400  66.019  1.00  0.00    -0.480 C  
HETATM   32  C   UNL     1      -9.992  19.849  68.311  1.00  0.00    -0.432 C  
BRANCH  30  33
HETATM   33  C   UNL     1      -8.293  20.215  66.595  1.00  0.00    -0.285 C  
BRANCH  33  34
HETATM   34  C   UNL     1      -7.409  20.862  67.676  1.00  0.00    -0.227 C  
HETATM   35  H   UNL     1      -5.893  20.334  68.822  1.00  0.00     0.000 HD 
HETATM   36  O   UNL     1      -6.439  19.935  68.155  1.00  0.00    -0.238 OA 
ENDBRANCH  33  34
ENDBRANCH  30  33
ENDBRANCH   5  27
TORSDOF 7
ENDMDL
MODEL      116
REMARK 921   NORMALIZED FREE ENERGY PREDICTED BY IDOCK:   -5.79 KCAL/MOL
REMARK 922        TOTAL FREE ENERGY PREDICTED BY IDOCK:   -8.53 KCAL/MOL
REMARK 923 INTER-LIGAND FREE ENERGY PREDICTED BY IDOCK:   -8.27 KCAL/MOL
REMARK 924 INTRA-LIGAND FREE ENERGY PREDICTED BY IDOCK:   -0.26 KCAL/MOL
REMARK 927      BINDING AFFINITY PREDICTED BY RF-SCORE:    0.00 PKD
ROOT
HETATM    1  C   UNL     1     -13.214  15.725  72.595  1.00  0.00    -0.588 C  
HETATM    2  C   UNL     1     -12.456  15.013  71.518  1.00  0.00    -0.333 A  
HETATM    3  N   UNL     1     -12.662  13.690  71.395  1.00  0.00    -0.356 NA 
HETATM    4  C   UNL     1     -12.082  13.091  70.350  1.00  0.00    -0.314 A  
HETATM    5  C   UNL     1     -11.082  15.133  69.679  1.00  0.00    -0.270 A  
HETATM    6  C   UNL     1     -11.354  13.804  69.434  1.00  0.00    -0.306 A  
HETATM    7  N   UNL     1     -11.666  15.754  70.717  1.00  0.00    -0.365 NA 
ENDROOT
BRANCH   4   8
HETATM    8  N   UNL     1     -12.283  11.720  70.228  1.00  0.00    -0.320 NA 
HETATM    9  H   UNL     1     -12.921  11.301  70.903  1.00  0.00     0.000 HD 
BRANCH   8  10
HETATM   10  C   UNL     1     -11.738  10.878  69.326  1.00  0.00    -0.324 A  
HETATM   11  S   UNL     1     -10.985   9.460  69.926  1.00  0.00    -0.205 SA 
HETATM   12  N   UNL     1     -11.689  11.004  68.014  1.00  0.00    -0.582 NA 
HETATM   13  C   UNL     1     -10.885  10.025  67.465  1.00  0.00    -0.265 A  
HETATM   14  C   UNL     1     -10.358   9.129  68.369  1.00  0.00    -0.206 A  
BRANCH  14  15
HETATM   15  C   UNL     1      -9.378   8.091  68.155  1.00  0.00    -0.139 C  
HETATM   16  O   UNL     1      -8.707   7.621  69.068  1.00  0.00    -0.135 OA 
HETATM   17  H   UNL     1      -9.750   8.256  66.121  1.00  0.00     0.000 HD 
HETATM   18  N   UNL     1      -9.246   7.718  66.826  1.00  0.00    -0.154 N  
BRANCH  18  19
HETATM   19  C   UNL     1      -8.458   6.638  66.400  1.00  0.00    -0.125 A  
HETATM   20  C   UNL     1      -8.281   4.314  65.761  1.00  0.00    -0.109 A  
HETATM   21  C   UNL     1     -10.533   5.126  66.449  1.00  0.00    -0.356 C  
HETATM   22  C   UNL     1      -9.070   5.385  66.212  1.00  0.00    -0.144 A  
HETATM   23  C   UNL     1      -6.915   4.478  65.524  1.00  0.00    -0.062 A  
HETATM   24  C   UNL     1      -6.304   5.700  65.770  1.00  0.00    -0.039 A  
HETATM   25  C   UNL     1      -7.066   6.779  66.216  1.00  0.00    -0.067 A  
HETATM   26 CL   UNL     1      -6.204   8.202  66.710  1.00  0.00    -0.053 Cl 
ENDBRANCH  18  19
ENDBRANCH  14  15
ENDBRANCH   8  10
ENDBRANCH   4   8
BRANCH   5  27
HETATM   27  N   UNL     1     -10.236  15.824  68.803  1.00  0.00    -0.210 NA 
HETATM   28  C   UNL     1      -8.871  16.077  69.313  1.00  0.00    -0.227 C  
HETATM   29  C   UNL     1     -10.825  16.991  68.129  1.00  0.00    -0.338 C  
HETATM   30  N   UNL     1      -8.448  17.747  67.438  1.00  0.00    -0.224 NA 
HETATM   31  C   UNL     1      -7.965  16.547  68.159  1.00  0.00    -0.163 C  
HETATM   32  C   UNL     1      -9.857  17.485  67.016  1.00  0.00    -0.295 C  
BRANCH  30  33
HETATM   33  C   UNL     1      -8.374  18.980  68.254  1.00  0.00    -0.334 C  
BRANCH  33  34
HETATM   34  C   UNL     1      -9.667  19.816  68.227  1.00  0.00    -0.395 C  
HETATM   35  H   UNL     1     -10.949  20.553  69.532  1.00  0.00     0.000 HD 
HETATM   36  O   UNL     1     -10.151  20.037  69.549  1.00  0.00    -0.267 OA 
ENDBRANCH  33  34
ENDBRANCH  30  33
ENDBRANCH   5  27
TORSDOF 7
ENDMDL
MODEL      117
REMARK 921   NORMALIZED FREE ENERGY PREDICTED BY IDOCK:   -5.79 KCAL/MOL
REMARK 922        TOTAL FREE ENERGY PREDICTED BY IDOCK:   -8.53 KCAL/MOL
REMARK 923 INTER-LIGAND FREE ENERGY PREDICTED BY IDOCK:   -7.50 KCAL/MOL
REMARK 924 INTRA-LIGAND FREE ENERGY PREDICTED BY IDOCK:   -1.04 KCAL/MOL
REMARK 927      BINDING AFFINITY PREDICTED BY RF-SCORE:    0.00 PKD
ROOT
HETATM    1  C   UNL     1      -7.010   7.921  63.883  1.00  0.00    -0.063 C  
HETATM    2  C   UNL     1      -7.826   8.209  65.104  1.00  0.00    -0.118 A  
HETATM    3  N   UNL     1      -8.803   9.125  64.987  1.00  0.00    -0.197 NA 
HETATM    4  C   UNL     1      -9.608   9.278  66.044  1.00  0.00    -0.270 A  
HETATM    5  C   UNL     1      -8.372   7.669  67.271  1.00  0.00    -0.115 A  
HETATM    6  C   UNL     1      -9.463   8.506  67.167  1.00  0.00    -0.208 A  
HETATM    7  N   UNL     1      -7.561   7.494  66.215  1.00  0.00    -0.086 NA 
ENDROOT
BRANCH   4   8
HETATM    8  N   UNL     1     -10.611  10.235  65.930  1.00  0.00    -0.084 NA 
HETATM    9  H   UNL     1     -11.523   9.972  66.303  1.00  0.00     0.000 HD 
BRANCH   8  10
HETATM   10  C   UNL     1     -10.526  11.466  65.387  1.00  0.00    -0.280 A  
HETATM   11  S   UNL     1      -9.848  12.709  66.353  1.00  0.00    -0.262 SA 
HETATM   12  N   UNL     1     -10.914  11.861  64.189  1.00  0.00    -0.340 NA 
HETATM   13  C   UNL     1     -10.824  13.235  64.082  1.00  0.00    -0.343 A  
HETATM   14  C   UNL     1     -10.324  13.875  65.194  1.00  0.00    -0.383 A  
BRANCH  14  15
HETATM   15  C   UNL     1     -10.237  15.289  65.468  1.00  0.00    -0.388 C  
HETATM   16  O   UNL     1     -10.727  16.135  64.726  1.00  0.00    -0.648 OA 
HETATM   17  H   UNL     1      -9.032  14.830  67.092  1.00  0.00     0.000 HD 
HETATM   18  N   UNL     1      -9.515  15.590  66.613  1.00  0.00    -0.242 N  
BRANCH  18  19
HETATM   19  C   UNL     1      -9.415  16.883  67.148  1.00  0.00    -0.237 A  
HETATM   20  C   UNL     1      -8.204  18.965  67.345  1.00  0.00    -0.289 A  
HETATM   21  C   UNL     1      -7.166  17.187  65.944  1.00  0.00     0.035 C  
HETATM   22  C   UNL     1      -8.287  17.662  66.828  1.00  0.00    -0.276 A  
HETATM   23  C   UNL     1      -9.203  19.474  68.177  1.00  0.00    -0.411 A  
HETATM   24  C   UNL     1     -10.283  18.679  68.539  1.00  0.00    -0.398 A  
HETATM   25  C   UNL     1     -10.390  17.383  68.036  1.00  0.00    -0.362 A  
HETATM   26 CL   UNL     1     -11.640  16.380  68.702  1.00  0.00    -0.238 Cl 
ENDBRANCH  18  19
ENDBRANCH  14  15
ENDBRANCH   8  10
ENDBRANCH   4   8
BRANCH   5  27
HETATM   27  N   UNL     1      -8.162   6.976  68.469  1.00  0.00    -0.123 NA 
HETATM   28  C   UNL     1      -9.291   6.133  68.917  1.00  0.00    -0.124 C  
HETATM   29  C   UNL     1      -7.553   7.751  69.561  1.00  0.00    -0.100 C  
HETATM   30  N   UNL     1      -8.232   5.884  71.219  1.00  0.00    -0.121 NA 
HETATM   31  C   UNL     1      -8.824   5.197  70.048  1.00  0.00    -0.111 C  
HETATM   32  C   UNL     1      -7.155   6.790  70.716  1.00  0.00    -0.068 C  
BRANCH  30  33
HETATM   33  C   UNL     1      -9.226   6.650  72.004  1.00  0.00    -0.142 C  
BRANCH  33  34
HETATM   34  C   UNL     1     -10.411   5.800  72.494  1.00  0.00    -0.207 C  
HETATM   35  H   UNL     1     -12.368   5.753  72.249  1.00  0.00     0.000 HD 
HETATM   36  O   UNL     1     -11.636   6.278  71.946  1.00  0.00    -0.296 OA 
ENDBRANCH  33  34
ENDBRANCH  30  33
ENDBRANCH   5  27
TORSDOF 7
ENDMDL
MODEL      118
REMARK 921   NORMALIZED FREE ENERGY PREDICTED BY IDOCK:   -5.78 KCAL/MOL
REMARK 922        TOTAL FREE ENERGY PREDICTED BY IDOCK:   -8.52 KCAL/MOL
REMARK 923 INTER-LIGAND FREE ENERGY PREDICTED BY IDOCK:   -7.57 KCAL/MOL
REMARK 924 INTRA-LIGAND FREE ENERGY PREDICTED BY IDOCK:   -0.95 KCAL/MOL
REMARK 927      BINDING AFFINITY PREDICTED BY RF-SCORE:    0.00 PKD
ROOT
HETATM    1  C   UNL     1     -13.056  14.762  71.456  1.00  0.00    -0.429 C  
HETATM    2  C   UNL     1     -12.181  14.938  70.255  1.00  0.00    -0.335 A  
HETATM    3  N   UNL     1     -12.163  13.937  69.358  1.00  0.00    -0.335 NA 
HETATM    4  C   UNL     1     -11.482  14.161  68.228  1.00  0.00    -0.304 A  
HETATM    5  C   UNL     1     -10.830  16.307  68.995  1.00  0.00    -0.315 A  
HETATM    6  C   UNL     1     -10.875  15.366  67.989  1.00  0.00    -0.292 A  
HETATM    7  N   UNL     1     -11.518  16.105  70.131  1.00  0.00    -0.336 NA 
ENDROOT
BRANCH   4   8
HETATM    8  N   UNL     1     -11.452  13.122  67.304  1.00  0.00    -0.313 NA 
HETATM    9  H   UNL     1     -11.773  13.351  66.363  1.00  0.00     0.000 HD 
BRANCH   8  10
HETATM   10  C   UNL     1     -11.050  11.849  67.498  1.00  0.00    -0.273 A  
HETATM   11  S   UNL     1      -9.474  11.606  68.124  1.00  0.00    -0.195 SA 
HETATM   12  N   UNL     1     -11.715  10.735  67.254  1.00  0.00    -0.270 NA 
HETATM   13  C   UNL     1     -10.891   9.638  67.414  1.00  0.00    -0.172 A  
HETATM   14  C   UNL     1      -9.608   9.927  67.823  1.00  0.00    -0.141 A  
BRANCH  14  15
HETATM   15  C   UNL     1      -8.471   9.046  67.942  1.00  0.00    -0.121 C  
HETATM   16  O   UNL     1      -7.348   9.454  68.224  1.00  0.00    -0.077 OA 
HETATM   17  H   UNL     1      -9.694   7.496  67.311  1.00  0.00     0.000 HD 
HETATM   18  N   UNL     1      -8.765   7.720  67.666  1.00  0.00    -0.126 N  
BRANCH  18  19
HETATM   19  C   UNL     1      -7.853   6.670  67.850  1.00  0.00    -0.112 A  
HETATM   20  C   UNL     1      -6.263   5.107  66.918  1.00  0.00    -0.032 A  
HETATM   21  C   UNL     1      -7.414   6.632  65.320  1.00  0.00    -0.082 C  
HETATM   22  C   UNL     1      -7.194   6.141  66.725  1.00  0.00    -0.074 A  
HETATM   23  C   UNL     1      -6.010   4.596  68.193  1.00  0.00    -0.027 A  
HETATM   24  C   UNL     1      -6.708   5.080  69.292  1.00  0.00    -0.052 A  
HETATM   25  C   UNL     1      -7.635   6.108  69.126  1.00  0.00    -0.095 A  
HETATM   26 CL   UNL     1      -8.622   6.507  70.496  1.00  0.00    -0.141 Cl 
ENDBRANCH  18  19
ENDBRANCH  14  15
ENDBRANCH   8  10
ENDBRANCH   4   8
BRANCH   5  27
HETATM   27  N   UNL     1     -10.102  17.485  68.788  1.00  0.00    -0.350 NA 
HETATM   28  C   UNL     1     -10.678  18.417  67.795  1.00  0.00    -0.340 C  
HETATM   29  C   UNL     1      -8.646  17.324  68.651  1.00  0.00    -0.265 C  
HETATM   30  N   UNL     1      -8.502  19.737  67.727  1.00  0.00    -0.312 NA 
HETATM   31  C   UNL     1      -9.973  19.783  67.895  1.00  0.00    -0.416 C  
HETATM   32  C   UNL     1      -7.968  18.722  68.685  1.00  0.00    -0.336 C  
BRANCH  30  33
HETATM   33  C   UNL     1      -8.088  19.409  66.344  1.00  0.00    -0.318 C  
BRANCH  33  34
HETATM   34  C   UNL     1      -6.829  20.164  65.882  1.00  0.00    -0.263 C  
HETATM   35  H   UNL     1      -5.677  20.227  64.282  1.00  0.00     0.000 HD 
HETATM   36  O   UNL     1      -6.454  19.761  64.567  1.00  0.00    -0.328 OA 
ENDBRANCH  33  34
ENDBRANCH  30  33
ENDBRANCH   5  27
TORSDOF 7
ENDMDL
MODEL      119
REMARK 921   NORMALIZED FREE ENERGY PREDICTED BY IDOCK:   -5.77 KCAL/MOL
REMARK 922        TOTAL FREE ENERGY PREDICTED BY IDOCK:   -8.52 KCAL/MOL
REMARK 923 INTER-LIGAND FREE ENERGY PREDICTED BY IDOCK:   -7.71 KCAL/MOL
REMARK 924 INTRA-LIGAND FREE ENERGY PREDICTED BY IDOCK:   -0.80 KCAL/MOL
REMARK 927      BINDING AFFINITY PREDICTED BY RF-SCORE:    0.00 PKD
ROOT
HETATM    1  C   UNL     1     -13.406  14.004  71.151  1.00  0.00    -0.290 C  
HETATM    2  C   UNL     1     -12.245  14.119  70.215  1.00  0.00    -0.349 A  
HETATM    3  N   UNL     1     -11.503  13.014  70.019  1.00  0.00    -0.098 NA 
HETATM    4  C   UNL     1     -10.551  13.093  69.083  1.00  0.00     0.033 A  
HETATM    5  C   UNL     1     -11.089  15.364  68.666  1.00  0.00    -0.289 A  
HETATM    6  C   UNL     1     -10.377  14.230  68.338  1.00  0.00    -0.247 A  
HETATM    7  N   UNL     1     -12.057  15.300  69.595  1.00  0.00    -0.325 NA 
ENDROOT
BRANCH   4   8
HETATM    8  N   UNL     1      -9.775  11.956  68.888  1.00  0.00    -0.413 NA 
HETATM    9  H   UNL     1      -8.775  12.062  69.060  1.00  0.00     0.000 HD 
BRANCH   8  10
HETATM   10  C   UNL     1     -10.181  10.729  68.499  1.00  0.00    -0.178 A  
HETATM   11  S   UNL     1     -10.413   9.551  69.722  1.00  0.00    -0.248 SA 
HETATM   12  N   UNL     1     -10.417  10.296  67.276  1.00  0.00    -0.236 NA 
HETATM   13  C   UNL     1     -10.635   8.932  67.282  1.00  0.00    -0.234 A  
HETATM   14  C   UNL     1     -10.603   8.342  68.527  1.00  0.00    -0.100 A  
BRANCH  14  15
HETATM   15  C   UNL     1     -10.645   6.941  68.871  1.00  0.00    -0.221 C  
HETATM   16  O   UNL     1     -11.686   6.370  69.180  1.00  0.00    -0.217 OA 
HETATM   17  H   UNL     1      -8.577   6.914  68.720  1.00  0.00     0.000 HD 
HETATM   18  N   UNL     1      -9.402   6.329  68.858  1.00  0.00    -0.129 N  
BRANCH  18  19
HETATM   19  C   UNL     1      -9.216   4.948  69.026  1.00  0.00    -0.119 A  
HETATM   20  C   UNL     1      -9.197   2.722  68.086  1.00  0.00    -0.254 A  
HETATM   21  C   UNL     1      -9.812   4.587  66.554  1.00  0.00    -0.244 C  
HETATM   22  C   UNL     1      -9.409   4.100  67.920  1.00  0.00    -0.210 A  
HETATM   23  C   UNL     1      -8.826   2.196  69.325  1.00  0.00    -0.144 A  
HETATM   24  C   UNL     1      -8.697   3.030  70.428  1.00  0.00    -0.127 A  
HETATM   25  C   UNL     1      -8.900   4.402  70.288  1.00  0.00    -0.080 A  
HETATM   26 CL   UNL     1      -8.939   5.346  71.743  1.00  0.00    -0.142 Cl 
ENDBRANCH  18  19
ENDBRANCH  14  15
ENDBRANCH   8  10
ENDBRANCH   4   8
BRANCH   5  27
HETATM   27  N   UNL     1     -10.817  16.555  67.982  1.00  0.00    -0.344 NA 
HETATM   28  C   UNL     1     -10.264  16.389  66.621  1.00  0.00    -0.294 C  
HETATM   29  C   UNL     1     -10.132  17.599  68.759  1.00  0.00    -0.377 C  
HETATM   30  N   UNL     1      -9.611  18.849  66.554  1.00  0.00    -0.334 NA 
HETATM   31  C   UNL     1     -10.312  17.736  65.873  1.00  0.00    -0.254 C  
HETATM   32  C   UNL     1     -10.135  18.928  67.951  1.00  0.00    -0.371 C  
BRANCH  30  33
HETATM   33  C   UNL     1      -8.140  18.687  66.562  1.00  0.00    -0.284 C  
BRANCH  33  34
HETATM   34  C   UNL     1      -7.381  19.924  66.048  1.00  0.00    -0.309 C  
HETATM   35  H   UNL     1      -6.998  21.757  66.667  1.00  0.00     0.000 HD 
HETATM   36  O   UNL     1      -7.467  20.994  66.985  1.00  0.00    -0.283 OA 
ENDBRANCH  33  34
ENDBRANCH  30  33
ENDBRANCH   5  27
TORSDOF 7
ENDMDL
MODEL      120
REMARK 921   NORMALIZED FREE ENERGY PREDICTED BY IDOCK:   -5.77 KCAL/MOL
REMARK 922        TOTAL FREE ENERGY PREDICTED BY IDOCK:   -8.51 KCAL/MOL
REMARK 923 INTER-LIGAND FREE ENERGY PREDICTED BY IDOCK:   -7.68 KCAL/MOL
REMARK 924 INTRA-LIGAND FREE ENERGY PREDICTED BY IDOCK:   -0.84 KCAL/MOL
REMARK 927      BINDING AFFINITY PREDICTED BY RF-SCORE:    0.00 PKD
ROOT
HETATM    1  C   UNL     1     -14.110  14.080  72.575  1.00  0.00    -0.474 C  
HETATM    2  C   UNL     1     -13.292  13.150  71.736  1.00  0.00    -0.389 A  
HETATM    3  N   UNL     1     -13.221  11.867  72.133  1.00  0.00    -0.423 NA 
HETATM    4  C   UNL     1     -12.597  11.020  71.307  1.00  0.00    -0.412 A  
HETATM    5  C   UNL     1     -12.099  12.785  69.805  1.00  0.00    -0.237 A  
HETATM    6  C   UNL     1     -12.099  11.439  70.101  1.00  0.00    -0.439 A  
HETATM    7  N   UNL     1     -12.731  13.648  70.617  1.00  0.00    -0.272 NA 
ENDROOT
BRANCH   4   8
HETATM    8  N   UNL     1     -12.511   9.695  71.722  1.00  0.00    -0.389 NA 
HETATM    9  H   UNL     1     -13.363   9.294  72.114  1.00  0.00     0.000 HD 
BRANCH   8  10
HETATM   10  C   UNL     1     -11.440   8.877  71.670  1.00  0.00    -0.339 A  
HETATM   11  S   UNL     1     -11.736   7.204  71.445  1.00  0.00    -0.315 SA 
HETATM   12  N   UNL     1     -10.164   9.191  71.786  1.00  0.00    -0.316 NA 
HETATM   13  C   UNL     1      -9.392   8.049  71.862  1.00  0.00    -0.167 A  
HETATM   14  C   UNL     1     -10.089   6.865  71.761  1.00  0.00    -0.185 A  
BRANCH  14  15
HETATM   15  C   UNL     1      -9.619   5.513  71.943  1.00  0.00    -0.156 C  
HETATM   16  O   UNL     1      -9.350   4.776  71.000  1.00  0.00    -0.134 OA 
HETATM   17  H   UNL     1      -9.916   5.759  73.981  1.00  0.00     0.000 HD 
HETATM   18  N   UNL     1      -9.546   5.126  73.272  1.00  0.00    -0.140 N  
BRANCH  18  19
HETATM   19  C   UNL     1      -8.989   3.909  73.695  1.00  0.00    -0.091 A  
HETATM   20  C   UNL     1      -7.044   2.612  74.306  1.00  0.00    -0.036 A  
HETATM   21  C   UNL     1      -6.651   4.967  73.600  1.00  0.00    -0.064 C  
HETATM   22  C   UNL     1      -7.594   3.824  73.858  1.00  0.00    -0.074 A  
HETATM   23  C   UNL     1      -7.856   1.505  74.563  1.00  0.00    -0.033 A  
HETATM   24  C   UNL     1      -9.225   1.576  74.340  1.00  0.00    -0.073 A  
HETATM   25  C   UNL     1      -9.795   2.769  73.899  1.00  0.00    -0.099 A  
HETATM   26 CL   UNL     1     -11.466   2.720  73.434  1.00  0.00    -0.245 Cl 
ENDBRANCH  18  19
ENDBRANCH  14  15
ENDBRANCH   8  10
ENDBRANCH   4   8
BRANCH   5  27
HETATM   27  N   UNL     1     -11.478  13.219  68.627  1.00  0.00    -0.280 NA 
HETATM   28  C   UNL     1     -10.355  12.378  68.159  1.00  0.00    -0.226 C  
HETATM   29  C   UNL     1     -11.192  14.660  68.546  1.00  0.00    -0.271 C  
HETATM   30  N   UNL     1      -9.628  14.201  66.536  1.00  0.00    -0.286 NA 
HETATM   31  C   UNL     1      -9.977  12.773  66.718  1.00  0.00    -0.237 C  
HETATM   32  C   UNL     1     -10.746  15.016  67.100  1.00  0.00    -0.303 C  
BRANCH  30  33
HETATM   33  C   UNL     1      -8.346  14.569  67.178  1.00  0.00    -0.202 C  
BRANCH  33  34
HETATM   34  C   UNL     1      -7.797  15.931  66.719  1.00  0.00    -0.238 C  
HETATM   35  H   UNL     1      -6.289  17.119  67.175  1.00  0.00     0.000 HD 
HETATM   36  O   UNL     1      -6.628  16.278  67.458  1.00  0.00    -0.133 OA 
ENDBRANCH  33  34
ENDBRANCH  30  33
ENDBRANCH   5  27
TORSDOF 7
ENDMDL
MODEL      121
REMARK 921   NORMALIZED FREE ENERGY PREDICTED BY IDOCK:   -5.76 KCAL/MOL
REMARK 922        TOTAL FREE ENERGY PREDICTED BY IDOCK:   -8.50 KCAL/MOL
REMARK 923 INTER-LIGAND FREE ENERGY PREDICTED BY IDOCK:   -7.79 KCAL/MOL
REMARK 924 INTRA-LIGAND FREE ENERGY PREDICTED BY IDOCK:   -0.71 KCAL/MOL
REMARK 927      BINDING AFFINITY PREDICTED BY RF-SCORE:    0.00 PKD
ROOT
HETATM    1  C   UNL     1     -12.096  13.534  69.532  1.00  0.00    -0.352 C  
HETATM    2  C   UNL     1     -11.372  13.899  68.275  1.00  0.00    -0.294 A  
HETATM    3  N   UNL     1     -11.294  12.959  67.317  1.00  0.00    -0.292 NA 
HETATM    4  C   UNL     1     -10.761  13.338  66.150  1.00  0.00    -0.279 A  
HETATM    5  C   UNL     1     -10.357  15.516  66.994  1.00  0.00    -0.279 A  
HETATM    6  C   UNL     1     -10.359  14.631  65.938  1.00  0.00    -0.334 A  
HETATM    7  N   UNL     1     -10.899  15.156  68.169  1.00  0.00    -0.258 NA 
ENDROOT
BRANCH   4   8
HETATM    8  N   UNL     1     -10.667  12.363  65.163  1.00  0.00    -0.283 NA 
HETATM    9  H   UNL     1     -11.177  12.551  64.300  1.00  0.00     0.000 HD 
BRANCH   8  10
HETATM   10  C   UNL     1      -9.985  11.200  65.206  1.00  0.00    -0.260 A  
HETATM   11  S   UNL     1     -10.507  10.021  66.336  1.00  0.00    -0.075 SA 
HETATM   12  N   UNL     1      -8.936  10.840  64.492  1.00  0.00    -0.187 NA 
HETATM   13  C   UNL     1      -8.418   9.649  64.962  1.00  0.00    -0.150 A  
HETATM   14  C   UNL     1      -9.110   9.088  66.014  1.00  0.00    -0.208 A  
BRANCH  14  15
HETATM   15  C   UNL     1      -8.763   7.945  66.823  1.00  0.00    -0.134 C  
HETATM   16  O   UNL     1      -7.606   7.687  67.139  1.00  0.00    -0.099 OA 
HETATM   17  H   UNL     1     -10.755   7.374  66.746  1.00  0.00     0.000 HD 
HETATM   18  N   UNL     1      -9.851   7.156  67.164  1.00  0.00    -0.167 N  
BRANCH  18  19
HETATM   19  C   UNL     1      -9.775   6.074  68.055  1.00  0.00    -0.119 A  
HETATM   20  C   UNL     1      -9.866   5.232  70.318  1.00  0.00    -0.284 A  
HETATM   21  C   UNL     1     -10.145   7.689  70.018  1.00  0.00    -0.204 C  
HETATM   22  C   UNL     1      -9.918   6.321  69.433  1.00  0.00    -0.192 A  
HETATM   23  C   UNL     1      -9.654   3.934  69.849  1.00  0.00    -0.270 A  
HETATM   24  C   UNL     1      -9.452   3.704  68.494  1.00  0.00    -0.212 A  
HETATM   25  C   UNL     1      -9.501   4.769  67.596  1.00  0.00    -0.146 A  
HETATM   26 CL   UNL     1      -9.023   4.442  65.960  1.00  0.00    -0.118 Cl 
ENDBRANCH  18  19
ENDBRANCH  14  15
ENDBRANCH   8  10
ENDBRANCH   4   8
BRANCH   5  27
HETATM   27  N   UNL     1      -9.830  16.799  66.801  1.00  0.00    -0.264 NA 
HETATM   28  C   UNL     1      -8.367  16.914  66.981  1.00  0.00    -0.200 C  
HETATM   29  C   UNL     1     -10.576  17.900  67.428  1.00  0.00    -0.360 C  
HETATM   30  N   UNL     1      -8.544  19.453  67.039  1.00  0.00    -0.279 NA 
HETATM   31  C   UNL     1      -7.882  18.272  66.438  1.00  0.00    -0.260 C  
HETATM   32  C   UNL     1     -10.020  19.258  66.915  1.00  0.00    -0.356 C  
BRANCH  30  33
HETATM   33  C   UNL     1      -8.168  19.669  68.454  1.00  0.00    -0.315 C  
BRANCH  33  34
HETATM   34  C   UNL     1      -6.674  19.975  68.656  1.00  0.00    -0.309 C  
HETATM   35  H   UNL     1      -5.142  19.178  69.610  1.00  0.00     0.000 HD 
HETATM   36  O   UNL     1      -6.065  18.989  69.486  1.00  0.00    -0.248 OA 
ENDBRANCH  33  34
ENDBRANCH  30  33
ENDBRANCH   5  27
TORSDOF 7
ENDMDL
MODEL      122
REMARK 921   NORMALIZED FREE ENERGY PREDICTED BY IDOCK:   -5.76 KCAL/MOL
REMARK 922        TOTAL FREE ENERGY PREDICTED BY IDOCK:   -8.49 KCAL/MOL
REMARK 923 INTER-LIGAND FREE ENERGY PREDICTED BY IDOCK:   -7.34 KCAL/MOL
REMARK 924 INTRA-LIGAND FREE ENERGY PREDICTED BY IDOCK:   -1.15 KCAL/MOL
REMARK 927      BINDING AFFINITY PREDICTED BY RF-SCORE:    0.00 PKD
ROOT
HETATM    1  C   UNL     1     -11.992   6.029  72.192  1.00  0.00    -0.261 C  
HETATM    2  C   UNL     1     -10.947   6.321  71.161  1.00  0.00    -0.280 A  
HETATM    3  N   UNL     1     -10.101   7.335  71.416  1.00  0.00    -0.188 NA 
HETATM    4  C   UNL     1      -9.092   7.502  70.553  1.00  0.00    -0.156 A  
HETATM    5  C   UNL     1      -9.879   5.706  69.220  1.00  0.00    -0.174 A  
HETATM    6  C   UNL     1      -8.914   6.652  69.493  1.00  0.00    -0.138 A  
HETATM    7  N   UNL     1     -10.892   5.517  70.082  1.00  0.00    -0.284 NA 
ENDROOT
BRANCH   4   8
HETATM    8  N   UNL     1      -8.224   8.558  70.808  1.00  0.00    -0.117 NA 
HETATM    9  H   UNL     1      -7.610   8.447  71.615  1.00  0.00     0.000 HD 
BRANCH   8  10
HETATM   10  C   UNL     1      -8.094   9.710  70.119  1.00  0.00    -0.189 A  
HETATM   11  S   UNL     1      -9.459  10.263  69.242  1.00  0.00    -0.203 SA 
HETATM   12  N   UNL     1      -7.031  10.484  70.012  1.00  0.00    -0.155 NA 
HETATM   13  C   UNL     1      -7.246  11.471  69.071  1.00  0.00    -0.106 A  
HETATM   14  C   UNL     1      -8.497  11.465  68.494  1.00  0.00    -0.152 A  
BRANCH  14  15
HETATM   15  C   UNL     1      -8.995  12.250  67.391  1.00  0.00    -0.183 C  
HETATM   16  O   UNL     1      -8.332  13.137  66.862  1.00  0.00    -0.129 OA 
HETATM   17  H   UNL     1     -10.813  11.276  67.608  1.00  0.00     0.000 HD 
HETATM   18  N   UNL     1     -10.294  11.934  67.026  1.00  0.00    -0.210 N  
BRANCH  18  19
HETATM   19  C   UNL     1     -10.934  12.470  65.898  1.00  0.00    -0.279 A  
HETATM   20  C   UNL     1     -12.355  14.162  64.918  1.00  0.00    -0.446 A  
HETATM   21  C   UNL     1     -11.961  14.304  67.374  1.00  0.00    -0.426 C  
HETATM   22  C   UNL     1     -11.738  13.614  66.055  1.00  0.00    -0.383 A  
HETATM   23  C   UNL     1     -12.197  13.574  63.661  1.00  0.00    -0.438 A  
HETATM   24  C   UNL     1     -11.453  12.409  63.522  1.00  0.00    -0.561 A  
HETATM   25  C   UNL     1     -10.829  11.849  64.635  1.00  0.00    -0.311 A  
HETATM   26 CL   UNL     1     -10.106  10.285  64.428  1.00  0.00    -0.351 Cl 
ENDBRANCH  18  19
ENDBRANCH  14  15
ENDBRANCH   8  10
ENDBRANCH   4   8
BRANCH   5  27
HETATM   27  N   UNL     1      -9.753   4.924  68.066  1.00  0.00    -0.149 NA 
HETATM   28  C   UNL     1      -8.508   4.133  67.972  1.00  0.00    -0.094 C  
HETATM   29  C   UNL     1     -10.114   5.584  66.801  1.00  0.00    -0.207 C  
HETATM   30  N   UNL     1      -8.956   3.663  65.510  1.00  0.00    -0.132 NA 
HETATM   31  C   UNL     1      -8.635   3.095  66.840  1.00  0.00    -0.114 C  
HETATM   32  C   UNL     1     -10.167   4.524  65.665  1.00  0.00    -0.253 C  
BRANCH  30  33
HETATM   33  C   UNL     1      -7.839   4.442  64.930  1.00  0.00    -0.085 C  
BRANCH  33  34
HETATM   34  C   UNL     1      -8.134   4.987  63.521  1.00  0.00    -0.105 C  
HETATM   35  H   UNL     1      -8.740   4.276  61.784  1.00  0.00     0.000 HD 
HETATM   36  O   UNL     1      -8.558   3.940  62.654  1.00  0.00    -0.081 OA 
ENDBRANCH  33  34
ENDBRANCH  30  33
ENDBRANCH   5  27
TORSDOF 7
ENDMDL
MODEL      123
REMARK 921   NORMALIZED FREE ENERGY PREDICTED BY IDOCK:   -5.75 KCAL/MOL
REMARK 922        TOTAL FREE ENERGY PREDICTED BY IDOCK:   -8.48 KCAL/MOL
REMARK 923 INTER-LIGAND FREE ENERGY PREDICTED BY IDOCK:   -7.48 KCAL/MOL
REMARK 924 INTRA-LIGAND FREE ENERGY PREDICTED BY IDOCK:   -1.00 KCAL/MOL
REMARK 927      BINDING AFFINITY PREDICTED BY RF-SCORE:    0.00 PKD
ROOT
HETATM    1  C   UNL     1      -6.552   6.851  71.629  1.00  0.00    -0.049 C  
HETATM    2  C   UNL     1      -7.161   8.138  71.168  1.00  0.00    -0.058 A  
HETATM    3  N   UNL     1      -6.318   9.106  70.767  1.00  0.00    -0.057 NA 
HETATM    4  C   UNL     1      -6.875  10.200  70.235  1.00  0.00    -0.148 A  
HETATM    5  C   UNL     1      -9.047   9.327  70.609  1.00  0.00    -0.253 A  
HETATM    6  C   UNL     1      -8.232  10.300  70.072  1.00  0.00     0.044 A  
HETATM    7  N   UNL     1      -8.505   8.217  71.136  1.00  0.00    -0.120 NA 
ENDROOT
BRANCH   4   8
HETATM    8  N   UNL     1      -6.005  11.207  69.832  1.00  0.00    -0.092 NA 
HETATM    9  H   UNL     1      -5.035  11.107  70.131  1.00  0.00     0.000 HD 
BRANCH   8  10
HETATM   10  C   UNL     1      -6.287  12.301  69.094  1.00  0.00    -0.095 A  
HETATM   11  S   UNL     1      -6.355  13.806  69.909  1.00  0.00    -0.060 SA 
HETATM   12  N   UNL     1      -6.538  12.372  67.800  1.00  0.00    -0.098 NA 
HETATM   13  C   UNL     1      -6.960  13.643  67.461  1.00  0.00    -0.143 A  
HETATM   14  C   UNL     1      -6.988  14.545  68.502  1.00  0.00    -0.105 A  
BRANCH  14  15
HETATM   15  C   UNL     1      -7.508  15.891  68.525  1.00  0.00    -0.139 C  
HETATM   16  O   UNL     1      -7.285  16.668  69.448  1.00  0.00    -0.231 OA 
HETATM   17  H   UNL     1      -8.547  15.445  66.787  1.00  0.00     0.000 HD 
HETATM   18  N   UNL     1      -8.309  16.195  67.435  1.00  0.00    -0.165 N  
BRANCH  18  19
HETATM   19  C   UNL     1      -8.810  17.480  67.177  1.00  0.00    -0.238 A  
HETATM   20  C   UNL     1      -8.517  19.670  66.197  1.00  0.00    -0.354 A  
HETATM   21  C   UNL     1      -6.615  18.076  65.984  1.00  0.00    -0.310 C  
HETATM   22  C   UNL     1      -8.001  18.394  66.475  1.00  0.00    -0.294 A  
HETATM   23  C   UNL     1      -9.794  20.038  66.625  1.00  0.00    -0.577 A  
HETATM   24  C   UNL     1     -10.564  19.155  67.371  1.00  0.00    -0.577 A  
HETATM   25  C   UNL     1     -10.075  17.881  67.657  1.00  0.00    -0.348 A  
HETATM   26 CL   UNL     1     -10.991  16.918  68.772  1.00  0.00    -0.282 Cl 
ENDBRANCH  18  19
ENDBRANCH  14  15
ENDBRANCH   8  10
ENDBRANCH   4   8
BRANCH   5  27
HETATM   27  N   UNL     1     -10.436   9.498  70.547  1.00  0.00    -0.274 NA 
HETATM   28  C   UNL     1     -10.889  10.854  70.170  1.00  0.00     0.016 C  
HETATM   29  C   UNL     1     -11.203   8.923  71.662  1.00  0.00    -0.345 C  
HETATM   30  N   UNL     1     -13.261  10.299  70.910  1.00  0.00    -0.362 NA 
HETATM   31  C   UNL     1     -12.392  10.823  69.831  1.00  0.00    -0.271 C  
HETATM   32  C   UNL     1     -12.719   8.969  71.322  1.00  0.00    -0.262 C  
BRANCH  30  33
HETATM   33  C   UNL     1     -13.346  11.206  72.076  1.00  0.00    -0.278 C  
BRANCH  33  34
HETATM   34  C   UNL     1     -13.406  12.696  71.696  1.00  0.00    -0.223 C  
HETATM   35  H   UNL     1     -13.931  14.395  72.549  1.00  0.00     0.000 HD 
HETATM   36  O   UNL     1     -13.895  13.475  72.784  1.00  0.00    -0.730 OA 
ENDBRANCH  33  34
ENDBRANCH  30  33
ENDBRANCH   5  27
TORSDOF 7
ENDMDL
MODEL      124
REMARK 921   NORMALIZED FREE ENERGY PREDICTED BY IDOCK:   -5.73 KCAL/MOL
REMARK 922        TOTAL FREE ENERGY PREDICTED BY IDOCK:   -8.45 KCAL/MOL
REMARK 923 INTER-LIGAND FREE ENERGY PREDICTED BY IDOCK:   -7.45 KCAL/MOL
REMARK 924 INTRA-LIGAND FREE ENERGY PREDICTED BY IDOCK:   -1.00 KCAL/MOL
REMARK 927      BINDING AFFINITY PREDICTED BY RF-SCORE:    0.00 PKD
ROOT
HETATM    1  C   UNL     1      -9.819   4.068  65.439  1.00  0.00    -0.192 C  
HETATM    2  C   UNL     1      -9.631   5.289  66.284  1.00  0.00    -0.161 A  
HETATM    3  N   UNL     1      -9.121   6.378  65.683  1.00  0.00    -0.014 NA 
HETATM    4  C   UNL     1      -9.081   7.499  66.412  1.00  0.00    -0.173 A  
HETATM    5  C   UNL     1      -9.978   6.360  68.288  1.00  0.00    -0.140 A  
HETATM    6  C   UNL     1      -9.577   7.535  67.689  1.00  0.00    -0.171 A  
HETATM    7  N   UNL     1     -10.036   5.228  67.567  1.00  0.00    -0.159 NA 
ENDROOT
BRANCH   4   8
HETATM    8  N   UNL     1      -8.542   8.623  65.797  1.00  0.00    -0.153 NA 
HETATM    9  H   UNL     1      -7.593   8.524  65.436  1.00  0.00     0.000 HD 
BRANCH   8  10
HETATM   10  C   UNL     1      -9.120   9.829  65.617  1.00  0.00    -0.178 A  
HETATM   11  S   UNL     1      -8.723  11.068  66.733  1.00  0.00    -0.157 SA 
HETATM   12  N   UNL     1      -9.981  10.193  64.686  1.00  0.00    -0.305 NA 
HETATM   13  C   UNL     1     -10.476  11.454  64.954  1.00  0.00    -0.305 A  
HETATM   14  C   UNL     1      -9.951  12.061  66.074  1.00  0.00    -0.234 A  
BRANCH  14  15
HETATM   15  C   UNL     1     -10.346  13.294  66.711  1.00  0.00    -0.257 C  
HETATM   16  O   UNL     1     -11.318  13.369  67.456  1.00  0.00    -0.273 OA 
HETATM   17  H   UNL     1      -8.850  14.247  65.636  1.00  0.00     0.000 HD 
HETATM   18  N   UNL     1      -9.553  14.376  66.364  1.00  0.00    -0.290 N  
BRANCH  18  19
HETATM   19  C   UNL     1      -9.664  15.641  66.963  1.00  0.00    -0.227 A  
HETATM   20  C   UNL     1     -10.522  17.899  66.911  1.00  0.00    -0.334 A  
HETATM   21  C   UNL     1     -11.062  16.444  64.964  1.00  0.00    -0.216 C  
HETATM   22  C   UNL     1     -10.392  16.643  66.296  1.00  0.00    -0.323 A  
HETATM   23  C   UNL     1      -9.925  18.161  68.146  1.00  0.00    -0.368 A  
HETATM   24  C   UNL     1      -9.155  17.187  68.770  1.00  0.00    -0.244 A  
HETATM   25  C   UNL     1      -9.013  15.932  68.180  1.00  0.00    -0.181 A  
HETATM   26 CL   UNL     1      -7.866  14.848  68.901  1.00  0.00    -0.151 Cl 
ENDBRANCH  18  19
ENDBRANCH  14  15
ENDBRANCH   8  10
ENDBRANCH   4   8
BRANCH   5  27
HETATM   27  N   UNL     1     -10.366   6.384  69.633  1.00  0.00    -0.190 NA 
HETATM   28  C   UNL     1     -11.715   6.932  69.891  1.00  0.00    -0.145 C  
HETATM   29  C   UNL     1      -9.355   6.870  70.585  1.00  0.00    -0.162 C  
HETATM   30  N   UNL     1     -11.204   7.098  72.380  1.00  0.00    -0.260 NA 
HETATM   31  C   UNL     1     -12.138   6.612  71.338  1.00  0.00    -0.347 C  
HETATM   32  C   UNL     1      -9.839   6.596  72.036  1.00  0.00    -0.157 C  
BRANCH  30  33
HETATM   33  C   UNL     1     -11.195   8.573  72.506  1.00  0.00    -0.266 C  
BRANCH  33  34
HETATM   34  C   UNL     1     -12.538   9.231  72.141  1.00  0.00    -0.371 C  
HETATM   35  H   UNL     1     -13.160  10.781  71.092  1.00  0.00     0.000 HD 
HETATM   36  O   UNL     1     -12.331  10.375  71.317  1.00  0.00    -0.345 OA 
ENDBRANCH  33  34
ENDBRANCH  30  33
ENDBRANCH   5  27
TORSDOF 7
ENDMDL
MODEL      125
REMARK 921   NORMALIZED FREE ENERGY PREDICTED BY IDOCK:   -5.73 KCAL/MOL
REMARK 922        TOTAL FREE ENERGY PREDICTED BY IDOCK:   -8.45 KCAL/MOL
REMARK 923 INTER-LIGAND FREE ENERGY PREDICTED BY IDOCK:   -7.67 KCAL/MOL
REMARK 924 INTRA-LIGAND FREE ENERGY PREDICTED BY IDOCK:   -0.78 KCAL/MOL
REMARK 927      BINDING AFFINITY PREDICTED BY RF-SCORE:    0.00 PKD
ROOT
HETATM    1  C   UNL     1      -9.052  15.954  65.985  1.00  0.00    -0.363 C  
HETATM    2  C   UNL     1     -10.001  14.874  66.399  1.00  0.00    -0.275 A  
HETATM    3  N   UNL     1     -10.087  13.794  65.602  1.00  0.00    -0.308 NA 
HETATM    4  C   UNL     1     -10.837  12.781  66.048  1.00  0.00    -0.276 A  
HETATM    5  C   UNL     1     -11.417  14.010  67.991  1.00  0.00    -0.311 A  
HETATM    6  C   UNL     1     -11.447  12.833  67.275  1.00  0.00    -0.393 A  
HETATM    7  N   UNL     1     -10.659  15.034  67.564  1.00  0.00    -0.261 NA 
ENDROOT
BRANCH   4   8
HETATM    8  N   UNL     1     -10.938  11.669  65.220  1.00  0.00    -0.290 NA 
HETATM    9  H   UNL     1     -11.622  11.733  64.466  1.00  0.00     0.000 HD 
BRANCH   8  10
HETATM   10  C   UNL     1     -10.242  10.515  65.290  1.00  0.00    -0.282 A  
HETATM   11  S   UNL     1     -10.660   9.416  66.536  1.00  0.00     0.046 SA 
HETATM   12  N   UNL     1      -9.248  10.112  64.521  1.00  0.00    -0.234 NA 
HETATM   13  C   UNL     1      -8.682   8.960  65.031  1.00  0.00    -0.166 A  
HETATM   14  C   UNL     1      -9.282   8.470  66.170  1.00  0.00    -0.211 A  
BRANCH  14  15
HETATM   15  C   UNL     1      -8.861   7.388  67.027  1.00  0.00    -0.128 C  
HETATM   16  O   UNL     1      -9.295   7.241  68.165  1.00  0.00    -0.132 OA 
HETATM   17  H   UNL     1      -7.499   6.849  65.559  1.00  0.00     0.000 HD 
HETATM   18  N   UNL     1      -7.897   6.571  66.456  1.00  0.00    -0.102 N  
BRANCH  18  19
HETATM   19  C   UNL     1      -7.439   5.384  67.047  1.00  0.00    -0.088 A  
HETATM   20  C   UNL     1      -7.694   3.008  67.412  1.00  0.00    -0.073 A  
HETATM   21  C   UNL     1      -9.429   4.127  66.019  1.00  0.00    -0.182 C  
HETATM   22  C   UNL     1      -8.170   4.199  66.839  1.00  0.00    -0.101 A  
HETATM   23  C   UNL     1      -6.535   2.998  68.190  1.00  0.00    -0.036 A  
HETATM   24  C   UNL     1      -5.852   4.181  68.443  1.00  0.00    -0.026 A  
HETATM   25  C   UNL     1      -6.303   5.375  67.884  1.00  0.00    -0.039 A  
HETATM   26 CL   UNL     1      -5.534   6.835  68.418  1.00  0.00    -0.015 Cl 
ENDBRANCH  18  19
ENDBRANCH  14  15
ENDBRANCH   8  10
ENDBRANCH   4   8
BRANCH   5  27
HETATM   27  N   UNL     1     -12.145  14.095  69.184  1.00  0.00    -0.344 NA 
HETATM   28  C   UNL     1     -12.267  15.454  69.753  1.00  0.00    -0.306 C  
HETATM   29  C   UNL     1     -11.839  13.072  70.196  1.00  0.00    -0.252 C  
HETATM   30  N   UNL     1     -13.099  14.489  71.958  1.00  0.00    -0.324 NA 
HETATM   31  C   UNL     1     -13.336  15.458  70.863  1.00  0.00    -0.418 C  
HETATM   32  C   UNL     1     -12.893  13.146  71.337  1.00  0.00    -0.311 C  
BRANCH  30  33
HETATM   33  C   UNL     1     -11.941  14.849  72.806  1.00  0.00    -0.233 C  
BRANCH  33  34
HETATM   34  C   UNL     1     -12.337  15.396  74.189  1.00  0.00    -0.663 C  
HETATM   35  H   UNL     1     -13.571  16.752  74.919  1.00  0.00     0.000 HD 
HETATM   36  O   UNL     1     -13.326  16.414  74.065  1.00  0.00    -0.572 OA 
ENDBRANCH  33  34
ENDBRANCH  30  33
ENDBRANCH   5  27
TORSDOF 7
ENDMDL
MODEL      126
REMARK 921   NORMALIZED FREE ENERGY PREDICTED BY IDOCK:   -5.68 KCAL/MOL
REMARK 922        TOTAL FREE ENERGY PREDICTED BY IDOCK:   -8.38 KCAL/MOL
REMARK 923 INTER-LIGAND FREE ENERGY PREDICTED BY IDOCK:   -7.07 KCAL/MOL
REMARK 924 INTRA-LIGAND FREE ENERGY PREDICTED BY IDOCK:   -1.31 KCAL/MOL
REMARK 927      BINDING AFFINITY PREDICTED BY RF-SCORE:    0.00 PKD
ROOT
HETATM    1  C   UNL     1     -10.902  19.266  65.835  1.00  0.00    -0.364 C  
HETATM    2  C   UNL     1     -10.377  17.876  66.008  1.00  0.00    -0.318 A  
HETATM    3  N   UNL     1     -10.881  16.925  65.201  1.00  0.00    -0.597 NA 
HETATM    4  C   UNL     1     -10.312  15.716  65.275  1.00  0.00    -0.375 A  
HETATM    5  C   UNL     1      -8.851  16.462  66.987  1.00  0.00    -0.199 A  
HETATM    6  C   UNL     1      -9.244  15.482  66.102  1.00  0.00    -0.379 A  
HETATM    7  N   UNL     1      -9.403  17.685  66.919  1.00  0.00    -0.256 NA 
ENDROOT
BRANCH   4   8
HETATM    8  N   UNL     1     -10.840  14.729  64.451  1.00  0.00    -0.592 NA 
HETATM    9  H   UNL     1     -11.509  15.044  63.749  1.00  0.00     0.000 HD 
BRANCH   8  10
HETATM   10  C   UNL     1     -10.575  13.406  64.466  1.00  0.00    -0.425 A  
HETATM   11  S   UNL     1     -10.872  12.559  65.925  1.00  0.00    -0.279 SA 
HETATM   12  N   UNL     1     -10.093  12.657  63.492  1.00  0.00    -0.324 NA 
HETATM   13  C   UNL     1      -9.792  11.393  63.960  1.00  0.00    -0.278 A  
HETATM   14  C   UNL     1     -10.089  11.177  65.288  1.00  0.00    -0.276 A  
BRANCH  14  15
HETATM   15  C   UNL     1      -9.773  10.039  66.117  1.00  0.00    -0.227 C  
HETATM   16  O   UNL     1     -10.483   9.039  66.162  1.00  0.00    -0.118 OA 
HETATM   17  H   UNL     1      -8.177  11.124  66.877  1.00  0.00     0.000 HD 
HETATM   18  N   UNL     1      -8.628  10.209  66.879  1.00  0.00    -0.126 N  
BRANCH  18  19
HETATM   19  C   UNL     1      -8.054   9.188  67.653  1.00  0.00    -0.104 A  
HETATM   20  C   UNL     1      -7.885   8.021  69.762  1.00  0.00    -0.106 A  
HETATM   21  C   UNL     1      -9.440   9.964  69.671  1.00  0.00    -0.252 C  
HETATM   22  C   UNL     1      -8.442   9.061  69.000  1.00  0.00    -0.132 A  
HETATM   23  C   UNL     1      -6.948   7.146  69.209  1.00  0.00    -0.070 A  
HETATM   24  C   UNL     1      -6.523   7.314  67.898  1.00  0.00    -0.049 A  
HETATM   25  C   UNL     1      -7.064   8.337  67.120  1.00  0.00    -0.079 A  
HETATM   26 CL   UNL     1      -6.329   8.623  65.574  1.00  0.00    -0.055 Cl 
ENDBRANCH  18  19
ENDBRANCH  14  15
ENDBRANCH   8  10
ENDBRANCH   4   8
BRANCH   5  27
HETATM   27  N   UNL     1      -7.841  16.173  67.913  1.00  0.00    -0.139 NA 
HETATM   28  C   UNL     1      -6.468  16.154  67.364  1.00  0.00    -0.182 C  
HETATM   29  C   UNL     1      -8.111  15.054  68.828  1.00  0.00    -0.166 C  
HETATM   30  N   UNL     1      -5.607  15.026  69.478  1.00  0.00    -0.096 NA 
HETATM   31  C   UNL     1      -5.448  16.144  68.519  1.00  0.00    -0.102 C  
HETATM   32  C   UNL     1      -7.027  15.026  69.942  1.00  0.00    -0.149 C  
BRANCH  30  33
HETATM   33  C   UNL     1      -5.253  13.712  68.898  1.00  0.00    -0.071 C  
BRANCH  33  34
HETATM   34  C   UNL     1      -5.354  12.548  69.900  1.00  0.00    -0.091 C  
HETATM   35  H   UNL     1      -6.393  10.882  70.095  1.00  0.00     0.000 HD 
HETATM   36  O   UNL     1      -6.330  11.601  69.476  1.00  0.00    -0.097 OA 
ENDBRANCH  33  34
ENDBRANCH  30  33
ENDBRANCH   5  27
TORSDOF 7
ENDMDL
MODEL      127
REMARK 921   NORMALIZED FREE ENERGY PREDICTED BY IDOCK:   -5.67 KCAL/MOL
REMARK 922        TOTAL FREE ENERGY PREDICTED BY IDOCK:   -8.37 KCAL/MOL
REMARK 923 INTER-LIGAND FREE ENERGY PREDICTED BY IDOCK:   -7.68 KCAL/MOL
REMARK 924 INTRA-LIGAND FREE ENERGY PREDICTED BY IDOCK:   -0.69 KCAL/MOL
REMARK 927      BINDING AFFINITY PREDICTED BY RF-SCORE:    0.00 PKD
ROOT
HETATM    1  C   UNL     1      -8.076   4.882  66.644  1.00  0.00    -0.107 C  
HETATM    2  C   UNL     1      -8.531   6.288  66.883  1.00  0.00    -0.109 A  
HETATM    3  N   UNL     1      -8.674   7.078  65.805  1.00  0.00    -0.133 NA 
HETATM    4  C   UNL     1      -9.206   8.287  66.017  1.00  0.00    -0.166 A  
HETATM    5  C   UNL     1      -9.338   7.867  68.346  1.00  0.00    -0.140 A  
HETATM    6  C   UNL     1      -9.619   8.674  67.265  1.00  0.00    -0.216 A  
HETATM    7  N   UNL     1      -8.816   6.644  68.151  1.00  0.00    -0.120 NA 
ENDROOT
BRANCH   4   8
HETATM    8  N   UNL     1      -9.343   9.110  64.905  1.00  0.00    -0.446 NA 
HETATM    9  H   UNL     1      -9.053   8.709  64.013  1.00  0.00     0.000 HD 
BRANCH   8  10
HETATM   10  C   UNL     1      -9.812  10.374  64.861  1.00  0.00    -0.334 A  
HETATM   11  S   UNL     1      -9.091  11.521  65.911  1.00  0.00    -0.134 SA 
HETATM   12  N   UNL     1     -10.784  10.860  64.112  1.00  0.00    -0.288 NA 
HETATM   13  C   UNL     1     -11.085  12.153  64.493  1.00  0.00    -0.325 A  
HETATM   14  C   UNL     1     -10.305  12.658  65.510  1.00  0.00    -0.286 A  
BRANCH  14  15
HETATM   15  C   UNL     1     -10.446  13.898  66.235  1.00  0.00    -0.287 C  
HETATM   16  O   UNL     1     -11.409  14.133  66.957  1.00  0.00    -0.306 OA 
HETATM   17  H   UNL     1      -8.731  14.569  65.281  1.00  0.00     0.000 HD 
HETATM   18  N   UNL     1      -9.419  14.798  65.998  1.00  0.00    -0.291 N  
BRANCH  18  19
HETATM   19  C   UNL     1      -9.274  16.008  66.695  1.00  0.00    -0.249 A  
HETATM   20  C   UNL     1      -8.399  17.227  68.589  1.00  0.00    -0.255 A  
HETATM   21  C   UNL     1      -7.946  14.779  68.517  1.00  0.00    -0.136 C  
HETATM   22  C   UNL     1      -8.563  16.009  67.909  1.00  0.00    -0.165 A  
HETATM   23  C   UNL     1      -8.947  18.409  68.088  1.00  0.00    -0.325 A  
HETATM   24  C   UNL     1      -9.700  18.391  66.922  1.00  0.00    -0.324 A  
HETATM   25  C   UNL     1      -9.875  17.196  66.227  1.00  0.00    -0.291 A  
HETATM   26 CL   UNL     1     -11.003  17.207  64.909  1.00  0.00    -0.061 Cl 
ENDBRANCH  18  19
ENDBRANCH  14  15
ENDBRANCH   8  10
ENDBRANCH   4   8
BRANCH   5  27
HETATM   27  N   UNL     1      -9.652   8.324  69.632  1.00  0.00    -0.167 NA 
HETATM   28  C   UNL     1      -8.882   7.700  70.729  1.00  0.00    -0.144 C  
HETATM   29  C   UNL     1     -11.086   8.452  69.935  1.00  0.00    -0.108 C  
HETATM   30  N   UNL     1     -10.501   8.653  72.448  1.00  0.00    -0.298 NA 
HETATM   31  C   UNL     1      -9.088   8.501  72.029  1.00  0.00    -0.247 C  
HETATM   32  C   UNL     1     -11.262   9.203  71.285  1.00  0.00    -0.337 C  
BRANCH  30  33
HETATM   33  C   UNL     1     -11.107   7.383  72.908  1.00  0.00    -0.349 C  
BRANCH  33  34
HETATM   34  C   UNL     1     -10.260   6.639  73.955  1.00  0.00    -0.369 C  
HETATM   35  H   UNL     1      -9.619   4.800  74.268  1.00  0.00     0.000 HD 
HETATM   36  O   UNL     1     -10.142   5.259  73.621  1.00  0.00    -0.167 OA 
ENDBRANCH  33  34
ENDBRANCH  30  33
ENDBRANCH   5  27
TORSDOF 7
ENDMDL
MODEL      128
REMARK 921   NORMALIZED FREE ENERGY PREDICTED BY IDOCK:   -5.66 KCAL/MOL
REMARK 922        TOTAL FREE ENERGY PREDICTED BY IDOCK:   -8.35 KCAL/MOL
REMARK 923 INTER-LIGAND FREE ENERGY PREDICTED BY IDOCK:   -7.47 KCAL/MOL
REMARK 924 INTRA-LIGAND FREE ENERGY PREDICTED BY IDOCK:   -0.89 KCAL/MOL
REMARK 927      BINDING AFFINITY PREDICTED BY RF-SCORE:    0.00 PKD
ROOT
HETATM    1  C   UNL     1      -5.843  13.455  67.602  1.00  0.00    -0.092 C  
HETATM    2  C   UNL     1      -7.281  13.040  67.590  1.00  0.00    -0.151 A  
HETATM    3  N   UNL     1      -7.569  11.843  67.049  1.00  0.00    -0.151 NA 
HETATM    4  C   UNL     1      -8.835  11.426  67.162  1.00  0.00    -0.156 A  
HETATM    5  C   UNL     1      -9.444  13.437  68.261  1.00  0.00    -0.209 A  
HETATM    6  C   UNL     1      -9.772  12.168  67.833  1.00  0.00    -0.200 A  
HETATM    7  N   UNL     1      -8.175  13.867  68.167  1.00  0.00    -0.148 NA 
ENDROOT
BRANCH   4   8
HETATM    8  N   UNL     1      -9.138  10.194  66.592  1.00  0.00    -0.143 NA 
HETATM    9  H   UNL     1      -9.621  10.224  65.694  1.00  0.00     0.000 HD 
BRANCH   8  10
HETATM   10  C   UNL     1      -8.870   8.966  67.080  1.00  0.00    -0.126 A  
HETATM   11  S   UNL     1      -9.708   8.479  68.493  1.00  0.00    -0.168 SA 
HETATM   12  N   UNL     1      -8.020   8.069  66.617  1.00  0.00    -0.101 NA 
HETATM   13  C   UNL     1      -7.903   7.015  67.502  1.00  0.00    -0.112 A  
HETATM   14  C   UNL     1      -8.703   7.100  68.620  1.00  0.00    -0.127 A  
BRANCH  14  15
HETATM   15  C   UNL     1      -8.720   6.259  69.793  1.00  0.00    -0.137 C  
HETATM   16  O   UNL     1      -7.723   6.068  70.481  1.00  0.00    -0.096 OA 
HETATM   17  H   UNL     1     -10.683   5.775  69.331  1.00  0.00     0.000 HD 
HETATM   18  N   UNL     1      -9.950   5.664  70.031  1.00  0.00    -0.188 N  
BRANCH  18  19
HETATM   19  C   UNL     1     -10.239   4.918  71.183  1.00  0.00    -0.191 A  
HETATM   20  C   UNL     1     -11.168   4.807  73.411  1.00  0.00    -0.425 A  
HETATM   21  C   UNL     1     -11.229   7.022  72.274  1.00  0.00    -0.299 C  
HETATM   22  C   UNL     1     -10.858   5.564  72.270  1.00  0.00    -0.297 A  
HETATM   23  C   UNL     1     -10.851   3.449  73.482  1.00  0.00    -0.321 A  
HETATM   24  C   UNL     1     -10.184   2.832  72.432  1.00  0.00    -0.209 A  
HETATM   25  C   UNL     1      -9.867   3.561  71.287  1.00  0.00    -0.135 A  
HETATM   26 CL   UNL     1      -8.847   2.787  70.117  1.00  0.00    -0.135 Cl 
ENDBRANCH  18  19
ENDBRANCH  14  15
ENDBRANCH   8  10
ENDBRANCH   4   8
BRANCH   5  27
HETATM   27  N   UNL     1     -10.440  14.236  68.835  1.00  0.00    -0.246 NA 
HETATM   28  C   UNL     1      -9.950  15.396  69.610  1.00  0.00    -0.264 C  
HETATM   29  C   UNL     1     -11.534  13.516  69.505  1.00  0.00    -0.255 C  
HETATM   30  N   UNL     1     -12.261  15.733  70.624  1.00  0.00    -0.401 NA 
HETATM   31  C   UNL     1     -11.120  16.352  69.910  1.00  0.00    -0.310 C  
HETATM   32  C   UNL     1     -12.670  14.517  69.858  1.00  0.00    -0.075 C  
BRANCH  30  33
HETATM   33  C   UNL     1     -11.941  15.376  72.025  1.00  0.00    -0.420 C  
BRANCH  33  34
HETATM   34  C   UNL     1     -13.184  15.204  72.916  1.00  0.00    -0.499 C  
HETATM   35  H   UNL     1     -14.388  13.742  73.467  1.00  0.00     0.000 HD 
HETATM   36  O   UNL     1     -13.621  13.848  72.916  1.00  0.00    -0.680 OA 
ENDBRANCH  33  34
ENDBRANCH  30  33
ENDBRANCH   5  27
TORSDOF 7
ENDMDL
MODEL      129
REMARK 921   NORMALIZED FREE ENERGY PREDICTED BY IDOCK:   -5.66 KCAL/MOL
REMARK 922        TOTAL FREE ENERGY PREDICTED BY IDOCK:   -8.35 KCAL/MOL
REMARK 923 INTER-LIGAND FREE ENERGY PREDICTED BY IDOCK:   -7.50 KCAL/MOL
REMARK 924 INTRA-LIGAND FREE ENERGY PREDICTED BY IDOCK:   -0.85 KCAL/MOL
REMARK 927      BINDING AFFINITY PREDICTED BY RF-SCORE:    0.00 PKD
ROOT
HETATM    1  C   UNL     1     -13.399   9.803  72.123  1.00  0.00    -0.527 C  
HETATM    2  C   UNL     1     -12.415   8.942  71.396  1.00  0.00    -0.304 A  
HETATM    3  N   UNL     1     -11.775   9.492  70.350  1.00  0.00    -0.216 NA 
HETATM    4  C   UNL     1     -10.805   8.759  69.791  1.00  0.00    -0.193 A  
HETATM    5  C   UNL     1     -11.233   6.973  71.290  1.00  0.00    -0.264 A  
HETATM    6  C   UNL     1     -10.462   7.531  70.293  1.00  0.00    -0.227 A  
HETATM    7  N   UNL     1     -12.202   7.699  71.871  1.00  0.00    -0.296 NA 
ENDROOT
BRANCH   4   8
HETATM    8  N   UNL     1     -10.150   9.322  68.701  1.00  0.00    -0.182 NA 
HETATM    9  H   UNL     1     -10.185   8.786  67.834  1.00  0.00     0.000 HD 
BRANCH   8  10
HETATM   10  C   UNL     1      -9.474  10.488  68.650  1.00  0.00    -0.172 A  
HETATM   11  S   UNL     1     -10.389  11.921  68.437  1.00  0.00    -0.211 SA 
HETATM   12  N   UNL     1      -8.171  10.682  68.728  1.00  0.00    -0.133 NA 
HETATM   13  C   UNL     1      -7.863  11.999  68.449  1.00  0.00    -0.147 A  
HETATM   14  C   UNL     1      -8.947  12.811  68.198  1.00  0.00    -0.199 A  
BRANCH  14  15
HETATM   15  C   UNL     1      -8.973  14.179  67.737  1.00  0.00    -0.187 C  
HETATM   16  O   UNL     1      -9.024  14.472  66.547  1.00  0.00    -0.246 OA 
HETATM   17  H   UNL     1      -8.716  14.774  69.707  1.00  0.00     0.000 HD 
HETATM   18  N   UNL     1      -8.890  15.110  68.760  1.00  0.00    -0.185 N  
BRANCH  18  19
HETATM   19  C   UNL     1      -9.034  16.492  68.563  1.00  0.00    -0.231 A  
HETATM   20  C   UNL     1      -8.035  18.688  68.412  1.00  0.00    -0.351 A  
HETATM   21  C   UNL     1      -6.508  16.788  68.923  1.00  0.00    -0.178 C  
HETATM   22  C   UNL     1      -7.890  17.309  68.636  1.00  0.00    -0.272 A  
HETATM   23  C   UNL     1      -9.287  19.245  68.145  1.00  0.00    -0.400 A  
HETATM   24  C   UNL     1     -10.421  18.443  68.135  1.00  0.00    -0.355 A  
HETATM   25  C   UNL     1     -10.303  17.072  68.352  1.00  0.00    -0.351 A  
HETATM   26 CL   UNL     1     -11.775  16.174  68.542  1.00  0.00    -0.281 Cl 
ENDBRANCH  18  19
ENDBRANCH  14  15
ENDBRANCH   8  10
ENDBRANCH   4   8
BRANCH   5  27
HETATM   27  N   UNL     1     -10.952   5.668  71.712  1.00  0.00    -0.249 NA 
HETATM   28  C   UNL     1     -11.196   5.402  73.146  1.00  0.00    -0.297 C  
HETATM   29  C   UNL     1      -9.688   5.094  71.227  1.00  0.00    -0.169 C  
HETATM   30  N   UNL     1      -9.904   3.214  72.991  1.00  0.00    -0.116 NA 
HETATM   31  C   UNL     1     -11.157   3.884  73.407  1.00  0.00    -0.232 C  
HETATM   32  C   UNL     1      -9.647   3.577  71.565  1.00  0.00    -0.162 C  
BRANCH  30  33
HETATM   33  C   UNL     1      -8.744   3.582  73.835  1.00  0.00    -0.088 C  
BRANCH  33  34
HETATM   34  C   UNL     1      -7.408   3.010  73.329  1.00  0.00    -0.046 C  
HETATM   35  H   UNL     1      -5.652   3.704  72.756  1.00  0.00     0.000 HD 
HETATM   36  O   UNL     1      -6.478   4.057  73.068  1.00  0.00    -0.032 OA 
ENDBRANCH  33  34
ENDBRANCH  30  33
ENDBRANCH   5  27
TORSDOF 7
ENDMDL
MODEL      130
REMARK 921   NORMALIZED FREE ENERGY PREDICTED BY IDOCK:   -5.65 KCAL/MOL
REMARK 922        TOTAL FREE ENERGY PREDICTED BY IDOCK:   -8.34 KCAL/MOL
REMARK 923 INTER-LIGAND FREE ENERGY PREDICTED BY IDOCK:   -7.48 KCAL/MOL
REMARK 924 INTRA-LIGAND FREE ENERGY PREDICTED BY IDOCK:   -0.87 KCAL/MOL
REMARK 927      BINDING AFFINITY PREDICTED BY RF-SCORE:    0.00 PKD
ROOT
HETATM    1  C   UNL     1     -10.061  16.534  65.946  1.00  0.00    -0.359 C  
HETATM    2  C   UNL     1     -10.172  15.320  66.812  1.00  0.00    -0.272 A  
HETATM    3  N   UNL     1      -9.256  14.352  66.631  1.00  0.00    -0.266 NA 
HETATM    4  C   UNL     1      -9.285  13.333  67.498  1.00  0.00    -0.213 A  
HETATM    5  C   UNL     1     -11.165  14.268  68.599  1.00  0.00    -0.264 A  
HETATM    6  C   UNL     1     -10.178  13.308  68.537  1.00  0.00    -0.222 A  
HETATM    7  N   UNL     1     -11.144  15.305  67.745  1.00  0.00    -0.310 NA 
ENDROOT
BRANCH   4   8
HETATM    8  N   UNL     1      -8.348  12.324  67.304  1.00  0.00    -0.175 NA 
HETATM    9  H   UNL     1      -7.961  12.248  66.364  1.00  0.00     0.000 HD 
BRANCH   8  10
HETATM   10  C   UNL     1      -7.886  11.436  68.208  1.00  0.00    -0.132 A  
HETATM   11  S   UNL     1      -8.737   9.957  68.365  1.00  0.00    -0.122 SA 
HETATM   12  N   UNL     1      -6.852  11.555  69.019  1.00  0.00    -0.099 NA 
HETATM   13  C   UNL     1      -6.821  10.507  69.917  1.00  0.00    -0.149 A  
HETATM   14  C   UNL     1      -7.816   9.569  69.753  1.00  0.00    -0.128 A  
BRANCH  14  15
HETATM   15  C   UNL     1      -8.155   8.446  70.595  1.00  0.00    -0.114 C  
HETATM   16  O   UNL     1      -8.438   8.574  71.782  1.00  0.00    -0.153 OA 
HETATM   17  H   UNL     1      -7.714   7.203  68.995  1.00  0.00     0.000 HD 
HETATM   18  N   UNL     1      -8.087   7.224  69.944  1.00  0.00    -0.125 N  
BRANCH  18  19
HETATM   19  C   UNL     1      -8.504   6.015  70.521  1.00  0.00    -0.132 A  
HETATM   20  C   UNL     1      -8.059   4.147  71.988  1.00  0.00    -0.086 A  
HETATM   21  C   UNL     1      -6.252   5.843  71.744  1.00  0.00    -0.044 C  
HETATM   22  C   UNL     1      -7.627   5.343  71.393  1.00  0.00    -0.102 A  
HETATM   23  C   UNL     1      -9.321   3.619  71.707  1.00  0.00    -0.195 A  
HETATM   24  C   UNL     1     -10.158   4.253  70.798  1.00  0.00    -0.154 A  
HETATM   25  C   UNL     1      -9.752   5.443  70.197  1.00  0.00    -0.188 A  
HETATM   26 CL   UNL     1     -10.749   6.058  68.916  1.00  0.00    -0.353 Cl 
ENDBRANCH  18  19
ENDBRANCH  14  15
ENDBRANCH   8  10
ENDBRANCH   4   8
BRANCH   5  27
HETATM   27  N   UNL     1     -12.148  14.166  69.591  1.00  0.00    -0.334 NA 
HETATM   28  C   UNL     1     -12.598  15.450  70.168  1.00  0.00    -0.293 C  
HETATM   29  C   UNL     1     -11.929  13.123  70.606  1.00  0.00    -0.162 C  
HETATM   30  N   UNL     1     -13.751  14.223  72.078  1.00  0.00    -0.408 NA 
HETATM   31  C   UNL     1     -13.878  15.228  70.997  1.00  0.00    -0.335 C  
HETATM   32  C   UNL     1     -13.212  12.969  71.470  1.00  0.00    -0.272 C  
BRANCH  30  33
HETATM   33  C   UNL     1     -12.882  14.674  73.187  1.00  0.00    -0.481 C  
BRANCH  33  34
HETATM   34  C   UNL     1     -13.182  16.107  73.662  1.00  0.00    -0.349 C  
HETATM   35  H   UNL     1     -12.266  17.521  74.688  1.00  0.00     0.000 HD 
HETATM   36  O   UNL     1     -12.081  16.637  74.395  1.00  0.00    -0.488 OA 
ENDBRANCH  33  34
ENDBRANCH  30  33
ENDBRANCH   5  27
TORSDOF 7
ENDMDL
MODEL      131
REMARK 921   NORMALIZED FREE ENERGY PREDICTED BY IDOCK:   -5.63 KCAL/MOL
REMARK 922        TOTAL FREE ENERGY PREDICTED BY IDOCK:   -8.31 KCAL/MOL
REMARK 923 INTER-LIGAND FREE ENERGY PREDICTED BY IDOCK:   -7.36 KCAL/MOL
REMARK 924 INTRA-LIGAND FREE ENERGY PREDICTED BY IDOCK:   -0.95 KCAL/MOL
REMARK 927      BINDING AFFINITY PREDICTED BY RF-SCORE:    0.00 PKD
ROOT
HETATM    1  C   UNL     1     -13.286  10.497  72.045  1.00  0.00    -0.483 C  
HETATM    2  C   UNL     1     -12.361   9.945  71.007  1.00  0.00    -0.357 A  
HETATM    3  N   UNL     1     -11.988  10.773  70.015  1.00  0.00    -0.319 NA 
HETATM    4  C   UNL     1     -11.061  10.312  69.169  1.00  0.00    -0.235 A  
HETATM    5  C   UNL     1     -11.002   8.230  70.301  1.00  0.00    -0.232 A  
HETATM    6  C   UNL     1     -10.495   9.076  69.338  1.00  0.00    -0.229 A  
HETATM    7  N   UNL     1     -11.925   8.681  71.167  1.00  0.00    -0.290 NA 
ENDROOT
BRANCH   4   8
HETATM    8  N   UNL     1     -10.684  11.162  68.135  1.00  0.00    -0.190 NA 
HETATM    9  H   UNL     1     -11.265  11.132  67.297  1.00  0.00     0.000 HD 
BRANCH   8  10
HETATM   10  C   UNL     1      -9.644  12.022  68.104  1.00  0.00    -0.200 A  
HETATM   11  S   UNL     1     -10.006  13.697  68.101  1.00  0.00    -0.250 SA 
HETATM   12  N   UNL     1      -8.355  11.744  68.059  1.00  0.00    -0.146 NA 
HETATM   13  C   UNL     1      -7.622  12.896  67.852  1.00  0.00    -0.138 A  
HETATM   14  C   UNL     1      -8.364  14.055  67.781  1.00  0.00    -0.176 A  
BRANCH  14  15
HETATM   15  C   UNL     1      -7.936  15.389  67.433  1.00  0.00    -0.188 C  
HETATM   16  O   UNL     1      -7.035  15.603  66.629  1.00  0.00    -0.135 OA 
HETATM   17  H   UNL     1      -9.248  16.108  68.870  1.00  0.00     0.000 HD 
HETATM   18  N   UNL     1      -8.609  16.385  68.124  1.00  0.00    -0.188 N  
BRANCH  18  19
HETATM   19  C   UNL     1      -8.458  17.753  67.853  1.00  0.00    -0.245 A  
HETATM   20  C   UNL     1      -9.149  19.721  66.632  1.00  0.00    -0.452 A  
HETATM   21  C   UNL     1     -10.332  17.594  66.103  1.00  0.00    -0.334 C  
HETATM   22  C   UNL     1      -9.286  18.346  66.882  1.00  0.00    -0.290 A  
HETATM   23  C   UNL     1      -8.197  20.484  67.312  1.00  0.00    -0.360 A  
HETATM   24  C   UNL     1      -7.341  19.881  68.225  1.00  0.00    -0.327 A  
HETATM   25  C   UNL     1      -7.459  18.518  68.492  1.00  0.00    -0.297 A  
HETATM   26 CL   UNL     1      -6.221  17.796  69.470  1.00  0.00    -0.246 Cl 
ENDBRANCH  18  19
ENDBRANCH  14  15
ENDBRANCH   8  10
ENDBRANCH   4   8
BRANCH   5  27
HETATM   27  N   UNL     1     -10.503   6.925  70.387  1.00  0.00    -0.202 NA 
HETATM   28  C   UNL     1      -9.592   6.671  71.523  1.00  0.00    -0.164 C  
HETATM   29  C   UNL     1     -10.030   6.335  69.125  1.00  0.00    -0.150 C  
HETATM   30  N   UNL     1      -8.856   4.468  70.480  1.00  0.00    -0.096 NA 
HETATM   31  C   UNL     1      -9.375   5.154  71.686  1.00  0.00    -0.147 C  
HETATM   32  C   UNL     1      -9.753   4.820  69.337  1.00  0.00    -0.196 C  
BRANCH  30  33
HETATM   33  C   UNL     1      -7.456   4.828  70.167  1.00  0.00    -0.054 C  
BRANCH  33  34
HETATM   34  C   UNL     1      -6.498   3.624  70.150  1.00  0.00    -0.032 C  
HETATM   35  H   UNL     1      -5.679   2.398  71.461  1.00  0.00     0.000 HD 
HETATM   36  O   UNL     1      -6.271   3.142  71.471  1.00  0.00    -0.014 OA 
ENDBRANCH  33  34
ENDBRANCH  30  33
ENDBRANCH   5  27
TORSDOF 7
ENDMDL
MODEL      132
REMARK 921   NORMALIZED FREE ENERGY PREDICTED BY IDOCK:   -5.62 KCAL/MOL
REMARK 922        TOTAL FREE ENERGY PREDICTED BY IDOCK:   -8.30 KCAL/MOL
REMARK 923 INTER-LIGAND FREE ENERGY PREDICTED BY IDOCK:   -7.22 KCAL/MOL
REMARK 924 INTRA-LIGAND FREE ENERGY PREDICTED BY IDOCK:   -1.08 KCAL/MOL
REMARK 927      BINDING AFFINITY PREDICTED BY RF-SCORE:    0.00 PKD
ROOT
HETATM    1  C   UNL     1     -12.640  12.217  63.321  1.00  0.00    -0.492 C  
HETATM    2  C   UNL     1     -11.942  12.151  64.643  1.00  0.00    -0.323 A  
HETATM    3  N   UNL     1     -12.415  12.937  65.626  1.00  0.00    -0.574 NA 
HETATM    4  C   UNL     1     -11.868  12.774  66.836  1.00  0.00    -0.371 A  
HETATM    5  C   UNL     1     -10.383  11.131  65.990  1.00  0.00    -0.254 A  
HETATM    6  C   UNL     1     -10.908  11.822  67.061  1.00  0.00    -0.306 A  
HETATM    7  N   UNL     1     -10.927  11.273  64.771  1.00  0.00    -0.243 NA 
ENDROOT
BRANCH   4   8
HETATM    8  N   UNL     1     -12.347  13.595  67.851  1.00  0.00    -0.335 NA 
HETATM    9  H   UNL     1     -13.238  13.321  68.264  1.00  0.00     0.000 HD 
BRANCH   8  10
HETATM   10  C   UNL     1     -11.778  14.708  68.357  1.00  0.00    -0.320 A  
HETATM   11  S   UNL     1     -10.653  15.538  67.366  1.00  0.00    -0.295 SA 
HETATM   12  N   UNL     1     -11.960  15.253  69.544  1.00  0.00    -0.332 NA 
HETATM   13  C   UNL     1     -11.057  16.279  69.748  1.00  0.00    -0.337 A  
HETATM   14  C   UNL     1     -10.216  16.533  68.687  1.00  0.00    -0.264 A  
BRANCH  14  15
HETATM   15  C   UNL     1      -9.079  17.421  68.620  1.00  0.00    -0.261 C  
HETATM   16  O   UNL     1      -8.334  17.610  69.576  1.00  0.00     0.320 OA 
HETATM   17  H   UNL     1      -9.688  17.943  66.708  1.00  0.00     0.000 HD 
HETATM   18  N   UNL     1      -8.946  18.060  67.397  1.00  0.00    -0.244 N  
BRANCH  18  19
HETATM   19  C   UNL     1      -7.844  18.859  67.058  1.00  0.00    -0.243 A  
HETATM   20  C   UNL     1      -6.871  21.054  66.784  1.00  0.00    -0.326 A  
HETATM   21  C   UNL     1      -9.259  20.960  67.485  1.00  0.00    -0.248 C  
HETATM   22  C   UNL     1      -7.984  20.259  67.100  1.00  0.00    -0.378 A  
HETATM   23  C   UNL     1      -5.656  20.475  66.413  1.00  0.00    -0.202 A  
HETATM   24  C   UNL     1      -5.541  19.094  66.313  1.00  0.00    -0.173 A  
HETATM   25  C   UNL     1      -6.631  18.284  66.624  1.00  0.00    -0.193 A  
HETATM   26 CL   UNL     1      -6.482  16.592  66.266  1.00  0.00     0.176 Cl 
ENDBRANCH  18  19
ENDBRANCH  14  15
ENDBRANCH   8  10
ENDBRANCH   4   8
BRANCH   5  27
HETATM   27  N   UNL     1      -9.317  10.250  66.210  1.00  0.00    -0.162 NA 
HETATM   28  C   UNL     1      -8.010  10.893  66.465  1.00  0.00    -0.152 C  
HETATM   29  C   UNL     1      -9.227   9.108  65.288  1.00  0.00    -0.179 C  
HETATM   30  N   UNL     1      -6.816   8.670  66.119  1.00  0.00    -0.072 NA 
HETATM   31  C   UNL     1      -7.012   9.846  66.998  1.00  0.00    -0.088 C  
HETATM   32  C   UNL     1      -8.164   8.103  65.814  1.00  0.00    -0.126 C  
BRANCH  30  33
HETATM   33  C   UNL     1      -6.099   8.998  64.866  1.00  0.00    -0.065 C  
BRANCH  33  34
HETATM   34  C   UNL     1      -6.244   7.924  63.773  1.00  0.00    -0.062 C  
HETATM   35  H   UNL     1      -6.873   7.824  61.906  1.00  0.00     0.000 HD 
HETATM   36  O   UNL     1      -6.784   8.487  62.581  1.00  0.00    -0.091 OA 
ENDBRANCH  33  34
ENDBRANCH  30  33
ENDBRANCH   5  27
TORSDOF 7
ENDMDL
MODEL      133
REMARK 921   NORMALIZED FREE ENERGY PREDICTED BY IDOCK:   -5.61 KCAL/MOL
REMARK 922        TOTAL FREE ENERGY PREDICTED BY IDOCK:   -8.29 KCAL/MOL
REMARK 923 INTER-LIGAND FREE ENERGY PREDICTED BY IDOCK:   -7.40 KCAL/MOL
REMARK 924 INTRA-LIGAND FREE ENERGY PREDICTED BY IDOCK:   -0.89 KCAL/MOL
REMARK 927      BINDING AFFINITY PREDICTED BY RF-SCORE:    0.00 PKD
ROOT
HETATM    1  C   UNL     1      -7.309   7.799  64.826  1.00  0.00    -0.075 C  
HETATM    2  C   UNL     1      -8.388   8.047  65.832  1.00  0.00    -0.134 A  
HETATM    3  N   UNL     1      -9.148   9.143  65.659  1.00  0.00    -0.205 NA 
HETATM    4  C   UNL     1     -10.190   9.284  66.485  1.00  0.00    -0.246 A  
HETATM    5  C   UNL     1      -9.602   7.295  67.634  1.00  0.00    -0.135 A  
HETATM    6  C   UNL     1     -10.484   8.334  67.428  1.00  0.00    -0.353 A  
HETATM    7  N   UNL     1      -8.557   7.131  66.806  1.00  0.00    -0.120 NA 
ENDROOT
BRANCH   4   8
HETATM    8  N   UNL     1     -10.969  10.423  66.316  1.00  0.00     0.049 NA 
HETATM    9  H   UNL     1     -11.932  10.359  66.645  1.00  0.00     0.000 HD 
BRANCH   8  10
HETATM   10  C   UNL     1     -10.608  11.603  65.770  1.00  0.00    -0.271 A  
HETATM   11  S   UNL     1     -10.104  12.845  66.837  1.00  0.00    -0.245 SA 
HETATM   12  N   UNL     1     -10.602  11.947  64.496  1.00  0.00    -0.292 NA 
HETATM   13  C   UNL     1     -10.344  13.297  64.363  1.00  0.00    -0.351 A  
HETATM   14  C   UNL     1     -10.113  13.966  65.545  1.00  0.00    -0.298 A  
BRANCH  14  15
HETATM   15  C   UNL     1      -9.960  15.382  65.774  1.00  0.00    -0.362 C  
HETATM   16  O   UNL     1     -10.322  16.224  64.959  1.00  0.00    -0.593 OA 
HETATM   17  H   UNL     1      -8.944  14.919  67.522  1.00  0.00     0.000 HD 
HETATM   18  N   UNL     1      -9.330  15.686  66.971  1.00  0.00    -0.219 N  
BRANCH  18  19
HETATM   19  C   UNL     1      -9.197  16.992  67.466  1.00  0.00    -0.231 A  
HETATM   20  C   UNL     1     -10.028  18.787  68.854  1.00  0.00    -0.423 A  
HETATM   21  C   UNL     1     -11.384  16.699  68.781  1.00  0.00    -0.139 C  
HETATM   22  C   UNL     1     -10.180  17.488  68.342  1.00  0.00    -0.372 A  
HETATM   23  C   UNL     1      -8.940  19.581  68.489  1.00  0.00    -0.395 A  
HETATM   24  C   UNL     1      -8.005  19.110  67.576  1.00  0.00    -0.284 A  
HETATM   25  C   UNL     1      -8.133  17.823  67.055  1.00  0.00    -0.219 A  
HETATM   26 CL   UNL     1      -7.060  17.386  65.764  1.00  0.00    -0.146 Cl 
ENDBRANCH  18  19
ENDBRANCH  14  15
ENDBRANCH   8  10
ENDBRANCH   4   8
BRANCH   5  27
HETATM   27  N   UNL     1      -9.845   6.398  68.681  1.00  0.00    -0.139 NA 
HETATM   28  C   UNL     1      -9.912   7.003  70.028  1.00  0.00    -0.181 C  
HETATM   29  C   UNL     1      -9.070   5.148  68.648  1.00  0.00    -0.111 C  
HETATM   30  N   UNL     1      -9.754   4.700  71.103  1.00  0.00    -0.170 NA 
HETATM   31  C   UNL     1     -10.491   5.983  71.027  1.00  0.00    -0.229 C  
HETATM   32  C   UNL     1      -9.632   4.165  69.713  1.00  0.00    -0.211 C  
BRANCH  30  33
HETATM   33  C   UNL     1      -8.417   4.836  71.723  1.00  0.00    -0.118 C  
BRANCH  33  34
HETATM   34  C   UNL     1      -8.134   3.790  72.815  1.00  0.00    -0.089 C  
HETATM   35  H   UNL     1      -9.160   2.483  73.879  1.00  0.00     0.000 HD 
HETATM   36  O   UNL     1      -9.335   3.130  73.204  1.00  0.00    -0.089 OA 
ENDBRANCH  33  34
ENDBRANCH  30  33
ENDBRANCH   5  27
TORSDOF 7
ENDMDL
MODEL      134
REMARK 921   NORMALIZED FREE ENERGY PREDICTED BY IDOCK:   -5.61 KCAL/MOL
REMARK 922        TOTAL FREE ENERGY PREDICTED BY IDOCK:   -8.28 KCAL/MOL
REMARK 923 INTER-LIGAND FREE ENERGY PREDICTED BY IDOCK:   -7.59 KCAL/MOL
REMARK 924 INTRA-LIGAND FREE ENERGY PREDICTED BY IDOCK:   -0.69 KCAL/MOL
REMARK 927      BINDING AFFINITY PREDICTED BY RF-SCORE:    0.00 PKD
ROOT
HETATM    1  C   UNL     1     -11.220  19.805  65.429  1.00  0.00     0.392 C  
HETATM    2  C   UNL     1     -10.562  18.498  65.742  1.00  0.00    -0.231 A  
HETATM    3  N   UNL     1     -11.149  17.387  65.265  1.00  0.00    -0.333 NA 
HETATM    4  C   UNL     1     -10.484  16.239  65.438  1.00  0.00    -0.343 A  
HETATM    5  C   UNL     1      -8.756  17.368  66.605  1.00  0.00    -0.260 A  
HETATM    6  C   UNL     1      -9.250  16.214  66.034  1.00  0.00    -0.363 A  
HETATM    7  N   UNL     1      -9.405  18.531  66.431  1.00  0.00    -0.370 NA 
ENDROOT
BRANCH   4   8
HETATM    8  N   UNL     1     -11.095  15.086  64.957  1.00  0.00    -0.391 NA 
HETATM    9  H   UNL     1     -11.842  15.227  64.277  1.00  0.00     0.000 HD 
BRANCH   8  10
HETATM   10  C   UNL     1     -10.821  13.805  65.279  1.00  0.00    -0.324 A  
HETATM   11  S   UNL     1     -10.972  13.356  66.925  1.00  0.00    -0.288 SA 
HETATM   12  N   UNL     1     -10.429  12.828  64.483  1.00  0.00    -0.350 NA 
HETATM   13  C   UNL     1     -10.076  11.717  65.223  1.00  0.00    -0.264 A  
HETATM   14  C   UNL     1     -10.244  11.845  66.584  1.00  0.00    -0.208 A  
BRANCH  14  15
HETATM   15  C   UNL     1      -9.843  10.946  67.639  1.00  0.00    -0.171 C  
HETATM   16  O   UNL     1      -8.726  10.981  68.146  1.00  0.00    -0.130 OA 
HETATM   17  H   UNL     1     -11.666   9.984  67.418  1.00  0.00     0.000 HD 
HETATM   18  N   UNL     1     -10.819  10.024  67.984  1.00  0.00    -0.260 N  
BRANCH  18  19
HETATM   19  C   UNL     1     -10.704   9.144  69.071  1.00  0.00    -0.153 A  
HETATM   20  C   UNL     1     -10.064   6.982  69.939  1.00  0.00    -0.202 A  
HETATM   21  C   UNL     1      -9.779   7.343  67.491  1.00  0.00    -0.186 C  
HETATM   22  C   UNL     1     -10.201   7.850  68.843  1.00  0.00    -0.215 A  
HETATM   23  C   UNL     1     -10.438   7.380  71.223  1.00  0.00    -0.221 A  
HETATM   24  C   UNL     1     -10.992   8.637  71.432  1.00  0.00    -0.341 A  
HETATM   25  C   UNL     1     -11.136   9.517  70.361  1.00  0.00    -0.277 A  
HETATM   26 CL   UNL     1     -12.032  10.974  70.654  1.00  0.00    -0.450 Cl 
ENDBRANCH  18  19
ENDBRANCH  14  15
ENDBRANCH   8  10
ENDBRANCH   4   8
BRANCH   5  27
HETATM   27  N   UNL     1      -7.553  17.308  67.319  1.00  0.00    -0.175 NA 
HETATM   28  C   UNL     1      -7.598  16.518  68.568  1.00  0.00    -0.200 C  
HETATM   29  C   UNL     1      -6.832  18.582  67.469  1.00  0.00    -0.204 C  
HETATM   30  N   UNL     1      -5.365  17.495  69.303  1.00  0.00    -0.174 NA 
HETATM   31  C   UNL     1      -6.165  16.269  69.077  1.00  0.00    -0.147 C  
HETATM   32  C   UNL     1      -5.417  18.307  68.050  1.00  0.00    -0.158 C  
BRANCH  30  33
HETATM   33  C   UNL     1      -5.842  18.293  70.455  1.00  0.00    -0.093 C  
BRANCH  33  34
HETATM   34  C   UNL     1      -5.728  19.813  70.242  1.00  0.00    -0.275 C  
HETATM   35  H   UNL     1      -6.820  21.417  70.595  1.00  0.00     0.000 HD 
HETATM   36  O   UNL     1      -6.890  20.479  70.727  1.00  0.00    -0.225 OA 
ENDBRANCH  33  34
ENDBRANCH  30  33
ENDBRANCH   5  27
TORSDOF 7
ENDMDL
MODEL      135
REMARK 921   NORMALIZED FREE ENERGY PREDICTED BY IDOCK:   -5.59 KCAL/MOL
REMARK 922        TOTAL FREE ENERGY PREDICTED BY IDOCK:   -8.25 KCAL/MOL
REMARK 923 INTER-LIGAND FREE ENERGY PREDICTED BY IDOCK:   -7.38 KCAL/MOL
REMARK 924 INTRA-LIGAND FREE ENERGY PREDICTED BY IDOCK:   -0.87 KCAL/MOL
REMARK 927      BINDING AFFINITY PREDICTED BY RF-SCORE:    0.00 PKD
ROOT
HETATM    1  C   UNL     1     -12.282  13.952  66.808  1.00  0.00    -0.438 C  
HETATM    2  C   UNL     1     -10.860  13.508  66.948  1.00  0.00    -0.282 A  
HETATM    3  N   UNL     1     -10.576  12.240  66.600  1.00  0.00    -0.225 NA 
HETATM    4  C   UNL     1      -9.284  11.895  66.604  1.00  0.00    -0.205 A  
HETATM    5  C   UNL     1      -8.666  14.053  67.367  1.00  0.00    -0.207 A  
HETATM    6  C   UNL     1      -8.305  12.805  66.906  1.00  0.00    -0.064 A  
HETATM    7  N   UNL     1      -9.958  14.421  67.359  1.00  0.00    -0.240 NA 
ENDROOT
BRANCH   4   8
HETATM    8  N   UNL     1      -8.990  10.581  66.257  1.00  0.00    -0.154 NA 
HETATM    9  H   UNL     1      -8.839  10.404  65.264  1.00  0.00     0.000 HD 
BRANCH   8  10
HETATM   10  C   UNL     1      -8.878   9.512  67.072  1.00  0.00    -0.127 A  
HETATM   11  S   UNL     1     -10.274   8.544  67.298  1.00  0.00    -0.301 SA 
HETATM   12  N   UNL     1      -7.821   9.106  67.749  1.00  0.00    -0.100 NA 
HETATM   13  C   UNL     1      -8.164   8.081  68.609  1.00  0.00    -0.126 A  
HETATM   14  C   UNL     1      -9.482   7.686  68.549  1.00  0.00    -0.147 A  
BRANCH  14  15
HETATM   15  C   UNL     1     -10.195   6.761  69.398  1.00  0.00    -0.187 C  
HETATM   16  O   UNL     1     -11.303   6.322  69.109  1.00  0.00    -0.395 OA 
HETATM   17  H   UNL     1      -8.673   6.977  70.790  1.00  0.00     0.000 HD 
HETATM   18  N   UNL     1      -9.526   6.462  70.575  1.00  0.00    -0.162 N  
BRANCH  18  19
HETATM   19  C   UNL     1      -9.961   5.486  71.485  1.00  0.00    -0.177 A  
HETATM   20  C   UNL     1     -10.019   3.175  72.189  1.00  0.00    -0.232 A  
HETATM   21  C   UNL     1      -8.777   3.683  70.090  1.00  0.00    -0.122 C  
HETATM   22  C   UNL     1      -9.603   4.144  71.261  1.00  0.00    -0.242 A  
HETATM   23  C   UNL     1     -10.791   3.527  73.298  1.00  0.00    -0.288 A  
HETATM   24  C   UNL     1     -11.194   4.843  73.480  1.00  0.00    -0.375 A  
HETATM   25  C   UNL     1     -10.792   5.823  72.575  1.00  0.00    -0.250 A  
HETATM   26 CL   UNL     1     -11.510   7.393  72.742  1.00  0.00    -0.333 Cl 
ENDBRANCH  18  19
ENDBRANCH  14  15
ENDBRANCH   8  10
ENDBRANCH   4   8
BRANCH   5  27
HETATM   27  N   UNL     1      -7.664  14.934  67.792  1.00  0.00    -0.145 NA 
HETATM   28  C   UNL     1      -7.732  15.329  69.215  1.00  0.00    -0.214 C  
HETATM   29  C   UNL     1      -7.381  16.063  66.893  1.00  0.00    -0.201 C  
HETATM   30  N   UNL     1      -6.064  17.208  68.804  1.00  0.00    -0.152 NA 
HETATM   31  C   UNL     1      -6.421  16.027  69.623  1.00  0.00    -0.190 C  
HETATM   32  C   UNL     1      -6.092  16.790  67.369  1.00  0.00    -0.160 C  
BRANCH  30  33
HETATM   33  C   UNL     1      -6.968  18.359  69.024  1.00  0.00    -0.256 C  
BRANCH  33  34
HETATM   34  C   UNL     1      -6.236  19.709  69.118  1.00  0.00    -0.287 C  
HETATM   35  H   UNL     1      -5.993  21.141  70.453  1.00  0.00     0.000 HD 
HETATM   36  O   UNL     1      -6.445  20.308  70.395  1.00  0.00    -0.391 OA 
ENDBRANCH  33  34
ENDBRANCH  30  33
ENDBRANCH   5  27
TORSDOF 7
ENDMDL
MODEL      136
REMARK 921   NORMALIZED FREE ENERGY PREDICTED BY IDOCK:   -5.56 KCAL/MOL
REMARK 922        TOTAL FREE ENERGY PREDICTED BY IDOCK:   -8.22 KCAL/MOL
REMARK 923 INTER-LIGAND FREE ENERGY PREDICTED BY IDOCK:   -7.29 KCAL/MOL
REMARK 924 INTRA-LIGAND FREE ENERGY PREDICTED BY IDOCK:   -0.93 KCAL/MOL
REMARK 927      BINDING AFFINITY PREDICTED BY RF-SCORE:    0.00 PKD
ROOT
HETATM    1  C   UNL     1      -7.601   9.116  70.856  1.00  0.00    -0.146 C  
HETATM    2  C   UNL     1      -8.964   8.590  71.177  1.00  0.00    -0.186 A  
HETATM    3  N   UNL     1     -10.014   9.350  70.823  1.00  0.00    -0.284 NA 
HETATM    4  C   UNL     1     -11.227   8.812  70.996  1.00  0.00    -0.273 A  
HETATM    5  C   UNL     1     -10.270   6.851  71.924  1.00  0.00    -0.188 A  
HETATM    6  C   UNL     1     -11.378   7.535  71.469  1.00  0.00    -0.283 A  
HETATM    7  N   UNL     1      -9.044   7.371  71.748  1.00  0.00    -0.130 NA 
ENDROOT
BRANCH   4   8
HETATM    8  N   UNL     1     -12.315   9.602  70.642  1.00  0.00    -0.476 NA 
HETATM    9  H   UNL     1     -13.162   9.101  70.372  1.00  0.00     0.000 HD 
BRANCH   8  10
HETATM   10  C   UNL     1     -12.389  10.948  70.613  1.00  0.00    -0.376 A  
HETATM   11  S   UNL     1     -11.896  11.734  69.172  1.00  0.00    -0.313 SA 
HETATM   12  N   UNL     1     -12.784  11.767  71.569  1.00  0.00    -0.338 NA 
HETATM   13  C   UNL     1     -12.539  13.079  71.213  1.00  0.00    -0.279 A  
HETATM   14  C   UNL     1     -11.991  13.250  69.960  1.00  0.00    -0.329 A  
BRANCH  14  15
HETATM   15  C   UNL     1     -11.485  14.453  69.345  1.00  0.00    -0.288 C  
HETATM   16  O   UNL     1     -11.914  15.567  69.626  1.00  0.00    -0.338 OA 
HETATM   17  H   UNL     1     -10.312  13.253  68.127  1.00  0.00     0.000 HD 
HETATM   18  N   UNL     1     -10.510  14.219  68.388  1.00  0.00    -0.242 N  
BRANCH  18  19
HETATM   19  C   UNL     1      -9.780  15.240  67.761  1.00  0.00    -0.215 A  
HETATM   20  C   UNL     1      -9.426  16.669  65.844  1.00  0.00    -0.218 A  
HETATM   21  C   UNL     1     -11.274  15.008  65.685  1.00  0.00    -0.327 C  
HETATM   22  C   UNL     1     -10.143  15.629  66.458  1.00  0.00    -0.293 A  
HETATM   23  C   UNL     1      -8.360  17.291  66.498  1.00  0.00    -0.312 A  
HETATM   24  C   UNL     1      -7.966  16.861  67.759  1.00  0.00    -0.188 A  
HETATM   25  C   UNL     1      -8.664  15.832  68.389  1.00  0.00    -0.177 A  
HETATM   26 CL   UNL     1      -7.984  15.203  69.857  1.00  0.00    -0.022 Cl 
ENDBRANCH  18  19
ENDBRANCH  14  15
ENDBRANCH   8  10
ENDBRANCH   4   8
BRANCH   5  27
HETATM   27  N   UNL     1     -10.447   5.597  72.521  1.00  0.00    -0.204 NA 
HETATM   28  C   UNL     1     -10.048   5.512  73.942  1.00  0.00    -0.219 C  
HETATM   29  C   UNL     1     -10.001   4.441  71.727  1.00  0.00    -0.186 C  
HETATM   30  N   UNL     1     -10.153   2.970  73.850  1.00  0.00    -0.112 NA 
HETATM   31  C   UNL     1     -10.581   4.201  74.553  1.00  0.00    -0.178 C  
HETATM   32  C   UNL     1     -10.493   3.131  72.405  1.00  0.00    -0.006 C  
BRANCH  30  33
HETATM   33  C   UNL     1      -8.710   2.683  74.012  1.00  0.00    -0.075 C  
BRANCH  33  34
HETATM   34  C   UNL     1      -8.184   1.600  73.053  1.00  0.00    -0.053 C  
HETATM   35  H   UNL     1      -6.931   1.486  71.534  1.00  0.00     0.000 HD 
HETATM   36  O   UNL     1      -7.256   2.155  72.126  1.00  0.00    -0.036 OA 
ENDBRANCH  33  34
ENDBRANCH  30  33
ENDBRANCH   5  27
TORSDOF 7
ENDMDL
MODEL      137
REMARK 921   NORMALIZED FREE ENERGY PREDICTED BY IDOCK:   -5.56 KCAL/MOL
REMARK 922        TOTAL FREE ENERGY PREDICTED BY IDOCK:   -8.22 KCAL/MOL
REMARK 923 INTER-LIGAND FREE ENERGY PREDICTED BY IDOCK:   -8.77 KCAL/MOL
REMARK 924 INTRA-LIGAND FREE ENERGY PREDICTED BY IDOCK:    0.55 KCAL/MOL
REMARK 927      BINDING AFFINITY PREDICTED BY RF-SCORE:    0.00 PKD
ROOT
HETATM    1  C   UNL     1     -10.524  15.817  66.044  1.00  0.00    -0.350 C  
HETATM    2  C   UNL     1     -11.012  14.636  66.824  1.00  0.00    -0.323 A  
HETATM    3  N   UNL     1     -10.719  13.417  66.338  1.00  0.00    -0.285 NA 
HETATM    4  C   UNL     1     -11.044  12.374  67.109  1.00  0.00    -0.280 A  
HETATM    5  C   UNL     1     -11.990  13.816  68.735  1.00  0.00    -0.365 A  
HETATM    6  C   UNL     1     -11.607  12.550  68.346  1.00  0.00    -0.368 A  
HETATM    7  N   UNL     1     -11.660  14.877  67.980  1.00  0.00    -0.336 NA 
ENDROOT
BRANCH   4   8
HETATM    8  N   UNL     1     -10.754  11.111  66.603  1.00  0.00    -0.268 NA 
HETATM    9  H   UNL     1     -10.611  11.056  65.594  1.00  0.00     0.000 HD 
BRANCH   8  10
HETATM   10  C   UNL     1     -10.636   9.952  67.282  1.00  0.00    -0.252 A  
HETATM   11  S   UNL     1     -10.805  10.015  68.986  1.00  0.00    -0.212 SA 
HETATM   12  N   UNL     1     -10.389   8.747  66.805  1.00  0.00    -0.279 NA 
HETATM   13  C   UNL     1     -10.162   7.857  67.837  1.00  0.00    -0.209 A  
HETATM   14  C   UNL     1     -10.281   8.390  69.102  1.00  0.00    -0.211 A  
BRANCH  14  15
HETATM   15  C   UNL     1      -9.972   7.786  70.376  1.00  0.00    -0.188 C  
HETATM   16  O   UNL     1     -10.655   7.977  71.378  1.00  0.00    -0.211 OA 
HETATM   17  H   UNL     1      -8.245   7.025  69.518  1.00  0.00     0.000 HD 
HETATM   18  N   UNL     1      -8.819   7.017  70.361  1.00  0.00    -0.154 N  
BRANCH  18  19
HETATM   19  C   UNL     1      -8.400   6.228  71.443  1.00  0.00    -0.123 A  
HETATM   20  C   UNL     1      -7.043   5.966  73.425  1.00  0.00    -0.085 A  
HETATM   21  C   UNL     1      -6.822   8.114  72.184  1.00  0.00    -0.082 C  
HETATM   22  C   UNL     1      -7.439   6.750  72.329  1.00  0.00    -0.092 A  
HETATM   23  C   UNL     1      -7.569   4.688  73.623  1.00  0.00    -0.083 A  
HETATM   24  C   UNL     1      -8.471   4.154  72.712  1.00  0.00    -0.100 A  
HETATM   25  C   UNL     1      -8.882   4.913  71.617  1.00  0.00    -0.131 A  
HETATM   26 CL   UNL     1      -9.832   4.106  70.410  1.00  0.00    -0.268 Cl 
ENDBRANCH  18  19
ENDBRANCH  14  15
ENDBRANCH   8  10
ENDBRANCH   4   8
BRANCH   5  27
HETATM   27  N   UNL     1     -12.676  13.973  69.946  1.00  0.00    -0.141 NA 
HETATM   28  C   UNL     1     -12.606  15.325  70.540  1.00  0.00    -0.399 C  
HETATM   29  C   UNL     1     -12.489  12.899  70.933  1.00  0.00    -0.296 C  
HETATM   30  N   UNL     1     -13.514  14.436  72.746  1.00  0.00    -0.560 NA 
HETATM   31  C   UNL     1     -13.642  15.449  71.673  1.00  0.00    -0.509 C  
HETATM   32  C   UNL     1     -13.501  13.089  72.099  1.00  0.00    -0.542 C  
BRANCH  30  33
HETATM   33  C   UNL     1     -12.302  14.621  73.575  1.00  0.00    -0.258 C  
BRANCH  33  34
HETATM   34  C   UNL     1     -12.404  15.799  74.561  1.00  0.00    -0.621 C  
HETATM   35  H   UNL     1     -13.381  17.508  74.690  1.00  0.00     0.000 HD 
HETATM   36  O   UNL     1     -13.319  16.781  74.081  1.00  0.00    -0.185 OA 
ENDBRANCH  33  34
ENDBRANCH  30  33
ENDBRANCH   5  27
TORSDOF 7
ENDMDL
MODEL      138
REMARK 921   NORMALIZED FREE ENERGY PREDICTED BY IDOCK:   -5.55 KCAL/MOL
REMARK 922        TOTAL FREE ENERGY PREDICTED BY IDOCK:   -8.19 KCAL/MOL
REMARK 923 INTER-LIGAND FREE ENERGY PREDICTED BY IDOCK:   -7.35 KCAL/MOL
REMARK 924 INTRA-LIGAND FREE ENERGY PREDICTED BY IDOCK:   -0.84 KCAL/MOL
REMARK 927      BINDING AFFINITY PREDICTED BY RF-SCORE:    0.00 PKD
ROOT
HETATM    1  C   UNL     1     -12.076  15.078  71.941  1.00  0.00    -0.443 C  
HETATM    2  C   UNL     1     -11.999  14.048  70.860  1.00  0.00    -0.267 A  
HETATM    3  N   UNL     1     -12.473  12.822  71.145  1.00  0.00    -0.317 NA 
HETATM    4  C   UNL     1     -12.519  11.949  70.132  1.00  0.00    -0.077 A  
HETATM    5  C   UNL     1     -11.554  13.539  68.662  1.00  0.00    -0.330 A  
HETATM    6  C   UNL     1     -12.141  12.308  68.865  1.00  0.00    -0.177 A  
HETATM    7  N   UNL     1     -11.511  14.433  69.664  1.00  0.00    -0.271 NA 
ENDROOT
BRANCH   4   8
HETATM    8  N   UNL     1     -12.998  10.678  70.428  1.00  0.00    -0.382 NA 
HETATM    9  H   UNL     1     -13.947  10.473  70.115  1.00  0.00     0.000 HD 
BRANCH   8  10
HETATM   10  C   UNL     1     -12.361   9.681  71.078  1.00  0.00    -0.310 A  
HETATM   11  S   UNL     1     -10.734   9.370  70.643  1.00  0.00    -0.316 SA 
HETATM   12  N   UNL     1     -12.835   8.884  72.016  1.00  0.00    -0.368 NA 
HETATM   13  C   UNL     1     -11.930   7.877  72.294  1.00  0.00    -0.337 A  
HETATM   14  C   UNL     1     -10.749   7.943  71.588  1.00  0.00    -0.223 A  
BRANCH  14  15
HETATM   15  C   UNL     1      -9.670   6.987  71.529  1.00  0.00    -0.165 C  
HETATM   16  O   UNL     1      -9.442   6.195  72.437  1.00  0.00    -0.149 OA 
HETATM   17  H   UNL     1      -9.085   7.863  69.742  1.00  0.00     0.000 HD 
HETATM   18  N   UNL     1      -8.903   7.087  70.378  1.00  0.00    -0.154 N  
BRANCH  18  19
HETATM   19  C   UNL     1      -7.889   6.176  70.043  1.00  0.00    -0.106 A  
HETATM   20  C   UNL     1      -5.538   5.635  69.910  1.00  0.00    -0.008 A  
HETATM   21  C   UNL     1      -6.127   7.903  70.755  1.00  0.00    -0.033 C  
HETATM   22  C   UNL     1      -6.548   6.560  70.223  1.00  0.00    -0.048 A  
HETATM   23  C   UNL     1      -5.852   4.371  69.408  1.00  0.00    -0.018 A  
HETATM   24  C   UNL     1      -7.175   4.020  69.173  1.00  0.00    -0.054 A  
HETATM   25  C   UNL     1      -8.195   4.919  69.478  1.00  0.00    -0.084 A  
HETATM   26 CL   UNL     1      -9.796   4.502  68.957  1.00  0.00    -0.232 Cl 
ENDBRANCH  18  19
ENDBRANCH  14  15
ENDBRANCH   8  10
ENDBRANCH   4   8
BRANCH   5  27
HETATM   27  N   UNL     1     -11.058  13.851  67.390  1.00  0.00    -0.291 NA 
HETATM   28  C   UNL     1     -12.084  14.068  66.348  1.00  0.00    -0.455 C  
HETATM   29  C   UNL     1      -9.927  13.034  66.925  1.00  0.00    -0.243 C  
HETATM   30  N   UNL     1     -10.307  13.935  64.529  1.00  0.00    -0.372 NA 
HETATM   31  C   UNL     1     -11.434  14.705  65.105  1.00  0.00    -0.375 C  
HETATM   32  C   UNL     1      -9.336  13.661  65.631  1.00  0.00     0.262 C  
BRANCH  30  33
HETATM   33  C   UNL     1     -10.736  12.670  63.893  1.00  0.00    -0.431 C  
BRANCH  33  34
HETATM   34  C   UNL     1     -12.164  12.720  63.322  1.00  0.00    -0.410 C  
HETATM   35  H   UNL     1     -13.545  11.436  62.743  1.00  0.00     0.000 HD 
HETATM   36  O   UNL     1     -12.663  11.405  63.095  1.00  0.00    -0.172 OA 
ENDBRANCH  33  34
ENDBRANCH  30  33
ENDBRANCH   5  27
TORSDOF 7
ENDMDL
MODEL      139
REMARK 921   NORMALIZED FREE ENERGY PREDICTED BY IDOCK:   -5.52 KCAL/MOL
REMARK 922        TOTAL FREE ENERGY PREDICTED BY IDOCK:   -8.16 KCAL/MOL
REMARK 923 INTER-LIGAND FREE ENERGY PREDICTED BY IDOCK:   -7.16 KCAL/MOL
REMARK 924 INTRA-LIGAND FREE ENERGY PREDICTED BY IDOCK:   -1.00 KCAL/MOL
REMARK 927      BINDING AFFINITY PREDICTED BY RF-SCORE:    0.00 PKD
ROOT
HETATM    1  C   UNL     1      -9.571   3.718  64.460  1.00  0.00    -0.171 C  
HETATM    2  C   UNL     1      -8.998   4.834  65.277  1.00  0.00    -0.151 A  
HETATM    3  N   UNL     1      -8.598   5.934  64.617  1.00  0.00    -0.030 NA 
HETATM    4  C   UNL     1      -8.212   6.973  65.366  1.00  0.00    -0.133 A  
HETATM    5  C   UNL     1      -8.573   5.728  67.352  1.00  0.00    -0.105 A  
HETATM    6  C   UNL     1      -8.266   6.922  66.735  1.00  0.00    -0.114 A  
HETATM    7  N   UNL     1      -8.975   4.679  66.615  1.00  0.00    -0.111 NA 
ENDROOT
BRANCH   4   8
HETATM    8  N   UNL     1      -7.785   8.108  64.685  1.00  0.00    -0.111 NA 
HETATM    9  H   UNL     1      -6.829   8.083  64.332  1.00  0.00     0.000 HD 
BRANCH   8  10
HETATM   10  C   UNL     1      -8.481   9.236  64.435  1.00  0.00    -0.188 A  
HETATM   11  S   UNL     1      -8.642  10.364  65.715  1.00  0.00    -0.170 SA 
HETATM   12  N   UNL     1      -9.081   9.595  63.317  1.00  0.00    -0.242 NA 
HETATM   13  C   UNL     1      -9.839  10.732  63.520  1.00  0.00    -0.347 A  
HETATM   14  C   UNL     1      -9.773  11.256  64.793  1.00  0.00    -0.256 A  
BRANCH  14  15
HETATM   15  C   UNL     1     -10.540  12.332  65.374  1.00  0.00    -0.274 C  
HETATM   16  O   UNL     1     -11.563  12.767  64.856  1.00  0.00    -0.307 OA 
HETATM   17  H   UNL     1      -9.064  12.508  66.820  1.00  0.00     0.000 HD 
HETATM   18  N   UNL     1      -9.985  12.843  66.537  1.00  0.00    -0.253 N  
BRANCH  18  19
HETATM   19  C   UNL     1     -10.623  13.795  67.346  1.00  0.00    -0.260 A  
HETATM   20  C   UNL     1     -12.136  14.307  69.160  1.00  0.00    -0.337 A  
HETATM   21  C   UNL     1     -11.845  11.903  68.579  1.00  0.00    -0.357 C  
HETATM   22  C   UNL     1     -11.520  13.351  68.336  1.00  0.00    -0.351 A  
HETATM   23  C   UNL     1     -11.887  15.671  68.990  1.00  0.00    -0.379 A  
HETATM   24  C   UNL     1     -11.049  16.107  67.972  1.00  0.00    -0.317 A  
HETATM   25  C   UNL     1     -10.423  15.177  67.143  1.00  0.00    -0.280 A  
HETATM   26 CL   UNL     1      -9.572  15.798  65.764  1.00  0.00    -0.370 Cl 
ENDBRANCH  18  19
ENDBRANCH  14  15
ENDBRANCH   8  10
ENDBRANCH   4   8
BRANCH   5  27
HETATM   27  N   UNL     1      -8.506   5.651  68.748  1.00  0.00    -0.102 NA 
HETATM   28  C   UNL     1      -9.475   4.728  69.376  1.00  0.00    -0.161 C  
HETATM   29  C   UNL     1      -8.389   6.934  69.457  1.00  0.00    -0.133 C  
HETATM   30  N   UNL     1      -8.989   5.729  71.667  1.00  0.00    -0.136 NA 
HETATM   31  C   UNL     1      -9.092   4.497  70.851  1.00  0.00    -0.131 C  
HETATM   32  C   UNL     1      -8.071   6.668  70.955  1.00  0.00    -0.119 C  
BRANCH  30  33
HETATM   33  C   UNL     1     -10.300   6.372  71.909  1.00  0.00    -0.202 C  
BRANCH  33  34
HETATM   34  C   UNL     1     -10.886   6.072  73.300  1.00  0.00    -0.252 C  
HETATM   35  H   UNL     1     -12.070   4.724  74.120  1.00  0.00     0.000 HD 
HETATM   36  O   UNL     1     -11.708   4.909  73.261  1.00  0.00    -0.312 OA 
ENDBRANCH  33  34
ENDBRANCH  30  33
ENDBRANCH   5  27
TORSDOF 7
ENDMDL
MODEL      140
REMARK 921   NORMALIZED FREE ENERGY PREDICTED BY IDOCK:   -5.52 KCAL/MOL
REMARK 922        TOTAL FREE ENERGY PREDICTED BY IDOCK:   -8.16 KCAL/MOL
REMARK 923 INTER-LIGAND FREE ENERGY PREDICTED BY IDOCK:   -7.57 KCAL/MOL
REMARK 924 INTRA-LIGAND FREE ENERGY PREDICTED BY IDOCK:   -0.59 KCAL/MOL
REMARK 927      BINDING AFFINITY PREDICTED BY RF-SCORE:    0.00 PKD
ROOT
HETATM    1  C   UNL     1      -5.419  11.551  66.974  1.00  0.00    -0.110 C  
HETATM    2  C   UNL     1      -6.565  12.433  67.358  1.00  0.00    -0.157 A  
HETATM    3  N   UNL     1      -7.700  11.828  67.750  1.00  0.00    -0.124 NA 
HETATM    4  C   UNL     1      -8.671  12.623  68.214  1.00  0.00    -0.169 A  
HETATM    5  C   UNL     1      -7.353  14.549  67.794  1.00  0.00    -0.175 A  
HETATM    6  C   UNL     1      -8.492  13.978  68.321  1.00  0.00    -0.171 A  
HETATM    7  N   UNL     1      -6.363  13.765  67.335  1.00  0.00    -0.309 NA 
ENDROOT
BRANCH   4   8
HETATM    8  N   UNL     1      -9.850  12.001  68.608  1.00  0.00    -0.358 NA 
HETATM    9  H   UNL     1     -10.588  12.617  68.951  1.00  0.00     0.000 HD 
BRANCH   8  10
HETATM   10  C   UNL     1     -10.139  10.683  68.592  1.00  0.00    -0.183 A  
HETATM   11  S   UNL     1     -10.987  10.046  69.937  1.00  0.00    -0.311 SA 
HETATM   12  N   UNL     1      -9.838   9.791  67.668  1.00  0.00    -0.159 NA 
HETATM   13  C   UNL     1     -10.147   8.519  68.108  1.00  0.00    -0.200 A  
HETATM   14  C   UNL     1     -10.722   8.458  69.358  1.00  0.00    -0.152 A  
BRANCH  14  15
HETATM   15  C   UNL     1     -11.028   7.300  70.164  1.00  0.00    -0.260 C  
HETATM   16  O   UNL     1     -12.156   6.822  70.229  1.00  0.00    -0.328 OA 
HETATM   17  H   UNL     1      -9.077   7.360  70.864  1.00  0.00     0.000 HD 
HETATM   18  N   UNL     1      -9.942   6.819  70.878  1.00  0.00    -0.186 N  
BRANCH  18  19
HETATM   19  C   UNL     1      -9.968   5.627  71.618  1.00  0.00    -0.174 A  
HETATM   20  C   UNL     1     -10.220   4.501  73.741  1.00  0.00    -0.233 A  
HETATM   21  C   UNL     1     -10.353   6.988  73.762  1.00  0.00    -0.408 C  
HETATM   22  C   UNL     1     -10.169   5.698  73.009  1.00  0.00    -0.213 A  
HETATM   23  C   UNL     1     -10.053   3.265  73.112  1.00  0.00    -0.213 A  
HETATM   24  C   UNL     1      -9.794   3.204  71.749  1.00  0.00    -0.229 A  
HETATM   25  C   UNL     1      -9.741   4.379  71.000  1.00  0.00    -0.190 A  
HETATM   26 CL   UNL     1      -9.197   4.242  69.358  1.00  0.00    -0.185 Cl 
ENDBRANCH  18  19
ENDBRANCH  14  15
ENDBRANCH   8  10
ENDBRANCH   4   8
BRANCH   5  27
HETATM   27  N   UNL     1      -7.232  15.944  67.795  1.00  0.00    -0.135 NA 
HETATM   28  C   UNL     1      -5.856  16.458  67.627  1.00  0.00    -0.141 C  
HETATM   29  C   UNL     1      -7.989  16.652  68.838  1.00  0.00    -0.236 C  
HETATM   30  N   UNL     1      -6.606  18.783  68.346  1.00  0.00    -0.227 NA 
HETATM   31  C   UNL     1      -5.900  17.969  67.329  1.00  0.00    -0.133 C  
HETATM   32  C   UNL     1      -7.957  18.180  68.550  1.00  0.00    -0.300 C  
BRANCH  30  33
HETATM   33  C   UNL     1      -5.876  18.863  69.631  1.00  0.00    -0.248 C  
BRANCH  33  34
HETATM   34  C   UNL     1      -5.716  20.299  70.161  1.00  0.00    -0.333 C  
HETATM   35  H   UNL     1      -6.152  21.300  71.804  1.00  0.00     0.000 HD 
HETATM   36  O   UNL     1      -6.251  20.414  71.476  1.00  0.00    -0.616 OA 
ENDBRANCH  33  34
ENDBRANCH  30  33
ENDBRANCH   5  27
TORSDOF 7
ENDMDL
MODEL      141
REMARK 921   NORMALIZED FREE ENERGY PREDICTED BY IDOCK:   -5.50 KCAL/MOL
REMARK 922        TOTAL FREE ENERGY PREDICTED BY IDOCK:   -8.13 KCAL/MOL
REMARK 923 INTER-LIGAND FREE ENERGY PREDICTED BY IDOCK:   -7.41 KCAL/MOL
REMARK 924 INTRA-LIGAND FREE ENERGY PREDICTED BY IDOCK:   -0.71 KCAL/MOL
REMARK 927      BINDING AFFINITY PREDICTED BY RF-SCORE:    0.00 PKD
ROOT
HETATM    1  C   UNL     1     -10.834   5.068  73.022  1.00  0.00    -0.334 C  
HETATM    2  C   UNL     1     -10.755   5.711  71.673  1.00  0.00    -0.251 A  
HETATM    3  N   UNL     1     -11.327   6.920  71.535  1.00  0.00    -0.254 NA 
HETATM    4  C   UNL     1     -11.137   7.541  70.365  1.00  0.00    -0.261 A  
HETATM    5  C   UNL     1      -9.902   5.695  69.538  1.00  0.00    -0.180 A  
HETATM    6  C   UNL     1     -10.362   6.984  69.382  1.00  0.00    -0.218 A  
HETATM    7  N   UNL     1     -10.073   5.061  70.710  1.00  0.00    -0.229 NA 
ENDROOT
BRANCH   4   8
HETATM    8  N   UNL     1     -11.739   8.786  70.217  1.00  0.00    -0.465 NA 
HETATM    9  H   UNL     1     -12.723   8.840  70.479  1.00  0.00     0.000 HD 
BRANCH   8  10
HETATM   10  C   UNL     1     -11.181   9.929  69.769  1.00  0.00    -0.235 A  
HETATM   11  S   UNL     1     -12.129  11.355  69.853  1.00  0.00    -0.319 SA 
HETATM   12  N   UNL     1      -9.982  10.105  69.248  1.00  0.00    -0.207 NA 
HETATM   13  C   UNL     1      -9.858  11.385  68.744  1.00  0.00    -0.164 A  
HETATM   14  C   UNL     1     -10.961  12.192  68.925  1.00  0.00    -0.224 A  
BRANCH  14  15
HETATM   15  C   UNL     1     -11.217  13.512  68.402  1.00  0.00    -0.278 C  
HETATM   16  O   UNL     1     -12.200  14.170  68.728  1.00  0.00    -0.319 OA 
HETATM   17  H   UNL     1      -9.570  13.267  67.166  1.00  0.00     0.000 HD 
HETATM   18  N   UNL     1     -10.277  13.934  67.474  1.00  0.00    -0.243 N  
BRANCH  18  19
HETATM   19  C   UNL     1     -10.247  15.230  66.937  1.00  0.00    -0.268 A  
HETATM   20  C   UNL     1     -10.700  16.732  65.099  1.00  0.00    -0.159 A  
HETATM   21  C   UNL     1     -11.233  14.325  64.745  1.00  0.00    -0.387 C  
HETATM   22  C   UNL     1     -10.708  15.429  65.623  1.00  0.00    -0.381 A  
HETATM   23  C   UNL     1     -10.223  17.806  65.853  1.00  0.00    -0.231 A  
HETATM   24  C   UNL     1      -9.711  17.595  67.127  1.00  0.00    -0.291 A  
HETATM   25  C   UNL     1      -9.712  16.311  67.669  1.00  0.00    -0.234 A  
HETATM   26 CL   UNL     1      -8.861  16.087  69.165  1.00  0.00    -0.244 Cl 
ENDBRANCH  18  19
ENDBRANCH  14  15
ENDBRANCH   8  10
ENDBRANCH   4   8
BRANCH   5  27
HETATM   27  N   UNL     1      -9.216   5.088  68.478  1.00  0.00    -0.114 NA 
HETATM   28  C   UNL     1      -9.050   5.926  67.272  1.00  0.00    -0.111 C  
HETATM   29  C   UNL     1      -9.608   3.704  68.170  1.00  0.00    -0.103 C  
HETATM   30  N   UNL     1      -8.349   3.888  65.916  1.00  0.00    -0.108 NA 
HETATM   31  C   UNL     1      -8.024   5.274  66.324  1.00  0.00    -0.104 C  
HETATM   32  C   UNL     1      -8.595   3.095  67.159  1.00  0.00    -0.112 C  
BRANCH  30  33
HETATM   33  C   UNL     1      -9.519   3.809  65.014  1.00  0.00    -0.167 C  
BRANCH  33  34
HETATM   34  C   UNL     1      -9.564   2.522  64.172  1.00  0.00    -0.141 C  
HETATM   35  H   UNL     1      -8.314   1.449  63.087  1.00  0.00     0.000 HD 
HETATM   36  O   UNL     1      -8.286   2.244  63.606  1.00  0.00    -0.080 OA 
ENDBRANCH  33  34
ENDBRANCH  30  33
ENDBRANCH   5  27
TORSDOF 7
ENDMDL
MODEL      142
REMARK 921   NORMALIZED FREE ENERGY PREDICTED BY IDOCK:   -5.50 KCAL/MOL
REMARK 922        TOTAL FREE ENERGY PREDICTED BY IDOCK:   -8.13 KCAL/MOL
REMARK 923 INTER-LIGAND FREE ENERGY PREDICTED BY IDOCK:   -7.29 KCAL/MOL
REMARK 924 INTRA-LIGAND FREE ENERGY PREDICTED BY IDOCK:   -0.83 KCAL/MOL
REMARK 927      BINDING AFFINITY PREDICTED BY RF-SCORE:    0.00 PKD
ROOT
HETATM    1  C   UNL     1      -8.870  11.041  62.375  1.00  0.00    -0.358 C  
HETATM    2  C   UNL     1      -9.388  10.741  63.746  1.00  0.00    -0.266 A  
HETATM    3  N   UNL     1      -9.238   9.484  64.197  1.00  0.00    -0.173 NA 
HETATM    4  C   UNL     1      -9.585   9.260  65.470  1.00  0.00    -0.220 A  
HETATM    5  C   UNL     1     -10.270  11.516  65.723  1.00  0.00    -0.249 A  
HETATM    6  C   UNL     1     -10.027  10.277  66.276  1.00  0.00    -0.295 A  
HETATM    7  N   UNL     1      -9.917  11.761  64.451  1.00  0.00    -0.260 NA 
ENDROOT
BRANCH   4   8
HETATM    8  N   UNL     1      -9.442   7.958  65.935  1.00  0.00    -0.423 NA 
HETATM    9  H   UNL     1      -8.910   7.326  65.337  1.00  0.00     0.000 HD 
BRANCH   8  10
HETATM   10  C   UNL     1      -9.922   7.427  67.078  1.00  0.00    -0.231 A  
HETATM   11  S   UNL     1      -8.989   7.642  68.500  1.00  0.00    -0.127 SA 
HETATM   12  N   UNL     1     -11.031   6.735  67.257  1.00  0.00    -0.363 NA 
HETATM   13  C   UNL     1     -11.072   6.212  68.535  1.00  0.00    -0.262 A  
HETATM   14  C   UNL     1     -10.003   6.548  69.337  1.00  0.00    -0.158 A  
BRANCH  14  15
HETATM   15  C   UNL     1      -9.665   6.062  70.653  1.00  0.00    -0.174 C  
HETATM   16  O   UNL     1     -10.295   6.382  71.656  1.00  0.00    -0.201 OA 
HETATM   17  H   UNL     1      -8.008   5.142  69.810  1.00  0.00     0.000 HD 
HETATM   18  N   UNL     1      -8.546   5.244  70.671  1.00  0.00    -0.119 N  
BRANCH  18  19
HETATM   19  C   UNL     1      -8.113   4.549  71.811  1.00  0.00    -0.102 A  
HETATM   20  C   UNL     1      -8.162   2.556  73.177  1.00  0.00    -0.069 A  
HETATM   21  C   UNL     1      -9.609   2.569  71.150  1.00  0.00    -0.218 C  
HETATM   22  C   UNL     1      -8.618   3.257  72.049  1.00  0.00    -0.098 A  
HETATM   23  C   UNL     1      -7.246   3.132  74.060  1.00  0.00    -0.047 A  
HETATM   24  C   UNL     1      -6.798   4.431  73.854  1.00  0.00    -0.064 A  
HETATM   25  C   UNL     1      -7.234   5.146  72.740  1.00  0.00    -0.089 A  
HETATM   26 CL   UNL     1      -6.809   6.827  72.667  1.00  0.00    -0.063 Cl 
ENDBRANCH  18  19
ENDBRANCH  14  15
ENDBRANCH   8  10
ENDBRANCH   4   8
BRANCH   5  27
HETATM   27  N   UNL     1     -10.839  12.514  66.523  1.00  0.00    -0.251 NA 
HETATM   28  C   UNL     1     -11.426  13.655  65.788  1.00  0.00    -0.315 C  
HETATM   29  C   UNL     1     -10.048  12.928  67.692  1.00  0.00    -0.221 C  
HETATM   30  N   UNL     1     -11.565  15.010  67.939  1.00  0.00    -0.340 NA 
HETATM   31  C   UNL     1     -12.283  14.505  66.745  1.00  0.00    -0.203 C  
HETATM   32  C   UNL     1     -10.915  13.841  68.604  1.00  0.00    -0.266 C  
BRANCH  30  33
HETATM   33  C   UNL     1     -10.559  16.045  67.614  1.00  0.00    -0.309 C  
BRANCH  33  34
HETATM   34  C   UNL     1     -10.605  17.265  68.550  1.00  0.00    -0.350 C  
HETATM   35  H   UNL     1     -10.612  19.230  68.379  1.00  0.00     0.000 HD 
HETATM   36  O   UNL     1     -10.584  18.477  67.801  1.00  0.00    -0.406 OA 
ENDBRANCH  33  34
ENDBRANCH  30  33
ENDBRANCH   5  27
TORSDOF 7
ENDMDL
MODEL      143
REMARK 921   NORMALIZED FREE ENERGY PREDICTED BY IDOCK:   -5.50 KCAL/MOL
REMARK 922        TOTAL FREE ENERGY PREDICTED BY IDOCK:   -8.12 KCAL/MOL
REMARK 923 INTER-LIGAND FREE ENERGY PREDICTED BY IDOCK:   -7.58 KCAL/MOL
REMARK 924 INTRA-LIGAND FREE ENERGY PREDICTED BY IDOCK:   -0.55 KCAL/MOL
REMARK 927      BINDING AFFINITY PREDICTED BY RF-SCORE:    0.00 PKD
ROOT
HETATM    1  C   UNL     1      -9.107  13.305  66.320  1.00  0.00     0.011 C  
HETATM    2  C   UNL     1     -10.065  12.453  67.092  1.00  0.00    -0.213 A  
HETATM    3  N   UNL     1     -10.071  11.137  66.819  1.00  0.00    -0.211 NA 
HETATM    4  C   UNL     1     -10.834  10.368  67.604  1.00  0.00    -0.306 A  
HETATM    5  C   UNL     1     -11.580  12.267  68.811  1.00  0.00    -0.330 A  
HETATM    6  C   UNL     1     -11.535  10.898  68.656  1.00  0.00    -0.380 A  
HETATM    7  N   UNL     1     -10.811  13.053  68.040  1.00  0.00    -0.234 NA 
ENDROOT
BRANCH   4   8
HETATM    8  N   UNL     1     -10.853   9.008  67.314  1.00  0.00    -0.392 NA 
HETATM    9  H   UNL     1     -11.601   8.692  66.698  1.00  0.00     0.000 HD 
BRANCH   8  10
HETATM   10  C   UNL     1     -10.002   8.055  67.749  1.00  0.00    -0.175 A  
HETATM   11  S   UNL     1     -10.632   6.853  68.795  1.00  0.00    -0.216 SA 
HETATM   12  N   UNL     1      -8.716   7.925  67.485  1.00  0.00    -0.125 NA 
HETATM   13  C   UNL     1      -8.162   6.929  68.266  1.00  0.00    -0.123 A  
HETATM   14  C   UNL     1      -9.049   6.278  69.095  1.00  0.00    -0.130 A  
BRANCH  14  15
HETATM   15  C   UNL     1      -8.782   5.306  70.128  1.00  0.00    -0.121 C  
HETATM   16  O   UNL     1      -7.664   4.840  70.321  1.00  0.00    -0.056 OA 
HETATM   17  H   UNL     1     -10.819   5.267  70.519  1.00  0.00     0.000 HD 
HETATM   18  N   UNL     1      -9.911   4.927  70.838  1.00  0.00    -0.205 N  
BRANCH  18  19
HETATM   19  C   UNL     1      -9.872   4.102  71.972  1.00  0.00    -0.174 A  
HETATM   20  C   UNL     1      -9.723   1.889  72.932  1.00  0.00    -0.138 A  
HETATM   21  C   UNL     1      -9.744   2.041  70.446  1.00  0.00    -0.033 C  
HETATM   22  C   UNL     1      -9.788   2.709  71.793  1.00  0.00    -0.223 A  
HETATM   23  C   UNL     1      -9.764   2.437  74.216  1.00  0.00    -0.124 A  
HETATM   24  C   UNL     1      -9.909   3.808  74.386  1.00  0.00    -0.172 A  
HETATM   25  C   UNL     1      -9.973   4.643  73.272  1.00  0.00    -0.151 A  
HETATM   26 CL   UNL     1     -10.373   6.307  73.556  1.00  0.00    -0.241 Cl 
ENDBRANCH  18  19
ENDBRANCH  14  15
ENDBRANCH   8  10
ENDBRANCH   4   8
BRANCH   5  27
HETATM   27  N   UNL     1     -12.396  12.808  69.812  1.00  0.00    -0.108 NA 
HETATM   28  C   UNL     1     -12.241  14.261  70.036  1.00  0.00    -0.359 C  
HETATM   29  C   UNL     1     -12.475  12.037  71.062  1.00  0.00    -0.276 C  
HETATM   30  N   UNL     1     -13.536  14.092  72.221  1.00  0.00    -0.452 NA 
HETATM   31  C   UNL     1     -13.397  14.777  70.915  1.00  0.00    -0.322 C  
HETATM   32  C   UNL     1     -13.602  12.623  71.959  1.00  0.00    -0.332 C  
BRANCH  30  33
HETATM   33  C   UNL     1     -12.432  14.401  73.157  1.00  0.00    -0.187 C  
BRANCH  33  34
HETATM   34  C   UNL     1     -12.391  15.875  73.599  1.00  0.00    -0.572 C  
HETATM   35  H   UNL     1     -11.839  17.608  72.835  1.00  0.00     0.000 HD 
HETATM   36  O   UNL     1     -11.864  16.698  72.562  1.00  0.00    -0.506 OA 
ENDBRANCH  33  34
ENDBRANCH  30  33
ENDBRANCH   5  27
TORSDOF 7
ENDMDL
MODEL      144
REMARK 921   NORMALIZED FREE ENERGY PREDICTED BY IDOCK:   -5.46 KCAL/MOL
REMARK 922        TOTAL FREE ENERGY PREDICTED BY IDOCK:   -8.08 KCAL/MOL
REMARK 923 INTER-LIGAND FREE ENERGY PREDICTED BY IDOCK:   -7.25 KCAL/MOL
REMARK 924 INTRA-LIGAND FREE ENERGY PREDICTED BY IDOCK:   -0.82 KCAL/MOL
REMARK 927      BINDING AFFINITY PREDICTED BY RF-SCORE:    0.00 PKD
ROOT
HETATM    1  C   UNL     1     -10.141   4.489  65.241  1.00  0.00    -0.179 C  
HETATM    2  C   UNL     1      -9.904   5.511  66.308  1.00  0.00    -0.145 A  
HETATM    3  N   UNL     1      -9.230   6.620  65.957  1.00  0.00    -0.090 NA 
HETATM    4  C   UNL     1      -9.138   7.582  66.882  1.00  0.00    -0.141 A  
HETATM    5  C   UNL     1     -10.315   6.245  68.448  1.00  0.00    -0.200 A  
HETATM    6  C   UNL     1      -9.741   7.451  68.106  1.00  0.00    -0.163 A  
HETATM    7  N   UNL     1     -10.426   5.273  67.527  1.00  0.00    -0.165 NA 
ENDROOT
BRANCH   4   8
HETATM    8  N   UNL     1      -8.431   8.724  66.525  1.00  0.00    -0.113 NA 
HETATM    9  H   UNL     1      -7.785   8.623  65.742  1.00  0.00     0.000 HD 
BRANCH   8  10
HETATM   10  C   UNL     1      -8.494   9.949  67.086  1.00  0.00    -0.121 A  
HETATM   11  S   UNL     1      -9.426  11.139  66.279  1.00  0.00    -0.204 SA 
HETATM   12  N   UNL     1      -7.911  10.374  68.191  1.00  0.00    -0.108 NA 
HETATM   13  C   UNL     1      -8.072  11.739  68.326  1.00  0.00    -0.154 A  
HETATM   14  C   UNL     1      -8.818  12.339  67.336  1.00  0.00    -0.185 A  
BRANCH  14  15
HETATM   15  C   UNL     1      -9.052  13.743  67.098  1.00  0.00    -0.239 C  
HETATM   16  O   UNL     1      -9.431  14.174  66.013  1.00  0.00    -0.254 OA 
HETATM   17  H   UNL     1      -8.328  14.116  69.005  1.00  0.00     0.000 HD 
HETATM   18  N   UNL     1      -8.765  14.547  68.191  1.00  0.00    -0.164 N  
BRANCH  18  19
HETATM   19  C   UNL     1      -9.045  15.921  68.236  1.00  0.00    -0.185 A  
HETATM   20  C   UNL     1      -8.257  18.202  68.372  1.00  0.00    -0.314 A  
HETATM   21  C   UNL     1      -6.531  16.407  68.441  1.00  0.00    -0.135 C  
HETATM   22  C   UNL     1      -7.973  16.826  68.354  1.00  0.00    -0.224 A  
HETATM   23  C   UNL     1      -9.572  18.666  68.300  1.00  0.00    -0.382 A  
HETATM   24  C   UNL     1     -10.629  17.767  68.246  1.00  0.00    -0.325 A  
HETATM   25  C   UNL     1     -10.373  16.397  68.223  1.00  0.00    -0.279 A  
HETATM   26 CL   UNL     1     -11.739  15.337  68.378  1.00  0.00    -0.359 Cl 
ENDBRANCH  18  19
ENDBRANCH  14  15
ENDBRANCH   8  10
ENDBRANCH   4   8
BRANCH   5  27
HETATM   27  N   UNL     1     -10.818   6.078  69.744  1.00  0.00    -0.329 NA 
HETATM   28  C   UNL     1     -11.663   7.185  70.240  1.00  0.00    -0.182 C  
HETATM   29  C   UNL     1      -9.859   5.591  70.747  1.00  0.00    -0.188 C  
HETATM   30  N   UNL     1     -11.517   6.272  72.612  1.00  0.00    -0.251 NA 
HETATM   31  C   UNL     1     -12.399   6.742  71.519  1.00  0.00    -0.358 C  
HETATM   32  C   UNL     1     -10.621   5.217  72.049  1.00  0.00    -0.216 C  
BRANCH  30  33
HETATM   33  C   UNL     1     -10.717   7.360  73.219  1.00  0.00    -0.391 C  
BRANCH  33  34
HETATM   34  C   UNL     1      -9.679   6.865  74.241  1.00  0.00    -0.274 C  
HETATM   35  H   UNL     1      -7.912   7.433  74.911  1.00  0.00     0.000 HD 
HETATM   36  O   UNL     1      -8.554   7.738  74.280  1.00  0.00    -0.235 OA 
ENDBRANCH  33  34
ENDBRANCH  30  33
ENDBRANCH   5  27
TORSDOF 7
ENDMDL
MODEL      145
REMARK 921   NORMALIZED FREE ENERGY PREDICTED BY IDOCK:   -5.46 KCAL/MOL
REMARK 922        TOTAL FREE ENERGY PREDICTED BY IDOCK:   -8.07 KCAL/MOL
REMARK 923 INTER-LIGAND FREE ENERGY PREDICTED BY IDOCK:   -8.51 KCAL/MOL
REMARK 924 INTRA-LIGAND FREE ENERGY PREDICTED BY IDOCK:    0.44 KCAL/MOL
REMARK 927      BINDING AFFINITY PREDICTED BY RF-SCORE:    0.00 PKD
ROOT
HETATM    1  C   UNL     1     -13.418  15.809  72.957  1.00  0.00    -0.672 C  
HETATM    2  C   UNL     1     -12.768  14.918  71.946  1.00  0.00    -0.326 A  
HETATM    3  N   UNL     1     -13.080  13.611  71.990  1.00  0.00    -0.385 NA 
HETATM    4  C   UNL     1     -12.597  12.849  71.003  1.00  0.00    -0.287 A  
HETATM    5  C   UNL     1     -11.477  14.711  70.055  1.00  0.00    -0.265 A  
HETATM    6  C   UNL     1     -11.860  13.389  69.981  1.00  0.00    -0.364 A  
HETATM    7  N   UNL     1     -11.962  15.494  71.033  1.00  0.00    -0.342 NA 
ENDROOT
BRANCH   4   8
HETATM    8  N   UNL     1     -12.907  11.494  71.054  1.00  0.00    -0.307 NA 
HETATM    9  H   UNL     1     -13.827  11.260  71.427  1.00  0.00     0.000 HD 
BRANCH   8  10
HETATM   10  C   UNL     1     -12.141  10.452  70.670  1.00  0.00    -0.348 A  
HETATM   11  S   UNL     1     -11.274  10.609  69.201  1.00  0.00    -0.282 SA 
HETATM   12  N   UNL     1     -11.974   9.293  71.277  1.00  0.00    -0.319 NA 
HETATM   13  C   UNL     1     -11.259   8.426  70.473  1.00  0.00    -0.238 A  
HETATM   14  C   UNL     1     -10.850   8.953  69.268  1.00  0.00    -0.096 A  
BRANCH  14  15
HETATM   15  C   UNL     1     -10.223   8.289  68.151  1.00  0.00    -0.210 C  
HETATM   16  O   UNL     1     -10.660   7.245  67.675  1.00  0.00    -0.226 OA 
HETATM   17  H   UNL     1      -8.711   9.704  68.248  1.00  0.00     0.000 HD 
HETATM   18  N   UNL     1      -9.070   8.918  67.707  1.00  0.00    -0.134 N  
BRANCH  18  19
HETATM   19  C   UNL     1      -8.372   8.531  66.553  1.00  0.00    -0.113 A  
HETATM   20  C   UNL     1      -8.039   8.705  64.166  1.00  0.00    -0.162 A  
HETATM   21  C   UNL     1      -9.887  10.056  65.147  1.00  0.00    -0.388 C  
HETATM   22  C   UNL     1      -8.757   9.076  65.314  1.00  0.00    -0.226 A  
HETATM   23  C   UNL     1      -6.980   7.798  64.242  1.00  0.00    -0.068 A  
HETATM   24  C   UNL     1      -6.644   7.215  65.457  1.00  0.00    -0.048 A  
HETATM   25  C   UNL     1      -7.341   7.570  66.612  1.00  0.00    -0.091 A  
HETATM   26 CL   UNL     1      -7.016   6.644  68.043  1.00  0.00    -0.077 Cl 
ENDBRANCH  18  19
ENDBRANCH  14  15
ENDBRANCH   8  10
ENDBRANCH   4   8
BRANCH   5  27
HETATM   27  N   UNL     1     -10.622  15.225  69.072  1.00  0.00    -0.235 NA 
HETATM   28  C   UNL     1      -9.281  15.625  69.548  1.00  0.00    -0.259 C  
HETATM   29  C   UNL     1     -11.221  16.200  68.147  1.00  0.00    -0.311 C  
HETATM   30  N   UNL     1      -8.845  16.865  67.367  1.00  0.00    -0.203 NA 
HETATM   31  C   UNL     1      -8.352  15.864  68.342  1.00  0.00    -0.174 C  
HETATM   32  C   UNL     1     -10.233  16.474  66.978  1.00  0.00    -0.288 C  
BRANCH  30  33
HETATM   33  C   UNL     1      -8.827  18.246  67.899  1.00  0.00    -0.269 C  
BRANCH  33  34
HETATM   34  C   UNL     1     -10.230  18.851  68.089  1.00  0.00    -0.391 C  
HETATM   35  H   UNL     1     -11.123  20.581  67.770  1.00  0.00     0.000 HD 
HETATM   36  O   UNL     1     -10.257  20.207  67.653  1.00  0.00    -0.403 OA 
ENDBRANCH  33  34
ENDBRANCH  30  33
ENDBRANCH   5  27
TORSDOF 7
ENDMDL
MODEL      146
REMARK 921   NORMALIZED FREE ENERGY PREDICTED BY IDOCK:   -5.44 KCAL/MOL
REMARK 922        TOTAL FREE ENERGY PREDICTED BY IDOCK:   -8.04 KCAL/MOL
REMARK 923 INTER-LIGAND FREE ENERGY PREDICTED BY IDOCK:   -7.16 KCAL/MOL
REMARK 924 INTRA-LIGAND FREE ENERGY PREDICTED BY IDOCK:   -0.89 KCAL/MOL
REMARK 927      BINDING AFFINITY PREDICTED BY RF-SCORE:    0.00 PKD
ROOT
HETATM    1  C   UNL     1     -12.167  10.410  71.301  1.00  0.00    -0.491 C  
HETATM    2  C   UNL     1     -11.377   9.570  70.348  1.00  0.00    -0.264 A  
HETATM    3  N   UNL     1     -10.819  10.195  69.297  1.00  0.00    -0.223 NA 
HETATM    4  C   UNL     1     -10.009   9.460  68.526  1.00  0.00    -0.173 A  
HETATM    5  C   UNL     1     -10.430   7.536  69.846  1.00  0.00    -0.229 A  
HETATM    6  C   UNL     1      -9.736   8.151  68.826  1.00  0.00    -0.155 A  
HETATM    7  N   UNL     1     -11.237   8.261  70.637  1.00  0.00    -0.259 NA 
ENDROOT
BRANCH   4   8
HETATM    8  N   UNL     1      -9.440  10.101  67.431  1.00  0.00    -0.151 NA 
HETATM    9  H   UNL     1      -8.634   9.639  67.012  1.00  0.00     0.000 HD 
BRANCH   8  10
HETATM   10  C   UNL     1      -9.823  11.260  66.856  1.00  0.00    -0.193 A  
HETATM   11  S   UNL     1      -8.813  12.625  67.083  1.00  0.00    -0.207 SA 
HETATM   12  N   UNL     1     -10.904  11.498  66.137  1.00  0.00    -0.282 NA 
HETATM   13  C   UNL     1     -11.027  12.850  65.886  1.00  0.00    -0.276 A  
HETATM   14  C   UNL     1     -10.008  13.631  66.386  1.00  0.00    -0.296 A  
BRANCH  14  15
HETATM   15  C   UNL     1      -9.902  15.070  66.429  1.00  0.00    -0.272 C  
HETATM   16  O   UNL     1     -10.313  15.788  65.524  1.00  0.00    -0.355 OA 
HETATM   17  H   UNL     1      -8.832  14.868  68.194  1.00  0.00     0.000 HD 
HETATM   18  N   UNL     1      -9.258  15.545  67.561  1.00  0.00    -0.196 N  
BRANCH  18  19
HETATM   19  C   UNL     1      -9.161  16.908  67.882  1.00  0.00    -0.234 A  
HETATM   20  C   UNL     1      -9.925  18.800  69.177  1.00  0.00    -0.257 A  
HETATM   21  C   UNL     1     -11.099  16.634  69.546  1.00  0.00    -0.158 C  
HETATM   22  C   UNL     1     -10.043  17.441  68.840  1.00  0.00    -0.330 A  
HETATM   23  C   UNL     1      -8.971  19.613  68.561  1.00  0.00    -0.358 A  
HETATM   24  C   UNL     1      -8.145  19.096  67.572  1.00  0.00    -0.301 A  
HETATM   25  C   UNL     1      -8.241  17.750  67.222  1.00  0.00    -0.215 A  
HETATM   26 CL   UNL     1      -7.338  17.230  65.835  1.00  0.00    -0.218 Cl 
ENDBRANCH  18  19
ENDBRANCH  14  15
ENDBRANCH   8  10
ENDBRANCH   4   8
BRANCH   5  27
HETATM   27  N   UNL     1     -10.237   6.167  70.067  1.00  0.00    -0.185 NA 
HETATM   28  C   UNL     1      -9.757   5.807  71.418  1.00  0.00    -0.167 C  
HETATM   29  C   UNL     1      -9.543   5.436  68.995  1.00  0.00    -0.141 C  
HETATM   30  N   UNL     1      -9.190   3.456  70.624  1.00  0.00    -0.124 NA 
HETATM   31  C   UNL     1      -9.891   4.287  71.629  1.00  0.00    -0.187 C  
HETATM   32  C   UNL     1      -9.635   3.908  69.271  1.00  0.00    -0.162 C  
BRANCH  30  33
HETATM   33  C   UNL     1      -7.716   3.534  70.735  1.00  0.00    -0.040 C  
BRANCH  33  34
HETATM   34  C   UNL     1      -6.975   2.541  69.823  1.00  0.00    -0.033 C  
HETATM   35  H   UNL     1      -5.675   2.618  68.341  1.00  0.00     0.000 HD 
HETATM   36  O   UNL     1      -6.132   3.231  68.904  1.00  0.00    -0.026 OA 
ENDBRANCH  33  34
ENDBRANCH  30  33
ENDBRANCH   5  27
TORSDOF 7
ENDMDL
MODEL      147
REMARK 921   NORMALIZED FREE ENERGY PREDICTED BY IDOCK:   -5.42 KCAL/MOL
REMARK 922        TOTAL FREE ENERGY PREDICTED BY IDOCK:   -8.01 KCAL/MOL
REMARK 923 INTER-LIGAND FREE ENERGY PREDICTED BY IDOCK:   -7.07 KCAL/MOL
REMARK 924 INTRA-LIGAND FREE ENERGY PREDICTED BY IDOCK:   -0.94 KCAL/MOL
REMARK 927      BINDING AFFINITY PREDICTED BY RF-SCORE:    0.00 PKD
ROOT
HETATM    1  C   UNL     1     -12.367  12.479  69.886  1.00  0.00    -0.119 C  
HETATM    2  C   UNL     1     -11.571  12.492  68.618  1.00  0.00    -0.314 A  
HETATM    3  N   UNL     1     -11.443  11.325  67.964  1.00  0.00    -0.402 NA 
HETATM    4  C   UNL     1     -10.844  11.373  66.768  1.00  0.00    -0.286 A  
HETATM    5  C   UNL     1     -10.479  13.704  66.999  1.00  0.00    -0.270 A  
HETATM    6  C   UNL     1     -10.426  12.562  66.229  1.00  0.00    -0.268 A  
HETATM    7  N   UNL     1     -11.088  13.676  68.196  1.00  0.00    -0.247 NA 
ENDROOT
BRANCH   4   8
HETATM    8  N   UNL     1     -10.699  10.165  66.096  1.00  0.00    -0.018 NA 
HETATM    9  H   UNL     1     -11.300  10.031  65.283  1.00  0.00     0.000 HD 
BRANCH   8  10
HETATM   10  C   UNL     1      -9.860   9.149  66.385  1.00  0.00    -0.280 A  
HETATM   11  S   UNL     1     -10.492   7.838  67.290  1.00  0.00    -0.318 SA 
HETATM   12  N   UNL     1      -8.584   9.027  66.073  1.00  0.00    -0.135 NA 
HETATM   13  C   UNL     1      -8.034   7.931  66.709  1.00  0.00    -0.107 A  
HETATM   14  C   UNL     1      -8.915   7.199  67.474  1.00  0.00    -0.121 A  
BRANCH  14  15
HETATM   15  C   UNL     1      -8.646   6.101  68.371  1.00  0.00    -0.112 C  
HETATM   16  O   UNL     1      -7.511   5.811  68.735  1.00  0.00    -0.081 OA 
HETATM   17  H   UNL     1     -10.662   5.624  68.279  1.00  0.00     0.000 HD 
HETATM   18  N   UNL     1      -9.780   5.393  68.737  1.00  0.00    -0.133 N  
BRANCH  18  19
HETATM   19  C   UNL     1      -9.780   4.375  69.703  1.00  0.00    -0.219 A  
HETATM   20  C   UNL     1     -10.172   3.667  71.980  1.00  0.00    -0.145 A  
HETATM   21  C   UNL     1     -10.544   6.076  71.469  1.00  0.00    -0.295 C  
HETATM   22  C   UNL     1     -10.149   4.695  71.023  1.00  0.00    -0.246 A  
HETATM   23  C   UNL     1      -9.814   2.361  71.641  1.00  0.00    -0.216 A  
HETATM   24  C   UNL     1      -9.390   2.064  70.352  1.00  0.00    -0.181 A  
HETATM   25  C   UNL     1      -9.362   3.066  69.384  1.00  0.00    -0.137 A  
HETATM   26 CL   UNL     1      -8.618   2.673  67.866  1.00  0.00    -0.105 Cl 
ENDBRANCH  18  19
ENDBRANCH  14  15
ENDBRANCH   8  10
ENDBRANCH   4   8
BRANCH   5  27
HETATM   27  N   UNL     1      -9.937  14.890  66.488  1.00  0.00    -0.255 NA 
HETATM   28  C   UNL     1      -8.612  15.261  67.028  1.00  0.00    -0.227 C  
HETATM   29  C   UNL     1     -10.861  16.030  66.395  1.00  0.00    -0.159 C  
HETATM   30  N   UNL     1      -8.834  17.600  66.047  1.00  0.00    -0.524 NA 
HETATM   31  C   UNL     1      -7.998  16.384  66.170  1.00  0.00    -0.094 C  
HETATM   32  C   UNL     1     -10.189  17.174  65.584  1.00  0.00    -0.144 C  
BRANCH  30  33
HETATM   33  C   UNL     1      -8.937  18.361  67.312  1.00  0.00    -0.263 C  
BRANCH  33  34
HETATM   34  C   UNL     1      -8.320  19.769  67.237  1.00  0.00    -0.312 C  
HETATM   35  H   UNL     1      -7.534  20.941  65.858  1.00  0.00     0.000 HD 
HETATM   36  O   UNL     1      -7.914  20.072  65.905  1.00  0.00    -0.336 OA 
ENDBRANCH  33  34
ENDBRANCH  30  33
ENDBRANCH   5  27
TORSDOF 7
ENDMDL
MODEL      148
REMARK 921   NORMALIZED FREE ENERGY PREDICTED BY IDOCK:   -5.40 KCAL/MOL
REMARK 922        TOTAL FREE ENERGY PREDICTED BY IDOCK:   -7.98 KCAL/MOL
REMARK 923 INTER-LIGAND FREE ENERGY PREDICTED BY IDOCK:   -7.19 KCAL/MOL
REMARK 924 INTRA-LIGAND FREE ENERGY PREDICTED BY IDOCK:   -0.79 KCAL/MOL
REMARK 927      BINDING AFFINITY PREDICTED BY RF-SCORE:    0.00 PKD
ROOT
HETATM    1  C   UNL     1      -5.187   6.998  69.302  1.00  0.00    -0.014 C  
HETATM    2  C   UNL     1      -6.310   7.876  69.756  1.00  0.00    -0.030 A  
HETATM    3  N   UNL     1      -6.220   9.186  69.467  1.00  0.00    -0.039 NA 
HETATM    4  C   UNL     1      -7.288   9.937  69.760  1.00  0.00    -0.129 A  
HETATM    5  C   UNL     1      -8.412   8.059  70.670  1.00  0.00    -0.125 A  
HETATM    6  C   UNL     1      -8.425   9.383  70.288  1.00  0.00    -0.237 A  
HETATM    7  N   UNL     1      -7.354   7.287  70.372  1.00  0.00    -0.077 NA 
ENDROOT
BRANCH   4   8
HETATM    8  N   UNL     1      -7.191  11.294  69.474  1.00  0.00    -0.316 NA 
HETATM    9  H   UNL     1      -6.604  11.843  70.102  1.00  0.00     0.000 HD 
BRANCH   8  10
HETATM   10  C   UNL     1      -7.779  11.974  68.468  1.00  0.00    -0.127 A  
HETATM   11  S   UNL     1      -7.367  13.628  68.287  1.00  0.00    -0.134 SA 
HETATM   12  N   UNL     1      -8.660  11.535  67.589  1.00  0.00    -0.132 NA 
HETATM   13  C   UNL     1      -9.156  12.584  66.840  1.00  0.00    -0.213 A  
HETATM   14  C   UNL     1      -8.612  13.816  67.130  1.00  0.00    -0.198 A  
BRANCH  14  15
HETATM   15  C   UNL     1      -9.002  15.119  66.646  1.00  0.00    -0.287 C  
HETATM   16  O   UNL     1      -9.621  15.275  65.598  1.00  0.00    -0.336 OA 
HETATM   17  H   UNL     1      -7.949  15.945  68.230  1.00  0.00     0.000 HD 
HETATM   18  N   UNL     1      -8.572  16.162  67.452  1.00  0.00    -0.176 N  
BRANCH  18  19
HETATM   19  C   UNL     1      -8.948  17.499  67.254  1.00  0.00    -0.235 A  
HETATM   20  C   UNL     1     -10.542  19.284  67.589  1.00  0.00    -0.553 A  
HETATM   21  C   UNL     1     -11.139  17.051  68.518  1.00  0.00    -0.156 C  
HETATM   22  C   UNL     1     -10.183  17.938  67.767  1.00  0.00    -0.372 A  
HETATM   23  C   UNL     1      -9.708  20.166  66.899  1.00  0.00    -0.582 A  
HETATM   24  C   UNL     1      -8.520  19.713  66.342  1.00  0.00    -0.382 A  
HETATM   25  C   UNL     1      -8.139  18.382  66.507  1.00  0.00    -0.269 A  
HETATM   26 CL   UNL     1      -6.762  17.838  65.603  1.00  0.00    -0.214 Cl 
ENDBRANCH  18  19
ENDBRANCH  14  15
ENDBRANCH   8  10
ENDBRANCH   4   8
BRANCH   5  27
HETATM   27  N   UNL     1      -9.534   7.531  71.321  1.00  0.00    -0.150 NA 
HETATM   28  C   UNL     1      -9.350   7.239  72.758  1.00  0.00    -0.149 C  
HETATM   29  C   UNL     1     -10.251   6.466  70.603  1.00  0.00    -0.190 C  
HETATM   30  N   UNL     1     -11.506   5.885  72.790  1.00  0.00    -0.263 NA 
HETATM   31  C   UNL     1     -10.719   6.974  73.414  1.00  0.00    -0.345 C  
HETATM   32  C   UNL     1     -11.595   6.172  71.326  1.00  0.00    -0.205 C  
BRANCH  30  33
HETATM   33  C   UNL     1     -10.922   4.545  73.019  1.00  0.00    -0.226 C  
BRANCH  33  34
HETATM   34  C   UNL     1     -10.506   4.295  74.480  1.00  0.00    -0.236 C  
HETATM   35  H   UNL     1      -9.313   3.070  75.463  1.00  0.00     0.000 HD 
HETATM   36  O   UNL     1      -9.570   3.224  74.561  1.00  0.00    -0.096 OA 
ENDBRANCH  33  34
ENDBRANCH  30  33
ENDBRANCH   5  27
TORSDOF 7
ENDMDL
MODEL      149
REMARK 921   NORMALIZED FREE ENERGY PREDICTED BY IDOCK:   -5.38 KCAL/MOL
REMARK 922        TOTAL FREE ENERGY PREDICTED BY IDOCK:   -7.96 KCAL/MOL
REMARK 923 INTER-LIGAND FREE ENERGY PREDICTED BY IDOCK:   -7.33 KCAL/MOL
REMARK 924 INTRA-LIGAND FREE ENERGY PREDICTED BY IDOCK:   -0.62 KCAL/MOL
REMARK 927      BINDING AFFINITY PREDICTED BY RF-SCORE:    0.00 PKD
ROOT
HETATM    1  C   UNL     1      -5.237   5.551  69.759  1.00  0.00    -0.004 C  
HETATM    2  C   UNL     1      -6.108   6.690  70.189  1.00  0.00    -0.027 A  
HETATM    3  N   UNL     1      -5.590   7.927  70.096  1.00  0.00    -0.023 NA 
HETATM    4  C   UNL     1      -6.420   8.943  70.358  1.00  0.00    -0.043 A  
HETATM    5  C   UNL     1      -8.178   7.433  70.857  1.00  0.00    -0.114 A  
HETATM    6  C   UNL     1      -7.738   8.725  70.662  1.00  0.00    -0.096 A  
HETATM    7  N   UNL     1      -7.362   6.401  70.587  1.00  0.00    -0.077 NA 
ENDROOT
BRANCH   4   8
HETATM    8  N   UNL     1      -5.882  10.223  70.274  1.00  0.00    -0.068 NA 
HETATM    9  H   UNL     1      -4.933  10.333  70.630  1.00  0.00     0.000 HD 
BRANCH   8  10
HETATM   10  C   UNL     1      -6.463  11.336  69.781  1.00  0.00    -0.140 A  
HETATM   11  S   UNL     1      -7.792  11.129  68.720  1.00  0.00    -0.132 SA 
HETATM   12  N   UNL     1      -6.131  12.595  69.996  1.00  0.00    -0.139 NA 
HETATM   13  C   UNL     1      -6.851  13.431  69.165  1.00  0.00    -0.076 A  
HETATM   14  C   UNL     1      -7.761  12.798  68.348  1.00  0.00    -0.132 A  
BRANCH  14  15
HETATM   15  C   UNL     1      -8.557  13.347  67.276  1.00  0.00    -0.213 C  
HETATM   16  O   UNL     1      -8.307  14.431  66.758  1.00  0.00    -0.142 OA 
HETATM   17  H   UNL     1      -9.846  11.739  67.504  1.00  0.00     0.000 HD 
HETATM   18  N   UNL     1      -9.641  12.556  66.929  1.00  0.00    -0.222 N  
BRANCH  18  19
HETATM   19  C   UNL     1     -10.471  12.820  65.829  1.00  0.00    -0.276 A  
HETATM   20  C   UNL     1     -12.351  14.002  64.876  1.00  0.00    -0.447 A  
HETATM   21  C   UNL     1     -11.855  14.425  67.280  1.00  0.00    -0.434 C  
HETATM   22  C   UNL     1     -11.539  13.722  65.987  1.00  0.00    -0.361 A  
HETATM   23  C   UNL     1     -12.123  13.384  63.645  1.00  0.00    -0.513 A  
HETATM   24  C   UNL     1     -11.106  12.448  63.510  1.00  0.00    -0.521 A  
HETATM   25  C   UNL     1     -10.285  12.155  64.598  1.00  0.00    -0.284 A  
HETATM   26 CL   UNL     1      -9.186  10.825  64.419  1.00  0.00    -0.235 Cl 
ENDBRANCH  18  19
ENDBRANCH  14  15
ENDBRANCH   8  10
ENDBRANCH   4   8
BRANCH   5  27
HETATM   27  N   UNL     1      -9.494   7.224  71.289  1.00  0.00    -0.155 NA 
HETATM   28  C   UNL     1     -10.468   6.921  70.219  1.00  0.00    -0.204 C  
HETATM   29  C   UNL     1     -10.005   8.185  72.279  1.00  0.00    -0.263 C  
HETATM   30  N   UNL     1     -12.402   7.323  71.825  1.00  0.00    -0.327 NA 
HETATM   31  C   UNL     1     -11.780   6.407  70.842  1.00  0.00    -0.303 C  
HETATM   32  C   UNL     1     -11.362   7.674  72.839  1.00  0.00    -0.341 C  
BRANCH  30  33
HETATM   33  C   UNL     1     -12.953   8.549  71.205  1.00  0.00    -0.159 C  
BRANCH  33  34
HETATM   34  C   UNL     1     -13.731   9.441  72.189  1.00  0.00    -0.420 C  
HETATM   35  H   UNL     1     -13.774  11.345  72.704  1.00  0.00     0.000 HD 
HETATM   36  O   UNL     1     -13.294  10.794  72.097  1.00  0.00    -0.442 OA 
ENDBRANCH  33  34
ENDBRANCH  30  33
ENDBRANCH   5  27
TORSDOF 7
ENDMDL
MODEL      150
REMARK 921   NORMALIZED FREE ENERGY PREDICTED BY IDOCK:   -5.37 KCAL/MOL
REMARK 922        TOTAL FREE ENERGY PREDICTED BY IDOCK:   -7.94 KCAL/MOL
REMARK 923 INTER-LIGAND FREE ENERGY PREDICTED BY IDOCK:   -7.32 KCAL/MOL
REMARK 924 INTRA-LIGAND FREE ENERGY PREDICTED BY IDOCK:   -0.62 KCAL/MOL
REMARK 927      BINDING AFFINITY PREDICTED BY RF-SCORE:    0.00 PKD
ROOT
HETATM    1  C   UNL     1      -9.235  13.327  66.533  1.00  0.00    -0.182 C  
HETATM    2  C   UNL     1     -10.192  12.509  67.342  1.00  0.00    -0.213 A  
HETATM    3  N   UNL     1     -10.208  11.184  67.118  1.00  0.00    -0.194 NA 
HETATM    4  C   UNL     1     -10.970  10.449  67.936  1.00  0.00    -0.297 A  
HETATM    5  C   UNL     1     -11.695  12.396  69.078  1.00  0.00    -0.323 A  
HETATM    6  C   UNL     1     -11.659  11.022  68.973  1.00  0.00    -0.392 A  
HETATM    7  N   UNL     1     -10.927  13.148  68.273  1.00  0.00    -0.242 NA 
ENDROOT
BRANCH   4   8
HETATM    8  N   UNL     1     -10.998   9.079  67.697  1.00  0.00    -0.479 NA 
HETATM    9  H   UNL     1     -11.684   8.759  67.013  1.00  0.00     0.000 HD 
BRANCH   8  10
HETATM   10  C   UNL     1     -10.231   8.123  68.257  1.00  0.00    -0.206 A  
HETATM   11  S   UNL     1     -11.020   6.930  69.200  1.00  0.00    -0.165 SA 
HETATM   12  N   UNL     1      -8.920   7.982  68.191  1.00  0.00    -0.135 NA 
HETATM   13  C   UNL     1      -8.499   6.986  69.050  1.00  0.00    -0.129 A  
HETATM   14  C   UNL     1      -9.505   6.344  69.737  1.00  0.00    -0.152 A  
BRANCH  14  15
HETATM   15  C   UNL     1      -9.405   5.375  70.802  1.00  0.00    -0.159 C  
HETATM   16  O   UNL     1     -10.382   4.780  71.246  1.00  0.00    -0.187 OA 
HETATM   17  H   UNL     1      -7.393   5.856  70.956  1.00  0.00     0.000 HD 
HETATM   18  N   UNL     1      -8.118   5.223  71.294  1.00  0.00    -0.112 N  
BRANCH  18  19
HETATM   19  C   UNL     1      -7.758   4.243  72.232  1.00  0.00    -0.081 A  
HETATM   20  C   UNL     1      -6.894   3.669  74.415  1.00  0.00    -0.046 A  
HETATM   21  C   UNL     1      -7.014   6.092  73.852  1.00  0.00    -0.083 C  
HETATM   22  C   UNL     1      -7.228   4.653  73.470  1.00  0.00    -0.080 A  
HETATM   23  C   UNL     1      -7.061   2.313  74.130  1.00  0.00    -0.028 A  
HETATM   24  C   UNL     1      -7.526   1.911  72.884  1.00  0.00    -0.033 A  
HETATM   25  C   UNL     1      -7.867   2.869  71.931  1.00  0.00    -0.053 A  
HETATM   26 CL   UNL     1      -8.228   2.296  70.333  1.00  0.00    -0.056 Cl 
ENDBRANCH  18  19
ENDBRANCH  14  15
ENDBRANCH   8  10
ENDBRANCH   4   8
BRANCH   5  27
HETATM   27  N   UNL     1     -12.501  12.978  70.064  1.00  0.00    -0.118 NA 
HETATM   28  C   UNL     1     -12.299  14.428  70.269  1.00  0.00    -0.348 C  
HETATM   29  C   UNL     1     -12.614  12.229  71.325  1.00  0.00    -0.234 C  
HETATM   30  N   UNL     1     -13.615  14.335  72.446  1.00  0.00    -0.457 NA 
HETATM   31  C   UNL     1     -13.443  14.995  71.131  1.00  0.00    -0.437 C  
HETATM   32  C   UNL     1     -13.728  12.865  72.204  1.00  0.00    -0.414 C  
BRANCH  30  33
HETATM   33  C   UNL     1     -12.508  14.620  73.386  1.00  0.00    -0.324 C  
BRANCH  33  34
HETATM   34  C   UNL     1     -12.531  16.052  73.950  1.00  0.00    -0.612 C  
HETATM   35  H   UNL     1     -11.931  17.846  73.389  1.00  0.00     0.000 HD 
HETATM   36  O   UNL     1     -11.917  16.962  73.041  1.00  0.00    -0.343 OA 
ENDBRANCH  33  34
ENDBRANCH  30  33
ENDBRANCH   5  27
TORSDOF 7
ENDMDL
MODEL      151
REMARK 921   NORMALIZED FREE ENERGY PREDICTED BY IDOCK:   -5.37 KCAL/MOL
REMARK 922        TOTAL FREE ENERGY PREDICTED BY IDOCK:   -7.94 KCAL/MOL
REMARK 923 INTER-LIGAND FREE ENERGY PREDICTED BY IDOCK:   -6.94 KCAL/MOL
REMARK 924 INTRA-LIGAND FREE ENERGY PREDICTED BY IDOCK:   -1.00 KCAL/MOL
REMARK 927      BINDING AFFINITY PREDICTED BY RF-SCORE:    0.00 PKD
ROOT
HETATM    1  C   UNL     1     -10.309   5.293  66.471  1.00  0.00    -0.332 C  
HETATM    2  C   UNL     1     -10.340   6.437  67.435  1.00  0.00    -0.205 A  
HETATM    3  N   UNL     1     -10.616   7.654  66.934  1.00  0.00    -0.341 NA 
HETATM    4  C   UNL     1     -10.770   8.644  67.820  1.00  0.00    -0.110 A  
HETATM    5  C   UNL     1     -10.292   7.169  69.614  1.00  0.00    -0.215 A  
HETATM    6  C   UNL     1     -10.692   8.410  69.168  1.00  0.00    -0.123 A  
HETATM    7  N   UNL     1     -10.144   6.160  68.739  1.00  0.00    -0.157 NA 
ENDROOT
BRANCH   4   8
HETATM    8  N   UNL     1     -11.042   9.905  67.303  1.00  0.00    -0.286 NA 
HETATM    9  H   UNL     1     -11.957  10.022  66.867  1.00  0.00     0.000 HD 
BRANCH   8  10
HETATM   10  C   UNL     1     -10.246  10.994  67.307  1.00  0.00    -0.199 A  
HETATM   11  S   UNL     1     -10.986  12.512  67.598  1.00  0.00    -0.255 SA 
HETATM   12  N   UNL     1      -8.945  11.056  67.099  1.00  0.00    -0.142 NA 
HETATM   13  C   UNL     1      -8.534  12.372  67.004  1.00  0.00    -0.170 A  
HETATM   14  C   UNL     1      -9.529  13.307  67.184  1.00  0.00    -0.240 A  
BRANCH  14  15
HETATM   15  C   UNL     1      -9.475  14.739  67.009  1.00  0.00    -0.231 C  
HETATM   16  O   UNL     1      -9.925  15.298  66.014  1.00  0.00    -0.275 OA 
HETATM   17  H   UNL     1      -8.373  14.841  68.762  1.00  0.00     0.000 HD 
HETATM   18  N   UNL     1      -8.832  15.400  68.043  1.00  0.00    -0.164 N  
BRANCH  18  19
HETATM   19  C   UNL     1      -8.780  16.798  68.155  1.00  0.00    -0.219 A  
HETATM   20  C   UNL     1      -7.615  18.876  67.749  1.00  0.00    -0.255 A  
HETATM   21  C   UNL     1      -6.478  16.785  67.014  1.00  0.00    -0.229 C  
HETATM   22  C   UNL     1      -7.650  17.475  67.658  1.00  0.00    -0.203 A  
HETATM   23  C   UNL     1      -8.663  19.585  68.338  1.00  0.00    -0.389 A  
HETATM   24  C   UNL     1      -9.747  18.908  68.882  1.00  0.00    -0.420 A  
HETATM   25  C   UNL     1      -9.807  17.518  68.802  1.00  0.00    -0.326 A  
HETATM   26 CL   UNL     1     -11.072  16.731  69.690  1.00  0.00    -0.152 Cl 
ENDBRANCH  18  19
ENDBRANCH  14  15
ENDBRANCH   8  10
ENDBRANCH   4   8
BRANCH   5  27
HETATM   27  N   UNL     1     -10.094   6.973  70.986  1.00  0.00    -0.196 NA 
HETATM   28  C   UNL     1      -8.822   7.502  71.523  1.00  0.00    -0.124 C  
HETATM   29  C   UNL     1     -10.423   5.633  71.497  1.00  0.00    -0.239 C  
HETATM   30  N   UNL     1      -9.154   6.193  73.681  1.00  0.00    -0.127 NA 
HETATM   31  C   UNL     1      -8.872   7.509  73.063  1.00  0.00    -0.154 C  
HETATM   32  C   UNL     1     -10.397   5.654  73.051  1.00  0.00    -0.203 C  
BRANCH  30  33
HETATM   33  C   UNL     1      -8.040   5.232  73.531  1.00  0.00    -0.110 C  
BRANCH  33  34
HETATM   34  C   UNL     1      -8.334   3.847  74.134  1.00  0.00    -0.090 C  
HETATM   35  H   UNL     1      -8.329   1.968  73.534  1.00  0.00     0.000 HD 
HETATM   36  O   UNL     1      -8.148   2.823  73.162  1.00  0.00    -0.058 OA 
ENDBRANCH  33  34
ENDBRANCH  30  33
ENDBRANCH   5  27
TORSDOF 7
ENDMDL
MODEL      152
REMARK 921   NORMALIZED FREE ENERGY PREDICTED BY IDOCK:   -5.35 KCAL/MOL
REMARK 922        TOTAL FREE ENERGY PREDICTED BY IDOCK:   -7.91 KCAL/MOL
REMARK 923 INTER-LIGAND FREE ENERGY PREDICTED BY IDOCK:   -7.08 KCAL/MOL
REMARK 924 INTRA-LIGAND FREE ENERGY PREDICTED BY IDOCK:   -0.83 KCAL/MOL
REMARK 927      BINDING AFFINITY PREDICTED BY RF-SCORE:    0.00 PKD
ROOT
HETATM    1  C   UNL     1     -12.367   6.020  72.576  1.00  0.00     0.030 C  
HETATM    2  C   UNL     1     -11.760   6.924  71.549  1.00  0.00    -0.311 A  
HETATM    3  N   UNL     1     -12.379   8.096  71.322  1.00  0.00    -0.293 NA 
HETATM    4  C   UNL     1     -11.758   8.950  70.501  1.00  0.00    -0.111 A  
HETATM    5  C   UNL     1     -10.008   7.393  70.137  1.00  0.00    -0.184 A  
HETATM    6  C   UNL     1     -10.534   8.655  69.960  1.00  0.00    -0.229 A  
HETATM    7  N   UNL     1     -10.612   6.527  70.967  1.00  0.00    -0.225 NA 
ENDROOT
BRANCH   4   8
HETATM    8  N   UNL     1     -12.403  10.157  70.254  1.00  0.00    -0.487 NA 
HETATM    9  H   UNL     1     -13.261  10.321  70.781  1.00  0.00     0.000 HD 
BRANCH   8  10
HETATM   10  C   UNL     1     -12.033  11.138  69.405  1.00  0.00    -0.349 A  
HETATM   11  S   UNL     1     -11.679  12.673  70.079  1.00  0.00    -0.141 SA 
HETATM   12  N   UNL     1     -11.917  11.082  68.092  1.00  0.00    -0.603 NA 
HETATM   13  C   UNL     1     -11.696  12.343  67.574  1.00  0.00    -0.357 A  
HETATM   14  C   UNL     1     -11.603  13.350  68.509  1.00  0.00    -0.333 A  
BRANCH  14  15
HETATM   15  C   UNL     1     -11.524  14.776  68.306  1.00  0.00    -0.317 C  
HETATM   16  O   UNL     1     -12.257  15.567  68.890  1.00  0.00    -0.245 OA 
HETATM   17  H   UNL     1     -10.110  14.416  66.832  1.00  0.00     0.000 HD 
HETATM   18  N   UNL     1     -10.578  15.150  67.363  1.00  0.00    -0.266 N  
BRANCH  18  19
HETATM   19  C   UNL     1     -10.231  16.484  67.101  1.00  0.00    -0.284 A  
HETATM   20  C   UNL     1     -10.287  18.399  65.627  1.00  0.00    -0.057 A  
HETATM   21  C   UNL     1     -11.377  16.314  64.809  1.00  0.00    -0.214 C  
HETATM   22  C   UNL     1     -10.615  17.055  65.873  1.00  0.00    -0.221 A  
HETATM   23  C   UNL     1      -9.577  19.149  66.567  1.00  0.00    -0.399 A  
HETATM   24  C   UNL     1      -9.148  18.563  67.750  1.00  0.00    -0.292 A  
HETATM   25  C   UNL     1      -9.463  17.232  68.018  1.00  0.00    -0.271 A  
HETATM   26 CL   UNL     1      -8.710  16.508  69.404  1.00  0.00    -0.055 Cl 
ENDBRANCH  18  19
ENDBRANCH  14  15
ENDBRANCH   8  10
ENDBRANCH   4   8
BRANCH   5  27
HETATM   27  N   UNL     1      -8.818   7.058  69.480  1.00  0.00    -0.134 NA 
HETATM   28  C   UNL     1      -8.732   7.490  68.069  1.00  0.00    -0.121 C  
HETATM   29  C   UNL     1      -8.332   5.686  69.693  1.00  0.00    -0.107 C  
HETATM   30  N   UNL     1      -6.710   5.988  67.700  1.00  0.00    -0.056 NA 
HETATM   31  C   UNL     1      -7.282   7.348  67.569  1.00  0.00    -0.094 C  
HETATM   32  C   UNL     1      -6.894   5.553  69.117  1.00  0.00    -0.058 C  
BRANCH  30  33
HETATM   33  C   UNL     1      -7.327   5.010  66.776  1.00  0.00    -0.086 C  
BRANCH  33  34
HETATM   34  C   UNL     1      -7.612   5.580  65.375  1.00  0.00    -0.079 C  
HETATM   35  H   UNL     1      -9.170   5.804  64.186  1.00  0.00     0.000 HD 
HETATM   36  O   UNL     1      -8.994   5.452  65.051  1.00  0.00    -0.131 OA 
ENDBRANCH  33  34
ENDBRANCH  30  33
ENDBRANCH   5  27
TORSDOF 7
ENDMDL
MODEL      153
REMARK 921   NORMALIZED FREE ENERGY PREDICTED BY IDOCK:   -5.35 KCAL/MOL
REMARK 922        TOTAL FREE ENERGY PREDICTED BY IDOCK:   -7.91 KCAL/MOL
REMARK 923 INTER-LIGAND FREE ENERGY PREDICTED BY IDOCK:   -7.15 KCAL/MOL
REMARK 924 INTRA-LIGAND FREE ENERGY PREDICTED BY IDOCK:   -0.76 KCAL/MOL
REMARK 927      BINDING AFFINITY PREDICTED BY RF-SCORE:    0.00 PKD
ROOT
HETATM    1  C   UNL     1     -12.299  11.685  63.125  1.00  0.00    -0.154 C  
HETATM    2  C   UNL     1     -11.609  11.570  64.448  1.00  0.00    -0.105 A  
HETATM    3  N   UNL     1     -12.129  12.269  65.472  1.00  0.00    -0.553 NA 
HETATM    4  C   UNL     1     -11.586  12.057  66.676  1.00  0.00    -0.319 A  
HETATM    5  C   UNL     1     -10.014  10.545  65.747  1.00  0.00    -0.258 A  
HETATM    6  C   UNL     1     -10.581  11.141  66.853  1.00  0.00    -0.304 A  
HETATM    7  N   UNL     1     -10.554  10.737  64.532  1.00  0.00    -0.285 NA 
ENDROOT
BRANCH   4   8
HETATM    8  N   UNL     1     -12.113  12.788  67.735  1.00  0.00    -0.321 NA 
HETATM    9  H   UNL     1     -12.971  12.422  68.147  1.00  0.00     0.000 HD 
BRANCH   8  10
HETATM   10  C   UNL     1     -11.629  13.922  68.283  1.00  0.00    -0.337 A  
HETATM   11  S   UNL     1     -10.543  14.853  67.340  1.00  0.00    -0.268 SA 
HETATM   12  N   UNL     1     -11.872  14.419  69.481  1.00  0.00    -0.309 NA 
HETATM   13  C   UNL     1     -11.044  15.496  69.732  1.00  0.00    -0.296 A  
HETATM   14  C   UNL     1     -10.200  15.836  68.698  1.00  0.00    -0.221 A  
BRANCH  14  15
HETATM   15  C   UNL     1      -9.124  16.798  68.680  1.00  0.00    -0.254 C  
HETATM   16  O   UNL     1      -8.246  16.820  69.536  1.00  0.00     0.056 OA 
HETATM   17  H   UNL     1     -10.048  17.696  67.055  1.00  0.00     0.000 HD 
HETATM   18  N   UNL     1      -9.211  17.708  67.638  1.00  0.00    -0.243 N  
BRANCH  18  19
HETATM   19  C   UNL     1      -8.209  18.645  67.342  1.00  0.00    -0.255 A  
HETATM   20  C   UNL     1      -7.524  20.948  67.081  1.00  0.00    -0.332 A  
HETATM   21  C   UNL     1      -9.913  20.541  67.657  1.00  0.00    -0.454 C  
HETATM   22  C   UNL     1      -8.537  20.013  67.352  1.00  0.00    -0.403 A  
HETATM   23  C   UNL     1      -6.224  20.533  66.785  1.00  0.00    -0.258 A  
HETATM   24  C   UNL     1      -5.920  19.180  66.716  1.00  0.00    -0.169 A  
HETATM   25  C   UNL     1      -6.908  18.233  66.983  1.00  0.00    -0.186 A  
HETATM   26 CL   UNL     1      -6.516  16.573  66.664  1.00  0.00    -0.135 Cl 
ENDBRANCH  18  19
ENDBRANCH  14  15
ENDBRANCH   8  10
ENDBRANCH   4   8
BRANCH   5  27
HETATM   27  N   UNL     1      -8.908   9.704  65.924  1.00  0.00    -0.146 NA 
HETATM   28  C   UNL     1      -9.136   8.282  65.591  1.00  0.00    -0.065 C  
HETATM   29  C   UNL     1      -8.154   9.891  67.173  1.00  0.00    -0.117 C  
HETATM   30  N   UNL     1      -6.964   7.632  66.751  1.00  0.00    -0.076 NA 
HETATM   31  C   UNL     1      -7.786   7.542  65.522  1.00  0.00    -0.103 C  
HETATM   32  C   UNL     1      -6.831   9.078  67.103  1.00  0.00    -0.074 C  
BRANCH  30  33
HETATM   33  C   UNL     1      -7.538   6.876  67.886  1.00  0.00    -0.107 C  
BRANCH  33  34
HETATM   34  C   UNL     1      -6.529   6.594  69.013  1.00  0.00    -0.040 C  
HETATM   35  H   UNL     1      -6.400   6.891  70.959  1.00  0.00     0.000 HD 
HETATM   36  O   UNL     1      -7.024   7.065  70.264  1.00  0.00    -0.062 OA 
ENDBRANCH  33  34
ENDBRANCH  30  33
ENDBRANCH   5  27
TORSDOF 7
ENDMDL
MODEL      154
REMARK 921   NORMALIZED FREE ENERGY PREDICTED BY IDOCK:   -5.34 KCAL/MOL
REMARK 922        TOTAL FREE ENERGY PREDICTED BY IDOCK:   -7.91 KCAL/MOL
REMARK 923 INTER-LIGAND FREE ENERGY PREDICTED BY IDOCK:   -6.95 KCAL/MOL
REMARK 924 INTRA-LIGAND FREE ENERGY PREDICTED BY IDOCK:   -0.96 KCAL/MOL
REMARK 927      BINDING AFFINITY PREDICTED BY RF-SCORE:    0.00 PKD
ROOT
HETATM    1  C   UNL     1      -5.705  11.583  67.885  1.00  0.00    -0.045 C  
HETATM    2  C   UNL     1      -7.122  12.060  67.840  1.00  0.00    -0.097 A  
HETATM    3  N   UNL     1      -8.043  11.307  68.465  1.00  0.00    -0.142 NA 
HETATM    4  C   UNL     1      -9.281  11.809  68.530  1.00  0.00    -0.151 A  
HETATM    5  C   UNL     1      -8.618  13.718  67.291  1.00  0.00    -0.212 A  
HETATM    6  C   UNL     1      -9.575  13.047  68.022  1.00  0.00    -0.224 A  
HETATM    7  N   UNL     1      -7.366  13.234  67.225  1.00  0.00    -0.101 NA 
ENDROOT
BRANCH   4   8
HETATM    8  N   UNL     1     -10.238  11.025  69.165  1.00  0.00    -0.326 NA 
HETATM    9  H   UNL     1     -10.898  11.522  69.764  1.00  0.00     0.000 HD 
BRANCH   8  10
HETATM   10  C   UNL     1     -10.402   9.688  69.087  1.00  0.00    -0.207 A  
HETATM   11  S   UNL     1     -10.403   8.806  70.556  1.00  0.00    -0.215 SA 
HETATM   12  N   UNL     1     -10.551   8.945  68.007  1.00  0.00    -0.203 NA 
HETATM   13  C   UNL     1     -10.503   7.604  68.336  1.00  0.00    -0.169 A  
HETATM   14  C   UNL     1     -10.358   7.338  69.679  1.00  0.00    -0.221 A  
BRANCH  14  15
HETATM   15  C   UNL     1     -10.130   6.073  70.337  1.00  0.00    -0.194 C  
HETATM   16  O   UNL     1     -10.579   5.016  69.905  1.00  0.00    -0.237 OA 
HETATM   17  H   UNL     1      -9.185   7.115  71.860  1.00  0.00     0.000 HD 
HETATM   18  N   UNL     1      -9.401   6.182  71.511  1.00  0.00    -0.149 N  
BRANCH  18  19
HETATM   19  C   UNL     1      -8.944   5.076  72.244  1.00  0.00    -0.131 A  
HETATM   20  C   UNL     1      -7.210   3.456  72.703  1.00  0.00    -0.048 A  
HETATM   21  C   UNL     1      -6.767   5.096  70.882  1.00  0.00    -0.043 C  
HETATM   22  C   UNL     1      -7.674   4.547  71.949  1.00  0.00    -0.092 A  
HETATM   23  C   UNL     1      -7.998   2.890  73.707  1.00  0.00    -0.064 A  
HETATM   24  C   UNL     1      -9.276   3.376  73.952  1.00  0.00    -0.099 A  
HETATM   25  C   UNL     1      -9.757   4.460  73.219  1.00  0.00    -0.129 A  
HETATM   26 CL   UNL     1     -11.431   4.869  73.424  1.00  0.00    -0.384 Cl 
ENDBRANCH  18  19
ENDBRANCH  14  15
ENDBRANCH   8  10
ENDBRANCH   4   8
BRANCH   5  27
HETATM   27  N   UNL     1      -8.962  14.925  66.670  1.00  0.00    -0.270 NA 
HETATM   28  C   UNL     1      -8.251  16.119  67.174  1.00  0.00    -0.196 C  
HETATM   29  C   UNL     1     -10.401  15.154  66.468  1.00  0.00    -0.282 C  
HETATM   30  N   UNL     1      -9.899  17.644  65.973  1.00  0.00    -0.524 NA 
HETATM   31  C   UNL     1      -8.478  17.302  66.213  1.00  0.00    -0.243 C  
HETATM   32  C   UNL     1     -10.601  16.394  65.552  1.00  0.00    -0.330 C  
BRANCH  30  33
HETATM   33  C   UNL     1     -10.560  18.232  67.160  1.00  0.00    -0.367 C  
BRANCH  33  34
HETATM   34  C   UNL     1     -10.052  19.641  67.513  1.00  0.00    -0.409 C  
HETATM   35  H   UNL     1      -9.908  20.774  69.122  1.00  0.00     0.000 HD 
HETATM   36  O   UNL     1     -10.222  19.904  68.903  1.00  0.00    -0.444 OA 
ENDBRANCH  33  34
ENDBRANCH  30  33
ENDBRANCH   5  27
TORSDOF 7
ENDMDL
MODEL      155
REMARK 921   NORMALIZED FREE ENERGY PREDICTED BY IDOCK:   -5.33 KCAL/MOL
REMARK 922        TOTAL FREE ENERGY PREDICTED BY IDOCK:   -7.89 KCAL/MOL
REMARK 923 INTER-LIGAND FREE ENERGY PREDICTED BY IDOCK:   -6.99 KCAL/MOL
REMARK 924 INTRA-LIGAND FREE ENERGY PREDICTED BY IDOCK:   -0.90 KCAL/MOL
REMARK 927      BINDING AFFINITY PREDICTED BY RF-SCORE:    0.00 PKD
ROOT
HETATM    1  C   UNL     1     -11.253   9.682  71.202  1.00  0.00    -0.454 C  
HETATM    2  C   UNL     1     -10.328   9.236  70.114  1.00  0.00    -0.222 A  
HETATM    3  N   UNL     1      -9.312  10.058  69.797  1.00  0.00    -0.221 NA 
HETATM    4  C   UNL     1      -8.419   9.591  68.917  1.00  0.00    -0.123 A  
HETATM    5  C   UNL     1      -9.646   7.577  68.676  1.00  0.00    -0.151 A  
HETATM    6  C   UNL     1      -8.520   8.325  68.404  1.00  0.00    -0.129 A  
HETATM    7  N   UNL     1     -10.546   8.024  69.567  1.00  0.00    -0.227 NA 
ENDROOT
BRANCH   4   8
HETATM    8  N   UNL     1      -7.374  10.445  68.579  1.00  0.00    -0.083 NA 
HETATM    9  H   UNL     1      -6.549  10.002  68.174  1.00  0.00     0.000 HD 
BRANCH   8  10
HETATM   10  C   UNL     1      -7.318  11.785  68.721  1.00  0.00    -0.114 A  
HETATM   11  S   UNL     1      -8.244  12.732  67.634  1.00  0.00    -0.189 SA 
HETATM   12  N   UNL     1      -6.620  12.487  69.593  1.00  0.00    -0.054 NA 
HETATM   13  C   UNL     1      -6.689  13.833  69.293  1.00  0.00    -0.101 A  
HETATM   14  C   UNL     1      -7.479  14.150  68.210  1.00  0.00    -0.125 A  
BRANCH  14  15
HETATM   15  C   UNL     1      -7.649  15.421  67.549  1.00  0.00    -0.181 C  
HETATM   16  O   UNL     1      -6.906  15.801  66.650  1.00  0.00    -0.162 OA 
HETATM   17  H   UNL     1      -9.173  15.837  68.893  1.00  0.00     0.000 HD 
HETATM   18  N   UNL     1      -8.695  16.175  68.058  1.00  0.00    -0.174 N  
BRANCH  18  19
HETATM   19  C   UNL     1      -9.132  17.380  67.485  1.00  0.00    -0.232 A  
HETATM   20  C   UNL     1     -10.531  18.539  65.892  1.00  0.00    -0.379 A  
HETATM   21  C   UNL     1     -10.653  16.051  65.898  1.00  0.00    -0.338 C  
HETATM   22  C   UNL     1     -10.078  17.330  66.445  1.00  0.00    -0.321 A  
HETATM   23  C   UNL     1     -10.040  19.765  66.345  1.00  0.00    -0.600 A  
HETATM   24  C   UNL     1      -9.061  19.806  67.329  1.00  0.00    -0.413 A  
HETATM   25  C   UNL     1      -8.597  18.619  67.895  1.00  0.00    -0.284 A  
HETATM   26 CL   UNL     1      -7.226  18.734  68.953  1.00  0.00    -0.334 Cl 
ENDBRANCH  18  19
ENDBRANCH  14  15
ENDBRANCH   8  10
ENDBRANCH   4   8
BRANCH   5  27
HETATM   27  N   UNL     1      -9.800   6.334  68.050  1.00  0.00    -0.121 NA 
HETATM   28  C   UNL     1      -8.762   5.332  68.371  1.00  0.00    -0.098 C  
HETATM   29  C   UNL     1     -10.140   6.374  66.620  1.00  0.00    -0.145 C  
HETATM   30  N   UNL     1      -9.540   3.863  66.443  1.00  0.00    -0.199 NA 
HETATM   31  C   UNL     1      -9.214   3.941  67.885  1.00  0.00    -0.165 C  
HETATM   32  C   UNL     1     -10.525   4.946  66.141  1.00  0.00    -0.302 C  
BRANCH  30  33
HETATM   33  C   UNL     1      -8.350   3.991  65.573  1.00  0.00    -0.109 C  
BRANCH  33  34
HETATM   34  C   UNL     1      -8.670   3.892  64.071  1.00  0.00    -0.108 C  
HETATM   35  H   UNL     1      -8.655   5.084  62.499  1.00  0.00     0.000 HD 
HETATM   36  O   UNL     1      -8.457   5.145  63.426  1.00  0.00    -0.127 OA 
ENDBRANCH  33  34
ENDBRANCH  30  33
ENDBRANCH   5  27
TORSDOF 7
ENDMDL
MODEL      156
REMARK 921   NORMALIZED FREE ENERGY PREDICTED BY IDOCK:   -5.31 KCAL/MOL
REMARK 922        TOTAL FREE ENERGY PREDICTED BY IDOCK:   -7.86 KCAL/MOL
REMARK 923 INTER-LIGAND FREE ENERGY PREDICTED BY IDOCK:   -7.01 KCAL/MOL
REMARK 924 INTRA-LIGAND FREE ENERGY PREDICTED BY IDOCK:   -0.85 KCAL/MOL
REMARK 927      BINDING AFFINITY PREDICTED BY RF-SCORE:    0.00 PKD
ROOT
HETATM    1  C   UNL     1      -5.287  13.347  70.250  1.00  0.00    -0.115 C  
HETATM    2  C   UNL     1      -6.278  12.743  69.305  1.00  0.00    -0.105 A  
HETATM    3  N   UNL     1      -5.981  11.534  68.796  1.00  0.00    -0.047 NA 
HETATM    4  C   UNL     1      -6.931  10.948  68.059  1.00  0.00    -0.072 A  
HETATM    5  C   UNL     1      -8.354  12.825  68.321  1.00  0.00    -0.161 A  
HETATM    6  C   UNL     1      -8.154  11.537  67.874  1.00  0.00    -0.132 A  
HETATM    7  N   UNL     1      -7.416  13.425  69.074  1.00  0.00    -0.003 NA 
ENDROOT
BRANCH   4   8
HETATM    8  N   UNL     1      -6.621   9.703  67.521  1.00  0.00    -0.069 NA 
HETATM    9  H   UNL     1      -6.024   9.710  66.694  1.00  0.00     0.000 HD 
BRANCH   8  10
HETATM   10  C   UNL     1      -7.014   8.489  67.958  1.00  0.00    -0.074 A  
HETATM   11  S   UNL     1      -7.828   8.418  69.464  1.00  0.00    -0.103 SA 
HETATM   12  N   UNL     1      -6.840   7.316  67.380  1.00  0.00    -0.074 NA 
HETATM   13  C   UNL     1      -7.221   6.298  68.232  1.00  0.00    -0.085 A  
HETATM   14  C   UNL     1      -7.725   6.711  69.446  1.00  0.00    -0.101 A  
BRANCH  14  15
HETATM   15  C   UNL     1      -8.072   5.921  70.603  1.00  0.00    -0.118 C  
HETATM   16  O   UNL     1      -7.331   5.814  71.574  1.00  0.00    -0.083 OA 
HETATM   17  H   UNL     1      -9.775   5.311  69.588  1.00  0.00     0.000 HD 
HETATM   18  N   UNL     1      -9.291   5.271  70.485  1.00  0.00    -0.152 N  
BRANCH  18  19
HETATM   19  C   UNL     1      -9.894   4.560  71.534  1.00  0.00    -0.190 A  
HETATM   20  C   UNL     1     -10.352   2.455  72.629  1.00  0.00    -0.234 A  
HETATM   21  C   UNL     1      -9.024   2.365  70.524  1.00  0.00    -0.158 C  
HETATM   22  C   UNL     1      -9.768   3.159  71.563  1.00  0.00    -0.226 A  
HETATM   23  C   UNL     1     -11.062   3.123  73.628  1.00  0.00    -0.321 A  
HETATM   24  C   UNL     1     -11.236   4.500  73.561  1.00  0.00    -0.388 A  
HETATM   25  C   UNL     1     -10.664   5.221  72.515  1.00  0.00    -0.236 A  
HETATM   26 CL   UNL     1     -11.104   6.893  72.377  1.00  0.00    -0.279 Cl 
ENDBRANCH  18  19
ENDBRANCH  14  15
ENDBRANCH   8  10
ENDBRANCH   4   8
BRANCH   5  27
HETATM   27  N   UNL     1      -9.562  13.467  68.021  1.00  0.00    -0.213 NA 
HETATM   28  C   UNL     1     -10.764  12.608  68.079  1.00  0.00    -0.226 C  
HETATM   29  C   UNL     1      -9.543  14.354  66.848  1.00  0.00    -0.256 C  
HETATM   30  N   UNL     1     -12.130  14.388  66.875  1.00  0.00    -0.410 NA 
HETATM   31  C   UNL     1     -12.031  13.485  68.045  1.00  0.00    -0.337 C  
HETATM   32  C   UNL     1     -10.862  15.175  66.801  1.00  0.00    -0.322 C  
BRANCH  30  33
HETATM   33  C   UNL     1     -12.365  13.665  65.605  1.00  0.00    -0.478 C  
BRANCH  33  34
HETATM   34  C   UNL     1     -12.080  14.512  64.352  1.00  0.00    -0.472 C  
HETATM   35  H   UNL     1     -12.439  14.410  62.415  1.00  0.00     0.000 HD 
HETATM   36  O   UNL     1     -12.614  13.887  63.189  1.00  0.00    -0.775 OA 
ENDBRANCH  33  34
ENDBRANCH  30  33
ENDBRANCH   5  27
TORSDOF 7
ENDMDL
MODEL      157
REMARK 921   NORMALIZED FREE ENERGY PREDICTED BY IDOCK:   -5.31 KCAL/MOL
REMARK 922        TOTAL FREE ENERGY PREDICTED BY IDOCK:   -7.86 KCAL/MOL
REMARK 923 INTER-LIGAND FREE ENERGY PREDICTED BY IDOCK:   -7.04 KCAL/MOL
REMARK 924 INTRA-LIGAND FREE ENERGY PREDICTED BY IDOCK:   -0.82 KCAL/MOL
REMARK 927      BINDING AFFINITY PREDICTED BY RF-SCORE:    0.00 PKD
ROOT
HETATM    1  C   UNL     1     -10.210  10.770  63.723  1.00  0.00    -0.354 C  
HETATM    2  C   UNL     1      -9.932  11.441  65.032  1.00  0.00    -0.266 A  
HETATM    3  N   UNL     1      -9.366  10.694  65.996  1.00  0.00    -0.179 NA 
HETATM    4  C   UNL     1      -9.003  11.335  67.112  1.00  0.00    -0.155 A  
HETATM    5  C   UNL     1      -9.857  13.379  66.266  1.00  0.00    -0.290 A  
HETATM    6  C   UNL     1      -9.165  12.690  67.239  1.00  0.00    -0.195 A  
HETATM    7  N   UNL     1     -10.218  12.754  65.133  1.00  0.00    -0.292 NA 
ENDROOT
BRANCH   4   8
HETATM    8  N   UNL     1      -8.430  10.562  68.116  1.00  0.00    -0.120 NA 
HETATM    9  H   UNL     1      -7.410  10.535  68.131  1.00  0.00     0.000 HD 
BRANCH   8  10
HETATM   10  C   UNL     1      -9.055   9.845  69.072  1.00  0.00    -0.164 A  
HETATM   11  S   UNL     1      -8.557   8.220  69.292  1.00  0.00    -0.139 SA 
HETATM   12  N   UNL     1     -10.033  10.226  69.872  1.00  0.00    -0.193 NA 
HETATM   13  C   UNL     1     -10.523   9.147  70.581  1.00  0.00    -0.245 A  
HETATM   14  C   UNL     1      -9.881   7.952  70.342  1.00  0.00    -0.183 A  
BRANCH  14  15
HETATM   15  C   UNL     1     -10.227   6.627  70.796  1.00  0.00    -0.196 C  
HETATM   16  O   UNL     1     -11.390   6.253  70.914  1.00  0.00    -0.312 OA 
HETATM   17  H   UNL     1      -8.208   6.286  71.120  1.00  0.00     0.000 HD 
HETATM   18  N   UNL     1      -9.128   5.847  71.122  1.00  0.00    -0.142 N  
BRANCH  18  19
HETATM   19  C   UNL     1      -9.215   4.487  71.454  1.00  0.00    -0.136 A  
HETATM   20  C   UNL     1      -9.206   2.171  70.763  1.00  0.00    -0.187 A  
HETATM   21  C   UNL     1      -8.986   3.883  68.968  1.00  0.00    -0.175 C  
HETATM   22  C   UNL     1      -9.144   3.532  70.423  1.00  0.00    -0.197 A  
HETATM   23  C   UNL     1      -9.357   1.768  72.092  1.00  0.00    -0.143 A  
HETATM   24  C   UNL     1      -9.489   2.716  73.099  1.00  0.00    -0.123 A  
HETATM   25  C   UNL     1      -9.428   4.073  72.786  1.00  0.00    -0.125 A  
HETATM   26 CL   UNL     1      -9.819   5.191  74.054  1.00  0.00    -0.164 Cl 
ENDBRANCH  18  19
ENDBRANCH  14  15
ENDBRANCH   8  10
ENDBRANCH   4   8
BRANCH   5  27
HETATM   27  N   UNL     1     -10.126  14.739  66.461  1.00  0.00    -0.264 NA 
HETATM   28  C   UNL     1      -9.474  15.655  65.501  1.00  0.00    -0.129 C  
HETATM   29  C   UNL     1     -10.054  15.215  67.851  1.00  0.00    -0.222 C  
HETATM   30  N   UNL     1     -10.033  17.651  66.979  1.00  0.00    -0.307 NA 
HETATM   31  C   UNL     1     -10.093  17.061  65.622  1.00  0.00    -0.112 C  
HETATM   32  C   UNL     1     -10.621  16.660  67.931  1.00  0.00    -0.342 C  
BRANCH  30  33
HETATM   33  C   UNL     1      -8.659  18.012  67.393  1.00  0.00    -0.244 C  
BRANCH  33  34
HETATM   34  C   UNL     1      -8.102  19.251  66.670  1.00  0.00    -0.289 C  
HETATM   35  H   UNL     1      -7.187  19.655  64.970  1.00  0.00     0.000 HD 
HETATM   36  O   UNL     1      -7.530  18.890  65.416  1.00  0.00    -0.452 OA 
ENDBRANCH  33  34
ENDBRANCH  30  33
ENDBRANCH   5  27
TORSDOF 7
ENDMDL
MODEL      158
REMARK 921   NORMALIZED FREE ENERGY PREDICTED BY IDOCK:   -5.30 KCAL/MOL
REMARK 922        TOTAL FREE ENERGY PREDICTED BY IDOCK:   -7.84 KCAL/MOL
REMARK 923 INTER-LIGAND FREE ENERGY PREDICTED BY IDOCK:   -7.01 KCAL/MOL
REMARK 924 INTRA-LIGAND FREE ENERGY PREDICTED BY IDOCK:   -0.83 KCAL/MOL
REMARK 927      BINDING AFFINITY PREDICTED BY RF-SCORE:    0.00 PKD
ROOT
HETATM    1  C   UNL     1     -11.652   4.989  73.083  1.00  0.00    -0.299 C  
HETATM    2  C   UNL     1     -10.514   5.373  72.191  1.00  0.00    -0.218 A  
HETATM    3  N   UNL     1     -10.096   6.649  72.245  1.00  0.00    -0.174 NA 
HETATM    4  C   UNL     1      -8.997   6.948  71.543  1.00  0.00    -0.140 A  
HETATM    5  C   UNL     1      -8.860   4.725  70.731  1.00  0.00    -0.121 A  
HETATM    6  C   UNL     1      -8.316   5.986  70.843  1.00  0.00    -0.126 A  
HETATM    7  N   UNL     1      -9.956   4.404  71.439  1.00  0.00    -0.189 NA 
ENDROOT
BRANCH   4   8
HETATM    8  N   UNL     1      -8.571   8.271  71.587  1.00  0.00    -0.140 NA 
HETATM    9  H   UNL     1      -7.984   8.524  72.382  1.00  0.00     0.000 HD 
BRANCH   8  10
HETATM   10  C   UNL     1      -8.837   9.259  70.709  1.00  0.00    -0.225 A  
HETATM   11  S   UNL     1     -10.473   9.494  70.258  1.00  0.00    -0.290 SA 
HETATM   12  N   UNL     1      -7.989  10.082  70.122  1.00  0.00    -0.161 NA 
HETATM   13  C   UNL     1      -8.632  10.826  69.153  1.00  0.00    -0.088 A  
HETATM   14  C   UNL     1      -9.984  10.590  69.038  1.00  0.00    -0.211 A  
BRANCH  14  15
HETATM   15  C   UNL     1     -10.913  11.079  68.047  1.00  0.00    -0.258 C  
HETATM   16  O   UNL     1     -12.129  10.996  68.186  1.00  0.00    -0.610 OA 
HETATM   17  H   UNL     1      -9.285  11.508  66.836  1.00  0.00     0.000 HD 
HETATM   18  N   UNL     1     -10.297  11.603  66.921  1.00  0.00    -0.214 N  
BRANCH  18  19
HETATM   19  C   UNL     1     -10.992  12.258  65.893  1.00  0.00    -0.302 A  
HETATM   20  C   UNL     1     -11.705  12.337  63.585  1.00  0.00    -0.591 A  
HETATM   21  C   UNL     1     -10.268  10.416  64.255  1.00  0.00    -0.205 C  
HETATM   22  C   UNL     1     -10.986  11.692  64.605  1.00  0.00    -0.363 A  
HETATM   23  C   UNL     1     -12.392  13.527  63.833  1.00  0.00    -0.397 A  
HETATM   24  C   UNL     1     -12.344  14.114  65.091  1.00  0.00    -0.460 A  
HETATM   25  C   UNL     1     -11.639  13.491  66.119  1.00  0.00    -0.343 A  
HETATM   26 CL   UNL     1     -11.439  14.387  67.592  1.00  0.00    -0.347 Cl 
ENDBRANCH  18  19
ENDBRANCH  14  15
ENDBRANCH   8  10
ENDBRANCH   4   8
BRANCH   5  27
HETATM   27  N   UNL     1      -8.223   3.783  69.914  1.00  0.00    -0.053 NA 
HETATM   28  C   UNL     1      -7.565   4.334  68.710  1.00  0.00    -0.059 C  
HETATM   29  C   UNL     1      -8.981   2.551  69.644  1.00  0.00    -0.104 C  
HETATM   30  N   UNL     1      -7.327   1.996  67.732  1.00  0.00    -0.054 NA 
HETATM   31  C   UNL     1      -6.650   3.265  68.083  1.00  0.00    -0.037 C  
HETATM   32  C   UNL     1      -8.051   1.517  68.949  1.00  0.00    -0.048 C  
BRANCH  30  33
HETATM   33  C   UNL     1      -8.264   2.135  66.595  1.00  0.00    -0.087 C  
BRANCH  33  34
HETATM   34  C   UNL     1      -7.572   2.476  65.264  1.00  0.00    -0.076 C  
HETATM   35  H   UNL     1      -6.180   1.692  64.106  1.00  0.00     0.000 HD 
HETATM   36  O   UNL     1      -6.607   1.482  64.928  1.00  0.00    -0.022 OA 
ENDBRANCH  33  34
ENDBRANCH  30  33
ENDBRANCH   5  27
TORSDOF 7
ENDMDL
MODEL      159
REMARK 921   NORMALIZED FREE ENERGY PREDICTED BY IDOCK:   -5.29 KCAL/MOL
REMARK 922        TOTAL FREE ENERGY PREDICTED BY IDOCK:   -7.83 KCAL/MOL
REMARK 923 INTER-LIGAND FREE ENERGY PREDICTED BY IDOCK:   -6.89 KCAL/MOL
REMARK 924 INTRA-LIGAND FREE ENERGY PREDICTED BY IDOCK:   -0.94 KCAL/MOL
REMARK 927      BINDING AFFINITY PREDICTED BY RF-SCORE:    0.00 PKD
ROOT
HETATM    1  C   UNL     1      -7.942   4.269  65.887  1.00  0.00    -0.095 C  
HETATM    2  C   UNL     1      -8.517   5.297  66.810  1.00  0.00    -0.107 A  
HETATM    3  N   UNL     1      -9.257   6.274  66.255  1.00  0.00    -0.157 NA 
HETATM    4  C   UNL     1      -9.872   7.109  67.099  1.00  0.00    -0.181 A  
HETATM    5  C   UNL     1      -8.917   5.998  68.962  1.00  0.00    -0.124 A  
HETATM    6  C   UNL     1      -9.783   6.944  68.456  1.00  0.00    -0.138 A  
HETATM    7  N   UNL     1      -8.300   5.143  68.130  1.00  0.00    -0.097 NA 
ENDROOT
BRANCH   4   8
HETATM    8  N   UNL     1     -10.627   8.127  66.526  1.00  0.00    -0.323 NA 
HETATM    9  H   UNL     1     -11.560   7.867  66.207  1.00  0.00     0.000 HD 
BRANCH   8  10
HETATM   10  C   UNL     1     -10.277   9.417  66.343  1.00  0.00    -0.230 A  
HETATM   11  S   UNL     1     -10.939  10.575  67.418  1.00  0.00    -0.249 SA 
HETATM   12  N   UNL     1      -9.487   9.926  65.417  1.00  0.00    -0.237 NA 
HETATM   13  C   UNL     1      -9.529  11.306  65.453  1.00  0.00    -0.225 A  
HETATM   14  C   UNL     1     -10.326  11.839  66.442  1.00  0.00    -0.222 A  
BRANCH  14  15
HETATM   15  C   UNL     1     -10.703  13.215  66.665  1.00  0.00    -0.279 C  
HETATM   16  O   UNL     1     -11.837  13.541  67.001  1.00  0.00    -0.365 OA 
HETATM   17  H   UNL     1      -8.812  13.765  66.015  1.00  0.00     0.000 HD 
HETATM   18  N   UNL     1      -9.679  14.117  66.419  1.00  0.00    -0.289 N  
BRANCH  18  19
HETATM   19  C   UNL     1      -9.773  15.489  66.699  1.00  0.00    -0.247 A  
HETATM   20  C   UNL     1      -9.366  17.340  68.198  1.00  0.00    -0.274 A  
HETATM   21  C   UNL     1      -8.685  15.079  68.989  1.00  0.00    -0.203 C  
HETATM   22  C   UNL     1      -9.294  15.962  67.934  1.00  0.00    -0.207 A  
HETATM   23  C   UNL     1      -9.922  18.222  67.269  1.00  0.00    -0.343 A  
HETATM   24  C   UNL     1     -10.450  17.741  66.077  1.00  0.00    -0.286 A  
HETATM   25  C   UNL     1     -10.387  16.378  65.792  1.00  0.00    -0.369 A  
HETATM   26 CL   UNL     1     -11.257  15.825  64.396  1.00  0.00    -0.351 Cl 
ENDBRANCH  18  19
ENDBRANCH  14  15
ENDBRANCH   8  10
ENDBRANCH   4   8
BRANCH   5  27
HETATM   27  N   UNL     1      -8.737   5.918  70.349  1.00  0.00    -0.137 NA 
HETATM   28  C   UNL     1      -7.756   4.908  70.801  1.00  0.00    -0.070 C  
HETATM   29  C   UNL     1      -9.966   5.930  71.157  1.00  0.00    -0.189 C  
HETATM   30  N   UNL     1      -8.592   5.126  73.196  1.00  0.00    -0.110 NA 
HETATM   31  C   UNL     1      -7.422   5.138  72.287  1.00  0.00    -0.094 C  
HETATM   32  C   UNL     1      -9.595   6.093  72.657  1.00  0.00    -0.155 C  
BRANCH  30  33
HETATM   33  C   UNL     1      -9.196   3.783  73.342  1.00  0.00    -0.101 C  
BRANCH  33  34
HETATM   34  C   UNL     1     -10.510   3.782  74.143  1.00  0.00    -0.207 C  
HETATM   35  H   UNL     1     -12.242   2.839  74.095  1.00  0.00     0.000 HD 
HETATM   36  O   UNL     1     -11.431   2.840  73.600  1.00  0.00    -0.227 OA 
ENDBRANCH  33  34
ENDBRANCH  30  33
ENDBRANCH   5  27
TORSDOF 7
ENDMDL
MODEL      160
REMARK 921   NORMALIZED FREE ENERGY PREDICTED BY IDOCK:   -5.26 KCAL/MOL
REMARK 922        TOTAL FREE ENERGY PREDICTED BY IDOCK:   -7.79 KCAL/MOL
REMARK 923 INTER-LIGAND FREE ENERGY PREDICTED BY IDOCK:   -6.91 KCAL/MOL
REMARK 924 INTRA-LIGAND FREE ENERGY PREDICTED BY IDOCK:   -0.88 KCAL/MOL
REMARK 927      BINDING AFFINITY PREDICTED BY RF-SCORE:    0.00 PKD
ROOT
HETATM    1  C   UNL     1      -8.208   3.859  64.159  1.00  0.00    -0.091 C  
HETATM    2  C   UNL     1      -8.509   5.033  65.037  1.00  0.00    -0.146 A  
HETATM    3  N   UNL     1      -8.388   6.255  64.490  1.00  0.00    -0.063 NA 
HETATM    4  C   UNL     1      -8.785   7.288  65.242  1.00  0.00     0.096 A  
HETATM    5  C   UNL     1      -9.314   5.832  67.037  1.00  0.00    -0.119 A  
HETATM    6  C   UNL     1      -9.326   7.096  66.486  1.00  0.00    -0.208 A  
HETATM    7  N   UNL     1      -8.930   4.782  66.292  1.00  0.00    -0.117 NA 
ENDROOT
BRANCH   4   8
HETATM    8  N   UNL     1      -8.649   8.553  64.682  1.00  0.00    -0.365 NA 
HETATM    9  H   UNL     1      -8.074   8.611  63.842  1.00  0.00     0.000 HD 
BRANCH   8  10
HETATM   10  C   UNL     1      -9.184   9.714  65.114  1.00  0.00    -0.246 A  
HETATM   11  S   UNL     1      -8.445  10.470  66.463  1.00  0.00    -0.144 SA 
HETATM   12  N   UNL     1     -10.233  10.358  64.639  1.00  0.00    -0.312 NA 
HETATM   13  C   UNL     1     -10.570  11.408  65.470  1.00  0.00    -0.271 A  
HETATM   14  C   UNL     1      -9.742  11.581  66.557  1.00  0.00    -0.203 A  
BRANCH  14  15
HETATM   15  C   UNL     1      -9.890  12.474  67.681  1.00  0.00    -0.202 C  
HETATM   16  O   UNL     1      -8.929  12.977  68.254  1.00  0.00    -0.194 OA 
HETATM   17  H   UNL     1     -11.929  12.103  67.618  1.00  0.00     0.000 HD 
HETATM   18  N   UNL     1     -11.207  12.666  68.067  1.00  0.00    -0.247 N  
BRANCH  18  19
HETATM   19  C   UNL     1     -11.601  13.594  69.043  1.00  0.00    -0.312 A  
HETATM   20  C   UNL     1     -12.531  14.051  71.226  1.00  0.00    -0.448 A  
HETATM   21  C   UNL     1     -12.377  11.660  70.544  1.00  0.00    -0.410 C  
HETATM   22  C   UNL     1     -12.163  13.118  70.242  1.00  0.00    -0.376 A  
HETATM   23  C   UNL     1     -12.367  15.421  71.016  1.00  0.00    -0.449 A  
HETATM   24  C   UNL     1     -11.869  15.888  69.806  1.00  0.00    -0.303 A  
HETATM   25  C   UNL     1     -11.494  14.983  68.815  1.00  0.00    -0.319 A  
HETATM   26 CL   UNL     1     -11.092  15.639  67.260  1.00  0.00    -0.282 Cl 
ENDBRANCH  18  19
ENDBRANCH  14  15
ENDBRANCH   8  10
ENDBRANCH   4   8
BRANCH   5  27
HETATM   27  N   UNL     1      -9.754   5.664  68.356  1.00  0.00    -0.122 NA 
HETATM   28  C   UNL     1      -9.616   6.853  69.223  1.00  0.00    -0.149 C  
HETATM   29  C   UNL     1      -9.339   4.417  69.016  1.00  0.00    -0.154 C  
HETATM   30  N   UNL     1     -10.041   5.430  71.291  1.00  0.00    -0.200 NA 
HETATM   31  C   UNL     1     -10.414   6.641  70.524  1.00  0.00    -0.203 C  
HETATM   32  C   UNL     1     -10.108   4.265  70.359  1.00  0.00    -0.046 C  
BRANCH  30  33
HETATM   33  C   UNL     1      -8.697   5.525  71.904  1.00  0.00    -0.135 C  
BRANCH  33  34
HETATM   34  C   UNL     1      -8.541   4.681  73.182  1.00  0.00    -0.102 C  
HETATM   35  H   UNL     1      -7.728   2.960  73.698  1.00  0.00     0.000 HD 
HETATM   36  O   UNL     1      -7.824   3.480  72.909  1.00  0.00    -0.063 OA 
ENDBRANCH  33  34
ENDBRANCH  30  33
ENDBRANCH   5  27
TORSDOF 7
ENDMDL
MODEL      161
REMARK 921   NORMALIZED FREE ENERGY PREDICTED BY IDOCK:   -5.24 KCAL/MOL
REMARK 922        TOTAL FREE ENERGY PREDICTED BY IDOCK:   -7.76 KCAL/MOL
REMARK 923 INTER-LIGAND FREE ENERGY PREDICTED BY IDOCK:   -7.07 KCAL/MOL
REMARK 924 INTRA-LIGAND FREE ENERGY PREDICTED BY IDOCK:   -0.70 KCAL/MOL
REMARK 927      BINDING AFFINITY PREDICTED BY RF-SCORE:    0.00 PKD
ROOT
HETATM    1  C   UNL     1      -6.739   7.721  65.008  1.00  0.00    -0.051 C  
HETATM    2  C   UNL     1      -7.785   7.426  66.037  1.00  0.00    -0.095 A  
HETATM    3  N   UNL     1      -8.849   8.247  66.082  1.00  0.00    -0.158 NA 
HETATM    4  C   UNL     1      -9.837   7.898  66.914  1.00  0.00    -0.239 A  
HETATM    5  C   UNL     1      -8.611   6.004  67.643  1.00  0.00    -0.106 A  
HETATM    6  C   UNL     1      -9.777   6.740  67.645  1.00  0.00    -0.146 A  
HETATM    7  N   UNL     1      -7.614   6.333  66.805  1.00  0.00    -0.097 NA 
ENDROOT
BRANCH   4   8
HETATM    8  N   UNL     1     -10.932   8.753  66.972  1.00  0.00    -0.262 NA 
HETATM    9  H   UNL     1     -11.849   8.310  66.900  1.00  0.00     0.000 HD 
BRANCH   8  10
HETATM   10  C   UNL     1     -10.933  10.094  67.112  1.00  0.00    -0.134 A  
HETATM   11  S   UNL     1     -11.257  10.724  68.672  1.00  0.00    -0.292 SA 
HETATM   12  N   UNL     1     -10.727  11.013  66.188  1.00  0.00    -0.231 NA 
HETATM   13  C   UNL     1     -10.994  12.271  66.691  1.00  0.00    -0.278 A  
HETATM   14  C   UNL     1     -11.364  12.302  68.018  1.00  0.00    -0.293 A  
BRANCH  14  15
HETATM   15  C   UNL     1     -11.845  13.413  68.803  1.00  0.00    -0.351 C  
HETATM   16  O   UNL     1     -12.503  14.327  68.316  1.00  0.00    -0.098 OA 
HETATM   17  H   UNL     1     -10.797  12.637  70.416  1.00  0.00     0.000 HD 
HETATM   18  N   UNL     1     -11.454  13.364  70.132  1.00  0.00    -0.077 N  
BRANCH  18  19
HETATM   19  C   UNL     1     -11.916  14.260  71.108  1.00  0.00    -0.282 A  
HETATM   20  C   UNL     1     -13.361  14.728  72.988  1.00  0.00    -0.543 A  
HETATM   21  C   UNL     1     -13.544  12.466  71.960  1.00  0.00    -0.349 C  
HETATM   22  C   UNL     1     -12.921  13.835  71.996  1.00  0.00    -0.437 A  
HETATM   23  C   UNL     1     -12.833  16.017  73.080  1.00  0.00    -0.620 A  
HETATM   24  C   UNL     1     -11.885  16.452  72.163  1.00  0.00    -0.499 A  
HETATM   25  C   UNL     1     -11.431  15.584  71.171  1.00  0.00    -0.390 A  
HETATM   26 CL   UNL     1     -10.418  16.260  69.935  1.00  0.00    -0.258 Cl 
ENDBRANCH  18  19
ENDBRANCH  14  15
ENDBRANCH   8  10
ENDBRANCH   4   8
BRANCH   5  27
HETATM   27  N   UNL     1      -8.512   4.891  68.487  1.00  0.00    -0.094 NA 
HETATM   28  C   UNL     1      -9.439   4.888  69.639  1.00  0.00    -0.148 C  
HETATM   29  C   UNL     1      -7.147   4.476  68.844  1.00  0.00    -0.052 C  
HETATM   30  N   UNL     1      -8.127   2.997  70.727  1.00  0.00    -0.052 NA 
HETATM   31  C   UNL     1      -9.453   3.492  70.290  1.00  0.00    -0.183 C  
HETATM   32  C   UNL     1      -7.199   3.098  69.561  1.00  0.00    -0.045 C  
BRANCH  30  33
HETATM   33  C   UNL     1      -7.585   3.742  71.885  1.00  0.00    -0.058 C  
BRANCH  33  34
HETATM   34  C   UNL     1      -8.079   3.215  73.244  1.00  0.00    -0.073 C  
HETATM   35  H   UNL     1      -8.003   3.771  75.135  1.00  0.00     0.000 HD 
HETATM   36  O   UNL     1      -7.697   4.096  74.296  1.00  0.00    -0.078 OA 
ENDBRANCH  33  34
ENDBRANCH  30  33
ENDBRANCH   5  27
TORSDOF 7
ENDMDL
MODEL      162
REMARK 921   NORMALIZED FREE ENERGY PREDICTED BY IDOCK:   -5.24 KCAL/MOL
REMARK 922        TOTAL FREE ENERGY PREDICTED BY IDOCK:   -7.76 KCAL/MOL
REMARK 923 INTER-LIGAND FREE ENERGY PREDICTED BY IDOCK:   -7.11 KCAL/MOL
REMARK 924 INTRA-LIGAND FREE ENERGY PREDICTED BY IDOCK:   -0.65 KCAL/MOL
REMARK 927      BINDING AFFINITY PREDICTED BY RF-SCORE:    0.00 PKD
ROOT
HETATM    1  C   UNL     1     -10.179   4.440  66.147  1.00  0.00    -0.232 C  
HETATM    2  C   UNL     1      -9.745   5.629  66.946  1.00  0.00    -0.148 A  
HETATM    3  N   UNL     1      -9.861   6.834  66.363  1.00  0.00    -0.091 NA 
HETATM    4  C   UNL     1      -9.596   7.897  67.131  1.00  0.00    -0.171 A  
HETATM    5  C   UNL     1      -9.049   6.491  68.960  1.00  0.00    -0.132 A  
HETATM    6  C   UNL     1      -9.265   7.755  68.453  1.00  0.00    -0.137 A  
HETATM    7  N   UNL     1      -9.322   5.413  68.207  1.00  0.00    -0.111 NA 
ENDROOT
BRANCH   4   8
HETATM    8  N   UNL     1      -9.702   9.145  66.526  1.00  0.00    -0.219 NA 
HETATM    9  H   UNL     1      -9.136   9.285  65.689  1.00  0.00     0.000 HD 
BRANCH   8  10
HETATM   10  C   UNL     1     -10.462  10.191  66.909  1.00  0.00    -0.222 A  
HETATM   11  S   UNL     1     -10.250  11.670  66.070  1.00  0.00    -0.242 SA 
HETATM   12  N   UNL     1     -11.360  10.240  67.875  1.00  0.00    -0.317 NA 
HETATM   13  C   UNL     1     -11.785  11.539  68.072  1.00  0.00    -0.273 A  
HETATM   14  C   UNL     1     -11.234  12.469  67.219  1.00  0.00    -0.295 A  
BRANCH  14  15
HETATM   15  C   UNL     1     -11.346  13.907  67.245  1.00  0.00    -0.323 C  
HETATM   16  O   UNL     1     -12.398  14.481  67.510  1.00  0.00    -0.240 OA 
HETATM   17  H   UNL     1      -9.388  14.003  66.569  1.00  0.00     0.000 HD 
HETATM   18  N   UNL     1     -10.173  14.562  66.903  1.00  0.00    -0.261 N  
BRANCH  18  19
HETATM   19  C   UNL     1     -10.009  15.953  66.993  1.00  0.00    -0.247 A  
HETATM   20  C   UNL     1     -10.299  18.149  66.027  1.00  0.00    -0.360 A  
HETATM   21  C   UNL     1     -11.074  16.210  64.670  1.00  0.00    -0.310 C  
HETATM   22  C   UNL     1     -10.442  16.756  65.921  1.00  0.00    -0.311 A  
HETATM   23  C   UNL     1      -9.718  18.728  67.157  1.00  0.00    -0.333 A  
HETATM   24  C   UNL     1      -9.235  17.927  68.184  1.00  0.00    -0.278 A  
HETATM   25  C   UNL     1      -9.369  16.542  68.103  1.00  0.00    -0.218 A  
HETATM   26 CL   UNL     1      -8.552  15.601  69.310  1.00  0.00    -0.252 Cl 
ENDBRANCH  18  19
ENDBRANCH  14  15
ENDBRANCH   8  10
ENDBRANCH   4   8
BRANCH   5  27
HETATM   27  N   UNL     1      -8.592   6.359  70.277  1.00  0.00    -0.134 NA 
HETATM   28  C   UNL     1      -7.933   5.073  70.590  1.00  0.00    -0.083 C  
HETATM   29  C   UNL     1      -9.523   6.800  71.326  1.00  0.00    -0.165 C  
HETATM   30  N   UNL     1      -8.069   5.576  73.082  1.00  0.00    -0.114 NA 
HETATM   31  C   UNL     1      -7.207   5.178  71.945  1.00  0.00    -0.084 C  
HETATM   32  C   UNL     1      -8.783   6.830  72.693  1.00  0.00    -0.122 C  
BRANCH  30  33
HETATM   33  C   UNL     1      -9.040   4.528  73.467  1.00  0.00    -0.106 C  
BRANCH  33  34
HETATM   34  C   UNL     1     -10.275   5.072  74.207  1.00  0.00    -0.258 C  
HETATM   35  H   UNL     1     -12.228   5.120  73.938  1.00  0.00     0.000 HD 
HETATM   36  O   UNL     1     -11.466   4.784  73.481  1.00  0.00    -0.320 OA 
ENDBRANCH  33  34
ENDBRANCH  30  33
ENDBRANCH   5  27
TORSDOF 7
ENDMDL
MODEL      163
REMARK 921   NORMALIZED FREE ENERGY PREDICTED BY IDOCK:   -5.19 KCAL/MOL
REMARK 922        TOTAL FREE ENERGY PREDICTED BY IDOCK:   -7.69 KCAL/MOL
REMARK 923 INTER-LIGAND FREE ENERGY PREDICTED BY IDOCK:   -6.80 KCAL/MOL
REMARK 924 INTRA-LIGAND FREE ENERGY PREDICTED BY IDOCK:   -0.90 KCAL/MOL
REMARK 927      BINDING AFFINITY PREDICTED BY RF-SCORE:    0.00 PKD
ROOT
HETATM    1  C   UNL     1      -9.376   6.254  65.967  1.00  0.00    -0.068 C  
HETATM    2  C   UNL     1      -9.412   7.367  66.966  1.00  0.00    -0.158 A  
HETATM    3  N   UNL     1      -9.280   8.619  66.495  1.00  0.00    -0.173 NA 
HETATM    4  C   UNL     1      -9.445   9.610  67.378  1.00  0.00    -0.142 A  
HETATM    5  C   UNL     1      -9.779   8.049  69.131  1.00  0.00    -0.163 A  
HETATM    6  C   UNL     1      -9.774   9.353  68.684  1.00  0.00    -0.160 A  
HETATM    7  N   UNL     1      -9.627   7.041  68.256  1.00  0.00    -0.134 NA 
ENDROOT
BRANCH   4   8
HETATM    8  N   UNL     1      -9.296  10.906  66.896  1.00  0.00    -0.167 NA 
HETATM    9  H   UNL     1      -9.674  11.082  65.965  1.00  0.00     0.000 HD 
BRANCH   8  10
HETATM   10  C   UNL     1      -8.713  11.958  67.507  1.00  0.00    -0.163 A  
HETATM   11  S   UNL     1      -9.570  13.442  67.510  1.00  0.00    -0.229 SA 
HETATM   12  N   UNL     1      -7.538  12.008  68.105  1.00  0.00    -0.111 NA 
HETATM   13  C   UNL     1      -7.224  13.310  68.442  1.00  0.00    -0.110 A  
HETATM   14  C   UNL     1      -8.191  14.241  68.131  1.00  0.00    -0.146 A  
BRANCH  14  15
HETATM   15  C   UNL     1      -8.126  15.681  68.212  1.00  0.00    -0.134 C  
HETATM   16  O   UNL     1      -8.014  16.277  69.278  1.00  0.00    -0.236 OA 
HETATM   17  H   UNL     1      -8.469  15.741  66.167  1.00  0.00     0.000 HD 
HETATM   18  N   UNL     1      -8.246  16.311  66.983  1.00  0.00    -0.185 N  
BRANCH  18  19
HETATM   19  C   UNL     1      -8.076  17.692  66.801  1.00  0.00    -0.236 A  
HETATM   20  C   UNL     1      -9.026  19.913  66.714  1.00  0.00    -0.444 A  
HETATM   21  C   UNL     1     -10.601  18.028  67.124  1.00  0.00    -0.337 C  
HETATM   22  C   UNL     1      -9.205  18.528  66.871  1.00  0.00    -0.290 A  
HETATM   23  C   UNL     1      -7.760  20.450  66.471  1.00  0.00    -0.241 A  
HETATM   24  C   UNL     1      -6.658  19.615  66.342  1.00  0.00    -0.197 A  
HETATM   25  C   UNL     1      -6.811  18.238  66.496  1.00  0.00    -0.215 A  
HETATM   26 CL   UNL     1      -5.442  17.245  66.105  1.00  0.00    -0.176 Cl 
ENDBRANCH  18  19
ENDBRANCH  14  15
ENDBRANCH   8  10
ENDBRANCH   4   8
BRANCH   5  27
HETATM   27  N   UNL     1      -9.994   7.801  70.492  1.00  0.00    -0.187 NA 
HETATM   28  C   UNL     1      -9.212   6.683  71.061  1.00  0.00    -0.160 C  
HETATM   29  C   UNL     1     -11.398   7.805  70.931  1.00  0.00    -0.275 C  
HETATM   30  N   UNL     1     -10.671   6.685  73.148  1.00  0.00    -0.264 NA 
HETATM   31  C   UNL     1      -9.296   6.720  72.599  1.00  0.00    -0.139 C  
HETATM   32  C   UNL     1     -11.452   7.773  72.485  1.00  0.00    -0.373 C  
BRANCH  30  33
HETATM   33  C   UNL     1     -11.338   5.378  72.952  1.00  0.00    -0.303 C  
BRANCH  33  34
HETATM   34  C   UNL     1     -10.761   4.254  73.831  1.00  0.00    -0.264 C  
HETATM   35  H   UNL     1     -11.121   2.344  74.171  1.00  0.00     0.000 HD 
HETATM   36  O   UNL     1     -11.477   3.038  73.629  1.00  0.00    -0.217 OA 
ENDBRANCH  33  34
ENDBRANCH  30  33
ENDBRANCH   5  27
TORSDOF 7
ENDMDL
MODEL      164
REMARK 921   NORMALIZED FREE ENERGY PREDICTED BY IDOCK:   -5.15 KCAL/MOL
REMARK 922        TOTAL FREE ENERGY PREDICTED BY IDOCK:   -7.64 KCAL/MOL
REMARK 923 INTER-LIGAND FREE ENERGY PREDICTED BY IDOCK:   -7.12 KCAL/MOL
REMARK 924 INTRA-LIGAND FREE ENERGY PREDICTED BY IDOCK:   -0.51 KCAL/MOL
REMARK 927      BINDING AFFINITY PREDICTED BY RF-SCORE:    0.00 PKD
ROOT
HETATM    1  C   UNL     1      -6.121  11.196  68.017  1.00  0.00    -0.049 C  
HETATM    2  C   UNL     1      -7.421  11.935  68.072  1.00  0.00    -0.107 A  
HETATM    3  N   UNL     1      -8.468  11.293  68.620  1.00  0.00    -0.154 NA 
HETATM    4  C   UNL     1      -9.587  12.008  68.783  1.00  0.00     0.016 A  
HETATM    5  C   UNL     1      -8.573  13.903  67.782  1.00  0.00    -0.182 A  
HETATM    6  C   UNL     1      -9.640  13.336  68.446  1.00  0.00    -0.185 A  
HETATM    7  N   UNL     1      -7.438  13.204  67.621  1.00  0.00    -0.149 NA 
ENDROOT
BRANCH   4   8
HETATM    8  N   UNL     1     -10.675  11.343  69.338  1.00  0.00    -0.409 NA 
HETATM    9  H   UNL     1     -11.415  11.935  69.716  1.00  0.00     0.000 HD 
BRANCH   8  10
HETATM   10  C   UNL     1     -10.873  10.012  69.437  1.00  0.00    -0.239 A  
HETATM   11  S   UNL     1     -11.596   9.427  70.876  1.00  0.00    -0.332 SA 
HETATM   12  N   UNL     1     -10.565   9.073  68.563  1.00  0.00    -0.190 NA 
HETATM   13  C   UNL     1     -10.759   7.821  69.113  1.00  0.00    -0.126 A  
HETATM   14  C   UNL     1     -11.256   7.820  70.398  1.00  0.00    -0.237 A  
BRANCH  14  15
HETATM   15  C   UNL     1     -11.433   6.710  71.304  1.00  0.00    -0.311 C  
HETATM   16  O   UNL     1     -12.529   6.402  71.762  1.00  0.00    -0.316 OA 
HETATM   17  H   UNL     1      -9.373   6.475  71.309  1.00  0.00     0.000 HD 
HETATM   18  N   UNL     1     -10.250   6.067  71.632  1.00  0.00    -0.197 N  
BRANCH  18  19
HETATM   19  C   UNL     1     -10.195   4.883  72.384  1.00  0.00    -0.199 A  
HETATM   20  C   UNL     1     -10.219   3.781  74.534  1.00  0.00    -0.248 A  
HETATM   21  C   UNL     1     -10.358   6.268  74.541  1.00  0.00    -0.233 C  
HETATM   22  C   UNL     1     -10.249   4.970  73.787  1.00  0.00    -0.245 A  
HETATM   23  C   UNL     1     -10.115   2.539  73.904  1.00  0.00    -0.172 A  
HETATM   24  C   UNL     1      -9.999   2.463  72.523  1.00  0.00    -0.221 A  
HETATM   25  C   UNL     1     -10.028   3.629  71.759  1.00  0.00    -0.140 A  
HETATM   26 CL   UNL     1      -9.659   3.475  70.071  1.00  0.00    -0.253 Cl 
ENDBRANCH  18  19
ENDBRANCH  14  15
ENDBRANCH   8  10
ENDBRANCH   4   8
BRANCH   5  27
HETATM   27  N   UNL     1      -8.682  15.224  67.331  1.00  0.00    -0.170 NA 
HETATM   28  C   UNL     1      -7.400  15.894  67.025  1.00  0.00    -0.208 C  
HETATM   29  C   UNL     1      -9.617  16.082  68.076  1.00  0.00    -0.215 C  
HETATM   30  N   UNL     1      -8.568  18.155  66.938  1.00  0.00    -0.251 NA 
HETATM   31  C   UNL     1      -7.668  17.199  66.251  1.00  0.00    -0.315 C  
HETATM   32  C   UNL     1      -9.814  17.418  67.308  1.00  0.00    -0.278 C  
BRANCH  30  33
HETATM   33  C   UNL     1      -7.955  18.767  68.137  1.00  0.00    -0.290 C  
BRANCH  33  34
HETATM   34  C   UNL     1      -6.500  19.222  67.922  1.00  0.00    -0.233 C  
HETATM   35  H   UNL     1      -5.289  20.607  68.634  1.00  0.00     0.000 HD 
HETATM   36  O   UNL     1      -6.187  20.326  68.767  1.00  0.00    -0.286 OA 
ENDBRANCH  33  34
ENDBRANCH  30  33
ENDBRANCH   5  27
TORSDOF 7
ENDMDL
MODEL      165
REMARK 921   NORMALIZED FREE ENERGY PREDICTED BY IDOCK:   -5.14 KCAL/MOL
REMARK 922        TOTAL FREE ENERGY PREDICTED BY IDOCK:   -7.63 KCAL/MOL
REMARK 923 INTER-LIGAND FREE ENERGY PREDICTED BY IDOCK:   -6.73 KCAL/MOL
REMARK 924 INTRA-LIGAND FREE ENERGY PREDICTED BY IDOCK:   -0.89 KCAL/MOL
REMARK 927      BINDING AFFINITY PREDICTED BY RF-SCORE:    0.00 PKD
ROOT
HETATM    1  C   UNL     1     -11.668  13.206  70.500  1.00  0.00    -0.038 C  
HETATM    2  C   UNL     1     -11.181  13.363  69.094  1.00  0.00    -0.248 A  
HETATM    3  N   UNL     1     -11.348  12.317  68.267  1.00  0.00    -0.264 NA 
HETATM    4  C   UNL     1     -11.030  12.514  66.982  1.00  0.00    -0.267 A  
HETATM    5  C   UNL     1     -10.338  14.733  67.451  1.00  0.00    -0.242 A  
HETATM    6  C   UNL     1     -10.599  13.736  66.535  1.00  0.00    -0.279 A  
HETATM    7  N   UNL     1     -10.663  14.556  68.742  1.00  0.00    -0.246 NA 
ENDROOT
BRANCH   4   8
HETATM    8  N   UNL     1     -11.188  11.429  66.128  1.00  0.00    -0.207 NA 
HETATM    9  H   UNL     1     -12.032  11.432  65.554  1.00  0.00     0.000 HD 
BRANCH   8  10
HETATM   10  C   UNL     1     -10.364  10.374  65.964  1.00  0.00    -0.192 A  
HETATM   11  S   UNL     1     -10.735   8.942  66.829  1.00  0.00     0.147 SA 
HETATM   12  N   UNL     1      -9.277  10.293  65.221  1.00  0.00    -0.183 NA 
HETATM   13  C   UNL     1      -8.613   9.106  65.467  1.00  0.00    -0.170 A  
HETATM   14  C   UNL     1      -9.230   8.270  66.370  1.00  0.00    -0.195 A  
BRANCH  14  15
HETATM   15  C   UNL     1      -8.743   7.042  66.953  1.00  0.00    -0.122 C  
HETATM   16  O   UNL     1      -7.714   6.991  67.618  1.00  0.00    -0.107 OA 
HETATM   17  H   UNL     1     -10.284   6.052  65.981  1.00  0.00     0.000 HD 
HETATM   18  N   UNL     1      -9.523   5.937  66.650  1.00  0.00    -0.146 N  
BRANCH  18  19
HETATM   19  C   UNL     1      -9.321   4.668  67.215  1.00  0.00    -0.143 A  
HETATM   20  C   UNL     1      -8.660   2.358  66.961  1.00  0.00    -0.121 A  
HETATM   21  C   UNL     1      -8.624   3.772  64.911  1.00  0.00    -0.113 C  
HETATM   22  C   UNL     1      -8.885   3.619  66.385  1.00  0.00    -0.129 A  
HETATM   23  C   UNL     1      -8.885   2.139  68.322  1.00  0.00    -0.150 A  
HETATM   24  C   UNL     1      -9.374   3.161  69.124  1.00  0.00    -0.228 A  
HETATM   25  C   UNL     1      -9.603   4.422  68.576  1.00  0.00    -0.143 A  
HETATM   26 CL   UNL     1     -10.417   5.581  69.578  1.00  0.00    -0.356 Cl 
ENDBRANCH  18  19
ENDBRANCH  14  15
ENDBRANCH   8  10
ENDBRANCH   4   8
BRANCH   5  27
HETATM   27  N   UNL     1      -9.782  15.937  67.001  1.00  0.00    -0.225 NA 
HETATM   28  C   UNL     1      -8.313  16.040  67.131  1.00  0.00    -0.199 C  
HETATM   29  C   UNL     1     -10.485  17.162  67.412  1.00  0.00    -0.334 C  
HETATM   30  N   UNL     1      -8.421  18.546  66.692  1.00  0.00    -0.270 NA 
HETATM   31  C   UNL     1      -7.804  17.250  66.324  1.00  0.00    -0.309 C  
HETATM   32  C   UNL     1      -9.904  18.375  66.633  1.00  0.00    -0.353 C  
BRANCH  30  33
HETATM   33  C   UNL     1      -8.009  19.023  68.031  1.00  0.00    -0.289 C  
BRANCH  33  34
HETATM   34  C   UNL     1      -6.918  20.108  67.990  1.00  0.00    -0.290 C  
HETATM   35  H   UNL     1      -6.526  21.738  66.951  1.00  0.00     0.000 HD 
HETATM   36  O   UNL     1      -7.199  21.068  66.975  1.00  0.00    -0.320 OA 
ENDBRANCH  33  34
ENDBRANCH  30  33
ENDBRANCH   5  27
TORSDOF 7
ENDMDL
MODEL      166
REMARK 921   NORMALIZED FREE ENERGY PREDICTED BY IDOCK:   -5.13 KCAL/MOL
REMARK 922        TOTAL FREE ENERGY PREDICTED BY IDOCK:   -7.61 KCAL/MOL
REMARK 923 INTER-LIGAND FREE ENERGY PREDICTED BY IDOCK:   -7.34 KCAL/MOL
REMARK 924 INTRA-LIGAND FREE ENERGY PREDICTED BY IDOCK:   -0.27 KCAL/MOL
REMARK 927      BINDING AFFINITY PREDICTED BY RF-SCORE:    0.00 PKD
ROOT
HETATM    1  C   UNL     1      -7.637   8.884  71.731  1.00  0.00    -0.018 C  
HETATM    2  C   UNL     1      -9.011   8.303  71.845  1.00  0.00    -0.187 A  
HETATM    3  N   UNL     1     -10.047   9.130  71.616  1.00  0.00    -0.324 NA 
HETATM    4  C   UNL     1     -11.262   8.571  71.591  1.00  0.00    -0.292 A  
HETATM    5  C   UNL     1     -10.342   6.446  72.096  1.00  0.00    -0.189 A  
HETATM    6  C   UNL     1     -11.428   7.220  71.748  1.00  0.00    -0.300 A  
HETATM    7  N   UNL     1      -9.113   6.987  72.114  1.00  0.00    -0.131 NA 
ENDROOT
BRANCH   4   8
HETATM    8  N   UNL     1     -12.336   9.426  71.367  1.00  0.00    -0.337 NA 
HETATM    9  H   UNL     1     -13.247   9.090  71.677  1.00  0.00     0.000 HD 
BRANCH   8  10
HETATM   10  C   UNL     1     -12.320  10.646  70.791  1.00  0.00    -0.376 A  
HETATM   11  S   UNL     1     -11.745  10.749  69.179  1.00  0.00    -0.271 SA 
HETATM   12  N   UNL     1     -12.681  11.802  71.313  1.00  0.00    -0.368 NA 
HETATM   13  C   UNL     1     -12.341  12.840  70.467  1.00  0.00    -0.275 A  
HETATM   14  C   UNL     1     -11.757  12.457  69.280  1.00  0.00    -0.329 A  
BRANCH  14  15
HETATM   15  C   UNL     1     -11.159  13.277  68.254  1.00  0.00    -0.266 C  
HETATM   16  O   UNL     1     -10.315  12.846  67.474  1.00  0.00    -0.220 OA 
HETATM   17  H   UNL     1     -12.200  14.891  69.036  1.00  0.00     0.000 HD 
HETATM   18  N   UNL     1     -11.598  14.592  68.269  1.00  0.00    -0.312 N  
BRANCH  18  19
HETATM   19  C   UNL     1     -11.259  15.533  67.284  1.00  0.00    -0.226 A  
HETATM   20  C   UNL     1     -10.363  17.699  66.696  1.00  0.00    -0.333 A  
HETATM   21  C   UNL     1     -10.497  17.156  69.123  1.00  0.00    -0.296 C  
HETATM   22  C   UNL     1     -10.725  16.771  67.687  1.00  0.00    -0.305 A  
HETATM   23  C   UNL     1     -10.549  17.414  65.342  1.00  0.00    -0.043 A  
HETATM   24  C   UNL     1     -11.134  16.216  64.953  1.00  0.00    -0.336 A  
HETATM   25  C   UNL     1     -11.499  15.278  65.918  1.00  0.00    -0.092 A  
HETATM   26 CL   UNL     1     -12.419  13.909  65.377  1.00  0.00    -0.495 Cl 
ENDBRANCH  18  19
ENDBRANCH  14  15
ENDBRANCH   8  10
ENDBRANCH   4   8
BRANCH   5  27
HETATM   27  N   UNL     1     -10.541   5.088  72.376  1.00  0.00    -0.216 NA 
HETATM   28  C   UNL     1     -10.843   4.773  73.788  1.00  0.00    -0.310 C  
HETATM   29  C   UNL     1      -9.572   4.160  71.773  1.00  0.00    -0.156 C  
HETATM   30  N   UNL     1     -10.420   2.299  73.358  1.00  0.00    -0.119 NA 
HETATM   31  C   UNL     1     -11.346   3.321  73.900  1.00  0.00     0.038 C  
HETATM   32  C   UNL     1     -10.071   2.700  71.961  1.00  0.00    -0.120 C  
BRANCH  30  33
HETATM   33  C   UNL     1      -9.194   2.140  74.171  1.00  0.00    -0.072 C  
BRANCH  33  34
HETATM   34  C   UNL     1      -8.026   1.493  73.405  1.00  0.00    -0.041 C  
HETATM   35  H   UNL     1      -6.094   1.810  73.162  1.00  0.00     0.000 HD 
HETATM   36  O   UNL     1      -6.815   2.209  73.635  1.00  0.00    -0.021 OA 
ENDBRANCH  33  34
ENDBRANCH  30  33
ENDBRANCH   5  27
TORSDOF 7
ENDMDL
MODEL      167
REMARK 921   NORMALIZED FREE ENERGY PREDICTED BY IDOCK:   -5.12 KCAL/MOL
REMARK 922        TOTAL FREE ENERGY PREDICTED BY IDOCK:   -7.59 KCAL/MOL
REMARK 923 INTER-LIGAND FREE ENERGY PREDICTED BY IDOCK:   -6.95 KCAL/MOL
REMARK 924 INTRA-LIGAND FREE ENERGY PREDICTED BY IDOCK:   -0.64 KCAL/MOL
REMARK 927      BINDING AFFINITY PREDICTED BY RF-SCORE:    0.00 PKD
ROOT
HETATM    1  C   UNL     1     -12.160  11.182  70.331  1.00  0.00    -0.475 C  
HETATM    2  C   UNL     1     -11.438  11.256  69.022  1.00  0.00    -0.302 A  
HETATM    3  N   UNL     1     -11.160  10.092  68.409  1.00  0.00    -0.243 NA 
HETATM    4  C   UNL     1     -10.634  10.175  67.182  1.00  0.00    -0.246 A  
HETATM    5  C   UNL     1     -10.629  12.542  67.297  1.00  0.00    -0.227 A  
HETATM    6  C   UNL     1     -10.434  11.386  66.573  1.00  0.00    -0.292 A  
HETATM    7  N   UNL     1     -11.168  12.479  68.526  1.00  0.00    -0.261 NA 
ENDROOT
BRANCH   4   8
HETATM    8  N   UNL     1     -10.334   8.972  66.551  1.00  0.00    -0.239 NA 
HETATM    9  H   UNL     1     -10.770   8.824  65.641  1.00  0.00     0.000 HD 
BRANCH   8  10
HETATM   10  C   UNL     1      -9.537   7.978  66.995  1.00  0.00    -0.196 A  
HETATM   11  S   UNL     1     -10.142   6.985  68.254  1.00  0.00    -0.174 SA 
HETATM   12  N   UNL     1      -8.320   7.665  66.594  1.00  0.00    -0.123 NA 
HETATM   13  C   UNL     1      -7.773   6.703  67.421  1.00  0.00    -0.109 A  
HETATM   14  C   UNL     1      -8.602   6.260  68.428  1.00  0.00    -0.114 A  
BRANCH  14  15
HETATM   15  C   UNL     1      -8.301   5.385  69.535  1.00  0.00    -0.100 C  
HETATM   16  O   UNL     1      -8.022   4.200  69.382  1.00  0.00    -0.057 OA 
HETATM   17  H   UNL     1      -8.770   6.952  70.810  1.00  0.00     0.000 HD 
HETATM   18  N   UNL     1      -8.402   6.001  70.773  1.00  0.00    -0.124 N  
BRANCH  18  19
HETATM   19  C   UNL     1      -8.025   5.387  71.977  1.00  0.00    -0.113 A  
HETATM   20  C   UNL     1      -6.381   5.052  73.716  1.00  0.00    -0.061 A  
HETATM   21  C   UNL     1      -5.740   6.551  71.833  1.00  0.00    -0.036 C  
HETATM   22  C   UNL     1      -6.744   5.648  72.497  1.00  0.00    -0.072 A  
HETATM   23  C   UNL     1      -7.258   4.199  74.388  1.00  0.00    -0.070 A  
HETATM   24  C   UNL     1      -8.497   3.896  73.839  1.00  0.00    -0.091 A  
HETATM   25  C   UNL     1      -8.882   4.478  72.632  1.00  0.00    -0.113 A  
HETATM   26 CL   UNL     1     -10.340   3.886  71.901  1.00  0.00    -0.137 Cl 
ENDBRANCH  18  19
ENDBRANCH  14  15
ENDBRANCH   8  10
ENDBRANCH   4   8
BRANCH   5  27
HETATM   27  N   UNL     1     -10.304  13.772  66.711  1.00  0.00    -0.269 NA 
HETATM   28  C   UNL     1      -9.309  14.579  67.447  1.00  0.00    -0.197 C  
HETATM   29  C   UNL     1     -11.439  14.566  66.216  1.00  0.00    -0.358 C  
HETATM   30  N   UNL     1      -9.877  16.621  66.036  1.00  0.00    -0.414 NA 
HETATM   31  C   UNL     1      -8.811  15.732  66.553  1.00  0.00    -0.310 C  
HETATM   32  C   UNL     1     -10.905  15.760  65.376  1.00  0.00    -0.364 C  
BRANCH  30  33
HETATM   33  C   UNL     1     -10.499  17.452  67.090  1.00  0.00    -0.305 C  
BRANCH  33  34
HETATM   34  C   UNL     1      -9.973  18.898  67.126  1.00  0.00    -0.332 C  
HETATM   35  H   UNL     1      -8.607  19.973  66.193  1.00  0.00     0.000 HD 
HETATM   36  O   UNL     1      -8.932  19.080  66.171  1.00  0.00    -0.425 OA 
ENDBRANCH  33  34
ENDBRANCH  30  33
ENDBRANCH   5  27
TORSDOF 7
ENDMDL
MODEL      168
REMARK 921   NORMALIZED FREE ENERGY PREDICTED BY IDOCK:   -5.09 KCAL/MOL
REMARK 922        TOTAL FREE ENERGY PREDICTED BY IDOCK:   -7.56 KCAL/MOL
REMARK 923 INTER-LIGAND FREE ENERGY PREDICTED BY IDOCK:   -6.71 KCAL/MOL
REMARK 924 INTRA-LIGAND FREE ENERGY PREDICTED BY IDOCK:   -0.85 KCAL/MOL
REMARK 927      BINDING AFFINITY PREDICTED BY RF-SCORE:    0.00 PKD
ROOT
HETATM    1  C   UNL     1     -10.888  19.658  65.301  1.00  0.00     0.110 C  
HETATM    2  C   UNL     1     -10.474  18.253  65.605  1.00  0.00    -0.095 A  
HETATM    3  N   UNL     1     -11.197  17.266  65.046  1.00  0.00    -0.507 NA 
HETATM    4  C   UNL     1     -10.740  16.020  65.218  1.00  0.00    -0.399 A  
HETATM    5  C   UNL     1      -8.942  16.817  66.541  1.00  0.00    -0.273 A  
HETATM    6  C   UNL     1      -9.572  15.777  65.893  1.00  0.00    -0.382 A  
HETATM    7  N   UNL     1      -9.379  18.076  66.370  1.00  0.00    -0.382 NA 
ENDROOT
BRANCH   4   8
HETATM    8  N   UNL     1     -11.493  14.998  64.651  1.00  0.00    -0.568 NA 
HETATM    9  H   UNL     1     -12.400  15.269  64.270  1.00  0.00     0.000 HD 
BRANCH   8  10
HETATM   10  C   UNL     1     -11.172  13.692  64.544  1.00  0.00    -0.382 A  
HETATM   11  S   UNL     1     -11.168  12.760  65.982  1.00  0.00    -0.313 SA 
HETATM   12  N   UNL     1     -10.838  13.018  63.460  1.00  0.00    -0.142 NA 
HETATM   13  C   UNL     1     -10.404  11.751  63.795  1.00  0.00    -0.410 A  
HETATM   14  C   UNL     1     -10.451  11.455  65.139  1.00  0.00    -0.295 A  
BRANCH  14  15
HETATM   15  C   UNL     1      -9.943  10.296  65.834  1.00  0.00    -0.256 C  
HETATM   16  O   UNL     1     -10.447   9.184  65.717  1.00  0.00     0.171 OA 
HETATM   17  H   UNL     1      -8.606  11.551  66.804  1.00  0.00     0.000 HD 
HETATM   18  N   UNL     1      -8.872  10.575  66.669  1.00  0.00    -0.134 N  
BRANCH  18  19
HETATM   19  C   UNL     1      -8.132   9.587  67.336  1.00  0.00    -0.110 A  
HETATM   20  C   UNL     1      -7.756   8.249  69.313  1.00  0.00    -0.103 A  
HETATM   21  C   UNL     1      -9.610   9.910  69.412  1.00  0.00    -0.229 C  
HETATM   22  C   UNL     1      -8.483   9.257  68.659  1.00  0.00    -0.123 A  
HETATM   23  C   UNL     1      -6.694   7.601  68.679  1.00  0.00    -0.054 A  
HETATM   24  C   UNL     1      -6.313   7.973  67.397  1.00  0.00    -0.056 A  
HETATM   25  C   UNL     1      -7.020   8.969  66.725  1.00  0.00    -0.081 A  
HETATM   26 CL   UNL     1      -6.356   9.532  65.224  1.00  0.00    -0.070 Cl 
ENDBRANCH  18  19
ENDBRANCH  14  15
ENDBRANCH   8  10
ENDBRANCH   4   8
BRANCH   5  27
HETATM   27  N   UNL     1      -7.819  16.541  67.331  1.00  0.00    -0.150 NA 
HETATM   28  C   UNL     1      -8.111  16.099  68.711  1.00  0.00    -0.218 C  
HETATM   29  C   UNL     1      -6.727  17.524  67.259  1.00  0.00    -0.166 C  
HETATM   30  N   UNL     1      -5.680  16.462  69.374  1.00  0.00    -0.140 NA 
HETATM   31  C   UNL     1      -6.832  15.531  69.356  1.00  0.00    -0.176 C  
HETATM   32  C   UNL     1      -5.472  16.954  67.978  1.00  0.00    -0.121 C  
BRANCH  30  33
HETATM   33  C   UNL     1      -5.871  17.601  70.299  1.00  0.00    -0.128 C  
BRANCH  33  34
HETATM   34  C   UNL     1      -5.224  18.909  69.809  1.00  0.00    -0.200 C  
HETATM   35  H   UNL     1      -5.763  20.788  69.544  1.00  0.00     0.000 HD 
HETATM   36  O   UNL     1      -6.163  19.980  69.846  1.00  0.00    -0.326 OA 
ENDBRANCH  33  34
ENDBRANCH  30  33
ENDBRANCH   5  27
TORSDOF 7
ENDMDL
MODEL      169
REMARK 921   NORMALIZED FREE ENERGY PREDICTED BY IDOCK:   -5.07 KCAL/MOL
REMARK 922        TOTAL FREE ENERGY PREDICTED BY IDOCK:   -7.52 KCAL/MOL
REMARK 923 INTER-LIGAND FREE ENERGY PREDICTED BY IDOCK:   -6.69 KCAL/MOL
REMARK 924 INTRA-LIGAND FREE ENERGY PREDICTED BY IDOCK:   -0.83 KCAL/MOL
REMARK 927      BINDING AFFINITY PREDICTED BY RF-SCORE:    0.00 PKD
ROOT
HETATM    1  C   UNL     1      -5.350  16.133  68.767  1.00  0.00    -0.111 C  
HETATM    2  C   UNL     1      -6.420  15.159  68.385  1.00  0.00    -0.107 A  
HETATM    3  N   UNL     1      -6.035  14.051  67.728  1.00  0.00    -0.266 NA 
HETATM    4  C   UNL     1      -6.978  13.128  67.509  1.00  0.00    -0.149 A  
HETATM    5  C   UNL     1      -8.617  14.500  68.535  1.00  0.00    -0.175 A  
HETATM    6  C   UNL     1      -8.257  13.294  67.973  1.00  0.00    -0.162 A  
HETATM    7  N   UNL     1      -7.681  15.433  68.773  1.00  0.00    -0.139 NA 
ENDROOT
BRANCH   4   8
HETATM    8  N   UNL     1      -6.585  11.987  66.818  1.00  0.00    -0.358 NA 
HETATM    9  H   UNL     1      -6.250  12.135  65.866  1.00  0.00     0.000 HD 
BRANCH   8  10
HETATM   10  C   UNL     1      -6.591  10.710  67.252  1.00  0.00    -0.073 A  
HETATM   11  S   UNL     1      -8.077  10.080  67.828  1.00  0.00    -0.109 SA 
HETATM   12  N   UNL     1      -5.583   9.861  67.310  1.00  0.00    -0.046 NA 
HETATM   13  C   UNL     1      -5.956   8.715  67.985  1.00  0.00    -0.047 A  
HETATM   14  C   UNL     1      -7.268   8.686  68.403  1.00  0.00    -0.085 A  
BRANCH  14  15
HETATM   15  C   UNL     1      -7.933   7.723  69.247  1.00  0.00    -0.125 C  
HETATM   16  O   UNL     1      -7.523   6.575  69.386  1.00  0.00    -0.089 OA 
HETATM   17  H   UNL     1      -9.424   9.130  69.560  1.00  0.00     0.000 HD 
HETATM   18  N   UNL     1      -9.089   8.208  69.839  1.00  0.00    -0.150 N  
BRANCH  18  19
HETATM   19  C   UNL     1      -9.822   7.498  70.802  1.00  0.00    -0.178 A  
HETATM   20  C   UNL     1     -11.691   6.070  71.358  1.00  0.00    -0.133 A  
HETATM   21  C   UNL     1     -11.479   6.772  68.978  1.00  0.00    -0.072 C  
HETATM   22  C   UNL     1     -10.975   6.800  70.395  1.00  0.00    -0.330 A  
HETATM   23  C   UNL     1     -11.286   6.052  72.695  1.00  0.00    -0.326 A  
HETATM   24  C   UNL     1     -10.183   6.793  73.101  1.00  0.00    -0.253 A  
HETATM   25  C   UNL     1      -9.455   7.523  72.164  1.00  0.00    -0.147 A  
HETATM   26 CL   UNL     1      -8.233   8.592  72.775  1.00  0.00    -0.172 Cl 
ENDBRANCH  18  19
ENDBRANCH  14  15
ENDBRANCH   8  10
ENDBRANCH   4   8
BRANCH   5  27
HETATM   27  N   UNL     1      -9.955  14.707  68.893  1.00  0.00    -0.235 NA 
HETATM   28  C   UNL     1     -10.170  15.653  70.009  1.00  0.00    -0.267 C  
HETATM   29  C   UNL     1     -10.787  13.498  68.994  1.00  0.00    -0.192 C  
HETATM   30  N   UNL     1     -12.586  14.882  70.236  1.00  0.00    -0.333 NA 
HETATM   31  C   UNL     1     -11.662  16.030  70.090  1.00  0.00    -0.281 C  
HETATM   32  C   UNL     1     -12.278  13.910  69.144  1.00  0.00    -0.267 C  
BRANCH  30  33
HETATM   33  C   UNL     1     -12.484  14.223  71.557  1.00  0.00    -0.356 C  
BRANCH  33  34
HETATM   34  C   UNL     1     -13.554  14.687  72.562  1.00  0.00    -0.470 C  
HETATM   35  H   UNL     1     -13.657  15.876  74.133  1.00  0.00     0.000 HD 
HETATM   36  O   UNL     1     -12.996  15.589  73.513  1.00  0.00    -0.489 OA 
ENDBRANCH  33  34
ENDBRANCH  30  33
ENDBRANCH   5  27
TORSDOF 7
ENDMDL
MODEL      170
REMARK 921   NORMALIZED FREE ENERGY PREDICTED BY IDOCK:   -5.05 KCAL/MOL
REMARK 922        TOTAL FREE ENERGY PREDICTED BY IDOCK:   -7.49 KCAL/MOL
REMARK 923 INTER-LIGAND FREE ENERGY PREDICTED BY IDOCK:   -6.57 KCAL/MOL
REMARK 924 INTRA-LIGAND FREE ENERGY PREDICTED BY IDOCK:   -0.92 KCAL/MOL
REMARK 927      BINDING AFFINITY PREDICTED BY RF-SCORE:    0.00 PKD
ROOT
HETATM    1  C   UNL     1      -7.430  10.243  62.846  1.00  0.00    -0.140 C  
HETATM    2  C   UNL     1      -8.445  10.126  63.939  1.00  0.00    -0.181 A  
HETATM    3  N   UNL     1      -8.674   8.897  64.434  1.00  0.00    -0.122 NA 
HETATM    4  C   UNL     1      -9.484   8.823  65.496  1.00  0.00    -0.026 A  
HETATM    5  C   UNL     1      -9.833  11.167  65.447  1.00  0.00    -0.242 A  
HETATM    6  C   UNL     1     -10.011   9.950  66.070  1.00  0.00    -0.338 A  
HETATM    7  N   UNL     1      -9.014  11.262  64.387  1.00  0.00     0.021 NA 
ENDROOT
BRANCH   4   8
HETATM    8  N   UNL     1      -9.732   7.551  66.001  1.00  0.00    -0.425 NA 
HETATM    9  H   UNL     1      -9.629   6.780  65.341  1.00  0.00     0.000 HD 
BRANCH   8  10
HETATM   10  C   UNL     1     -10.094   7.212  67.256  1.00  0.00    -0.215 A  
HETATM   11  S   UNL     1      -8.953   7.483  68.505  1.00  0.00    -0.127 SA 
HETATM   12  N   UNL     1     -11.227   6.673  67.663  1.00  0.00    -0.261 NA 
HETATM   13  C   UNL     1     -11.137   6.308  68.992  1.00  0.00    -0.378 A  
HETATM   14  C   UNL     1      -9.939   6.613  69.600  1.00  0.00    -0.175 A  
BRANCH  14  15
HETATM   15  C   UNL     1      -9.466   6.245  70.913  1.00  0.00    -0.172 C  
HETATM   16  O   UNL     1     -10.226   5.931  71.823  1.00  0.00    -0.193 OA 
HETATM   17  H   UNL     1      -7.550   6.725  70.281  1.00  0.00     0.000 HD 
HETATM   18  N   UNL     1      -8.089   6.326  71.050  1.00  0.00    -0.119 N  
BRANCH  18  19
HETATM   19  C   UNL     1      -7.396   5.889  72.189  1.00  0.00    -0.094 A  
HETATM   20  C   UNL     1      -6.350   6.390  74.309  1.00  0.00    -0.070 A  
HETATM   21  C   UNL     1      -7.312   8.309  73.045  1.00  0.00    -0.146 C  
HETATM   22  C   UNL     1      -7.020   6.837  73.158  1.00  0.00    -0.075 A  
HETATM   23  C   UNL     1      -6.041   5.039  74.482  1.00  0.00    -0.060 A  
HETATM   24  C   UNL     1      -6.360   4.117  73.494  1.00  0.00    -0.040 A  
HETATM   25  C   UNL     1      -7.027   4.536  72.344  1.00  0.00    -0.057 A  
HETATM   26 CL   UNL     1      -7.194   3.376  71.064  1.00  0.00    -0.033 Cl 
ENDBRANCH  18  19
ENDBRANCH  14  15
ENDBRANCH   8  10
ENDBRANCH   4   8
BRANCH   5  27
HETATM   27  N   UNL     1     -10.477  12.295  65.970  1.00  0.00    -0.247 NA 
HETATM   28  C   UNL     1     -11.581  12.831  65.145  1.00  0.00    -0.338 C  
HETATM   29  C   UNL     1      -9.598  13.345  66.507  1.00  0.00    -0.272 C  
HETATM   30  N   UNL     1     -11.608  14.975  66.518  1.00  0.00    -0.251 NA 
HETATM   31  C   UNL     1     -12.396  13.849  65.965  1.00  0.00    -0.475 C  
HETATM   32  C   UNL     1     -10.455  14.394  67.270  1.00  0.00    -0.269 C  
BRANCH  30  33
HETATM   33  C   UNL     1     -11.126  15.910  65.477  1.00  0.00    -0.146 C  
BRANCH  33  34
HETATM   34  C   UNL     1     -10.071  16.908  65.985  1.00  0.00    -0.319 C  
HETATM   35  H   UNL     1      -9.835  18.865  66.057  1.00  0.00     0.000 HD 
HETATM   36  O   UNL     1     -10.487  18.249  65.743  1.00  0.00    -0.589 OA 
ENDBRANCH  33  34
ENDBRANCH  30  33
ENDBRANCH   5  27
TORSDOF 7
ENDMDL
MODEL      171
REMARK 921   NORMALIZED FREE ENERGY PREDICTED BY IDOCK:   -5.02 KCAL/MOL
REMARK 922        TOTAL FREE ENERGY PREDICTED BY IDOCK:   -7.45 KCAL/MOL
REMARK 923 INTER-LIGAND FREE ENERGY PREDICTED BY IDOCK:   -6.83 KCAL/MOL
REMARK 924 INTRA-LIGAND FREE ENERGY PREDICTED BY IDOCK:   -0.62 KCAL/MOL
REMARK 927      BINDING AFFINITY PREDICTED BY RF-SCORE:    0.00 PKD
ROOT
HETATM    1  C   UNL     1      -5.420  11.289  66.927  1.00  0.00    -0.098 C  
HETATM    2  C   UNL     1      -6.496  12.242  67.346  1.00  0.00    -0.157 A  
HETATM    3  N   UNL     1      -7.649  11.709  67.787  1.00  0.00    -0.113 NA 
HETATM    4  C   UNL     1      -8.551  12.565  68.280  1.00  0.00    -0.173 A  
HETATM    5  C   UNL     1      -7.138  14.404  67.791  1.00  0.00    -0.176 A  
HETATM    6  C   UNL     1      -8.287  13.907  68.367  1.00  0.00    -0.157 A  
HETATM    7  N   UNL     1      -6.215  13.559  67.302  1.00  0.00    -0.256 NA 
ENDROOT
BRANCH   4   8
HETATM    8  N   UNL     1      -9.750  12.017  68.725  1.00  0.00    -0.404 NA 
HETATM    9  H   UNL     1     -10.440  12.680  69.079  1.00  0.00     0.000 HD 
BRANCH   8  10
HETATM   10  C   UNL     1     -10.112  10.718  68.746  1.00  0.00    -0.191 A  
HETATM   11  S   UNL     1     -10.867  10.133  70.168  1.00  0.00    -0.314 SA 
HETATM   12  N   UNL     1      -9.948   9.808  67.805  1.00  0.00    -0.160 NA 
HETATM   13  C   UNL     1     -10.286   8.556  68.281  1.00  0.00    -0.205 A  
HETATM   14  C   UNL     1     -10.746   8.531  69.579  1.00  0.00    -0.174 A  
BRANCH  14  15
HETATM   15  C   UNL     1     -11.040   7.394  70.418  1.00  0.00    -0.265 C  
HETATM   16  O   UNL     1     -12.188   7.046  70.677  1.00  0.00    -0.330 OA 
HETATM   17  H   UNL     1      -9.004   7.214  70.768  1.00  0.00     0.000 HD 
HETATM   18  N   UNL     1      -9.910   6.775  70.929  1.00  0.00    -0.186 N  
BRANCH  18  19
HETATM   19  C   UNL     1      -9.947   5.574  71.654  1.00  0.00    -0.182 A  
HETATM   20  C   UNL     1      -9.820   3.161  71.693  1.00  0.00    -0.216 A  
HETATM   21  C   UNL     1      -9.628   4.264  69.468  1.00  0.00    -0.274 C  
HETATM   22  C   UNL     1      -9.809   4.358  70.959  1.00  0.00    -0.260 A  
HETATM   23  C   UNL     1      -9.988   3.169  73.079  1.00  0.00    -0.204 A  
HETATM   24  C   UNL     1     -10.187   4.367  73.752  1.00  0.00    -0.224 A  
HETATM   25  C   UNL     1     -10.177   5.569  73.046  1.00  0.00    -0.188 A  
HETATM   26 CL   UNL     1     -10.647   6.996  73.914  1.00  0.00    -0.349 Cl 
ENDBRANCH  18  19
ENDBRANCH  14  15
ENDBRANCH   8  10
ENDBRANCH   4   8
BRANCH   5  27
HETATM   27  N   UNL     1      -6.933  15.789  67.774  1.00  0.00    -0.137 NA 
HETATM   28  C   UNL     1      -8.143  16.602  67.529  1.00  0.00    -0.168 C  
HETATM   29  C   UNL     1      -5.762  16.256  67.017  1.00  0.00     0.038 C  
HETATM   30  N   UNL     1      -6.709  18.662  67.103  1.00  0.00    -0.196 NA 
HETATM   31  C   UNL     1      -7.849  18.081  67.849  1.00  0.00    -0.235 C  
HETATM   32  C   UNL     1      -5.531  17.766  67.305  1.00  0.00    -0.134 C  
BRANCH  30  33
HETATM   33  C   UNL     1      -6.988  18.831  65.660  1.00  0.00    -0.225 C  
BRANCH  33  34
HETATM   34  C   UNL     1      -6.887  20.290  65.178  1.00  0.00    -0.264 C  
HETATM   35  H   UNL     1      -6.403  22.043  65.942  1.00  0.00     0.000 HD 
HETATM   36  O   UNL     1      -6.466  21.143  66.239  1.00  0.00    -0.254 OA 
ENDBRANCH  33  34
ENDBRANCH  30  33
ENDBRANCH   5  27
TORSDOF 7
ENDMDL
MODEL      172
REMARK 921   NORMALIZED FREE ENERGY PREDICTED BY IDOCK:   -5.01 KCAL/MOL
REMARK 922        TOTAL FREE ENERGY PREDICTED BY IDOCK:   -7.44 KCAL/MOL
REMARK 923 INTER-LIGAND FREE ENERGY PREDICTED BY IDOCK:   -6.40 KCAL/MOL
REMARK 924 INTRA-LIGAND FREE ENERGY PREDICTED BY IDOCK:   -1.04 KCAL/MOL
REMARK 927      BINDING AFFINITY PREDICTED BY RF-SCORE:    0.00 PKD
ROOT
HETATM    1  C   UNL     1      -7.374  18.280  68.380  1.00  0.00    -0.285 C  
HETATM    2  C   UNL     1      -7.751  16.906  67.922  1.00  0.00    -0.173 A  
HETATM    3  N   UNL     1      -6.917  15.902  68.244  1.00  0.00    -0.114 NA 
HETATM    4  C   UNL     1      -7.329  14.665  67.944  1.00  0.00    -0.154 A  
HETATM    5  C   UNL     1      -9.312  15.517  66.964  1.00  0.00    -0.224 A  
HETATM    6  C   UNL     1      -8.556  14.441  67.378  1.00  0.00    -0.213 A  
HETATM    7  N   UNL     1      -8.920  16.766  67.268  1.00  0.00    -0.209 NA 
ENDROOT
BRANCH   4   8
HETATM    8  N   UNL     1      -6.462  13.626  68.266  1.00  0.00    -0.095 NA 
HETATM    9  H   UNL     1      -5.527  13.900  68.565  1.00  0.00     0.000 HD 
BRANCH   8  10
HETATM   10  C   UNL     1      -6.707  12.300  68.230  1.00  0.00    -0.064 A  
HETATM   11  S   UNL     1      -5.774  11.354  67.148  1.00  0.00    -0.108 SA 
HETATM   12  N   UNL     1      -7.598  11.614  68.921  1.00  0.00    -0.117 NA 
HETATM   13  C   UNL     1      -7.663  10.312  68.465  1.00  0.00    -0.091 A  
HETATM   14  C   UNL     1      -6.783  10.005  67.450  1.00  0.00    -0.073 A  
BRANCH  14  15
HETATM   15  C   UNL     1      -6.690   8.802  66.659  1.00  0.00    -0.072 C  
HETATM   16  O   UNL     1      -5.657   8.146  66.576  1.00  0.00    -0.031 OA 
HETATM   17  H   UNL     1      -8.623   9.168  66.002  1.00  0.00     0.000 HD 
HETATM   18  N   UNL     1      -7.858   8.493  65.979  1.00  0.00    -0.096 N  
BRANCH  18  19
HETATM   19  C   UNL     1      -8.044   7.302  65.260  1.00  0.00    -0.134 A  
HETATM   20  C   UNL     1      -8.804   5.009  65.194  1.00  0.00    -0.153 A  
HETATM   21  C   UNL     1      -8.999   6.198  67.374  1.00  0.00    -0.112 C  
HETATM   22  C   UNL     1      -8.596   6.191  65.924  1.00  0.00    -0.147 A  
HETATM   23  C   UNL     1      -8.452   4.926  63.845  1.00  0.00    -0.133 A  
HETATM   24  C   UNL     1      -7.850   6.006  63.212  1.00  0.00    -0.104 A  
HETATM   25  C   UNL     1      -7.635   7.190  63.914  1.00  0.00    -0.109 A  
HETATM   26 CL   UNL     1      -6.686   8.412  63.128  1.00  0.00    -0.086 Cl 
ENDBRANCH  18  19
ENDBRANCH  14  15
ENDBRANCH   8  10
ENDBRANCH   4   8
BRANCH   5  27
HETATM   27  N   UNL     1     -10.508  15.280  66.275  1.00  0.00    -0.296 NA 
HETATM   28  C   UNL     1     -11.072  13.923  66.439  1.00  0.00    -0.309 C  
HETATM   29  C   UNL     1     -10.553  15.759  64.885  1.00  0.00    -0.284 C  
HETATM   30  N   UNL     1     -12.667  14.319  64.495  1.00  0.00    -0.653 NA 
HETATM   31  C   UNL     1     -12.517  13.894  65.906  1.00  0.00    -0.481 C  
HETATM   32  C   UNL     1     -12.009  15.653  64.351  1.00  0.00    -0.136 C  
BRANCH  30  33
HETATM   33  C   UNL     1     -12.090  13.352  63.535  1.00  0.00    -0.432 C  
BRANCH  33  34
HETATM   34  C   UNL     1     -12.170  11.890  64.009  1.00  0.00    -0.339 C  
HETATM   35  H   UNL     1     -10.937  10.368  64.246  1.00  0.00     0.000 HD 
HETATM   36  O   UNL     1     -10.888  11.271  63.953  1.00  0.00    -0.375 OA 
ENDBRANCH  33  34
ENDBRANCH  30  33
ENDBRANCH   5  27
TORSDOF 7
ENDMDL
MODEL      173
REMARK 921   NORMALIZED FREE ENERGY PREDICTED BY IDOCK:   -4.83 KCAL/MOL
REMARK 922        TOTAL FREE ENERGY PREDICTED BY IDOCK:   -7.18 KCAL/MOL
REMARK 923 INTER-LIGAND FREE ENERGY PREDICTED BY IDOCK:   -6.37 KCAL/MOL
REMARK 924 INTRA-LIGAND FREE ENERGY PREDICTED BY IDOCK:   -0.82 KCAL/MOL
REMARK 927      BINDING AFFINITY PREDICTED BY RF-SCORE:    0.00 PKD
ROOT
HETATM    1  C   UNL     1     -11.752   7.323  71.955  1.00  0.00    -0.323 C  
HETATM    2  C   UNL     1     -10.991   7.269  70.667  1.00  0.00    -0.256 A  
HETATM    3  N   UNL     1     -11.263   8.217  69.754  1.00  0.00    -0.056 NA 
HETATM    4  C   UNL     1     -10.487   8.237  68.665  1.00  0.00    -0.168 A  
HETATM    5  C   UNL     1      -9.290   6.340  69.431  1.00  0.00    -0.140 A  
HETATM    6  C   UNL     1      -9.444   7.361  68.518  1.00  0.00    -0.144 A  
HETATM    7  N   UNL     1     -10.053   6.311  70.537  1.00  0.00    -0.185 NA 
ENDROOT
BRANCH   4   8
HETATM    8  N   UNL     1     -10.775   9.209  67.713  1.00  0.00    -0.436 NA 
HETATM    9  H   UNL     1     -10.794   8.893  66.743  1.00  0.00     0.000 HD 
BRANCH   8  10
HETATM   10  C   UNL     1     -11.033  10.518  67.914  1.00  0.00    -0.295 A  
HETATM   11  S   UNL     1      -9.838  11.642  67.420  1.00  0.00    -0.184 SA 
HETATM   12  N   UNL     1     -12.098  11.066  68.466  1.00  0.00    -0.565 NA 
HETATM   13  C   UNL     1     -11.900  12.420  68.656  1.00  0.00    -0.302 A  
HETATM   14  C   UNL     1     -10.690  12.901  68.205  1.00  0.00    -0.241 A  
BRANCH  14  15
HETATM   15  C   UNL     1     -10.112  14.212  68.375  1.00  0.00    -0.238 C  
HETATM   16  O   UNL     1      -8.995  14.382  68.854  1.00  0.00    -0.159 OA 
HETATM   17  H   UNL     1     -11.912  15.013  67.729  1.00  0.00     0.000 HD 
HETATM   18  N   UNL     1     -10.954  15.244  67.989  1.00  0.00    -0.288 N  
BRANCH  18  19
HETATM   19  C   UNL     1     -10.556  16.588  67.937  1.00  0.00    -0.329 A  
HETATM   20  C   UNL     1      -9.648  18.443  66.682  1.00  0.00    -0.320 A  
HETATM   21  C   UNL     1      -9.839  16.263  65.493  1.00  0.00    -0.144 C  
HETATM   22  C   UNL     1     -10.020  17.090  66.737  1.00  0.00    -0.297 A  
HETATM   23  C   UNL     1      -9.783  19.271  67.798  1.00  0.00    -0.409 A  
HETATM   24  C   UNL     1     -10.254  18.756  68.999  1.00  0.00    -0.181 A  
HETATM   25  C   UNL     1     -10.633  17.417  69.077  1.00  0.00    -0.207 A  
HETATM   26 CL   UNL     1     -11.001  16.793  70.654  1.00  0.00     0.055 Cl 
ENDBRANCH  18  19
ENDBRANCH  14  15
ENDBRANCH   8  10
ENDBRANCH   4   8
BRANCH   5  27
HETATM   27  N   UNL     1      -8.299   5.375  69.208  1.00  0.00    -0.096 NA 
HETATM   28  C   UNL     1      -7.232   5.773  68.266  1.00  0.00    -0.076 C  
HETATM   29  C   UNL     1      -8.779   4.002  68.991  1.00  0.00    -0.092 C  
HETATM   30  N   UNL     1      -6.433   3.361  68.106  1.00  0.00    -0.036 NA 
HETATM   31  C   UNL     1      -6.063   4.774  68.354  1.00  0.00    -0.031 C  
HETATM   32  C   UNL     1      -7.570   3.025  69.015  1.00  0.00    -0.047 C  
BRANCH  30  33
HETATM   33  C   UNL     1      -6.802   3.098  66.698  1.00  0.00    -0.053 C  
BRANCH  33  34
HETATM   34  C   UNL     1      -7.105   1.618  66.406  1.00  0.00    -0.047 C  
HETATM   35  H   UNL     1      -8.476   0.576  65.443  1.00  0.00     0.000 HD 
HETATM   36  O   UNL     1      -8.289   1.490  65.624  1.00  0.00    -0.080 OA 
ENDBRANCH  33  34
ENDBRANCH  30  33
ENDBRANCH   5  27
TORSDOF 7
ENDMDL
MODEL      174
REMARK 921   NORMALIZED FREE ENERGY PREDICTED BY IDOCK:   -4.80 KCAL/MOL
REMARK 922        TOTAL FREE ENERGY PREDICTED BY IDOCK:   -7.14 KCAL/MOL
REMARK 923 INTER-LIGAND FREE ENERGY PREDICTED BY IDOCK:   -6.23 KCAL/MOL
REMARK 924 INTRA-LIGAND FREE ENERGY PREDICTED BY IDOCK:   -0.91 KCAL/MOL
REMARK 927      BINDING AFFINITY PREDICTED BY RF-SCORE:    0.00 PKD
ROOT
HETATM    1  C   UNL     1      -7.111   8.143  72.990  1.00  0.00    -0.137 C  
HETATM    2  C   UNL     1      -7.049   8.777  71.636  1.00  0.00    -0.073 A  
HETATM    3  N   UNL     1      -6.363   9.928  71.529  1.00  0.00    -0.313 NA 
HETATM    4  C   UNL     1      -6.203  10.416  70.293  1.00  0.00    -0.122 A  
HETATM    5  C   UNL     1      -7.474   8.635  69.381  1.00  0.00    -0.080 A  
HETATM    6  C   UNL     1      -6.680   9.746  69.197  1.00  0.00    -0.053 A  
HETATM    7  N   UNL     1      -7.635   8.125  70.613  1.00  0.00    -0.071 NA 
ENDROOT
BRANCH   4   8
HETATM    8  N   UNL     1      -5.505  11.613  70.182  1.00  0.00    -0.098 NA 
HETATM    9  H   UNL     1      -4.489  11.535  70.136  1.00  0.00     0.000 HD 
BRANCH   8  10
HETATM   10  C   UNL     1      -6.006  12.864  70.127  1.00  0.00    -0.136 A  
HETATM   11  S   UNL     1      -6.901  13.294  68.730  1.00  0.00    -0.104 SA 
HETATM   12  N   UNL     1      -5.887  13.833  71.015  1.00  0.00    -0.204 NA 
HETATM   13  C   UNL     1      -6.385  15.016  70.506  1.00  0.00    -0.012 A  
HETATM   14  C   UNL     1      -6.919  14.928  69.239  1.00  0.00    -0.151 A  
BRANCH  14  15
HETATM   15  C   UNL     1      -7.383  15.983  68.371  1.00  0.00    -0.131 C  
HETATM   16  O   UNL     1      -7.129  16.009  67.171  1.00  0.00    -0.187 OA 
HETATM   17  H   UNL     1      -8.142  16.935  70.050  1.00  0.00     0.000 HD 
HETATM   18  N   UNL     1      -8.095  16.972  69.032  1.00  0.00    -0.191 N  
BRANCH  18  19
HETATM   19  C   UNL     1      -8.756  18.021  68.374  1.00  0.00    -0.293 A  
HETATM   20  C   UNL     1     -10.756  18.894  67.337  1.00  0.00    -0.519 A  
HETATM   21  C   UNL     1     -10.862  16.560  68.199  1.00  0.00    -0.345 C  
HETATM   22  C   UNL     1     -10.091  17.832  67.971  1.00  0.00    -0.355 A  
HETATM   23  C   UNL     1     -10.105  20.104  67.087  1.00  0.00    -0.590 A  
HETATM   24  C   UNL     1      -8.769  20.263  67.431  1.00  0.00    -0.428 A  
HETATM   25  C   UNL     1      -8.088  19.224  68.064  1.00  0.00    -0.306 A  
HETATM   26 CL   UNL     1      -6.375  19.412  68.263  1.00  0.00    -0.253 Cl 
ENDBRANCH  18  19
ENDBRANCH  14  15
ENDBRANCH   8  10
ENDBRANCH   4   8
BRANCH   5  27
HETATM   27  N   UNL     1      -8.060   8.028  68.263  1.00  0.00    -0.124 NA 
HETATM   28  C   UNL     1      -7.293   6.906  67.680  1.00  0.00    -0.096 C  
HETATM   29  C   UNL     1      -8.604   8.943  67.248  1.00  0.00    -0.118 C  
HETATM   30  N   UNL     1      -8.744   6.963  65.588  1.00  0.00    -0.117 NA 
HETATM   31  C   UNL     1      -8.178   6.137  66.680  1.00  0.00    -0.110 C  
HETATM   32  C   UNL     1      -9.434   8.131  66.214  1.00  0.00    -0.190 C  
BRANCH  30  33
HETATM   33  C   UNL     1      -7.722   7.424  64.623  1.00  0.00    -0.118 C  
BRANCH  33  34
HETATM   34  C   UNL     1      -8.247   8.464  63.617  1.00  0.00    -0.104 C  
HETATM   35  H   UNL     1      -7.651  10.184  62.858  1.00  0.00     0.000 HD 
HETATM   36  O   UNL     1      -7.326   9.542  63.479  1.00  0.00    -0.102 OA 
ENDBRANCH  33  34
ENDBRANCH  30  33
ENDBRANCH   5  27
TORSDOF 7
ENDMDL
MODEL      175
REMARK 921   NORMALIZED FREE ENERGY PREDICTED BY IDOCK:   -4.80 KCAL/MOL
REMARK 922        TOTAL FREE ENERGY PREDICTED BY IDOCK:   -7.14 KCAL/MOL
REMARK 923 INTER-LIGAND FREE ENERGY PREDICTED BY IDOCK:   -6.53 KCAL/MOL
REMARK 924 INTRA-LIGAND FREE ENERGY PREDICTED BY IDOCK:   -0.61 KCAL/MOL
REMARK 927      BINDING AFFINITY PREDICTED BY RF-SCORE:    0.00 PKD
ROOT
HETATM    1  C   UNL     1      -7.664   7.086  63.926  1.00  0.00    -0.119 C  
HETATM    2  C   UNL     1      -8.043   8.264  64.769  1.00  0.00    -0.151 A  
HETATM    3  N   UNL     1      -7.236   8.564  65.800  1.00  0.00    -0.075 NA 
HETATM    4  C   UNL     1      -7.510   9.693  66.465  1.00  0.00    -0.094 A  
HETATM    5  C   UNL     1      -9.399  10.092  65.089  1.00  0.00    -0.235 A  
HETATM    6  C   UNL     1      -8.537  10.514  66.078  1.00  0.00    -0.166 A  
HETATM    7  N   UNL     1      -9.132   8.968  64.403  1.00  0.00     0.005 NA 
ENDROOT
BRANCH   4   8
HETATM    8  N   UNL     1      -6.684   9.999  67.540  1.00  0.00    -0.072 NA 
HETATM    9  H   UNL     1      -6.271   9.203  68.026  1.00  0.00     0.000 HD 
BRANCH   8  10
HETATM   10  C   UNL     1      -6.362  11.218  68.019  1.00  0.00    -0.053 A  
HETATM   11  S   UNL     1      -7.644  12.214  68.567  1.00  0.00    -0.108 SA 
HETATM   12  N   UNL     1      -5.167  11.770  68.113  1.00  0.00    -0.044 NA 
HETATM   13  C   UNL     1      -5.277  13.097  68.483  1.00  0.00    -0.070 A  
HETATM   14  C   UNL     1      -6.564  13.534  68.709  1.00  0.00    -0.102 A  
BRANCH  14  15
HETATM   15  C   UNL     1      -7.039  14.873  68.961  1.00  0.00    -0.130 C  
HETATM   16  O   UNL     1      -6.661  15.536  69.923  1.00  0.00    -0.169 OA 
HETATM   17  H   UNL     1      -8.334  14.642  67.358  1.00  0.00     0.000 HD 
HETATM   18  N   UNL     1      -7.983  15.309  68.045  1.00  0.00    -0.126 N  
BRANCH  18  19
HETATM   19  C   UNL     1      -8.481  16.621  68.012  1.00  0.00    -0.192 A  
HETATM   20  C   UNL     1     -10.127  18.241  68.725  1.00  0.00    -0.393 A  
HETATM   21  C   UNL     1     -10.404  15.910  69.559  1.00  0.00    -0.277 C  
HETATM   22  C   UNL     1      -9.647  16.921  68.741  1.00  0.00    -0.268 A  
HETATM   23  C   UNL     1      -9.480  19.232  67.985  1.00  0.00    -0.400 A  
HETATM   24  C   UNL     1      -8.366  18.917  67.217  1.00  0.00    -0.288 A  
HETATM   25  C   UNL     1      -7.869  17.614  67.219  1.00  0.00    -0.205 A  
HETATM   26 CL   UNL     1      -6.619  17.247  66.074  1.00  0.00    -0.181 Cl 
ENDBRANCH  18  19
ENDBRANCH  14  15
ENDBRANCH   8  10
ENDBRANCH   4   8
BRANCH   5  27
HETATM   27  N   UNL     1     -10.517  10.879  64.784  1.00  0.00    -0.325 NA 
HETATM   28  C   UNL     1     -10.540  11.441  63.417  1.00  0.00    -0.368 C  
HETATM   29  C   UNL     1     -10.918  11.849  65.814  1.00  0.00    -0.311 C  
HETATM   30  N   UNL     1     -12.423  13.026  64.069  1.00  0.00    -0.640 NA 
HETATM   31  C   UNL     1     -11.941  12.004  63.111  1.00  0.00    -0.220 C  
HETATM   32  C   UNL     1     -12.303  12.452  65.443  1.00  0.00    -0.237 C  
BRANCH  30  33
HETATM   33  C   UNL     1     -11.680  14.302  63.975  1.00  0.00    -0.163 C  
BRANCH  33  34
HETATM   34  C   UNL     1     -11.896  15.232  65.183  1.00  0.00    -0.035 C  
HETATM   35  H   UNL     1     -11.042  15.571  66.928  1.00  0.00     0.000 HD 
HETATM   36  O   UNL     1     -10.908  14.997  66.183  1.00  0.00    -0.317 OA 
ENDBRANCH  33  34
ENDBRANCH  30  33
ENDBRANCH   5  27
TORSDOF 7
ENDMDL
MODEL      176
REMARK 921   NORMALIZED FREE ENERGY PREDICTED BY IDOCK:   -4.69 KCAL/MOL
REMARK 922        TOTAL FREE ENERGY PREDICTED BY IDOCK:   -6.98 KCAL/MOL
REMARK 923 INTER-LIGAND FREE ENERGY PREDICTED BY IDOCK:   -5.99 KCAL/MOL
REMARK 924 INTRA-LIGAND FREE ENERGY PREDICTED BY IDOCK:   -0.99 KCAL/MOL
REMARK 927      BINDING AFFINITY PREDICTED BY RF-SCORE:    0.00 PKD
ROOT
HETATM    1  C   UNL     1     -14.355   7.311  71.963  1.00  0.00    -0.421 C  
HETATM    2  C   UNL     1     -13.071   7.964  71.559  1.00  0.00    -0.311 A  
HETATM    3  N   UNL     1     -13.151   9.195  71.024  1.00  0.00    -0.141 NA 
HETATM    4  C   UNL     1     -11.992   9.820  70.789  1.00  0.00    -0.299 A  
HETATM    5  C   UNL     1     -10.772   7.937  71.554  1.00  0.00    -0.227 A  
HETATM    6  C   UNL     1     -10.793   9.245  71.119  1.00  0.00    -0.407 A  
HETATM    7  N   UNL     1     -11.926   7.298  71.807  1.00  0.00    -0.294 NA 
ENDROOT
BRANCH   4   8
HETATM    8  N   UNL     1     -12.073  11.088  70.224  1.00  0.00    -0.331 NA 
HETATM    9  H   UNL     1     -12.755  11.721  70.642  1.00  0.00     0.000 HD 
BRANCH   8  10
HETATM   10  C   UNL     1     -11.359  11.585  69.193  1.00  0.00    -0.286 A  
HETATM   11  S   UNL     1     -10.552  13.077  69.438  1.00  0.00     0.414 SA 
HETATM   12  N   UNL     1     -11.203  11.076  67.986  1.00  0.00    -0.286 NA 
HETATM   13  C   UNL     1     -10.553  11.975  67.164  1.00  0.00    -0.224 A  
HETATM   14  C   UNL     1     -10.180  13.155  67.770  1.00  0.00    -0.231 A  
BRANCH  14  15
HETATM   15  C   UNL     1      -9.624  14.347  67.176  1.00  0.00    -0.250 C  
HETATM   16  O   UNL     1      -9.462  14.466  65.966  1.00  0.00    -0.282 OA 
HETATM   17  H   UNL     1      -9.305  15.069  69.094  1.00  0.00     0.000 HD 
HETATM   18  N   UNL     1      -9.257  15.310  68.104  1.00  0.00    -0.181 N  
BRANCH  18  19
HETATM   19  C   UNL     1      -8.824  16.598  67.753  1.00  0.00    -0.206 A  
HETATM   20  C   UNL     1      -9.337  18.918  67.314  1.00  0.00    -0.324 A  
HETATM   21  C   UNL     1     -11.253  17.426  67.869  1.00  0.00     0.151 C  
HETATM   22  C   UNL     1      -9.779  17.625  67.640  1.00  0.00    -0.277 A  
HETATM   23  C   UNL     1      -7.985  19.179  67.083  1.00  0.00    -0.279 A  
HETATM   24  C   UNL     1      -7.055  18.148  67.134  1.00  0.00    -0.212 A  
HETATM   25  C   UNL     1      -7.469  16.857  67.459  1.00  0.00    -0.158 A  
HETATM   26 CL   UNL     1      -6.297  15.589  67.289  1.00  0.00    -0.105 Cl 
ENDBRANCH  18  19
ENDBRANCH  14  15
ENDBRANCH   8  10
ENDBRANCH   4   8
BRANCH   5  27
HETATM   27  N   UNL     1      -9.536   7.315  71.771  1.00  0.00    -0.151 NA 
HETATM   28  C   UNL     1      -8.588   7.384  70.639  1.00  0.00    -0.141 C  
HETATM   29  C   UNL     1      -9.589   5.986  72.399  1.00  0.00    -0.151 C  
HETATM   30  N   UNL     1      -7.120   5.608  71.723  1.00  0.00    -0.075 NA 
HETATM   31  C   UNL     1      -7.185   6.956  71.111  1.00  0.00    -0.076 C  
HETATM   32  C   UNL     1      -8.152   5.550  72.802  1.00  0.00    -0.109 C  
BRANCH  30  33
HETATM   33  C   UNL     1      -7.333   4.519  70.744  1.00  0.00    -0.052 C  
BRANCH  33  34
HETATM   34  C   UNL     1      -6.148   4.311  69.784  1.00  0.00    -0.023 C  
HETATM   35  H   UNL     1      -5.833   4.329  67.837  1.00  0.00     0.000 HD 
HETATM   36  O   UNL     1      -6.565   4.457  68.430  1.00  0.00    -0.043 OA 
ENDBRANCH  33  34
ENDBRANCH  30  33
ENDBRANCH   5  27
TORSDOF 7
ENDMDL
MODEL      177
REMARK 921   NORMALIZED FREE ENERGY PREDICTED BY IDOCK:   -4.63 KCAL/MOL
REMARK 922        TOTAL FREE ENERGY PREDICTED BY IDOCK:   -6.91 KCAL/MOL
REMARK 923 INTER-LIGAND FREE ENERGY PREDICTED BY IDOCK:   -7.13 KCAL/MOL
REMARK 924 INTRA-LIGAND FREE ENERGY PREDICTED BY IDOCK:    0.22 KCAL/MOL
REMARK 927      BINDING AFFINITY PREDICTED BY RF-SCORE:    0.00 PKD
ROOT
HETATM    1  C   UNL     1     -10.850   7.895  67.135  1.00  0.00    -0.187 C  
HETATM    2  C   UNL     1     -10.303   9.209  67.596  1.00  0.00    -0.255 A  
HETATM    3  N   UNL     1      -9.318   9.176  68.510  1.00  0.00    -0.136 NA 
HETATM    4  C   UNL     1      -8.748  10.347  68.817  1.00  0.00    -0.146 A  
HETATM    5  C   UNL     1     -10.220  11.494  67.354  1.00  0.00    -0.203 A  
HETATM    6  C   UNL     1      -9.127  11.508  68.193  1.00  0.00    -0.181 A  
HETATM    7  N   UNL     1     -10.796  10.326  67.026  1.00  0.00    -0.223 NA 
ENDROOT
BRANCH   4   8
HETATM    8  N   UNL     1      -7.737  10.317  69.771  1.00  0.00    -0.220 NA 
HETATM    9  H   UNL     1      -7.135  11.139  69.810  1.00  0.00     0.000 HD 
BRANCH   8  10
HETATM   10  C   UNL     1      -7.457   9.335  70.652  1.00  0.00    -0.136 A  
HETATM   11  S   UNL     1      -7.885   7.735  70.213  1.00  0.00    -0.092 SA 
HETATM   12  N   UNL     1      -6.896   9.439  71.842  1.00  0.00    -0.295 NA 
HETATM   13  C   UNL     1      -6.951   8.230  72.508  1.00  0.00    -0.094 A  
HETATM   14  C   UNL     1      -7.520   7.197  71.795  1.00  0.00    -0.086 A  
BRANCH  14  15
HETATM   15  C   UNL     1      -7.860   5.866  72.237  1.00  0.00    -0.103 C  
HETATM   16  O   UNL     1      -7.207   5.266  73.085  1.00  0.00    -0.086 OA 
HETATM   17  H   UNL     1      -9.356   5.847  70.800  1.00  0.00     0.000 HD 
HETATM   18  N   UNL     1      -8.958   5.328  71.583  1.00  0.00    -0.134 N  
BRANCH  18  19
HETATM   19  C   UNL     1      -9.551   4.108  71.942  1.00  0.00    -0.152 A  
HETATM   20  C   UNL     1     -10.998   2.850  73.413  1.00  0.00    -0.301 A  
HETATM   21  C   UNL     1     -10.681   5.264  73.937  1.00  0.00    -0.320 C  
HETATM   22  C   UNL     1     -10.386   4.068  73.074  1.00  0.00    -0.240 A  
HETATM   23  C   UNL     1     -10.768   1.696  72.661  1.00  0.00    -0.223 A  
HETATM   24  C   UNL     1      -9.894   1.727  71.582  1.00  0.00    -0.218 A  
HETATM   25  C   UNL     1      -9.277   2.925  71.224  1.00  0.00    -0.124 A  
HETATM   26 CL   UNL     1      -8.039   2.841  70.012  1.00  0.00    -0.053 Cl 
ENDBRANCH  18  19
ENDBRANCH  14  15
ENDBRANCH   8  10
ENDBRANCH   4   8
BRANCH   5  27
HETATM   27  N   UNL     1     -10.677  12.704  66.817  1.00  0.00    -0.237 NA 
HETATM   28  C   UNL     1     -10.038  13.113  65.549  1.00  0.00    -0.261 C  
HETATM   29  C   UNL     1     -10.826  13.813  67.772  1.00  0.00    -0.250 C  
HETATM   30  N   UNL     1     -11.008  15.456  65.781  1.00  0.00    -0.327 NA 
HETATM   31  C   UNL     1     -10.837  14.267  64.913  1.00  0.00    -0.416 C  
HETATM   32  C   UNL     1     -11.574  14.989  67.083  1.00  0.00    -0.261 C  
BRANCH  30  33
HETATM   33  C   UNL     1      -9.746  16.197  66.002  1.00  0.00    -0.344 C  
BRANCH  33  34
HETATM   34  C   UNL     1      -9.957  17.638  66.498  1.00  0.00    -0.332 C  
HETATM   35  H   UNL     1      -9.027  19.373  66.365  1.00  0.00     0.000 HD 
HETATM   36  O   UNL     1      -8.897  18.483  66.059  1.00  0.00    -0.493 OA 
ENDBRANCH  33  34
ENDBRANCH  30  33
ENDBRANCH   5  27
TORSDOF 7
ENDMDL
MODEL      178
REMARK 921   NORMALIZED FREE ENERGY PREDICTED BY IDOCK:   -4.63 KCAL/MOL
REMARK 922        TOTAL FREE ENERGY PREDICTED BY IDOCK:   -6.90 KCAL/MOL
REMARK 923 INTER-LIGAND FREE ENERGY PREDICTED BY IDOCK:   -6.26 KCAL/MOL
REMARK 924 INTRA-LIGAND FREE ENERGY PREDICTED BY IDOCK:   -0.64 KCAL/MOL
REMARK 927      BINDING AFFINITY PREDICTED BY RF-SCORE:    0.00 PKD
ROOT
HETATM    1  C   UNL     1     -11.007   7.692  71.566  1.00  0.00    -0.263 C  
HETATM    2  C   UNL     1     -10.584   7.525  70.141  1.00  0.00    -0.235 A  
HETATM    3  N   UNL     1     -10.980   8.468  69.269  1.00  0.00    -0.044 NA 
HETATM    4  C   UNL     1     -10.488   8.378  68.028  1.00  0.00    -0.184 A  
HETATM    5  C   UNL     1      -9.318   6.395  68.590  1.00  0.00    -0.124 A  
HETATM    6  C   UNL     1      -9.593   7.398  67.686  1.00  0.00    -0.164 A  
HETATM    7  N   UNL     1      -9.794   6.475  69.844  1.00  0.00    -0.166 NA 
ENDROOT
BRANCH   4   8
HETATM    8  N   UNL     1     -10.907   9.345  67.121  1.00  0.00    -0.285 NA 
HETATM    9  H   UNL     1     -11.199   9.003  66.206  1.00  0.00     0.000 HD 
BRANCH   8  10
HETATM   10  C   UNL     1     -10.974  10.680  67.302  1.00  0.00    -0.284 A  
HETATM   11  S   UNL     1      -9.944  11.659  66.345  1.00  0.00    -0.213 SA 
HETATM   12  N   UNL     1     -11.732  11.354  68.146  1.00  0.00    -0.538 NA 
HETATM   13  C   UNL     1     -11.374  12.688  68.157  1.00  0.00    -0.290 A  
HETATM   14  C   UNL     1     -10.366  13.027  67.282  1.00  0.00    -0.238 A  
BRANCH  14  15
HETATM   15  C   UNL     1      -9.664  14.281  67.145  1.00  0.00    -0.254 C  
HETATM   16  O   UNL     1      -9.512  14.837  66.062  1.00  0.00    -0.297 OA 
HETATM   17  H   UNL     1      -9.209  14.166  69.165  1.00  0.00     0.000 HD 
HETATM   18  N   UNL     1      -9.149  14.761  68.340  1.00  0.00    -0.182 N  
BRANCH  18  19
HETATM   19  C   UNL     1      -8.550  16.023  68.473  1.00  0.00    -0.190 A  
HETATM   20  C   UNL     1      -6.594  17.358  68.956  1.00  0.00    -0.232 A  
HETATM   21  C   UNL     1      -6.342  14.886  69.128  1.00  0.00    -0.108 C  
HETATM   22  C   UNL     1      -7.196  16.093  68.850  1.00  0.00    -0.178 A  
HETATM   23  C   UNL     1      -7.324  18.524  68.718  1.00  0.00    -0.312 A  
HETATM   24  C   UNL     1      -8.676  18.451  68.406  1.00  0.00    -0.337 A  
HETATM   25  C   UNL     1      -9.295  17.208  68.292  1.00  0.00    -0.265 A  
HETATM   26 CL   UNL     1     -11.021  17.200  68.120  1.00  0.00    -0.314 Cl 
ENDBRANCH  18  19
ENDBRANCH  14  15
ENDBRANCH   8  10
ENDBRANCH   4   8
BRANCH   5  27
HETATM   27  N   UNL     1      -8.500   5.330  68.191  1.00  0.00    -0.097 NA 
HETATM   28  C   UNL     1      -9.211   4.075  67.866  1.00  0.00    -0.158 C  
HETATM   29  C   UNL     1      -7.289   5.115  68.998  1.00  0.00    -0.061 C  
HETATM   30  N   UNL     1      -7.015   2.787  67.901  1.00  0.00    -0.048 NA 
HETATM   31  C   UNL     1      -8.251   3.106  67.150  1.00  0.00    -0.084 C  
HETATM   32  C   UNL     1      -6.373   4.080  68.286  1.00  0.00    -0.037 C  
BRANCH  30  33
HETATM   33  C   UNL     1      -7.264   1.957  69.100  1.00  0.00    -0.039 C  
BRANCH  33  34
HETATM   34  C   UNL     1      -5.983   1.574  69.862  1.00  0.00    -0.023 C  
HETATM   35  H   UNL     1      -5.357   1.544  71.733  1.00  0.00     0.000 HD 
HETATM   36  O   UNL     1      -6.148   1.781  71.263  1.00  0.00    -0.016 OA 
ENDBRANCH  33  34
ENDBRANCH  30  33
ENDBRANCH   5  27
TORSDOF 7
ENDMDL
MODEL      179
REMARK 921   NORMALIZED FREE ENERGY PREDICTED BY IDOCK:   -4.60 KCAL/MOL
REMARK 922        TOTAL FREE ENERGY PREDICTED BY IDOCK:   -6.86 KCAL/MOL
REMARK 923 INTER-LIGAND FREE ENERGY PREDICTED BY IDOCK:   -7.10 KCAL/MOL
REMARK 924 INTRA-LIGAND FREE ENERGY PREDICTED BY IDOCK:    0.24 KCAL/MOL
REMARK 927      BINDING AFFINITY PREDICTED BY RF-SCORE:    0.00 PKD
ROOT
HETATM    1  C   UNL     1     -12.730  10.913  70.530  1.00  0.00    -0.363 C  
HETATM    2  C   UNL     1     -11.637  11.399  69.631  1.00  0.00    -0.330 A  
HETATM    3  N   UNL     1     -10.981  10.474  68.909  1.00  0.00    -0.230 NA 
HETATM    4  C   UNL     1     -10.098  10.931  68.014  1.00  0.00    -0.177 A  
HETATM    5  C   UNL     1     -10.526  13.168  68.671  1.00  0.00    -0.227 A  
HETATM    6  C   UNL     1      -9.911  12.275  67.820  1.00  0.00    -0.200 A  
HETATM    7  N   UNL     1     -11.424  12.728  69.568  1.00  0.00    -0.254 NA 
ENDROOT
BRANCH   4   8
HETATM    8  N   UNL     1      -9.409   9.976  67.275  1.00  0.00    -0.147 NA 
HETATM    9  H   UNL     1      -9.353  10.142  66.270  1.00  0.00     0.000 HD 
BRANCH   8  10
HETATM   10  C   UNL     1      -8.805   8.856  67.723  1.00  0.00    -0.135 A  
HETATM   11  S   UNL     1      -9.767   7.735  68.591  1.00  0.00    -0.160 SA 
HETATM   12  N   UNL     1      -7.540   8.502  67.596  1.00  0.00    -0.097 NA 
HETATM   13  C   UNL     1      -7.277   7.376  68.351  1.00  0.00    -0.093 A  
HETATM   14  C   UNL     1      -8.363   6.855  69.020  1.00  0.00    -0.125 A  
BRANCH  14  15
HETATM   15  C   UNL     1      -8.407   5.791  69.994  1.00  0.00    -0.123 C  
HETATM   16  O   UNL     1      -7.494   5.587  70.788  1.00  0.00    -0.082 OA 
HETATM   17  H   UNL     1     -10.191   5.173  69.136  1.00  0.00     0.000 HD 
HETATM   18  N   UNL     1      -9.550   5.011  69.912  1.00  0.00    -0.159 N  
BRANCH  18  19
HETATM   19  C   UNL     1      -9.873   4.010  70.842  1.00  0.00    -0.159 A  
HETATM   20  C   UNL     1     -10.839   3.373  72.963  1.00  0.00    -0.192 A  
HETATM   21  C   UNL     1     -10.836   5.802  72.410  1.00  0.00    -0.294 C  
HETATM   22  C   UNL     1     -10.495   4.382  72.048  1.00  0.00    -0.128 A  
HETATM   23  C   UNL     1     -10.551   2.033  72.698  1.00  0.00    -0.206 A  
HETATM   24  C   UNL     1      -9.881   1.679  71.534  1.00  0.00    -0.211 A  
HETATM   25  C   UNL     1      -9.531   2.661  70.609  1.00  0.00    -0.135 A  
HETATM   26 CL   UNL     1      -8.509   2.177  69.294  1.00  0.00    -0.076 Cl 
ENDBRANCH  18  19
ENDBRANCH  14  15
ENDBRANCH   8  10
ENDBRANCH   4   8
BRANCH   5  27
HETATM   27  N   UNL     1     -10.234  14.532  68.547  1.00  0.00    -0.234 NA 
HETATM   28  C   UNL     1     -11.219  15.320  67.777  1.00  0.00    -0.326 C  
HETATM   29  C   UNL     1      -8.841  14.862  68.209  1.00  0.00    -0.172 C  
HETATM   30  N   UNL     1      -9.589  17.271  67.630  1.00  0.00    -0.252 NA 
HETATM   31  C   UNL     1     -10.957  16.825  67.983  1.00  0.00    -0.296 C  
HETATM   32  C   UNL     1      -8.624  16.394  68.360  1.00  0.00    -0.209 C  
BRANCH  30  33
HETATM   33  C   UNL     1      -9.325  17.229  66.174  1.00  0.00    -0.168 C  
BRANCH  33  34
HETATM   34  C   UNL     1     -10.499  16.669  65.351  1.00  0.00    -0.233 C  
HETATM   35  H   UNL     1     -11.878  17.365  64.125  1.00  0.00     0.000 HD 
HETATM   36  O   UNL     1     -11.154  17.711  64.633  1.00  0.00    -0.906 OA 
ENDBRANCH  33  34
ENDBRANCH  30  33
ENDBRANCH   5  27
TORSDOF 7
ENDMDL
MODEL      180
REMARK 921   NORMALIZED FREE ENERGY PREDICTED BY IDOCK:   -4.58 KCAL/MOL
REMARK 922        TOTAL FREE ENERGY PREDICTED BY IDOCK:   -6.83 KCAL/MOL
REMARK 923 INTER-LIGAND FREE ENERGY PREDICTED BY IDOCK:   -6.65 KCAL/MOL
REMARK 924 INTRA-LIGAND FREE ENERGY PREDICTED BY IDOCK:   -0.18 KCAL/MOL
REMARK 927      BINDING AFFINITY PREDICTED BY RF-SCORE:    0.00 PKD
ROOT
HETATM    1  C   UNL     1      -6.813   9.829  70.692  1.00  0.00    -0.108 C  
HETATM    2  C   UNL     1      -8.212   9.300  70.649  1.00  0.00    -0.190 A  
HETATM    3  N   UNL     1      -9.045   9.841  69.744  1.00  0.00    -0.212 NA 
HETATM    4  C   UNL     1     -10.250   9.272  69.625  1.00  0.00    -0.208 A  
HETATM    5  C   UNL     1      -9.740   7.733  71.354  1.00  0.00    -0.166 A  
HETATM    6  C   UNL     1     -10.591   8.168  70.361  1.00  0.00    -0.226 A  
HETATM    7  N   UNL     1      -8.521   8.285  71.480  1.00  0.00    -0.127 NA 
ENDROOT
BRANCH   4   8
HETATM    8  N   UNL     1     -11.118   9.839  68.698  1.00  0.00    -0.454 NA 
HETATM    9  H   UNL     1     -11.748   9.193  68.223  1.00  0.00     0.000 HD 
BRANCH   8  10
HETATM   10  C   UNL     1     -11.228  11.137  68.350  1.00  0.00    -0.262 A  
HETATM   11  S   UNL     1      -9.777  12.006  68.074  1.00  0.00    -0.202 SA 
HETATM   12  N   UNL     1     -12.326  11.854  68.202  1.00  0.00    -0.194 NA 
HETATM   13  C   UNL     1     -12.011  13.187  68.021  1.00  0.00    -0.304 A  
HETATM   14  C   UNL     1     -10.662  13.468  67.991  1.00  0.00    -0.251 A  
BRANCH  14  15
HETATM   15  C   UNL     1     -10.001  14.750  67.966  1.00  0.00    -0.218 C  
HETATM   16  O   UNL     1     -10.238  15.631  68.787  1.00  0.00    -0.204 OA 
HETATM   17  H   UNL     1      -9.084  14.164  66.200  1.00  0.00     0.000 HD 
HETATM   18  N   UNL     1      -9.117  14.898  66.908  1.00  0.00    -0.235 N  
BRANCH  18  19
HETATM   19  C   UNL     1      -8.264  16.002  66.760  1.00  0.00    -0.272 A  
HETATM   20  C   UNL     1      -6.072  16.987  67.012  1.00  0.00    -0.222 A  
HETATM   21  C   UNL     1      -6.351  14.643  67.804  1.00  0.00    -0.170 C  
HETATM   22  C   UNL     1      -6.928  15.888  67.186  1.00  0.00    -0.227 A  
HETATM   23  C   UNL     1      -6.536  18.178  66.451  1.00  0.00    -0.253 A  
HETATM   24  C   UNL     1      -7.871  18.307  66.088  1.00  0.00    -0.239 A  
HETATM   25  C   UNL     1      -8.740  17.228  66.249  1.00  0.00    -0.224 A  
HETATM   26 CL   UNL     1     -10.428  17.530  65.984  1.00  0.00    -0.335 Cl 
ENDBRANCH  18  19
ENDBRANCH  14  15
ENDBRANCH   8  10
ENDBRANCH   4   8
BRANCH   5  27
HETATM   27  N   UNL     1     -10.149   6.682  72.184  1.00  0.00    -0.179 NA 
HETATM   28  C   UNL     1      -9.802   6.835  73.613  1.00  0.00    -0.243 C  
HETATM   29  C   UNL     1      -9.899   5.326  71.673  1.00  0.00    -0.170 C  
HETATM   30  N   UNL     1     -10.354   4.387  74.040  1.00  0.00    -0.196 NA 
HETATM   31  C   UNL     1     -10.571   5.794  74.449  1.00  0.00    -0.041 C  
HETATM   32  C   UNL     1     -10.630   4.292  72.575  1.00  0.00    -0.110 C  
BRANCH  30  33
HETATM   33  C   UNL     1      -8.989   3.901  74.341  1.00  0.00    -0.093 C  
BRANCH  33  34
HETATM   34  C   UNL     1      -8.704   2.489  73.801  1.00  0.00    -0.071 C  
HETATM   35  H   UNL     1      -7.399   1.627  72.598  1.00  0.00     0.000 HD 
HETATM   36  O   UNL     1      -7.575   2.499  72.931  1.00  0.00    -0.043 OA 
ENDBRANCH  33  34
ENDBRANCH  30  33
ENDBRANCH   5  27
TORSDOF 7
ENDMDL
MODEL      181
REMARK 921   NORMALIZED FREE ENERGY PREDICTED BY IDOCK:   -4.57 KCAL/MOL
REMARK 922        TOTAL FREE ENERGY PREDICTED BY IDOCK:   -6.81 KCAL/MOL
REMARK 923 INTER-LIGAND FREE ENERGY PREDICTED BY IDOCK:   -6.02 KCAL/MOL
REMARK 924 INTRA-LIGAND FREE ENERGY PREDICTED BY IDOCK:   -0.79 KCAL/MOL
REMARK 927      BINDING AFFINITY PREDICTED BY RF-SCORE:    0.00 PKD
ROOT
HETATM    1  C   UNL     1     -12.041   7.172  71.437  1.00  0.00    -0.381 C  
HETATM    2  C   UNL     1     -11.197   7.360  70.216  1.00  0.00    -0.247 A  
HETATM    3  N   UNL     1     -11.410   8.471  69.489  1.00  0.00     0.166 NA 
HETATM    4  C   UNL     1     -10.563   8.694  68.477  1.00  0.00    -0.119 A  
HETATM    5  C   UNL     1      -9.415   6.671  68.937  1.00  0.00    -0.130 A  
HETATM    6  C   UNL     1      -9.511   7.851  68.231  1.00  0.00    -0.149 A  
HETATM    7  N   UNL     1     -10.249   6.436  69.964  1.00  0.00    -0.174 NA 
ENDROOT
BRANCH   4   8
HETATM    8  N   UNL     1     -10.790   9.835  67.716  1.00  0.00    -0.397 NA 
HETATM    9  H   UNL     1     -10.771   9.707  66.704  1.00  0.00     0.000 HD 
BRANCH   8  10
HETATM   10  C   UNL     1     -11.033  11.088  68.150  1.00  0.00    -0.247 A  
HETATM   11  S   UNL     1      -9.900  12.303  67.727  1.00  0.00    -0.207 SA 
HETATM   12  N   UNL     1     -12.039  11.518  68.888  1.00  0.00    -0.430 NA 
HETATM   13  C   UNL     1     -11.829  12.828  69.273  1.00  0.00    -0.303 A  
HETATM   14  C   UNL     1     -10.674  13.401  68.786  1.00  0.00    -0.232 A  
BRANCH  14  15
HETATM   15  C   UNL     1     -10.088  14.680  69.107  1.00  0.00    -0.172 C  
HETATM   16  O   UNL     1     -10.548  15.416  69.974  1.00  0.00    -0.282 OA 
HETATM   17  H   UNL     1      -8.769  14.392  67.533  1.00  0.00     0.000 HD 
HETATM   18  N   UNL     1      -8.997  15.004  68.316  1.00  0.00    -0.169 N  
BRANCH  18  19
HETATM   19  C   UNL     1      -8.188  16.130  68.536  1.00  0.00    -0.186 A  
HETATM   20  C   UNL     1      -6.228  17.118  69.546  1.00  0.00    -0.242 A  
HETATM   21  C   UNL     1      -6.640  14.706  70.011  1.00  0.00    -0.161 C  
HETATM   22  C   UNL     1      -7.048  15.995  69.350  1.00  0.00    -0.217 A  
HETATM   23  C   UNL     1      -6.545  18.349  68.968  1.00  0.00    -0.270 A  
HETATM   24  C   UNL     1      -7.704  18.492  68.217  1.00  0.00    -0.313 A  
HETATM   25  C   UNL     1      -8.533  17.391  68.006  1.00  0.00    -0.235 A  
HETATM   26 CL   UNL     1     -10.065  17.692  67.250  1.00  0.00    -0.318 Cl 
ENDBRANCH  18  19
ENDBRANCH  14  15
ENDBRANCH   8  10
ENDBRANCH   4   8
BRANCH   5  27
HETATM   27  N   UNL     1      -8.410   5.758  68.596  1.00  0.00    -0.107 NA 
HETATM   28  C   UNL     1      -7.199   6.350  67.989  1.00  0.00    -0.087 C  
HETATM   29  C   UNL     1      -8.859   4.535  67.912  1.00  0.00    -0.107 C  
HETATM   30  N   UNL     1      -6.405   4.045  67.253  1.00  0.00    -0.036 NA 
HETATM   31  C   UNL     1      -6.069   5.303  67.959  1.00  0.00    -0.026 C  
HETATM   32  C   UNL     1      -7.679   3.525  67.835  1.00  0.00    -0.069 C  
BRANCH  30  33
HETATM   33  C   UNL     1      -6.541   4.222  65.790  1.00  0.00    -0.044 C  
BRANCH  33  34
HETATM   34  C   UNL     1      -6.979   2.944  65.052  1.00  0.00    -0.049 C  
HETATM   35  H   UNL     1      -8.193   2.462  63.574  1.00  0.00     0.000 HD 
HETATM   36  O   UNL     1      -7.923   3.251  64.030  1.00  0.00    -0.080 OA 
ENDBRANCH  33  34
ENDBRANCH  30  33
ENDBRANCH   5  27
TORSDOF 7
ENDMDL
MODEL      182
REMARK 921   NORMALIZED FREE ENERGY PREDICTED BY IDOCK:   -4.55 KCAL/MOL
REMARK 922        TOTAL FREE ENERGY PREDICTED BY IDOCK:   -6.79 KCAL/MOL
REMARK 923 INTER-LIGAND FREE ENERGY PREDICTED BY IDOCK:   -5.92 KCAL/MOL
REMARK 924 INTRA-LIGAND FREE ENERGY PREDICTED BY IDOCK:   -0.87 KCAL/MOL
REMARK 927      BINDING AFFINITY PREDICTED BY RF-SCORE:    0.00 PKD
ROOT
HETATM    1  C   UNL     1      -5.171   7.004  71.589  1.00  0.00    -0.028 C  
HETATM    2  C   UNL     1      -5.885   7.900  70.626  1.00  0.00    -0.029 A  
HETATM    3  N   UNL     1      -5.318   9.091  70.362  1.00  0.00    -0.026 NA 
HETATM    4  C   UNL     1      -5.894   9.826  69.404  1.00  0.00    -0.033 A  
HETATM    5  C   UNL     1      -7.582   8.189  69.103  1.00  0.00    -0.096 A  
HETATM    6  C   UNL     1      -6.978   9.363  68.705  1.00  0.00    -0.064 A  
HETATM    7  N   UNL     1      -7.011   7.432  70.054  1.00  0.00    -0.058 NA 
ENDROOT
BRANCH   4   8
HETATM    8  N   UNL     1      -5.317  11.063  69.138  1.00  0.00    -0.041 NA 
HETATM    9  H   UNL     1      -4.363  11.043  68.778  1.00  0.00     0.000 HD 
BRANCH   8  10
HETATM   10  C   UNL     1      -5.863  12.286  69.298  1.00  0.00    -0.080 A  
HETATM   11  S   UNL     1      -6.606  13.003  67.931  1.00  0.00    -0.149 SA 
HETATM   12  N   UNL     1      -5.894  13.032  70.386  1.00  0.00    -0.165 NA 
HETATM   13  C   UNL     1      -6.380  14.291  70.093  1.00  0.00    -0.144 A  
HETATM   14  C   UNL     1      -6.758  14.480  68.782  1.00  0.00    -0.091 A  
BRANCH  14  15
HETATM   15  C   UNL     1      -7.162  15.695  68.117  1.00  0.00    -0.115 C  
HETATM   16  O   UNL     1      -6.734  16.017  67.013  1.00  0.00    -0.207 OA 
HETATM   17  H   UNL     1      -8.233  16.189  69.824  1.00  0.00     0.000 HD 
HETATM   18  N   UNL     1      -8.037  16.470  68.863  1.00  0.00    -0.238 N  
BRANCH  18  19
HETATM   19  C   UNL     1      -8.667  17.622  68.367  1.00  0.00    -0.284 A  
HETATM   20  C   UNL     1      -8.657  20.013  68.015  1.00  0.00    -0.264 A  
HETATM   21  C   UNL     1      -6.711  19.044  69.231  1.00  0.00    -0.330 C  
HETATM   22  C   UNL     1      -8.034  18.867  68.537  1.00  0.00    -0.382 A  
HETATM   23  C   UNL     1      -9.888  19.927  67.362  1.00  0.00    -0.541 A  
HETATM   24  C   UNL     1     -10.538  18.705  67.251  1.00  0.00    -0.480 A  
HETATM   25  C   UNL     1      -9.939  17.553  67.759  1.00  0.00    -0.312 A  
HETATM   26 CL   UNL     1     -10.900  16.109  67.781  1.00  0.00    -0.327 Cl 
ENDBRANCH  18  19
ENDBRANCH  14  15
ENDBRANCH   8  10
ENDBRANCH   4   8
BRANCH   5  27
HETATM   27  N   UNL     1      -8.761   7.785  68.464  1.00  0.00    -0.128 NA 
HETATM   28  C   UNL     1      -9.391   6.566  69.015  1.00  0.00    -0.128 C  
HETATM   29  C   UNL     1      -8.734   7.807  66.994  1.00  0.00    -0.129 C  
HETATM   30  N   UNL     1     -10.895   6.383  66.969  1.00  0.00    -0.369 NA 
HETATM   31  C   UNL     1     -10.815   6.416  68.448  1.00  0.00    -0.311 C  
HETATM   32  C   UNL     1     -10.173   7.584  66.449  1.00  0.00     0.048 C  
BRANCH  30  33
HETATM   33  C   UNL     1     -10.327   5.147  66.387  1.00  0.00    -0.288 C  
BRANCH  33  34
HETATM   34  C   UNL     1     -11.021   4.702  65.088  1.00  0.00     0.069 C  
HETATM   35  H   UNL     1     -10.684   3.425  63.622  1.00  0.00     0.000 HD 
HETATM   36  O   UNL     1     -10.255   3.700  64.425  1.00  0.00    -0.199 OA 
ENDBRANCH  33  34
ENDBRANCH  30  33
ENDBRANCH   5  27
TORSDOF 7
ENDMDL
MODEL      183
REMARK 921   NORMALIZED FREE ENERGY PREDICTED BY IDOCK:   -4.54 KCAL/MOL
REMARK 922        TOTAL FREE ENERGY PREDICTED BY IDOCK:   -6.77 KCAL/MOL
REMARK 923 INTER-LIGAND FREE ENERGY PREDICTED BY IDOCK:   -5.80 KCAL/MOL
REMARK 924 INTRA-LIGAND FREE ENERGY PREDICTED BY IDOCK:   -0.97 KCAL/MOL
REMARK 927      BINDING AFFINITY PREDICTED BY RF-SCORE:    0.00 PKD
ROOT
HETATM    1  C   UNL     1      -5.447  14.470  71.515  1.00  0.00    -0.137 C  
HETATM    2  C   UNL     1      -6.178  13.930  70.327  1.00  0.00    -0.110 A  
HETATM    3  N   UNL     1      -5.943  12.650  69.992  1.00  0.00    -0.148 NA 
HETATM    4  C   UNL     1      -6.698  12.140  69.012  1.00  0.00    -0.103 A  
HETATM    5  C   UNL     1      -7.799  14.220  68.723  1.00  0.00    -0.128 A  
HETATM    6  C   UNL     1      -7.687  12.880  68.418  1.00  0.00    -0.133 A  
HETATM    7  N   UNL     1      -7.058  14.745  69.712  1.00  0.00    -0.162 NA 
ENDROOT
BRANCH   4   8
HETATM    8  N   UNL     1      -6.447  10.820  68.655  1.00  0.00    -0.054 NA 
HETATM    9  H   UNL     1      -5.489  10.607  68.377  1.00  0.00     0.000 HD 
BRANCH   8  10
HETATM   10  C   UNL     1      -7.315   9.787  68.632  1.00  0.00    -0.074 A  
HETATM   11  S   UNL     1      -7.123   8.625  67.388  1.00  0.00    -0.080 SA 
HETATM   12  N   UNL     1      -8.325   9.549  69.447  1.00  0.00    -0.128 NA 
HETATM   13  C   UNL     1      -9.082   8.493  68.979  1.00  0.00    -0.146 A  
HETATM   14  C   UNL     1      -8.613   7.906  67.824  1.00  0.00    -0.128 A  
BRANCH  14  15
HETATM   15  C   UNL     1      -9.232   6.893  67.002  1.00  0.00    -0.142 C  
HETATM   16  O   UNL     1     -10.435   6.885  66.761  1.00  0.00    -0.257 OA 
HETATM   17  H   UNL     1      -7.393   5.937  66.918  1.00  0.00     0.000 HD 
HETATM   18  N   UNL     1      -8.347   5.923  66.558  1.00  0.00    -0.110 N  
BRANCH  18  19
HETATM   19  C   UNL     1      -8.695   4.922  65.638  1.00  0.00    -0.135 A  
HETATM   20  C   UNL     1      -9.401   2.652  65.200  1.00  0.00    -0.100 A  
HETATM   21  C   UNL     1      -9.032   3.278  67.582  1.00  0.00    -0.180 C  
HETATM   22  C   UNL     1      -9.029   3.644  66.123  1.00  0.00    -0.142 A  
HETATM   23  C   UNL     1      -9.418   2.917  63.829  1.00  0.00    -0.110 A  
HETATM   24  C   UNL     1      -9.027   4.161  63.352  1.00  0.00    -0.127 A  
HETATM   25  C   UNL     1      -8.657   5.162  64.248  1.00  0.00    -0.110 A  
HETATM   26 CL   UNL     1      -7.974   6.609  63.576  1.00  0.00    -0.103 Cl 
ENDBRANCH  18  19
ENDBRANCH  14  15
ENDBRANCH   8  10
ENDBRANCH   4   8
BRANCH   5  27
HETATM   27  N   UNL     1      -8.729  14.998  68.022  1.00  0.00    -0.156 NA 
HETATM   28  C   UNL     1      -8.150  15.957  67.057  1.00  0.00    -0.230 C  
HETATM   29  C   UNL     1      -9.818  15.575  68.825  1.00  0.00    -0.217 C  
HETATM   30  N   UNL     1     -10.389  17.151  66.854  1.00  0.00    -0.317 NA 
HETATM   31  C   UNL     1      -9.260  16.508  66.143  1.00  0.00    -0.303 C  
HETATM   32  C   UNL     1     -10.889  16.185  67.878  1.00  0.00    -0.332 C  
BRANCH  30  33
HETATM   33  C   UNL     1     -10.015  18.432  67.493  1.00  0.00    -0.335 C  
BRANCH  33  34
HETATM   34  C   UNL     1      -9.719  19.560  66.488  1.00  0.00    -0.388 C  
HETATM   35  H   UNL     1     -10.547  20.316  64.865  1.00  0.00     0.000 HD 
HETATM   36  O   UNL     1     -10.730  19.620  65.486  1.00  0.00    -0.473 OA 
ENDBRANCH  33  34
ENDBRANCH  30  33
ENDBRANCH   5  27
TORSDOF 7
ENDMDL
MODEL      184
REMARK 921   NORMALIZED FREE ENERGY PREDICTED BY IDOCK:   -4.52 KCAL/MOL
REMARK 922        TOTAL FREE ENERGY PREDICTED BY IDOCK:   -6.75 KCAL/MOL
REMARK 923 INTER-LIGAND FREE ENERGY PREDICTED BY IDOCK:   -6.44 KCAL/MOL
REMARK 924 INTRA-LIGAND FREE ENERGY PREDICTED BY IDOCK:   -0.31 KCAL/MOL
REMARK 927      BINDING AFFINITY PREDICTED BY RF-SCORE:    0.00 PKD
ROOT
HETATM    1  C   UNL     1      -9.576  13.817  66.930  1.00  0.00    -0.263 C  
HETATM    2  C   UNL     1     -10.542  12.985  67.714  1.00  0.00    -0.226 A  
HETATM    3  N   UNL     1     -10.511  11.656  67.512  1.00  0.00    -0.195 NA 
HETATM    4  C   UNL     1     -11.284  10.913  68.311  1.00  0.00    -0.286 A  
HETATM    5  C   UNL     1     -12.111  12.855  69.389  1.00  0.00    -0.198 A  
HETATM    6  C   UNL     1     -12.031  11.482  69.309  1.00  0.00    -0.397 A  
HETATM    7  N   UNL     1     -11.332  13.617  68.603  1.00  0.00    -0.266 NA 
ENDROOT
BRANCH   4   8
HETATM    8  N   UNL     1     -11.263   9.539  68.095  1.00  0.00    -0.509 NA 
HETATM    9  H   UNL     1     -12.167   9.101  67.922  1.00  0.00     0.000 HD 
BRANCH   8  10
HETATM   10  C   UNL     1     -10.194   8.716  68.086  1.00  0.00    -0.205 A  
HETATM   11  S   UNL     1      -9.513   8.325  66.563  1.00  0.00    -0.229 SA 
HETATM   12  N   UNL     1      -9.594   8.144  69.112  1.00  0.00    -0.156 NA 
HETATM   13  C   UNL     1      -8.656   7.230  68.673  1.00  0.00    -0.128 A  
HETATM   14  C   UNL     1      -8.522   7.144  67.305  1.00  0.00    -0.122 A  
BRANCH  14  15
HETATM   15  C   UNL     1      -7.753   6.205  66.524  1.00  0.00    -0.103 C  
HETATM   16  O   UNL     1      -6.714   5.700  66.936  1.00  0.00    -0.058 OA 
HETATM   17  H   UNL     1      -9.071   6.536  64.958  1.00  0.00     0.000 HD 
HETATM   18  N   UNL     1      -8.279   5.971  65.263  1.00  0.00    -0.134 N  
BRANCH  18  19
HETATM   19  C   UNL     1      -7.780   4.998  64.384  1.00  0.00    -0.085 A  
HETATM   20  C   UNL     1      -7.882   2.757  63.485  1.00  0.00    -0.072 A  
HETATM   21  C   UNL     1      -9.509   3.325  65.284  1.00  0.00    -0.127 C  
HETATM   22  C   UNL     1      -8.369   3.719  64.385  1.00  0.00    -0.094 A  
HETATM   23  C   UNL     1      -6.823   3.048  62.624  1.00  0.00    -0.031 A  
HETATM   24  C   UNL     1      -6.205   4.291  62.670  1.00  0.00    -0.018 A  
HETATM   25  C   UNL     1      -6.671   5.264  63.553  1.00  0.00    -0.037 A  
HETATM   26 CL   UNL     1      -5.718   6.705  63.711  1.00  0.00    -0.030 Cl 
ENDBRANCH  18  19
ENDBRANCH  14  15
ENDBRANCH   8  10
ENDBRANCH   4   8
BRANCH   5  27
HETATM   27  N   UNL     1     -12.973  13.430  70.332  1.00  0.00     0.064 NA 
HETATM   28  C   UNL     1     -12.859  14.896  70.480  1.00  0.00    -0.326 C  
HETATM   29  C   UNL     1     -13.075  12.726  71.620  1.00  0.00    -0.331 C  
HETATM   30  N   UNL     1     -14.222  14.815  72.629  1.00  0.00    -0.417 NA 
HETATM   31  C   UNL     1     -14.054  15.430  71.292  1.00  0.00    -0.360 C  
HETATM   32  C   UNL     1     -14.244  13.332  72.446  1.00  0.00    -0.234 C  
BRANCH  30  33
HETATM   33  C   UNL     1     -13.156  15.202  73.581  1.00  0.00    -0.236 C  
BRANCH  33  34
HETATM   34  C   UNL     1     -12.149  16.211  73.002  1.00  0.00    -0.533 C  
HETATM   35  H   UNL     1     -11.066  17.724  73.657  1.00  0.00     0.000 HD 
HETATM   36  O   UNL     1     -11.688  17.101  74.015  1.00  0.00    -0.094 OA 
ENDBRANCH  33  34
ENDBRANCH  30  33
ENDBRANCH   5  27
TORSDOF 7
ENDMDL
MODEL      185
REMARK 921   NORMALIZED FREE ENERGY PREDICTED BY IDOCK:   -4.47 KCAL/MOL
REMARK 922        TOTAL FREE ENERGY PREDICTED BY IDOCK:   -6.67 KCAL/MOL
REMARK 923 INTER-LIGAND FREE ENERGY PREDICTED BY IDOCK:   -5.64 KCAL/MOL
REMARK 924 INTRA-LIGAND FREE ENERGY PREDICTED BY IDOCK:   -1.03 KCAL/MOL
REMARK 927      BINDING AFFINITY PREDICTED BY RF-SCORE:    0.00 PKD
ROOT
HETATM    1  C   UNL     1     -10.957   5.991  71.723  1.00  0.00    -0.323 C  
HETATM    2  C   UNL     1     -10.642   5.997  70.260  1.00  0.00    -0.273 A  
HETATM    3  N   UNL     1     -11.063   7.056  69.546  1.00  0.00    -0.218 NA 
HETATM    4  C   UNL     1     -10.663   7.113  68.271  1.00  0.00    -0.153 A  
HETATM    5  C   UNL     1      -9.531   5.042  68.489  1.00  0.00    -0.138 A  
HETATM    6  C   UNL     1      -9.831   6.161  67.742  1.00  0.00    -0.131 A  
HETATM    7  N   UNL     1      -9.914   4.973  69.774  1.00  0.00    -0.229 NA 
ENDROOT
BRANCH   4   8
HETATM    8  N   UNL     1     -11.109   8.201  67.528  1.00  0.00    -0.411 NA 
HETATM    9  H   UNL     1     -11.940   8.042  66.959  1.00  0.00     0.000 HD 
BRANCH   8  10
HETATM   10  C   UNL     1     -10.577   9.439  67.467  1.00  0.00    -0.267 A  
HETATM   11  S   UNL     1     -11.413  10.697  68.275  1.00  0.00    -0.162 SA 
HETATM   12  N   UNL     1      -9.482   9.828  66.843  1.00  0.00    -0.155 NA 
HETATM   13  C   UNL     1      -9.379  11.206  66.865  1.00  0.00    -0.175 A  
HETATM   14  C   UNL     1     -10.384  11.854  67.548  1.00  0.00    -0.200 A  
BRANCH  14  15
HETATM   15  C   UNL     1     -10.656  13.269  67.639  1.00  0.00    -0.236 C  
HETATM   16  O   UNL     1     -11.580  13.803  67.034  1.00  0.00    -0.328 OA 
HETATM   17  H   UNL     1      -8.940  13.453  68.789  1.00  0.00     0.000 HD 
HETATM   18  N   UNL     1      -9.752  13.957  68.434  1.00  0.00    -0.226 N  
BRANCH  18  19
HETATM   19  C   UNL     1      -9.897  15.310  68.777  1.00  0.00    -0.217 A  
HETATM   20  C   UNL     1      -9.328  17.627  68.392  1.00  0.00    -0.289 A  
HETATM   21  C   UNL     1      -8.212  15.936  66.942  1.00  0.00    -0.283 C  
HETATM   22  C   UNL     1      -9.160  16.272  68.061  1.00  0.00    -0.188 A  
HETATM   23  C   UNL     1     -10.187  18.015  69.422  1.00  0.00     0.083 A  
HETATM   24  C   UNL     1     -10.864  17.057  70.165  1.00  0.00     0.304 A  
HETATM   25  C   UNL     1     -10.716  15.706  69.855  1.00  0.00    -0.322 A  
HETATM   26 CL   UNL     1     -11.413  14.563  70.959  1.00  0.00    -0.217 Cl 
ENDBRANCH  18  19
ENDBRANCH  14  15
ENDBRANCH   8  10
ENDBRANCH   4   8
BRANCH   5  27
HETATM   27  N   UNL     1      -8.783   4.016  67.899  1.00  0.00    -0.097 NA 
HETATM   28  C   UNL     1      -8.325   4.282  66.518  1.00  0.00    -0.101 C  
HETATM   29  C   UNL     1      -9.307   2.654  68.080  1.00  0.00    -0.203 C  
HETATM   30  N   UNL     1      -7.712   1.829  66.217  1.00  0.00    -0.069 NA 
HETATM   31  C   UNL     1      -7.267   3.238  66.112  1.00  0.00    -0.067 C  
HETATM   32  C   UNL     1      -8.247   1.624  67.597  1.00  0.00    -0.065 C  
BRANCH  30  33
HETATM   33  C   UNL     1      -8.734   1.468  65.209  1.00  0.00    -0.115 C  
BRANCH  33  34
HETATM   34  C   UNL     1      -8.335   1.835  63.768  1.00  0.00    -0.077 C  
HETATM   35  H   UNL     1      -9.044   2.947  62.302  1.00  0.00     0.000 HD 
HETATM   36  O   UNL     1      -9.290   2.721  63.191  1.00  0.00    -0.094 OA 
ENDBRANCH  33  34
ENDBRANCH  30  33
ENDBRANCH   5  27
TORSDOF 7
ENDMDL
MODEL      186
REMARK 921   NORMALIZED FREE ENERGY PREDICTED BY IDOCK:   -4.47 KCAL/MOL
REMARK 922        TOTAL FREE ENERGY PREDICTED BY IDOCK:   -6.67 KCAL/MOL
REMARK 923 INTER-LIGAND FREE ENERGY PREDICTED BY IDOCK:   -5.99 KCAL/MOL
REMARK 924 INTRA-LIGAND FREE ENERGY PREDICTED BY IDOCK:   -0.68 KCAL/MOL
REMARK 927      BINDING AFFINITY PREDICTED BY RF-SCORE:    0.00 PKD
ROOT
HETATM    1  C   UNL     1      -6.391   8.676  72.536  1.00  0.00    -0.071 C  
HETATM    2  C   UNL     1      -6.843   8.893  71.126  1.00  0.00    -0.085 A  
HETATM    3  N   UNL     1      -6.322   9.945  70.471  1.00  0.00    -0.097 NA 
HETATM    4  C   UNL     1      -6.631  10.053  69.174  1.00  0.00    -0.053 A  
HETATM    5  C   UNL     1      -8.003   8.123  69.297  1.00  0.00    -0.115 A  
HETATM    6  C   UNL     1      -7.404   9.112  68.545  1.00  0.00    -0.077 A  
HETATM    7  N   UNL     1      -7.694   7.993  70.598  1.00  0.00    -0.086 NA 
ENDROOT
BRANCH   4   8
HETATM    8  N   UNL     1      -6.103  11.147  68.497  1.00  0.00    -0.043 NA 
HETATM    9  H   UNL     1      -5.386  10.940  67.802  1.00  0.00     0.000 HD 
BRANCH   8  10
HETATM   10  C   UNL     1      -6.424  12.449  68.646  1.00  0.00    -0.077 A  
HETATM   11  S   UNL     1      -7.637  13.086  67.618  1.00  0.00    -0.171 SA 
HETATM   12  N   UNL     1      -5.909  13.327  69.487  1.00  0.00    -0.093 NA 
HETATM   13  C   UNL     1      -6.374  14.596  69.202  1.00  0.00    -0.106 A  
HETATM   14  C   UNL     1      -7.278  14.667  68.165  1.00  0.00    -0.124 A  
BRANCH  14  15
HETATM   15  C   UNL     1      -7.838  15.832  67.524  1.00  0.00    -0.159 C  
HETATM   16  O   UNL     1      -8.019  15.895  66.313  1.00  0.00    -0.200 OA 
HETATM   17  H   UNL     1      -7.798  16.779  69.369  1.00  0.00     0.000 HD 
HETATM   18  N   UNL     1      -8.105  16.873  68.401  1.00  0.00    -0.227 N  
BRANCH  18  19
HETATM   19  C   UNL     1      -8.775  18.048  68.027  1.00  0.00    -0.261 A  
HETATM   20  C   UNL     1     -10.844  19.200  67.546  1.00  0.00    -0.512 A  
HETATM   21  C   UNL     1     -11.009  16.784  68.126  1.00  0.00    -0.309 C  
HETATM   22  C   UNL     1     -10.176  18.015  67.895  1.00  0.00    -0.386 A  
HETATM   23  C   UNL     1     -10.137  20.381  67.311  1.00  0.00    -0.504 A  
HETATM   24  C   UNL     1      -8.750  20.393  67.382  1.00  0.00    -0.415 A  
HETATM   25  C   UNL     1      -8.065  19.230  67.730  1.00  0.00    -0.286 A  
HETATM   26 CL   UNL     1      -6.336  19.261  67.584  1.00  0.00    -0.218 Cl 
ENDBRANCH  18  19
ENDBRANCH  14  15
ENDBRANCH   8  10
ENDBRANCH   4   8
BRANCH   5  27
HETATM   27  N   UNL     1      -8.889   7.239  68.669  1.00  0.00    -0.130 NA 
HETATM   28  C   UNL     1      -9.358   6.115  69.507  1.00  0.00    -0.137 C  
HETATM   29  C   UNL     1      -8.527   6.829  67.304  1.00  0.00    -0.120 C  
HETATM   30  N   UNL     1     -10.273   4.925  67.451  1.00  0.00    -0.152 NA 
HETATM   31  C   UNL     1     -10.547   5.417  68.821  1.00  0.00    -0.109 C  
HETATM   32  C   UNL     1      -9.720   6.067  66.662  1.00  0.00    -0.157 C  
BRANCH  30  33
HETATM   33  C   UNL     1      -9.338   3.779  67.424  1.00  0.00    -0.198 C  
BRANCH  33  34
HETATM   34  C   UNL     1      -9.491   2.830  68.626  1.00  0.00    -0.123 C  
HETATM   35  H   UNL     1      -9.719   0.895  68.932  1.00  0.00     0.000 HD 
HETATM   36  O   UNL     1      -9.625   1.480  68.190  1.00  0.00    -0.189 OA 
ENDBRANCH  33  34
ENDBRANCH  30  33
ENDBRANCH   5  27
TORSDOF 7
ENDMDL
MODEL      187
REMARK 921   NORMALIZED FREE ENERGY PREDICTED BY IDOCK:   -4.41 KCAL/MOL
REMARK 922        TOTAL FREE ENERGY PREDICTED BY IDOCK:   -6.59 KCAL/MOL
REMARK 923 INTER-LIGAND FREE ENERGY PREDICTED BY IDOCK:   -6.28 KCAL/MOL
REMARK 924 INTRA-LIGAND FREE ENERGY PREDICTED BY IDOCK:   -0.31 KCAL/MOL
REMARK 927      BINDING AFFINITY PREDICTED BY RF-SCORE:    0.00 PKD
ROOT
HETATM    1  C   UNL     1      -7.360  18.223  68.481  1.00  0.00    -0.297 C  
HETATM    2  C   UNL     1      -7.707  16.918  67.837  1.00  0.00    -0.173 A  
HETATM    3  N   UNL     1      -6.798  15.931  67.925  1.00  0.00    -0.131 NA 
HETATM    4  C   UNL     1      -7.172  14.732  67.462  1.00  0.00    -0.197 A  
HETATM    5  C   UNL     1      -9.274  15.600  66.793  1.00  0.00    -0.251 A  
HETATM    6  C   UNL     1      -8.432  14.523  66.965  1.00  0.00    -0.222 A  
HETATM    7  N   UNL     1      -8.921  16.807  67.263  1.00  0.00    -0.209 NA 
ENDROOT
BRANCH   4   8
HETATM    8  N   UNL     1      -6.229  13.713  67.540  1.00  0.00    -0.321 NA 
HETATM    9  H   UNL     1      -5.286  13.997  67.805  1.00  0.00     0.000 HD 
BRANCH   8  10
HETATM   10  C   UNL     1      -6.409  12.396  67.310  1.00  0.00    -0.142 A  
HETATM   11  S   UNL     1      -7.729  11.633  68.091  1.00  0.00    -0.131 SA 
HETATM   12  N   UNL     1      -5.683  11.590  66.560  1.00  0.00    -0.167 NA 
HETATM   13  C   UNL     1      -6.085  10.280  66.731  1.00  0.00    -0.062 A  
HETATM   14  C   UNL     1      -7.150  10.104  67.587  1.00  0.00    -0.086 A  
BRANCH  14  15
HETATM   15  C   UNL     1      -7.717   8.877  68.093  1.00  0.00    -0.100 C  
HETATM   16  O   UNL     1      -8.900   8.589  67.948  1.00  0.00    -0.136 OA 
HETATM   17  H   UNL     1      -5.882   8.474  68.972  1.00  0.00     0.000 HD 
HETATM   18  N   UNL     1      -6.810   8.092  68.788  1.00  0.00    -0.064 N  
BRANCH  18  19
HETATM   19  C   UNL     1      -7.099   6.799  69.249  1.00  0.00    -0.087 A  
HETATM   20  C   UNL     1      -7.151   4.414  68.863  1.00  0.00    -0.052 A  
HETATM   21  C   UNL     1      -6.363   5.844  66.982  1.00  0.00    -0.038 C  
HETATM   22  C   UNL     1      -6.884   5.708  68.387  1.00  0.00    -0.063 A  
HETATM   23  C   UNL     1      -7.642   4.210  70.154  1.00  0.00    -0.045 A  
HETATM   24  C   UNL     1      -7.911   5.294  70.979  1.00  0.00    -0.102 A  
HETATM   25  C   UNL     1      -7.651   6.588  70.531  1.00  0.00    -0.096 A  
HETATM   26 CL   UNL     1      -8.215   7.894  71.524  1.00  0.00    -0.111 Cl 
ENDBRANCH  18  19
ENDBRANCH  14  15
ENDBRANCH   8  10
ENDBRANCH   4   8
BRANCH   5  27
HETATM   27  N   UNL     1     -10.512  15.398  66.170  1.00  0.00    -0.303 NA 
HETATM   28  C   UNL     1     -11.042  14.020  66.250  1.00  0.00    -0.307 C  
HETATM   29  C   UNL     1     -10.665  15.998  64.836  1.00  0.00    -0.316 C  
HETATM   30  N   UNL     1     -12.779  14.552  64.466  1.00  0.00    -0.612 NA 
HETATM   31  C   UNL     1     -12.521  14.006  65.819  1.00  0.00    -0.494 C  
HETATM   32  C   UNL     1     -12.154  15.908  64.398  1.00  0.00     0.084 C  
BRANCH  30  33
HETATM   33  C   UNL     1     -12.257  13.688  63.385  1.00  0.00    -0.174 C  
BRANCH  33  34
HETATM   34  C   UNL     1     -12.211  12.195  63.756  1.00  0.00    -0.531 C  
HETATM   35  H   UNL     1     -13.499  10.741  64.100  1.00  0.00     0.000 HD 
HETATM   36  O   UNL     1     -13.527  11.662  63.870  1.00  0.00    -0.340 OA 
ENDBRANCH  33  34
ENDBRANCH  30  33
ENDBRANCH   5  27
TORSDOF 7
ENDMDL
MODEL      188
REMARK 921   NORMALIZED FREE ENERGY PREDICTED BY IDOCK:   -4.39 KCAL/MOL
REMARK 922        TOTAL FREE ENERGY PREDICTED BY IDOCK:   -6.56 KCAL/MOL
REMARK 923 INTER-LIGAND FREE ENERGY PREDICTED BY IDOCK:   -5.66 KCAL/MOL
REMARK 924 INTRA-LIGAND FREE ENERGY PREDICTED BY IDOCK:   -0.90 KCAL/MOL
REMARK 927      BINDING AFFINITY PREDICTED BY RF-SCORE:    0.00 PKD
ROOT
HETATM    1  C   UNL     1      -9.176   6.562  66.163  1.00  0.00    -0.126 C  
HETATM    2  C   UNL     1      -9.141   7.506  67.323  1.00  0.00    -0.124 A  
HETATM    3  N   UNL     1      -9.415   8.798  67.071  1.00  0.00    -0.158 NA 
HETATM    4  C   UNL     1      -9.510   9.607  68.133  1.00  0.00    -0.132 A  
HETATM    5  C   UNL     1      -8.978   7.818  69.595  1.00  0.00    -0.143 A  
HETATM    6  C   UNL     1      -9.374   9.125  69.409  1.00  0.00    -0.160 A  
HETATM    7  N   UNL     1      -8.890   6.989  68.542  1.00  0.00    -0.125 NA 
ENDROOT
BRANCH   4   8
HETATM    8  N   UNL     1      -9.781  10.946  67.874  1.00  0.00    -0.163 NA 
HETATM    9  H   UNL     1     -10.705  11.148  67.493  1.00  0.00     0.000 HD 
BRANCH   8  10
HETATM   10  C   UNL     1      -8.973  12.009  68.064  1.00  0.00    -0.187 A  
HETATM   11  S   UNL     1      -9.554  13.541  67.563  1.00  0.00    -0.229 SA 
HETATM   12  N   UNL     1      -7.760  12.031  68.583  1.00  0.00    -0.121 NA 
HETATM   13  C   UNL     1      -7.196  13.283  68.434  1.00  0.00    -0.110 A  
HETATM   14  C   UNL     1      -8.008  14.221  67.836  1.00  0.00    -0.153 A  
BRANCH  14  15
HETATM   15  C   UNL     1      -7.686  15.560  67.404  1.00  0.00    -0.194 C  
HETATM   16  O   UNL     1      -6.913  15.787  66.479  1.00  0.00    -0.078 OA 
HETATM   17  H   UNL     1      -8.817  16.269  68.991  1.00  0.00     0.000 HD 
HETATM   18  N   UNL     1      -8.298  16.549  68.160  1.00  0.00    -0.181 N  
BRANCH  18  19
HETATM   19  C   UNL     1      -8.241  17.914  67.840  1.00  0.00    -0.246 A  
HETATM   20  C   UNL     1      -7.222  20.083  68.152  1.00  0.00    -0.320 A  
HETATM   21  C   UNL     1      -6.329  18.210  69.530  1.00  0.00    -0.222 C  
HETATM   22  C   UNL     1      -7.292  18.723  68.494  1.00  0.00    -0.324 A  
HETATM   23  C   UNL     1      -8.087  20.632  67.203  1.00  0.00    -0.308 A  
HETATM   24  C   UNL     1      -9.061  19.842  66.606  1.00  0.00    -0.466 A  
HETATM   25  C   UNL     1      -9.150  18.489  66.927  1.00  0.00    -0.290 A  
HETATM   26 CL   UNL     1     -10.522  17.622  66.314  1.00  0.00    -0.330 Cl 
ENDBRANCH  18  19
ENDBRANCH  14  15
ENDBRANCH   8  10
ENDBRANCH   4   8
BRANCH   5  27
HETATM   27  N   UNL     1      -8.721   7.367  70.896  1.00  0.00    -0.142 NA 
HETATM   28  C   UNL     1      -7.587   8.025  71.580  1.00  0.00    -0.083 C  
HETATM   29  C   UNL     1      -8.741   5.909  71.085  1.00  0.00    -0.132 C  
HETATM   30  N   UNL     1      -7.592   6.226  73.382  1.00  0.00    -0.095 NA 
HETATM   31  C   UNL     1      -7.613   7.676  73.080  1.00  0.00    -0.107 C  
HETATM   32  C   UNL     1      -8.697   5.586  72.605  1.00  0.00    -0.123 C  
BRANCH  30  33
HETATM   33  C   UNL     1      -6.297   5.587  73.060  1.00  0.00    -0.060 C  
BRANCH  33  34
HETATM   34  C   UNL     1      -6.312   4.055  73.203  1.00  0.00    -0.031 C  
HETATM   35  H   UNL     1      -5.269   2.672  74.146  1.00  0.00     0.000 HD 
HETATM   36  O   UNL     1      -5.259   3.618  74.057  1.00  0.00     0.000 OA 
ENDBRANCH  33  34
ENDBRANCH  30  33
ENDBRANCH   5  27
TORSDOF 7
ENDMDL
MODEL      189
REMARK 921   NORMALIZED FREE ENERGY PREDICTED BY IDOCK:   -4.37 KCAL/MOL
REMARK 922        TOTAL FREE ENERGY PREDICTED BY IDOCK:   -6.54 KCAL/MOL
REMARK 923 INTER-LIGAND FREE ENERGY PREDICTED BY IDOCK:   -5.85 KCAL/MOL
REMARK 924 INTRA-LIGAND FREE ENERGY PREDICTED BY IDOCK:   -0.70 KCAL/MOL
REMARK 927      BINDING AFFINITY PREDICTED BY RF-SCORE:    0.00 PKD
ROOT
HETATM    1  C   UNL     1     -13.522  11.390  62.741  1.00  0.00     2.217 C  
HETATM    2  C   UNL     1     -12.472  11.853  63.701  1.00  0.00    -0.470 A  
HETATM    3  N   UNL     1     -12.819  12.817  64.571  1.00  0.00    -0.737 NA 
HETATM    4  C   UNL     1     -11.916  13.129  65.508  1.00  0.00    -0.412 A  
HETATM    5  C   UNL     1     -10.376  11.571  64.602  1.00  0.00    -0.297 A  
HETATM    6  C   UNL     1     -10.720  12.465  65.593  1.00  0.00    -0.299 A  
HETATM    7  N   UNL     1     -11.274  11.237  63.661  1.00  0.00    -0.278 NA 
ENDROOT
BRANCH   4   8
HETATM    8  N   UNL     1     -12.268  14.135  66.401  1.00  0.00    -0.459 NA 
HETATM    9  H   UNL     1     -13.264  14.225  66.602  1.00  0.00     0.000 HD 
BRANCH   8  10
HETATM   10  C   UNL     1     -11.454  15.004  67.035  1.00  0.00    -0.284 A  
HETATM   11  S   UNL     1     -10.627  16.155  66.072  1.00  0.00    -0.259 SA 
HETATM   12  N   UNL     1     -11.189  15.085  68.325  1.00  0.00    -0.285 NA 
HETATM   13  C   UNL     1     -10.168  15.986  68.551  1.00  0.00    -0.236 A  
HETATM   14  C   UNL     1      -9.689  16.620  67.426  1.00  0.00    -0.251 A  
BRANCH  14  15
HETATM   15  C   UNL     1      -8.549  17.494  67.289  1.00  0.00    -0.225 C  
HETATM   16  O   UNL     1      -7.936  17.618  66.234  1.00  0.00    -0.302 OA 
HETATM   17  H   UNL     1      -8.680  17.868  69.325  1.00  0.00     0.000 HD 
HETATM   18  N   UNL     1      -8.197  18.134  68.467  1.00  0.00    -0.308 N  
BRANCH  18  19
HETATM   19  C   UNL     1      -7.211  19.130  68.543  1.00  0.00    -0.306 A  
HETATM   20  C   UNL     1      -5.137  19.938  69.484  1.00  0.00    -0.211 A  
HETATM   21  C   UNL     1      -5.975  17.747  70.320  1.00  0.00    -0.036 C  
HETATM   22  C   UNL     1      -6.134  18.951  69.431  1.00  0.00    -0.285 A  
HETATM   23  C   UNL     1      -5.218  21.085  68.692  1.00  0.00    -0.346 A  
HETATM   24  C   UNL     1      -6.314  21.286  67.862  1.00  0.00    -0.283 A  
HETATM   25  C   UNL     1      -7.315  20.319  67.791  1.00  0.00    -0.290 A  
HETATM   26 CL   UNL     1      -8.750  20.735  66.909  1.00  0.00    -0.207 Cl 
ENDBRANCH  18  19
ENDBRANCH  14  15
ENDBRANCH   8  10
ENDBRANCH   4   8
BRANCH   5  27
HETATM   27  N   UNL     1      -9.102  10.989  64.627  1.00  0.00    -0.164 NA 
HETATM   28  C   UNL     1      -8.729  10.233  63.413  1.00  0.00    -0.206 C  
HETATM   29  C   UNL     1      -8.739  10.295  65.872  1.00  0.00    -0.156 C  
HETATM   30  N   UNL     1      -6.756   9.186  64.634  1.00  0.00    -0.081 NA 
HETATM   31  C   UNL     1      -7.220   9.924  63.437  1.00  0.00    -0.131 C  
HETATM   32  C   UNL     1      -7.228   9.934  65.839  1.00  0.00    -0.108 C  
BRANCH  30  33
HETATM   33  C   UNL     1      -7.238   7.787  64.674  1.00  0.00    -0.072 C  
BRANCH  33  34
HETATM   34  C   UNL     1      -6.361   6.809  63.872  1.00  0.00    -0.035 C  
HETATM   35  H   UNL     1      -6.474   5.808  62.176  1.00  0.00     0.000 HD 
HETATM   36  O   UNL     1      -7.016   6.412  62.671  1.00  0.00    -0.040 OA 
ENDBRANCH  33  34
ENDBRANCH  30  33
ENDBRANCH   5  27
TORSDOF 7
ENDMDL
MODEL      190
REMARK 921   NORMALIZED FREE ENERGY PREDICTED BY IDOCK:   -4.29 KCAL/MOL
REMARK 922        TOTAL FREE ENERGY PREDICTED BY IDOCK:   -6.42 KCAL/MOL
REMARK 923 INTER-LIGAND FREE ENERGY PREDICTED BY IDOCK:   -5.69 KCAL/MOL
REMARK 924 INTRA-LIGAND FREE ENERGY PREDICTED BY IDOCK:   -0.73 KCAL/MOL
REMARK 927      BINDING AFFINITY PREDICTED BY RF-SCORE:    0.00 PKD
ROOT
HETATM    1  C   UNL     1      -9.850  15.317  65.152  1.00  0.00    -0.164 C  
HETATM    2  C   UNL     1     -10.481  14.222  65.953  1.00  0.00    -0.307 A  
HETATM    3  N   UNL     1     -10.308  12.963  65.514  1.00  0.00    -0.287 NA 
HETATM    4  C   UNL     1     -10.763  11.986  66.307  1.00  0.00    -0.267 A  
HETATM    5  C   UNL     1     -11.591  13.575  67.860  1.00  0.00    -0.342 A  
HETATM    6  C   UNL     1     -11.336  12.263  67.520  1.00  0.00    -0.388 A  
HETATM    7  N   UNL     1     -11.130  14.568  67.082  1.00  0.00    -0.311 NA 
ENDROOT
BRANCH   4   8
HETATM    8  N   UNL     1     -10.597  10.684  65.848  1.00  0.00    -0.159 NA 
HETATM    9  H   UNL     1     -11.033  10.466  64.952  1.00  0.00     0.000 HD 
BRANCH   8  10
HETATM   10  C   UNL     1      -9.929   9.674  66.443  1.00  0.00    -0.255 A  
HETATM   11  S   UNL     1      -9.536   8.313  65.478  1.00  0.00     0.449 SA 
HETATM   12  N   UNL     1      -9.540   9.578  67.700  1.00  0.00    -0.134 NA 
HETATM   13  C   UNL     1      -9.052   8.312  67.958  1.00  0.00    -0.137 A  
HETATM   14  C   UNL     1      -9.036   7.461  66.875  1.00  0.00    -0.135 A  
BRANCH  14  15
HETATM   15  C   UNL     1      -8.732   6.051  66.831  1.00  0.00    -0.112 C  
HETATM   16  O   UNL     1      -9.144   5.261  67.674  1.00  0.00    -0.109 OA 
HETATM   17  H   UNL     1      -7.503   6.439  65.206  1.00  0.00     0.000 HD 
HETATM   18  N   UNL     1      -7.904   5.695  65.778  1.00  0.00    -0.099 N  
BRANCH  18  19
HETATM   19  C   UNL     1      -7.587   4.366  65.456  1.00  0.00    -0.085 A  
HETATM   20  C   UNL     1      -6.027   2.522  65.532  1.00  0.00    -0.019 A  
HETATM   21  C   UNL     1      -5.288   4.666  66.561  1.00  0.00    -0.013 C  
HETATM   22  C   UNL     1      -6.329   3.860  65.833  1.00  0.00    -0.033 A  
HETATM   23  C   UNL     1      -6.942   1.714  64.854  1.00  0.00    -0.042 A  
HETATM   24  C   UNL     1      -8.157   2.236  64.430  1.00  0.00    -0.078 A  
HETATM   25  C   UNL     1      -8.481   3.561  64.719  1.00  0.00    -0.100 A  
HETATM   26 CL   UNL     1      -9.909   4.204  63.973  1.00  0.00    -0.146 Cl 
ENDBRANCH  18  19
ENDBRANCH  14  15
ENDBRANCH   8  10
ENDBRANCH   4   8
BRANCH   5  27
HETATM   27  N   UNL     1     -12.287  13.845  69.044  1.00  0.00    -0.224 NA 
HETATM   28  C   UNL     1     -12.595  15.271  69.284  1.00  0.00     0.150 C  
HETATM   29  C   UNL     1     -11.802  13.149  70.246  1.00  0.00    -0.224 C  
HETATM   30  N   UNL     1     -13.207  14.762  71.703  1.00  0.00    -0.326 NA 
HETATM   31  C   UNL     1     -13.619  15.395  70.429  1.00  0.00     0.248 C  
HETATM   32  C   UNL     1     -12.821  13.350  71.404  1.00  0.00    -0.333 C  
BRANCH  30  33
HETATM   33  C   UNL     1     -12.091  15.472  72.367  1.00  0.00    -0.433 C  
BRANCH  33  34
HETATM   34  C   UNL     1     -12.052  15.271  73.892  1.00  0.00    -0.525 C  
HETATM   35  H   UNL     1     -12.584  16.274  75.506  1.00  0.00     0.000 HD 
HETATM   36  O   UNL     1     -12.607  16.398  74.564  1.00  0.00    -0.754 OA 
ENDBRANCH  33  34
ENDBRANCH  30  33
ENDBRANCH   5  27
TORSDOF 7
ENDMDL
MODEL      191
REMARK 921   NORMALIZED FREE ENERGY PREDICTED BY IDOCK:   -4.26 KCAL/MOL
REMARK 922        TOTAL FREE ENERGY PREDICTED BY IDOCK:   -6.38 KCAL/MOL
REMARK 923 INTER-LIGAND FREE ENERGY PREDICTED BY IDOCK:   -5.58 KCAL/MOL
REMARK 924 INTRA-LIGAND FREE ENERGY PREDICTED BY IDOCK:   -0.80 KCAL/MOL
REMARK 927      BINDING AFFINITY PREDICTED BY RF-SCORE:    0.00 PKD
ROOT
HETATM    1  C   UNL     1      -5.457  14.363  71.663  1.00  0.00    -0.171 C  
HETATM    2  C   UNL     1      -6.092  13.845  70.411  1.00  0.00    -0.143 A  
HETATM    3  N   UNL     1      -5.708  12.628  69.987  1.00  0.00    -0.125 NA 
HETATM    4  C   UNL     1      -6.375  12.121  68.945  1.00  0.00    -0.083 A  
HETATM    5  C   UNL     1      -7.690  14.086  68.776  1.00  0.00    -0.112 A  
HETATM    6  C   UNL     1      -7.422  12.795  68.373  1.00  0.00    -0.124 A  
HETATM    7  N   UNL     1      -7.039  14.607  69.829  1.00  0.00    -0.136 NA 
ENDROOT
BRANCH   4   8
HETATM    8  N   UNL     1      -5.970  10.868  68.497  1.00  0.00    -0.043 NA 
HETATM    9  H   UNL     1      -5.079  10.837  68.001  1.00  0.00     0.000 HD 
BRANCH   8  10
HETATM   10  C   UNL     1      -6.611   9.689  68.638  1.00  0.00    -0.051 A  
HETATM   11  S   UNL     1      -6.505   8.574  67.341  1.00  0.00    -0.058 SA 
HETATM   12  N   UNL     1      -7.338   9.270  69.655  1.00  0.00    -0.064 NA 
HETATM   13  C   UNL     1      -7.974   8.086  69.338  1.00  0.00    -0.116 A  
HETATM   14  C   UNL     1      -7.690   7.589  68.085  1.00  0.00    -0.120 A  
BRANCH  14  15
HETATM   15  C   UNL     1      -8.285   6.472  67.392  1.00  0.00    -0.121 C  
HETATM   16  O   UNL     1      -9.414   6.519  66.914  1.00  0.00    -0.141 OA 
HETATM   17  H   UNL     1      -6.613   5.356  67.901  1.00  0.00     0.000 HD 
HETATM   18  N   UNL     1      -7.479   5.344  67.363  1.00  0.00    -0.083 N  
BRANCH  18  19
HETATM   19  C   UNL     1      -7.791   4.189  66.631  1.00  0.00    -0.097 A  
HETATM   20  C   UNL     1      -7.672   2.937  64.567  1.00  0.00    -0.077 A  
HETATM   21  C   UNL     1      -6.623   5.196  64.577  1.00  0.00    -0.043 C  
HETATM   22  C   UNL     1      -7.380   4.107  65.287  1.00  0.00    -0.072 A  
HETATM   23  C   UNL     1      -8.376   1.886  65.158  1.00  0.00    -0.085 A  
HETATM   24  C   UNL     1      -8.833   1.997  66.464  1.00  0.00    -0.130 A  
HETATM   25  C   UNL     1      -8.553   3.147  67.201  1.00  0.00    -0.112 A  
HETATM   26 CL   UNL     1      -9.339   3.308  68.739  1.00  0.00    -0.232 Cl 
ENDBRANCH  18  19
ENDBRANCH  14  15
ENDBRANCH   8  10
ENDBRANCH   4   8
BRANCH   5  27
HETATM   27  N   UNL     1      -8.680  14.813  68.104  1.00  0.00    -0.162 NA 
HETATM   28  C   UNL     1     -10.067  14.540  68.536  1.00  0.00    -0.242 C  
HETATM   29  C   UNL     1      -8.537  14.893  66.642  1.00  0.00    -0.172 C  
HETATM   30  N   UNL     1     -10.976  15.743  66.485  1.00  0.00    -0.230 NA 
HETATM   31  C   UNL     1     -11.012  15.612  67.960  1.00  0.00    -0.318 C  
HETATM   32  C   UNL     1      -9.549  15.930  66.081  1.00  0.00    -0.333 C  
BRANCH  30  33
HETATM   33  C   UNL     1     -11.561  14.577  65.786  1.00  0.00    -0.347 C  
BRANCH  33  34
HETATM   34  C   UNL     1     -12.043  14.892  64.358  1.00  0.00    -0.401 C  
HETATM   35  H   UNL     1     -12.308  16.489  63.232  1.00  0.00     0.000 HD 
HETATM   36  O   UNL     1     -12.011  16.295  64.113  1.00  0.00    -0.838 OA 
ENDBRANCH  33  34
ENDBRANCH  30  33
ENDBRANCH   5  27
TORSDOF 7
ENDMDL
MODEL      192
REMARK 921   NORMALIZED FREE ENERGY PREDICTED BY IDOCK:   -4.26 KCAL/MOL
REMARK 922        TOTAL FREE ENERGY PREDICTED BY IDOCK:   -6.38 KCAL/MOL
REMARK 923 INTER-LIGAND FREE ENERGY PREDICTED BY IDOCK:   -5.53 KCAL/MOL
REMARK 924 INTRA-LIGAND FREE ENERGY PREDICTED BY IDOCK:   -0.84 KCAL/MOL
REMARK 927      BINDING AFFINITY PREDICTED BY RF-SCORE:    0.00 PKD
ROOT
HETATM    1  C   UNL     1      -6.424  16.260  67.653  1.00  0.00    -0.183 C  
HETATM    2  C   UNL     1      -7.494  15.215  67.637  1.00  0.00    -0.181 A  
HETATM    3  N   UNL     1      -7.222  14.069  66.989  1.00  0.00     0.100 NA 
HETATM    4  C   UNL     1      -8.131  13.093  67.093  1.00  0.00    -0.098 A  
HETATM    5  C   UNL     1      -9.537  14.485  68.399  1.00  0.00    -0.213 A  
HETATM    6  C   UNL     1      -9.258  13.249  67.857  1.00  0.00    -0.213 A  
HETATM    7  N   UNL     1      -8.629  15.472  68.316  1.00  0.00    -0.158 NA 
ENDROOT
BRANCH   4   8
HETATM    8  N   UNL     1      -7.858  11.912  66.413  1.00  0.00    -0.382 NA 
HETATM    9  H   UNL     1      -7.835  11.977  65.395  1.00  0.00     0.000 HD 
BRANCH   8  10
HETATM   10  C   UNL     1      -7.618  10.691  66.933  1.00  0.00    -0.115 A  
HETATM   11  S   UNL     1      -7.152   9.448  65.849  1.00  0.00    -0.093 SA 
HETATM   12  N   UNL     1      -7.709  10.306  68.192  1.00  0.00    -0.091 NA 
HETATM   13  C   UNL     1      -7.562   8.936  68.289  1.00  0.00    -0.092 A  
HETATM   14  C   UNL     1      -7.317   8.290  67.097  1.00  0.00    -0.088 A  
BRANCH  14  15
HETATM   15  C   UNL     1      -7.260   6.874  66.825  1.00  0.00    -0.076 C  
HETATM   16  O   UNL     1      -6.223   6.226  66.919  1.00  0.00    -0.036 OA 
HETATM   17  H   UNL     1      -9.245   6.979  66.233  1.00  0.00     0.000 HD 
HETATM   18  N   UNL     1      -8.470   6.340  66.410  1.00  0.00    -0.120 N  
BRANCH  18  19
HETATM   19  C   UNL     1      -8.686   4.966  66.221  1.00  0.00    -0.115 A  
HETATM   20  C   UNL     1      -8.795   3.061  64.739  1.00  0.00    -0.113 A  
HETATM   21  C   UNL     1      -8.301   5.270  63.700  1.00  0.00    -0.118 C  
HETATM   22  C   UNL     1      -8.604   4.440  64.919  1.00  0.00    -0.130 A  
HETATM   23  C   UNL     1      -9.084   2.228  65.822  1.00  0.00    -0.076 A  
HETATM   24  C   UNL     1      -9.225   2.762  67.096  1.00  0.00    -0.176 A  
HETATM   25  C   UNL     1      -9.038   4.127  67.300  1.00  0.00    -0.144 A  
HETATM   26 CL   UNL     1      -9.445   4.753  68.867  1.00  0.00    -0.191 Cl 
ENDBRANCH  18  19
ENDBRANCH  14  15
ENDBRANCH   8  10
ENDBRANCH   4   8
BRANCH   5  27
HETATM   27  N   UNL     1     -10.750  14.671  69.075  1.00  0.00    -0.244 NA 
HETATM   28  C   UNL     1     -10.773  15.798  70.031  1.00  0.00    -0.341 C  
HETATM   29  C   UNL     1     -11.382  13.453  69.603  1.00  0.00    -0.137 C  
HETATM   30  N   UNL     1     -12.942  14.931  71.045  1.00  0.00    -0.352 NA 
HETATM   31  C   UNL     1     -12.226  16.087  70.457  1.00  0.00    -0.150 C  
HETATM   32  C   UNL     1     -12.820  13.789  70.089  1.00  0.00     0.041 C  
BRANCH  30  33
HETATM   33  C   UNL     1     -12.425  14.547  72.377  1.00  0.00    -0.267 C  
BRANCH  33  34
HETATM   34  C   UNL     1     -13.001  15.389  73.529  1.00  0.00    -0.528 C  
HETATM   35  H   UNL     1     -12.508  17.016  74.529  1.00  0.00     0.000 HD 
HETATM   36  O   UNL     1     -12.152  16.496  73.819  1.00  0.00    -0.455 OA 
ENDBRANCH  33  34
ENDBRANCH  30  33
ENDBRANCH   5  27
TORSDOF 7
ENDMDL
MODEL      193
REMARK 921   NORMALIZED FREE ENERGY PREDICTED BY IDOCK:   -4.24 KCAL/MOL
REMARK 922        TOTAL FREE ENERGY PREDICTED BY IDOCK:   -6.35 KCAL/MOL
REMARK 923 INTER-LIGAND FREE ENERGY PREDICTED BY IDOCK:   -5.11 KCAL/MOL
REMARK 924 INTRA-LIGAND FREE ENERGY PREDICTED BY IDOCK:   -1.25 KCAL/MOL
REMARK 927      BINDING AFFINITY PREDICTED BY RF-SCORE:    0.00 PKD
ROOT
HETATM    1  C   UNL     1      -6.064   8.233  71.136  1.00  0.00    -0.035 C  
HETATM    2  C   UNL     1      -6.465   9.425  70.326  1.00  0.00    -0.064 A  
HETATM    3  N   UNL     1      -5.665  10.504  70.383  1.00  0.00    -0.076 NA 
HETATM    4  C   UNL     1      -5.961  11.512  69.556  1.00  0.00    -0.086 A  
HETATM    5  C   UNL     1      -7.855  10.342  68.740  1.00  0.00    -0.108 A  
HETATM    6  C   UNL     1      -7.002  11.423  68.669  1.00  0.00    -0.087 A  
HETATM    7  N   UNL     1      -7.566   9.315  69.557  1.00  0.00    -0.077 NA 
ENDROOT
BRANCH   4   8
HETATM    8  N   UNL     1      -5.142  12.634  69.623  1.00  0.00    -0.072 NA 
HETATM    9  H   UNL     1      -4.291  12.533  70.176  1.00  0.00     0.000 HD 
BRANCH   8  10
HETATM   10  C   UNL     1      -5.334  13.838  69.047  1.00  0.00    -0.076 A  
HETATM   11  S   UNL     1      -5.928  15.102  70.040  1.00  0.00    -0.148 SA 
HETATM   12  N   UNL     1      -5.136  14.184  67.789  1.00  0.00    -0.295 NA 
HETATM   13  C   UNL     1      -5.625  15.454  67.556  1.00  0.00     0.024 A  
HETATM   14  C   UNL     1      -6.157  16.085  68.659  1.00  0.00    -0.108 A  
BRANCH  14  15
HETATM   15  C   UNL     1      -6.872  17.337  68.734  1.00  0.00    -0.219 C  
HETATM   16  O   UNL     1      -6.590  18.209  69.549  1.00  0.00    -0.234 OA 
HETATM   17  H   UNL     1      -8.167  16.604  67.289  1.00  0.00     0.000 HD 
HETATM   18  N   UNL     1      -7.923  17.430  67.835  1.00  0.00    -0.212 N  
BRANCH  18  19
HETATM   19  C   UNL     1      -8.669  18.602  67.634  1.00  0.00    -0.272 A  
HETATM   20  C   UNL     1     -10.653  19.908  68.079  1.00  0.00    -0.406 A  
HETATM   21  C   UNL     1     -10.523  17.658  69.140  1.00  0.00    -0.128 C  
HETATM   22  C   UNL     1      -9.922  18.722  68.262  1.00  0.00    -0.432 A  
HETATM   23  C   UNL     1     -10.162  20.938  67.274  1.00  0.00     0.130 A  
HETATM   24  C   UNL     1      -8.953  20.788  66.607  1.00  0.00     0.020 A  
HETATM   25  C   UNL     1      -8.208  19.622  66.775  1.00  0.00    -0.304 A  
HETATM   26 CL   UNL     1      -6.827  19.415  65.746  1.00  0.00    -0.284 Cl 
ENDBRANCH  18  19
ENDBRANCH  14  15
ENDBRANCH   8  10
ENDBRANCH   4   8
BRANCH   5  27
HETATM   27  N   UNL     1      -8.987  10.317  67.916  1.00  0.00    -0.131 NA 
HETATM   28  C   UNL     1      -8.738  10.634  66.493  1.00  0.00    -0.146 C  
HETATM   29  C   UNL     1     -10.186  10.979  68.453  1.00  0.00    -0.185 C  
HETATM   30  N   UNL     1     -11.236  10.915  66.089  1.00  0.00    -0.003 NA 
HETATM   31  C   UNL     1      -9.978  10.265  65.655  1.00  0.00    -0.280 C  
HETATM   32  C   UNL     1     -11.406  10.645  67.549  1.00  0.00    -0.162 C  
BRANCH  30  33
HETATM   33  C   UNL     1     -11.255  12.371  65.827  1.00  0.00    -0.333 C  
BRANCH  33  34
HETATM   34  C   UNL     1     -12.599  13.041  66.166  1.00  0.00     0.071 C  
HETATM   35  H   UNL     1     -13.304  14.874  66.349  1.00  0.00     0.000 HD 
HETATM   36  O   UNL     1     -12.475  14.460  66.140  1.00  0.00    -0.392 OA 
ENDBRANCH  33  34
ENDBRANCH  30  33
ENDBRANCH   5  27
TORSDOF 7
ENDMDL
MODEL      194
REMARK 921   NORMALIZED FREE ENERGY PREDICTED BY IDOCK:   -4.22 KCAL/MOL
REMARK 922        TOTAL FREE ENERGY PREDICTED BY IDOCK:   -6.33 KCAL/MOL
REMARK 923 INTER-LIGAND FREE ENERGY PREDICTED BY IDOCK:   -5.44 KCAL/MOL
REMARK 924 INTRA-LIGAND FREE ENERGY PREDICTED BY IDOCK:   -0.89 KCAL/MOL
REMARK 927      BINDING AFFINITY PREDICTED BY RF-SCORE:    0.00 PKD
ROOT
HETATM    1  C   UNL     1      -8.160   8.393  72.706  1.00  0.00    -0.168 C  
HETATM    2  C   UNL     1      -7.545   8.868  71.427  1.00  0.00    -0.084 A  
HETATM    3  N   UNL     1      -6.708   9.917  71.501  1.00  0.00    -0.201 NA 
HETATM    4  C   UNL     1      -6.065  10.249  70.376  1.00  0.00    -0.110 A  
HETATM    5  C   UNL     1      -7.182   8.533  69.181  1.00  0.00    -0.068 A  
HETATM    6  C   UNL     1      -6.224   9.523  69.225  1.00  0.00    -0.040 A  
HETATM    7  N   UNL     1      -7.829   8.179  70.304  1.00  0.00    -0.091 NA 
ENDROOT
BRANCH   4   8
HETATM    8  N   UNL     1      -5.208  11.342  70.448  1.00  0.00    -0.090 NA 
HETATM    9  H   UNL     1      -4.217  11.143  70.311  1.00  0.00     0.000 HD 
BRANCH   8  10
HETATM   10  C   UNL     1      -5.527  12.633  70.676  1.00  0.00    -0.172 A  
HETATM   11  S   UNL     1      -6.320  13.484  69.417  1.00  0.00    -0.103 SA 
HETATM   12  N   UNL     1      -5.295  13.354  71.756  1.00  0.00    -0.313 NA 
HETATM   13  C   UNL     1      -5.609  14.679  71.527  1.00  0.00    -0.054 A  
HETATM   14  C   UNL     1      -6.121  14.950  70.277  1.00  0.00    -0.158 A  
BRANCH  14  15
HETATM   15  C   UNL     1      -6.411  16.226  69.669  1.00  0.00    -0.190 C  
HETATM   16  O   UNL     1      -7.538  16.538  69.298  1.00  0.00    -0.233 OA 
HETATM   17  H   UNL     1      -4.379  16.635  69.724  1.00  0.00     0.000 HD 
HETATM   18  N   UNL     1      -5.294  17.031  69.509  1.00  0.00    -0.151 N  
BRANCH  18  19
HETATM   19  C   UNL     1      -5.356  18.362  69.069  1.00  0.00    -0.197 A  
HETATM   20  C   UNL     1      -5.417  20.723  69.581  1.00  0.00    -0.408 A  
HETATM   21  C   UNL     1      -5.353  19.152  71.513  1.00  0.00    -0.325 C  
HETATM   22  C   UNL     1      -5.382  19.392  70.028  1.00  0.00    -0.229 A  
HETATM   23  C   UNL     1      -5.449  21.023  68.218  1.00  0.00    -0.376 A  
HETATM   24  C   UNL     1      -5.486  20.002  67.277  1.00  0.00    -0.172 A  
HETATM   25  C   UNL     1      -5.449  18.673  67.696  1.00  0.00    -0.163 A  
HETATM   26 CL   UNL     1      -5.719  17.458  66.486  1.00  0.00    -0.228 Cl 
ENDBRANCH  18  19
ENDBRANCH  14  15
ENDBRANCH   8  10
ENDBRANCH   4   8
BRANCH   5  27
HETATM   27  N   UNL     1      -7.426   7.879  67.967  1.00  0.00    -0.105 NA 
HETATM   28  C   UNL     1      -8.852   7.659  67.644  1.00  0.00    -0.125 C  
HETATM   29  C   UNL     1      -6.584   6.705  67.690  1.00  0.00    -0.054 C  
HETATM   30  N   UNL     1      -8.212   6.028  65.796  1.00  0.00    -0.129 NA 
HETATM   31  C   UNL     1      -8.990   7.232  66.170  1.00  0.00    -0.149 C  
HETATM   32  C   UNL     1      -6.797   6.255  66.218  1.00  0.00    -0.061 C  
BRANCH  30  33
HETATM   33  C   UNL     1      -8.740   4.787  66.405  1.00  0.00    -0.112 C  
BRANCH  33  34
HETATM   34  C   UNL     1      -9.651   3.978  65.465  1.00  0.00    -0.189 C  
HETATM   35  H   UNL     1     -11.557   3.951  64.956  1.00  0.00     0.000 HD 
HETATM   36  O   UNL     1     -10.994   4.450  65.536  1.00  0.00    -0.192 OA 
ENDBRANCH  33  34
ENDBRANCH  30  33
ENDBRANCH   5  27
TORSDOF 7
ENDMDL
MODEL      195
REMARK 921   NORMALIZED FREE ENERGY PREDICTED BY IDOCK:   -4.21 KCAL/MOL
REMARK 922        TOTAL FREE ENERGY PREDICTED BY IDOCK:   -6.31 KCAL/MOL
REMARK 923 INTER-LIGAND FREE ENERGY PREDICTED BY IDOCK:   -6.27 KCAL/MOL
REMARK 924 INTRA-LIGAND FREE ENERGY PREDICTED BY IDOCK:   -0.04 KCAL/MOL
REMARK 927      BINDING AFFINITY PREDICTED BY RF-SCORE:    0.00 PKD
ROOT
HETATM    1  C   UNL     1     -12.232  11.258  69.687  1.00  0.00    -0.340 C  
HETATM    2  C   UNL     1     -11.109  11.889  68.926  1.00  0.00    -0.247 A  
HETATM    3  N   UNL     1     -10.147  11.071  68.464  1.00  0.00    -0.183 NA 
HETATM    4  C   UNL     1      -9.220  11.626  67.675  1.00  0.00    -0.178 A  
HETATM    5  C   UNL     1     -10.223  13.759  67.925  1.00  0.00    -0.245 A  
HETATM    6  C   UNL     1      -9.282  12.950  67.326  1.00  0.00    -0.208 A  
HETATM    7  N   UNL     1     -11.169  13.217  68.710  1.00  0.00    -0.262 NA 
ENDROOT
BRANCH   4   8
HETATM    8  N   UNL     1      -8.216  10.785  67.207  1.00  0.00    -0.120 NA 
HETATM    9  H   UNL     1      -7.506  11.221  66.619  1.00  0.00     0.000 HD 
BRANCH   8  10
HETATM   10  C   UNL     1      -8.067   9.464  67.435  1.00  0.00    -0.110 A  
HETATM   11  S   UNL     1      -9.490   8.537  67.667  1.00  0.00    -0.149 SA 
HETATM   12  N   UNL     1      -6.948   8.770  67.520  1.00  0.00    -0.074 NA 
HETATM   13  C   UNL     1      -7.210   7.483  67.947  1.00  0.00    -0.090 A  
HETATM   14  C   UNL     1      -8.543   7.194  68.143  1.00  0.00    -0.129 A  
BRANCH  14  15
HETATM   15  C   UNL     1      -9.143   6.013  68.715  1.00  0.00    -0.124 C  
HETATM   16  O   UNL     1     -10.142   5.484  68.237  1.00  0.00    -0.152 OA 
HETATM   17  H   UNL     1      -7.772   6.151  70.264  1.00  0.00     0.000 HD 
HETATM   18  N   UNL     1      -8.511   5.572  69.867  1.00  0.00    -0.114 N  
BRANCH  18  19
HETATM   19  C   UNL     1      -8.834   4.370  70.515  1.00  0.00    -0.091 A  
HETATM   20  C   UNL     1      -8.524   1.985  70.753  1.00  0.00    -0.084 A  
HETATM   21  C   UNL     1      -7.226   3.116  68.953  1.00  0.00    -0.049 C  
HETATM   22  C   UNL     1      -8.217   3.181  70.084  1.00  0.00    -0.067 A  
HETATM   23  C   UNL     1      -9.438   1.966  71.808  1.00  0.00    -0.183 A  
HETATM   24  C   UNL     1     -10.090   3.131  72.190  1.00  0.00    -0.200 A  
HETATM   25  C   UNL     1      -9.800   4.331  71.543  1.00  0.00    -0.189 A  
HETATM   26 CL   UNL     1     -10.807   5.693  71.920  1.00  0.00    -0.301 Cl 
ENDBRANCH  18  19
ENDBRANCH  14  15
ENDBRANCH   8  10
ENDBRANCH   4   8
BRANCH   5  27
HETATM   27  N   UNL     1     -10.202  15.134  67.659  1.00  0.00    -0.239 NA 
HETATM   28  C   UNL     1     -10.095  15.498  66.230  1.00  0.00    -0.295 C  
HETATM   29  C   UNL     1      -9.332  15.942  68.527  1.00  0.00    -0.206 C  
HETATM   30  N   UNL     1      -9.547  17.905  66.854  1.00  0.00    -0.289 NA 
HETATM   31  C   UNL     1     -10.401  16.998  66.053  1.00  0.00    -0.315 C  
HETATM   32  C   UNL     1      -9.613  17.451  68.276  1.00  0.00    -0.292 C  
BRANCH  30  33
HETATM   33  C   UNL     1      -8.143  17.940  66.388  1.00  0.00    -0.261 C  
BRANCH  33  34
HETATM   34  C   UNL     1      -7.226  18.819  67.256  1.00  0.00    -0.209 C  
HETATM   35  H   UNL     1      -7.097  20.718  67.776  1.00  0.00     0.000 HD 
HETATM   36  O   UNL     1      -7.663  20.175  67.239  1.00  0.00    -0.279 OA 
ENDBRANCH  33  34
ENDBRANCH  30  33
ENDBRANCH   5  27
TORSDOF 7
ENDMDL
MODEL      196
REMARK 921   NORMALIZED FREE ENERGY PREDICTED BY IDOCK:   -4.14 KCAL/MOL
REMARK 922        TOTAL FREE ENERGY PREDICTED BY IDOCK:   -6.21 KCAL/MOL
REMARK 923 INTER-LIGAND FREE ENERGY PREDICTED BY IDOCK:   -5.57 KCAL/MOL
REMARK 924 INTRA-LIGAND FREE ENERGY PREDICTED BY IDOCK:   -0.64 KCAL/MOL
REMARK 927      BINDING AFFINITY PREDICTED BY RF-SCORE:    0.00 PKD
ROOT
HETATM    1  C   UNL     1      -5.352  16.136  68.790  1.00  0.00    -0.111 C  
HETATM    2  C   UNL     1      -6.404  15.123  68.464  1.00  0.00    -0.092 A  
HETATM    3  N   UNL     1      -5.990  13.956  67.940  1.00  0.00    -0.161 NA 
HETATM    4  C   UNL     1      -6.923  13.011  67.775  1.00  0.00    -0.143 A  
HETATM    5  C   UNL     1      -8.605  14.471  68.587  1.00  0.00    -0.168 A  
HETATM    6  C   UNL     1      -8.220  13.216  68.165  1.00  0.00    -0.160 A  
HETATM    7  N   UNL     1      -7.681  15.428  68.769  1.00  0.00    -0.139 NA 
ENDROOT
BRANCH   4   8
HETATM    8  N   UNL     1      -6.499  11.808  67.221  1.00  0.00    -0.116 NA 
HETATM    9  H   UNL     1      -6.111  11.863  66.279  1.00  0.00     0.000 HD 
BRANCH   8  10
HETATM   10  C   UNL     1      -6.537  10.579  67.775  1.00  0.00    -0.061 A  
HETATM   11  S   UNL     1      -8.058  10.006  68.318  1.00  0.00    -0.106 SA 
HETATM   12  N   UNL     1      -5.538   9.741  67.976  1.00  0.00    -0.040 NA 
HETATM   13  C   UNL     1      -5.957   8.666  68.735  1.00  0.00    -0.044 A  
HETATM   14  C   UNL     1      -7.292   8.675  69.073  1.00  0.00    -0.077 A  
BRANCH  14  15
HETATM   15  C   UNL     1      -8.011   7.797  69.964  1.00  0.00    -0.113 C  
HETATM   16  O   UNL     1      -8.938   8.187  70.667  1.00  0.00    -0.143 OA 
HETATM   17  H   UNL     1      -6.668   6.300  69.460  1.00  0.00     0.000 HD 
HETATM   18  N   UNL     1      -7.525   6.499  69.976  1.00  0.00    -0.092 N  
BRANCH  18  19
HETATM   19  C   UNL     1      -8.149   5.445  70.660  1.00  0.00    -0.110 A  
HETATM   20  C   UNL     1      -8.328   4.060  72.632  1.00  0.00    -0.099 A  
HETATM   21  C   UNL     1      -6.540   5.794  72.631  1.00  0.00    -0.067 C  
HETATM   22  C   UNL     1      -7.683   5.099  71.942  1.00  0.00    -0.109 A  
HETATM   23  C   UNL     1      -9.393   3.366  72.055  1.00  0.00    -0.186 A  
HETATM   24  C   UNL     1      -9.808   3.670  70.765  1.00  0.00    -0.142 A  
HETATM   25  C   UNL     1      -9.186   4.699  70.061  1.00  0.00    -0.123 A  
HETATM   26 CL   UNL     1      -9.607   4.874  68.386  1.00  0.00    -0.187 Cl 
ENDBRANCH  18  19
ENDBRANCH  14  15
ENDBRANCH   8  10
ENDBRANCH   4   8
BRANCH   5  27
HETATM   27  N   UNL     1      -9.957  14.706  68.865  1.00  0.00    -0.235 NA 
HETATM   28  C   UNL     1     -10.221  15.771  69.856  1.00  0.00    -0.273 C  
HETATM   29  C   UNL     1     -10.788  13.509  69.070  1.00  0.00    -0.192 C  
HETATM   30  N   UNL     1     -12.642  15.010  70.073  1.00  0.00    -0.261 NA 
HETATM   31  C   UNL     1     -11.716  16.142  69.833  1.00  0.00    -0.184 C  
HETATM   32  C   UNL     1     -12.286  13.923  69.112  1.00  0.00    -0.267 C  
BRANCH  30  33
HETATM   33  C   UNL     1     -12.591  14.507  71.464  1.00  0.00    -0.348 C  
BRANCH  33  34
HETATM   34  C   UNL     1     -13.696  15.082  72.368  1.00  0.00    -0.480 C  
HETATM   35  H   UNL     1     -13.851  16.440  73.790  1.00  0.00     0.000 HD 
HETATM   36  O   UNL     1     -13.169  16.085  73.232  1.00  0.00    -0.544 OA 
ENDBRANCH  33  34
ENDBRANCH  30  33
ENDBRANCH   5  27
TORSDOF 7
ENDMDL
MODEL      197
REMARK 921   NORMALIZED FREE ENERGY PREDICTED BY IDOCK:   -4.04 KCAL/MOL
REMARK 922        TOTAL FREE ENERGY PREDICTED BY IDOCK:   -6.06 KCAL/MOL
REMARK 923 INTER-LIGAND FREE ENERGY PREDICTED BY IDOCK:   -5.65 KCAL/MOL
REMARK 924 INTRA-LIGAND FREE ENERGY PREDICTED BY IDOCK:   -0.41 KCAL/MOL
REMARK 927      BINDING AFFINITY PREDICTED BY RF-SCORE:    0.00 PKD
ROOT
HETATM    1  C   UNL     1     -13.100   7.271  71.933  1.00  0.00    -0.290 C  
HETATM    2  C   UNL     1     -12.084   7.913  71.042  1.00  0.00    -0.230 A  
HETATM    3  N   UNL     1     -12.352   9.156  70.603  1.00  0.00    -0.049 NA 
HETATM    4  C   UNL     1     -11.380   9.769  69.918  1.00  0.00    -0.192 A  
HETATM    5  C   UNL     1      -9.994   7.853  70.087  1.00  0.00    -0.190 A  
HETATM    6  C   UNL     1     -10.164   9.170  69.716  1.00  0.00    -0.219 A  
HETATM    7  N   UNL     1     -10.954   7.226  70.787  1.00  0.00    -0.245 NA 
ENDROOT
BRANCH   4   8
HETATM    8  N   UNL     1     -11.660  11.049  69.452  1.00  0.00    -0.283 NA 
HETATM    9  H   UNL     1     -12.468  11.510  69.870  1.00  0.00     0.000 HD 
BRANCH   8  10
HETATM   10  C   UNL     1     -10.994  11.756  68.516  1.00  0.00    -0.227 A  
HETATM   11  S   UNL     1     -10.187  13.178  69.027  1.00  0.00     0.217 SA 
HETATM   12  N   UNL     1     -10.886  11.505  67.225  1.00  0.00    -0.241 NA 
HETATM   13  C   UNL     1     -10.277  12.563  66.578  1.00  0.00    -0.240 A  
HETATM   14  C   UNL     1      -9.887  13.600  67.396  1.00  0.00    -0.234 A  
BRANCH  14  15
HETATM   15  C   UNL     1      -9.365  14.896  67.036  1.00  0.00    -0.227 C  
HETATM   16  O   UNL     1      -9.555  15.399  65.933  1.00  0.00    -0.319 OA 
HETATM   17  H   UNL     1      -8.389  14.934  68.865  1.00  0.00     0.000 HD 
HETATM   18  N   UNL     1      -8.603  15.484  68.033  1.00  0.00    -0.154 N  
BRANCH  18  19
HETATM   19  C   UNL     1      -8.110  16.796  67.959  1.00  0.00    -0.187 A  
HETATM   20  C   UNL     1      -6.240  18.306  67.713  1.00  0.00    -0.180 A  
HETATM   21  C   UNL     1      -5.726  15.869  67.735  1.00  0.00    -0.164 C  
HETATM   22  C   UNL     1      -6.725  16.992  67.813  1.00  0.00    -0.163 A  
HETATM   23  C   UNL     1      -7.106  19.399  67.782  1.00  0.00    -0.276 A  
HETATM   24  C   UNL     1      -8.465  19.202  67.989  1.00  0.00    -0.345 A  
HETATM   25  C   UNL     1      -8.971  17.907  68.088  1.00  0.00    -0.268 A  
HETATM   26 CL   UNL     1     -10.631  17.744  68.563  1.00  0.00    -0.315 Cl 
ENDBRANCH  18  19
ENDBRANCH  14  15
ENDBRANCH   8  10
ENDBRANCH   4   8
BRANCH   5  27
HETATM   27  N   UNL     1      -8.792   7.210  69.767  1.00  0.00    -0.142 NA 
HETATM   28  C   UNL     1      -7.567   7.993  70.032  1.00  0.00    -0.082 C  
HETATM   29  C   UNL     1      -8.763   6.513  68.472  1.00  0.00    -0.122 C  
HETATM   30  N   UNL     1      -6.186   6.355  68.655  1.00  0.00    -0.031 NA 
HETATM   31  C   UNL     1      -6.333   7.074  69.942  1.00  0.00    -0.038 C  
HETATM   32  C   UNL     1      -7.474   5.648  68.381  1.00  0.00    -0.077 C  
BRANCH  30  33
HETATM   33  C   UNL     1      -5.840   7.251  67.529  1.00  0.00    -0.030 C  
BRANCH  33  34
HETATM   34  C   UNL     1      -5.747   8.735  67.927  1.00  0.00    -0.035 C  
HETATM   35  H   UNL     1      -6.531  10.449  67.345  1.00  0.00     0.000 HD 
HETATM   36  O   UNL     1      -6.588   9.533  67.099  1.00  0.00    -0.069 OA 
ENDBRANCH  33  34
ENDBRANCH  30  33
ENDBRANCH   5  27
TORSDOF 7
ENDMDL
MODEL      198
REMARK 921   NORMALIZED FREE ENERGY PREDICTED BY IDOCK:   -4.02 KCAL/MOL
REMARK 922        TOTAL FREE ENERGY PREDICTED BY IDOCK:   -6.04 KCAL/MOL
REMARK 923 INTER-LIGAND FREE ENERGY PREDICTED BY IDOCK:   -5.44 KCAL/MOL
REMARK 924 INTRA-LIGAND FREE ENERGY PREDICTED BY IDOCK:   -0.60 KCAL/MOL
REMARK 927      BINDING AFFINITY PREDICTED BY RF-SCORE:    0.00 PKD
ROOT
HETATM    1  C   UNL     1      -7.732   7.039  71.377  1.00  0.00    -0.094 C  
HETATM    2  C   UNL     1      -7.377   7.950  70.244  1.00  0.00    -0.065 A  
HETATM    3  N   UNL     1      -7.005   9.203  70.559  1.00  0.00    -0.071 NA 
HETATM    4  C   UNL     1      -6.564   9.965  69.552  1.00  0.00    -0.051 A  
HETATM    5  C   UNL     1      -6.967   8.220  67.999  1.00  0.00    -0.081 A  
HETATM    6  C   UNL     1      -6.460   9.471  68.277  1.00  0.00    -0.053 A  
HETATM    7  N   UNL     1      -7.402   7.436  68.999  1.00  0.00    -0.088 NA 
ENDROOT
BRANCH   4   8
HETATM    8  N   UNL     1      -6.191  11.266  69.873  1.00  0.00    -0.123 NA 
HETATM    9  H   UNL     1      -5.736  11.390  70.777  1.00  0.00     0.000 HD 
BRANCH   8  10
HETATM   10  C   UNL     1      -6.357  12.383  69.135  1.00  0.00    -0.095 A  
HETATM   11  S   UNL     1      -6.527  13.866  69.977  1.00  0.00     0.005 SA 
HETATM   12  N   UNL     1      -6.423  12.494  67.822  1.00  0.00    -0.103 NA 
HETATM   13  C   UNL     1      -6.783  13.779  67.465  1.00  0.00    -0.115 A  
HETATM   14  C   UNL     1      -6.949  14.652  68.517  1.00  0.00    -0.110 A  
BRANCH  14  15
HETATM   15  C   UNL     1      -7.457  16.003  68.507  1.00  0.00    -0.156 C  
HETATM   16  O   UNL     1      -7.243  16.794  69.421  1.00  0.00    -0.221 OA 
HETATM   17  H   UNL     1      -8.468  15.536  66.758  1.00  0.00     0.000 HD 
HETATM   18  N   UNL     1      -8.234  16.295  67.398  1.00  0.00    -0.154 N  
BRANCH  18  19
HETATM   19  C   UNL     1      -8.718  17.580  67.108  1.00  0.00    -0.237 A  
HETATM   20  C   UNL     1      -8.364  19.768  66.145  1.00  0.00    -0.368 A  
HETATM   21  C   UNL     1      -6.453  18.173  66.051  1.00  0.00    -0.287 C  
HETATM   22  C   UNL     1      -7.867  18.492  66.456  1.00  0.00    -0.279 A  
HETATM   23  C   UNL     1      -9.665  20.138  66.493  1.00  0.00    -0.553 A  
HETATM   24  C   UNL     1     -10.479  19.255  67.191  1.00  0.00    -0.560 A  
HETATM   25  C   UNL     1     -10.009  17.982  67.509  1.00  0.00    -0.327 A  
HETATM   26 CL   UNL     1     -10.993  17.021  68.567  1.00  0.00    -0.302 Cl 
ENDBRANCH  18  19
ENDBRANCH  14  15
ENDBRANCH   8  10
ENDBRANCH   4   8
BRANCH   5  27
HETATM   27  N   UNL     1      -6.970   7.771  66.672  1.00  0.00    -0.070 NA 
HETATM   28  C   UNL     1      -5.768   8.119  65.885  1.00  0.00    -0.037 C  
HETATM   29  C   UNL     1      -8.223   7.974  65.929  1.00  0.00    -0.127 C  
HETATM   30  N   UNL     1      -6.958   7.478  63.727  1.00  0.00    -0.057 NA 
HETATM   31  C   UNL     1      -5.753   7.311  64.574  1.00  0.00    -0.033 C  
HETATM   32  C   UNL     1      -8.153   7.203  64.581  1.00  0.00    -0.083 C  
BRANCH  30  33
HETATM   33  C   UNL     1      -7.055   8.825  63.121  1.00  0.00    -0.089 C  
BRANCH  33  34
HETATM   34  C   UNL     1      -8.369   9.062  62.355  1.00  0.00    -0.189 C  
HETATM   35  H   UNL     1      -9.977  10.190  62.541  1.00  0.00     0.000 HD 
HETATM   36  O   UNL     1      -9.165  10.043  63.013  1.00  0.00    -0.262 OA 
ENDBRANCH  33  34
ENDBRANCH  30  33
ENDBRANCH   5  27
TORSDOF 7
ENDMDL
MODEL      199
REMARK 921   NORMALIZED FREE ENERGY PREDICTED BY IDOCK:   -3.98 KCAL/MOL
REMARK 922        TOTAL FREE ENERGY PREDICTED BY IDOCK:   -5.99 KCAL/MOL
REMARK 923 INTER-LIGAND FREE ENERGY PREDICTED BY IDOCK:   -5.00 KCAL/MOL
REMARK 924 INTRA-LIGAND FREE ENERGY PREDICTED BY IDOCK:   -1.00 KCAL/MOL
REMARK 927      BINDING AFFINITY PREDICTED BY RF-SCORE:    0.00 PKD
ROOT
HETATM    1  C   UNL     1     -12.235  14.662  67.757  1.00  0.00    -0.082 C  
HETATM    2  C   UNL     1     -10.864  14.070  67.653  1.00  0.00    -0.262 A  
HETATM    3  N   UNL     1     -10.781  12.775  67.303  1.00  0.00    -0.235 NA 
HETATM    4  C   UNL     1      -9.552  12.293  67.086  1.00  0.00    -0.200 A  
HETATM    5  C   UNL     1      -8.587  14.383  67.652  1.00  0.00    -0.185 A  
HETATM    6  C   UNL     1      -8.446  13.097  67.176  1.00  0.00    -0.173 A  
HETATM    7  N   UNL     1      -9.814  14.887  67.864  1.00  0.00    -0.213 NA 
ENDROOT
BRANCH   4   8
HETATM    8  N   UNL     1      -9.463  10.950  66.736  1.00  0.00    -0.175 NA 
HETATM    9  H   UNL     1      -9.858  10.697  65.830  1.00  0.00     0.000 HD 
BRANCH   8  10
HETATM   10  C   UNL     1      -8.918   9.942  67.447  1.00  0.00    -0.135 A  
HETATM   11  S   UNL     1      -9.909   9.176  68.616  1.00  0.00    -0.168 SA 
HETATM   12  N   UNL     1      -7.692   9.459  67.375  1.00  0.00    -0.095 NA 
HETATM   13  C   UNL     1      -7.470   8.555  68.395  1.00  0.00    -0.095 A  
HETATM   14  C   UNL     1      -8.552   8.324  69.215  1.00  0.00    -0.138 A  
BRANCH  14  15
HETATM   15  C   UNL     1      -8.619   7.564  70.440  1.00  0.00    -0.143 C  
HETATM   16  O   UNL     1      -9.315   7.905  71.391  1.00  0.00    -0.139 OA 
HETATM   17  H   UNL     1      -7.152   6.319  69.665  1.00  0.00     0.000 HD 
HETATM   18  N   UNL     1      -7.794   6.449  70.447  1.00  0.00    -0.105 N  
BRANCH  18  19
HETATM   19  C   UNL     1      -7.796   5.491  71.472  1.00  0.00    -0.111 A  
HETATM   20  C   UNL     1      -6.885   4.668  73.554  1.00  0.00    -0.069 A  
HETATM   21  C   UNL     1      -5.844   6.721  72.601  1.00  0.00    -0.038 C  
HETATM   22  C   UNL     1      -6.861   5.615  72.517  1.00  0.00    -0.077 A  
HETATM   23  C   UNL     1      -7.797   3.611  73.542  1.00  0.00    -0.075 A  
HETATM   24  C   UNL     1      -8.676   3.458  72.477  1.00  0.00    -0.097 A  
HETATM   25  C   UNL     1      -8.674   4.387  71.438  1.00  0.00    -0.112 A  
HETATM   26 CL   UNL     1      -9.639   4.013  70.045  1.00  0.00    -0.265 Cl 
ENDBRANCH  18  19
ENDBRANCH  14  15
ENDBRANCH   8  10
ENDBRANCH   4   8
BRANCH   5  27
HETATM   27  N   UNL     1      -7.439  15.158  67.859  1.00  0.00    -0.124 NA 
HETATM   28  C   UNL     1      -7.144  15.484  69.271  1.00  0.00    -0.186 C  
HETATM   29  C   UNL     1      -7.267  16.305  66.954  1.00  0.00    -0.222 C  
HETATM   30  N   UNL     1      -5.451  17.240  68.541  1.00  0.00    -0.143 NA 
HETATM   31  C   UNL     1      -5.716  16.052  69.384  1.00  0.00    -0.125 C  
HETATM   32  C   UNL     1      -5.843  16.899  67.141  1.00  0.00    -0.172 C  
BRANCH  30  33
HETATM   33  C   UNL     1      -6.173  18.448  69.001  1.00  0.00    -0.233 C  
BRANCH  33  34
HETATM   34  C   UNL     1      -5.597  19.761  68.442  1.00  0.00    -0.203 C  
HETATM   35  H   UNL     1      -6.108  21.123  67.110  1.00  0.00     0.000 HD 
HETATM   36  O   UNL     1      -6.464  20.312  67.455  1.00  0.00    -0.201 OA 
ENDBRANCH  33  34
ENDBRANCH  30  33
ENDBRANCH   5  27
TORSDOF 7
ENDMDL
MODEL      200
REMARK 921   NORMALIZED FREE ENERGY PREDICTED BY IDOCK:   -3.95 KCAL/MOL
REMARK 922        TOTAL FREE ENERGY PREDICTED BY IDOCK:   -5.95 KCAL/MOL
REMARK 923 INTER-LIGAND FREE ENERGY PREDICTED BY IDOCK:   -5.32 KCAL/MOL
REMARK 924 INTRA-LIGAND FREE ENERGY PREDICTED BY IDOCK:   -0.63 KCAL/MOL
REMARK 927      BINDING AFFINITY PREDICTED BY RF-SCORE:    0.00 PKD
ROOT
HETATM    1  C   UNL     1     -10.459   5.231  69.822  1.00  0.00    -0.340 C  
HETATM    2  C   UNL     1      -9.308   5.445  68.890  1.00  0.00    -0.127 A  
HETATM    3  N   UNL     1      -8.422   6.400  69.220  1.00  0.00    -0.125 NA 
HETATM    4  C   UNL     1      -7.330   6.493  68.452  1.00  0.00    -0.087 A  
HETATM    5  C   UNL     1      -8.115   4.747  67.053  1.00  0.00    -0.106 A  
HETATM    6  C   UNL     1      -7.116   5.626  67.412  1.00  0.00    -0.074 A  
HETATM    7  N   UNL     1      -9.212   4.632  67.820  1.00  0.00    -0.120 NA 
ENDROOT
BRANCH   4   8
HETATM    8  N   UNL     1      -6.419   7.489  68.784  1.00  0.00    -0.046 NA 
HETATM    9  H   UNL     1      -5.509   7.169  69.116  1.00  0.00     0.000 HD 
BRANCH   8  10
HETATM   10  C   UNL     1      -6.589   8.826  68.720  1.00  0.00    -0.054 A  
HETATM   11  S   UNL     1      -8.114   9.402  68.192  1.00  0.00    -0.110 SA 
HETATM   12  N   UNL     1      -5.718   9.776  69.001  1.00  0.00    -0.035 NA 
HETATM   13  C   UNL     1      -6.216  11.010  68.633  1.00  0.00    -0.043 A  
HETATM   14  C   UNL     1      -7.489  10.992  68.108  1.00  0.00    -0.092 A  
BRANCH  14  15
HETATM   15  C   UNL     1      -8.238  12.066  67.499  1.00  0.00    -0.159 C  
HETATM   16  O   UNL     1      -7.702  13.085  67.076  1.00  0.00    -0.082 OA 
HETATM   17  H   UNL     1      -9.972  11.034  67.975  1.00  0.00     0.000 HD 
HETATM   18  N   UNL     1      -9.607  11.848  67.482  1.00  0.00    -0.173 N  
BRANCH  18  19
HETATM   19  C   UNL     1     -10.516  12.688  66.821  1.00  0.00    -0.240 A  
HETATM   20  C   UNL     1     -11.773  13.239  64.832  1.00  0.00    -0.375 A  
HETATM   21  C   UNL     1     -10.266  11.260  64.701  1.00  0.00    -0.357 C  
HETATM   22  C   UNL     1     -10.842  12.410  65.480  1.00  0.00    -0.316 A  
HETATM   23  C   UNL     1     -12.347  14.328  65.490  1.00  0.00    -0.417 A  
HETATM   24  C   UNL     1     -11.975  14.634  66.793  1.00  0.00    -0.297 A  
HETATM   25  C   UNL     1     -11.055  13.825  67.458  1.00  0.00    -0.278 A  
HETATM   26 CL   UNL     1     -10.476  14.390  68.993  1.00  0.00    -0.241 Cl 
ENDBRANCH  18  19
ENDBRANCH  14  15
ENDBRANCH   8  10
ENDBRANCH   4   8
BRANCH   5  27
HETATM   27  N   UNL     1      -7.939   3.951  65.914  1.00  0.00    -0.093 NA 
HETATM   28  C   UNL     1      -7.986   4.674  64.626  1.00  0.00    -0.097 C  
HETATM   29  C   UNL     1      -8.690   2.687  65.894  1.00  0.00    -0.127 C  
HETATM   30  N   UNL     1      -8.190   2.472  63.364  1.00  0.00    -0.080 NA 
HETATM   31  C   UNL     1      -7.470   3.759  63.498  1.00  0.00    -0.058 C  
HETATM   32  C   UNL     1      -8.197   1.814  64.705  1.00  0.00    -0.079 C  
BRANCH  30  33
HETATM   33  C   UNL     1      -9.573   2.634  62.861  1.00  0.00    -0.092 C  
BRANCH  33  34
HETATM   34  C   UNL     1     -10.506   1.470  63.239  1.00  0.00    -0.137 C  
HETATM   35  H   UNL     1     -12.398   0.978  62.974  1.00  0.00     0.000 HD 
HETATM   36  O   UNL     1     -11.822   1.696  62.741  1.00  0.00    -0.261 OA 
ENDBRANCH  33  34
ENDBRANCH  30  33
ENDBRANCH   5  27
TORSDOF 7
ENDMDL
MODEL      201
REMARK 921   NORMALIZED FREE ENERGY PREDICTED BY IDOCK:   -3.86 KCAL/MOL
REMARK 922        TOTAL FREE ENERGY PREDICTED BY IDOCK:   -5.82 KCAL/MOL
REMARK 923 INTER-LIGAND FREE ENERGY PREDICTED BY IDOCK:   -5.44 KCAL/MOL
REMARK 924 INTRA-LIGAND FREE ENERGY PREDICTED BY IDOCK:   -0.38 KCAL/MOL
REMARK 927      BINDING AFFINITY PREDICTED BY RF-SCORE:    0.00 PKD
ROOT
HETATM    1  C   UNL     1     -12.218  11.188  69.647  1.00  0.00    -0.360 C  
HETATM    2  C   UNL     1     -11.090  11.939  69.014  1.00  0.00    -0.246 A  
HETATM    3  N   UNL     1     -10.097  11.212  68.473  1.00  0.00    -0.194 NA 
HETATM    4  C   UNL     1      -9.162  11.889  67.796  1.00  0.00    -0.184 A  
HETATM    5  C   UNL     1     -10.220  13.947  68.309  1.00  0.00    -0.247 A  
HETATM    6  C   UNL     1      -9.245  13.247  67.632  1.00  0.00    -0.209 A  
HETATM    7  N   UNL     1     -11.174  13.284  68.983  1.00  0.00    -0.266 NA 
ENDROOT
BRANCH   4   8
HETATM    8  N   UNL     1      -8.127  11.140  67.246  1.00  0.00    -0.131 NA 
HETATM    9  H   UNL     1      -7.397  11.670  66.770  1.00  0.00     0.000 HD 
BRANCH   8  10
HETATM   10  C   UNL     1      -7.971   9.801  67.265  1.00  0.00    -0.106 A  
HETATM   11  S   UNL     1      -7.044   9.097  66.008  1.00  0.00    -0.091 SA 
HETATM   12  N   UNL     1      -8.457   8.933  68.132  1.00  0.00    -0.129 NA 
HETATM   13  C   UNL     1      -8.226   7.641  67.701  1.00  0.00    -0.121 A  
HETATM   14  C   UNL     1      -7.524   7.537  66.521  1.00  0.00    -0.084 A  
BRANCH  14  15
HETATM   15  C   UNL     1      -7.244   6.363  65.729  1.00  0.00    -0.078 C  
HETATM   16  O   UNL     1      -6.145   6.154  65.226  1.00  0.00    -0.028 OA 
HETATM   17  H   UNL     1      -9.247   5.854  65.904  1.00  0.00     0.000 HD 
HETATM   18  N   UNL     1      -8.341   5.532  65.562  1.00  0.00    -0.130 N  
BRANCH  18  19
HETATM   19  C   UNL     1      -8.272   4.272  64.948  1.00  0.00    -0.103 A  
HETATM   20  C   UNL     1      -8.017   1.876  65.137  1.00  0.00    -0.074 A  
HETATM   21  C   UNL     1      -7.893   3.193  67.248  1.00  0.00    -0.078 C  
HETATM   22  C   UNL     1      -8.059   3.138  65.753  1.00  0.00    -0.086 A  
HETATM   23  C   UNL     1      -8.158   1.747  63.754  1.00  0.00    -0.062 A  
HETATM   24  C   UNL     1      -8.306   2.875  62.958  1.00  0.00    -0.081 A  
HETATM   25  C   UNL     1      -8.354   4.138  63.546  1.00  0.00    -0.096 A  
HETATM   26 CL   UNL     1      -8.318   5.506  62.480  1.00  0.00    -0.112 Cl 
ENDBRANCH  18  19
ENDBRANCH  14  15
ENDBRANCH   8  10
ENDBRANCH   4   8
BRANCH   5  27
HETATM   27  N   UNL     1     -10.224  15.346  68.236  1.00  0.00    -0.226 NA 
HETATM   28  C   UNL     1     -10.333  15.906  66.872  1.00  0.00    -0.291 C  
HETATM   29  C   UNL     1      -9.221  16.034  69.063  1.00  0.00    -0.244 C  
HETATM   30  N   UNL     1      -9.666  18.208  67.733  1.00  0.00    -0.284 NA 
HETATM   31  C   UNL     1     -10.643  17.413  66.954  1.00  0.00    -0.216 C  
HETATM   32  C   UNL     1      -9.518  17.560  69.071  1.00  0.00    -0.109 C  
BRANCH  30  33
HETATM   33  C   UNL     1      -8.349  18.320  67.066  1.00  0.00    -0.248 C  
BRANCH  33  34
HETATM   34  C   UNL     1      -7.238  18.864  67.982  1.00  0.00    -0.244 C  
HETATM   35  H   UNL     1      -6.702  20.602  68.743  1.00  0.00     0.000 HD 
HETATM   36  O   UNL     1      -7.388  20.267  68.178  1.00  0.00    -0.279 OA 
ENDBRANCH  33  34
ENDBRANCH  30  33
ENDBRANCH   5  27
TORSDOF 7
ENDMDL
MODEL      202
REMARK 921   NORMALIZED FREE ENERGY PREDICTED BY IDOCK:   -3.84 KCAL/MOL
REMARK 922        TOTAL FREE ENERGY PREDICTED BY IDOCK:   -5.79 KCAL/MOL
REMARK 923 INTER-LIGAND FREE ENERGY PREDICTED BY IDOCK:   -5.68 KCAL/MOL
REMARK 924 INTRA-LIGAND FREE ENERGY PREDICTED BY IDOCK:   -0.11 KCAL/MOL
REMARK 927      BINDING AFFINITY PREDICTED BY RF-SCORE:    0.00 PKD
ROOT
HETATM    1  C   UNL     1      -9.504   8.089  71.676  1.00  0.00    -0.213 C  
HETATM    2  C   UNL     1      -8.962   8.291  70.296  1.00  0.00    -0.142 A  
HETATM    3  N   UNL     1      -8.331   9.453  70.049  1.00  0.00    -0.159 NA 
HETATM    4  C   UNL     1      -7.738   9.568  68.855  1.00  0.00    -0.076 A  
HETATM    5  C   UNL     1      -8.504   7.416  68.220  1.00  0.00    -0.125 A  
HETATM    6  C   UNL     1      -7.742   8.534  67.955  1.00  0.00    -0.103 A  
HETATM    7  N   UNL     1      -9.097   7.278  69.417  1.00  0.00    -0.143 NA 
ENDROOT
BRANCH   4   8
HETATM    8  N   UNL     1      -7.096  10.773  68.593  1.00  0.00    -0.073 NA 
HETATM    9  H   UNL     1      -6.093  10.794  68.777  1.00  0.00     0.000 HD 
BRANCH   8  10
HETATM   10  C   UNL     1      -7.636  11.917  68.125  1.00  0.00    -0.121 A  
HETATM   11  S   UNL     1      -6.937  13.391  68.649  1.00  0.00    -0.105 SA 
HETATM   12  N   UNL     1      -8.663  12.063  67.310  1.00  0.00    -0.167 NA 
HETATM   13  C   UNL     1      -9.020  13.394  67.218  1.00  0.00    -0.221 A  
HETATM   14  C   UNL     1      -8.228  14.261  67.939  1.00  0.00    -0.156 A  
BRANCH  14  15
HETATM   15  C   UNL     1      -8.407  15.673  68.176  1.00  0.00    -0.146 C  
HETATM   16  O   UNL     1      -8.302  16.172  69.292  1.00  0.00    -0.238 OA 
HETATM   17  H   UNL     1      -8.945  15.869  66.183  1.00  0.00     0.000 HD 
HETATM   18  N   UNL     1      -8.749  16.388  67.039  1.00  0.00    -0.188 N  
BRANCH  18  19
HETATM   19  C   UNL     1      -8.839  17.788  67.002  1.00  0.00    -0.252 A  
HETATM   20  C   UNL     1     -10.068  19.808  67.502  1.00  0.00    -0.554 A  
HETATM   21  C   UNL     1     -11.154  17.649  68.107  1.00  0.00     0.075 C  
HETATM   22  C   UNL     1      -9.994  18.405  67.518  1.00  0.00    -0.349 A  
HETATM   23  C   UNL     1      -9.033  20.577  66.967  1.00  0.00    -0.380 A  
HETATM   24  C   UNL     1      -7.923  19.960  66.404  1.00  0.00    -0.345 A  
HETATM   25  C   UNL     1      -7.825  18.570  66.410  1.00  0.00    -0.271 A  
HETATM   26 CL   UNL     1      -6.526  17.868  65.498  1.00  0.00    -0.210 Cl 
ENDBRANCH  18  19
ENDBRANCH  14  15
ENDBRANCH   8  10
ENDBRANCH   4   8
BRANCH   5  27
HETATM   27  N   UNL     1      -8.603   6.418  67.243  1.00  0.00    -0.111 NA 
HETATM   28  C   UNL     1      -9.896   5.702  67.201  1.00  0.00    -0.149 C  
HETATM   29  C   UNL     1      -7.443   5.521  67.122  1.00  0.00    -0.084 C  
HETATM   30  N   UNL     1      -8.886   3.904  65.708  1.00  0.00    -0.121 NA 
HETATM   31  C   UNL     1      -9.988   4.873  65.905  1.00  0.00    -0.203 C  
HETATM   32  C   UNL     1      -7.598   4.649  65.844  1.00  0.00    -0.090 C  
BRANCH  30  33
HETATM   33  C   UNL     1      -8.931   2.773  66.662  1.00  0.00    -0.151 C  
BRANCH  33  34
HETATM   34  C   UNL     1      -7.701   2.693  67.583  1.00  0.00    -0.060 C  
HETATM   35  H   UNL     1      -7.337   2.588  69.519  1.00  0.00     0.000 HD 
HETATM   36  O   UNL     1      -8.097   2.637  68.950  1.00  0.00    -0.052 OA 
ENDBRANCH  33  34
ENDBRANCH  30  33
ENDBRANCH   5  27
TORSDOF 7
ENDMDL
MODEL      203
REMARK 921   NORMALIZED FREE ENERGY PREDICTED BY IDOCK:   -3.73 KCAL/MOL
REMARK 922        TOTAL FREE ENERGY PREDICTED BY IDOCK:   -5.63 KCAL/MOL
REMARK 923 INTER-LIGAND FREE ENERGY PREDICTED BY IDOCK:   -4.88 KCAL/MOL
REMARK 924 INTRA-LIGAND FREE ENERGY PREDICTED BY IDOCK:   -0.75 KCAL/MOL
REMARK 927      BINDING AFFINITY PREDICTED BY RF-SCORE:    0.00 PKD
ROOT
HETATM    1  C   UNL     1      -9.071   7.951  71.640  1.00  0.00    -0.175 C  
HETATM    2  C   UNL     1      -8.285   8.547  70.515  1.00  0.00    -0.115 A  
HETATM    3  N   UNL     1      -7.764   9.771  70.712  1.00  0.00    -0.297 NA 
HETATM    4  C   UNL     1      -6.956  10.237  69.753  1.00  0.00    -0.129 A  
HETATM    5  C   UNL     1      -7.304   8.287  68.452  1.00  0.00    -0.094 A  
HETATM    6  C   UNL     1      -6.647   9.482  68.652  1.00  0.00    -0.052 A  
HETATM    7  N   UNL     1      -8.110   7.797  69.409  1.00  0.00    -0.124 NA 
ENDROOT
BRANCH   4   8
HETATM    8  N   UNL     1      -6.426  11.508  69.949  1.00  0.00    -0.246 NA 
HETATM    9  H   UNL     1      -5.798  11.612  70.746  1.00  0.00     0.000 HD 
BRANCH   8  10
HETATM   10  C   UNL     1      -6.642  12.619  69.216  1.00  0.00    -0.092 A  
HETATM   11  S   UNL     1      -6.975  14.071  70.063  1.00  0.00     0.329 SA 
HETATM   12  N   UNL     1      -6.646  12.745  67.902  1.00  0.00    -0.102 NA 
HETATM   13  C   UNL     1      -7.089  14.002  67.540  1.00  0.00    -0.160 A  
HETATM   14  C   UNL     1      -7.380  14.843  68.591  1.00  0.00    -0.120 A  
BRANCH  14  15
HETATM   15  C   UNL     1      -7.993  16.150  68.568  1.00  0.00    -0.175 C  
HETATM   16  O   UNL     1      -8.753  16.537  69.449  1.00  0.00    -0.142 OA 
HETATM   17  H   UNL     1      -7.141  16.438  66.699  1.00  0.00     0.000 HD 
HETATM   18  N   UNL     1      -7.673  16.892  67.442  1.00  0.00    -0.165 N  
BRANCH  18  19
HETATM   19  C   UNL     1      -8.040  18.235  67.270  1.00  0.00    -0.229 A  
HETATM   20  C   UNL     1      -7.583  20.581  67.631  1.00  0.00    -0.304 A  
HETATM   21  C   UNL     1      -5.971  18.954  68.611  1.00  0.00    -0.228 C  
HETATM   22  C   UNL     1      -7.224  19.237  67.828  1.00  0.00    -0.274 A  
HETATM   23  C   UNL     1      -8.734  20.921  66.919  1.00  0.00     0.007 A  
HETATM   24  C   UNL     1      -9.569  19.927  66.424  1.00  0.00    -0.537 A  
HETATM   25  C   UNL     1      -9.233  18.586  66.604  1.00  0.00    -0.306 A  
HETATM   26 CL   UNL     1     -10.426  17.409  66.155  1.00  0.00    -0.327 Cl 
ENDBRANCH  18  19
ENDBRANCH  14  15
ENDBRANCH   8  10
ENDBRANCH   4   8
BRANCH   5  27
HETATM   27  N   UNL     1      -7.076   7.579  67.265  1.00  0.00    -0.083 NA 
HETATM   28  C   UNL     1      -8.271   7.357  66.423  1.00  0.00    -0.122 C  
HETATM   29  C   UNL     1      -6.223   6.387  67.383  1.00  0.00    -0.032 C  
HETATM   30  N   UNL     1      -7.009   5.637  65.034  1.00  0.00    -0.058 NA 
HETATM   31  C   UNL     1      -7.839   6.863  65.029  1.00  0.00    -0.121 C  
HETATM   32  C   UNL     1      -5.861   5.870  65.962  1.00  0.00    -0.027 C  
BRANCH  30  33
HETATM   33  C   UNL     1      -7.762   4.429  65.439  1.00  0.00    -0.086 C  
BRANCH  33  34
HETATM   34  C   UNL     1      -9.011   4.164  64.578  1.00  0.00    -0.142 C  
HETATM   35  H   UNL     1     -10.260   2.674  64.248  1.00  0.00     0.000 HD 
HETATM   36  O   UNL     1      -9.490   2.838  64.779  1.00  0.00    -0.153 OA 
ENDBRANCH  33  34
ENDBRANCH  30  33
ENDBRANCH   5  27
TORSDOF 7
ENDMDL
MODEL      204
REMARK 921   NORMALIZED FREE ENERGY PREDICTED BY IDOCK:   -3.69 KCAL/MOL
REMARK 922        TOTAL FREE ENERGY PREDICTED BY IDOCK:   -5.57 KCAL/MOL
REMARK 923 INTER-LIGAND FREE ENERGY PREDICTED BY IDOCK:   -4.55 KCAL/MOL
REMARK 924 INTRA-LIGAND FREE ENERGY PREDICTED BY IDOCK:   -1.02 KCAL/MOL
REMARK 927      BINDING AFFINITY PREDICTED BY RF-SCORE:    0.00 PKD
ROOT
HETATM    1  C   UNL     1      -5.132  13.347  71.348  1.00  0.00    -0.169 C  
HETATM    2  C   UNL     1      -5.778  12.714  70.156  1.00  0.00    -0.154 A  
HETATM    3  N   UNL     1      -5.438  11.444  69.877  1.00  0.00    -0.066 NA 
HETATM    4  C   UNL     1      -6.117  10.846  68.891  1.00  0.00    -0.040 A  
HETATM    5  C   UNL     1      -7.354  12.828  68.486  1.00  0.00    -0.115 A  
HETATM    6  C   UNL     1      -7.134  11.491  68.235  1.00  0.00    -0.080 A  
HETATM    7  N   UNL     1      -6.690  13.440  69.481  1.00  0.00    -0.050 NA 
ENDROOT
BRANCH   4   8
HETATM    8  N   UNL     1      -5.759   9.537  68.593  1.00  0.00    -0.040 NA 
HETATM    9  H   UNL     1      -4.762   9.365  68.461  1.00  0.00     0.000 HD 
BRANCH   8  10
HETATM   10  C   UNL     1      -6.567   8.465  68.457  1.00  0.00    -0.059 A  
HETATM   11  S   UNL     1      -6.702   7.773  66.895  1.00  0.00    -0.069 SA 
HETATM   12  N   UNL     1      -7.297   7.869  69.380  1.00  0.00    -0.079 NA 
HETATM   13  C   UNL     1      -8.125   6.925  68.803  1.00  0.00    -0.121 A  
HETATM   14  C   UNL     1      -7.985   6.782  67.440  1.00  0.00    -0.114 A  
BRANCH  14  15
HETATM   15  C   UNL     1      -8.782   6.005  66.521  1.00  0.00    -0.128 C  
HETATM   16  O   UNL     1     -10.005   6.094  66.470  1.00  0.00    -0.165 OA 
HETATM   17  H   UNL     1      -7.044   5.028  65.950  1.00  0.00     0.000 HD 
HETATM   18  N   UNL     1      -8.038   5.130  65.745  1.00  0.00    -0.108 N  
BRANCH  18  19
HETATM   19  C   UNL     1      -8.580   4.376  64.693  1.00  0.00    -0.134 A  
HETATM   20  C   UNL     1      -9.513   2.298  63.886  1.00  0.00    -0.118 A  
HETATM   21  C   UNL     1      -8.789   2.359  66.268  1.00  0.00    -0.131 C  
HETATM   22  C   UNL     1      -8.947   3.040  64.936  1.00  0.00    -0.132 A  
HETATM   23  C   UNL     1      -9.687   2.861  62.620  1.00  0.00    -0.092 A  
HETATM   24  C   UNL     1      -9.265   4.160  62.369  1.00  0.00    -0.116 A  
HETATM   25  C   UNL     1      -8.704   4.918  63.396  1.00  0.00    -0.111 A  
HETATM   26 CL   UNL     1      -8.003   6.443  62.957  1.00  0.00    -0.105 Cl 
ENDBRANCH  18  19
ENDBRANCH  14  15
ENDBRANCH   8  10
ENDBRANCH   4   8
BRANCH   5  27
HETATM   27  N   UNL     1      -8.311  13.511  67.725  1.00  0.00    -0.166 NA 
HETATM   28  C   UNL     1      -8.839  14.749  68.338  1.00  0.00    -0.181 C  
HETATM   29  C   UNL     1      -9.358  12.678  67.113  1.00  0.00    -0.210 C  
HETATM   30  N   UNL     1     -10.732  14.819  66.637  1.00  0.00    -0.303 NA 
HETATM   31  C   UNL     1      -9.622  15.556  67.285  1.00  0.00    -0.213 C  
HETATM   32  C   UNL     1     -10.176  13.536  66.108  1.00  0.00    -0.302 C  
BRANCH  30  33
HETATM   33  C   UNL     1     -11.862  14.552  67.553  1.00  0.00    -0.374 C  
BRANCH  33  34
HETATM   34  C   UNL     1     -12.133  15.696  68.547  1.00  0.00     0.011 C  
HETATM   35  H   UNL     1     -12.477  15.892  70.480  1.00  0.00     0.000 HD 
HETATM   36  O   UNL     1     -12.310  15.186  69.866  1.00  0.00    -0.314 OA 
ENDBRANCH  33  34
ENDBRANCH  30  33
ENDBRANCH   5  27
TORSDOF 7
ENDMDL
MODEL      205
REMARK 921   NORMALIZED FREE ENERGY PREDICTED BY IDOCK:   -3.55 KCAL/MOL
REMARK 922        TOTAL FREE ENERGY PREDICTED BY IDOCK:   -5.37 KCAL/MOL
REMARK 923 INTER-LIGAND FREE ENERGY PREDICTED BY IDOCK:   -5.08 KCAL/MOL
REMARK 924 INTRA-LIGAND FREE ENERGY PREDICTED BY IDOCK:   -0.29 KCAL/MOL
REMARK 927      BINDING AFFINITY PREDICTED BY RF-SCORE:    0.00 PKD
ROOT
HETATM    1  C   UNL     1      -7.664   7.086  63.926  1.00  0.00    -0.119 C  
HETATM    2  C   UNL     1      -8.043   8.264  64.769  1.00  0.00    -0.151 A  
HETATM    3  N   UNL     1      -7.236   8.564  65.800  1.00  0.00    -0.075 NA 
HETATM    4  C   UNL     1      -7.510   9.693  66.465  1.00  0.00    -0.094 A  
HETATM    5  C   UNL     1      -9.399  10.092  65.089  1.00  0.00    -0.235 A  
HETATM    6  C   UNL     1      -8.537  10.514  66.078  1.00  0.00    -0.166 A  
HETATM    7  N   UNL     1      -9.132   8.968  64.403  1.00  0.00     0.005 NA 
ENDROOT
BRANCH   4   8
HETATM    8  N   UNL     1      -6.684   9.999  67.540  1.00  0.00    -0.072 NA 
HETATM    9  H   UNL     1      -6.271   9.203  68.026  1.00  0.00     0.000 HD 
BRANCH   8  10
HETATM   10  C   UNL     1      -6.362  11.218  68.019  1.00  0.00    -0.053 A  
HETATM   11  S   UNL     1      -7.644  12.214  68.567  1.00  0.00    -0.108 SA 
HETATM   12  N   UNL     1      -5.167  11.770  68.113  1.00  0.00    -0.044 NA 
HETATM   13  C   UNL     1      -5.277  13.097  68.483  1.00  0.00    -0.070 A  
HETATM   14  C   UNL     1      -6.564  13.534  68.709  1.00  0.00    -0.102 A  
BRANCH  14  15
HETATM   15  C   UNL     1      -7.039  14.873  68.961  1.00  0.00    -0.130 C  
HETATM   16  O   UNL     1      -8.214  15.120  69.212  1.00  0.00    -0.204 OA 
HETATM   17  H   UNL     1      -5.135  15.558  68.506  1.00  0.00     0.000 HD 
HETATM   18  N   UNL     1      -6.053  15.841  68.849  1.00  0.00    -0.110 N  
BRANCH  18  19
HETATM   19  C   UNL     1      -6.250  17.190  69.183  1.00  0.00    -0.212 A  
HETATM   20  C   UNL     1      -6.891  19.425  68.523  1.00  0.00    -0.326 A  
HETATM   21  C   UNL     1      -6.916  17.676  66.750  1.00  0.00    -0.234 C  
HETATM   22  C   UNL     1      -6.669  18.082  68.178  1.00  0.00    -0.201 A  
HETATM   23  C   UNL     1      -6.679  19.876  69.827  1.00  0.00    -0.311 A  
HETATM   24  C   UNL     1      -6.206  19.006  70.800  1.00  0.00     0.247 A  
HETATM   25  C   UNL     1      -5.981  17.667  70.483  1.00  0.00     0.213 A  
HETATM   26 CL   UNL     1      -5.187  16.696  71.681  1.00  0.00     0.087 Cl 
ENDBRANCH  18  19
ENDBRANCH  14  15
ENDBRANCH   8  10
ENDBRANCH   4   8
BRANCH   5  27
HETATM   27  N   UNL     1     -10.517  10.879  64.784  1.00  0.00    -0.325 NA 
HETATM   28  C   UNL     1     -10.540  11.441  63.417  1.00  0.00    -0.368 C  
HETATM   29  C   UNL     1     -10.918  11.849  65.814  1.00  0.00    -0.311 C  
HETATM   30  N   UNL     1     -12.423  13.026  64.069  1.00  0.00    -0.640 NA 
HETATM   31  C   UNL     1     -11.941  12.004  63.111  1.00  0.00    -0.220 C  
HETATM   32  C   UNL     1     -12.303  12.452  65.443  1.00  0.00    -0.237 C  
BRANCH  30  33
HETATM   33  C   UNL     1     -11.680  14.302  63.975  1.00  0.00    -0.163 C  
BRANCH  33  34
HETATM   34  C   UNL     1     -11.896  15.232  65.183  1.00  0.00    -0.035 C  
HETATM   35  H   UNL     1     -11.042  15.571  66.928  1.00  0.00     0.000 HD 
HETATM   36  O   UNL     1     -10.908  14.997  66.183  1.00  0.00    -0.317 OA 
ENDBRANCH  33  34
ENDBRANCH  30  33
ENDBRANCH   5  27
TORSDOF 7
ENDMDL
MODEL      206
REMARK 921   NORMALIZED FREE ENERGY PREDICTED BY IDOCK:   -3.30 KCAL/MOL
REMARK 922        TOTAL FREE ENERGY PREDICTED BY IDOCK:   -5.03 KCAL/MOL
REMARK 923 INTER-LIGAND FREE ENERGY PREDICTED BY IDOCK:   -4.00 KCAL/MOL
REMARK 924 INTRA-LIGAND FREE ENERGY PREDICTED BY IDOCK:   -1.02 KCAL/MOL
REMARK 927      BINDING AFFINITY PREDICTED BY RF-SCORE:    0.00 PKD
ROOT
HETATM    1  C   UNL     1      -5.464  14.475  71.502  1.00  0.00    -0.137 C  
HETATM    2  C   UNL     1      -6.036  13.455  70.569  1.00  0.00    -0.121 A  
HETATM    3  N   UNL     1      -5.441  12.249  70.540  1.00  0.00    -0.145 NA 
HETATM    4  C   UNL     1      -6.039  11.306  69.802  1.00  0.00    -0.112 A  
HETATM    5  C   UNL     1      -7.713  12.841  69.122  1.00  0.00     0.326 A  
HETATM    6  C   UNL     1      -7.217  11.555  69.149  1.00  0.00    -0.084 A  
HETATM    7  N   UNL     1      -7.133  13.797  69.866  1.00  0.00     0.252 NA 
ENDROOT
BRANCH   4   8
HETATM    8  N   UNL     1      -5.419  10.063  69.761  1.00  0.00    -0.037 NA 
HETATM    9  H   UNL     1      -4.421  10.067  69.547  1.00  0.00     0.000 HD 
BRANCH   8  10
HETATM   10  C   UNL     1      -5.974   8.851  69.969  1.00  0.00    -0.030 A  
HETATM   11  S   UNL     1      -6.265   7.870  68.594  1.00  0.00    -0.041 SA 
HETATM   12  N   UNL     1      -6.347   8.307  71.112  1.00  0.00    -0.035 NA 
HETATM   13  C   UNL     1      -7.039   7.134  70.884  1.00  0.00    -0.069 A  
HETATM   14  C   UNL     1      -7.152   6.772  69.559  1.00  0.00    -0.072 A  
BRANCH  14  15
HETATM   15  C   UNL     1      -7.922   5.702  68.971  1.00  0.00    -0.096 C  
HETATM   16  O   UNL     1      -9.085   5.475  69.291  1.00  0.00    -0.110 OA 
HETATM   17  H   UNL     1      -6.211   5.123  67.954  1.00  0.00     0.000 HD 
HETATM   18  N   UNL     1      -7.210   4.943  68.056  1.00  0.00    -0.065 N  
BRANCH  18  19
HETATM   19  C   UNL     1      -7.790   3.942  67.262  1.00  0.00    -0.087 A  
HETATM   20  C   UNL     1      -8.334   1.612  66.920  1.00  0.00    -0.083 A  
HETATM   21  C   UNL     1      -7.069   2.182  68.988  1.00  0.00    -0.040 C  
HETATM   22  C   UNL     1      -7.729   2.607  67.705  1.00  0.00    -0.060 A  
HETATM   23  C   UNL     1      -8.962   1.931  65.714  1.00  0.00    -0.103 A  
HETATM   24  C   UNL     1      -8.964   3.240  65.252  1.00  0.00    -0.142 A  
HETATM   25  C   UNL     1      -8.373   4.246  66.014  1.00  0.00    -0.109 A  
HETATM   26 CL   UNL     1      -8.222   5.809  65.276  1.00  0.00    -0.134 Cl 
ENDBRANCH  18  19
ENDBRANCH  14  15
ENDBRANCH   8  10
ENDBRANCH   4   8
BRANCH   5  27
HETATM   27  N   UNL     1      -8.850  13.112  68.350  1.00  0.00    -0.156 NA 
HETATM   28  C   UNL     1      -8.591  13.386  66.921  1.00  0.00    -0.100 C  
HETATM   29  C   UNL     1      -9.825  14.037  68.948  1.00  0.00    -0.071 C  
HETATM   30  N   UNL     1     -10.958  14.282  66.634  1.00  0.00    -0.305 NA 
HETATM   31  C   UNL     1      -9.918  13.351  66.137  1.00  0.00    -0.294 C  
HETATM   32  C   UNL     1     -11.127  14.033  68.098  1.00  0.00    -0.260 C  
BRANCH  30  33
HETATM   33  C   UNL     1     -10.627  15.703  66.387  1.00  0.00    -0.308 C  
BRANCH  33  34
HETATM   34  C   UNL     1     -10.483  16.052  64.895  1.00  0.00    -0.092 C  
HETATM   35  H   UNL     1     -11.146  17.435  63.654  1.00  0.00     0.000 HD 
HETATM   36  O   UNL     1     -11.235  17.219  64.575  1.00  0.00    -1.083 OA 
ENDBRANCH  33  34
ENDBRANCH  30  33
ENDBRANCH   5  27
TORSDOF 7
ENDMDL
MODEL      207
REMARK 921   NORMALIZED FREE ENERGY PREDICTED BY IDOCK:   -3.14 KCAL/MOL
REMARK 922        TOTAL FREE ENERGY PREDICTED BY IDOCK:   -4.80 KCAL/MOL
REMARK 923 INTER-LIGAND FREE ENERGY PREDICTED BY IDOCK:   -4.18 KCAL/MOL
REMARK 924 INTRA-LIGAND FREE ENERGY PREDICTED BY IDOCK:   -0.62 KCAL/MOL
REMARK 927      BINDING AFFINITY PREDICTED BY RF-SCORE:    0.00 PKD
ROOT
HETATM    1  C   UNL     1     -10.398   5.385  69.736  1.00  0.00    -0.375 C  
HETATM    2  C   UNL     1      -9.201   5.826  68.953  1.00  0.00    -0.115 A  
HETATM    3  N   UNL     1      -8.386   6.724  69.532  1.00  0.00    -0.131 NA 
HETATM    4  C   UNL     1      -7.253   7.011  68.880  1.00  0.00    -0.091 A  
HETATM    5  C   UNL     1      -7.861   5.563  67.104  1.00  0.00    -0.101 A  
HETATM    6  C   UNL     1      -6.931   6.384  67.705  1.00  0.00    -0.078 A  
HETATM    7  N   UNL     1      -8.997   5.254  67.750  1.00  0.00    -0.109 NA 
ENDROOT
BRANCH   4   8
HETATM    8  N   UNL     1      -6.414   7.948  69.472  1.00  0.00    -0.034 NA 
HETATM    9  H   UNL     1      -5.612   7.574  69.978  1.00  0.00     0.000 HD 
BRANCH   8  10
HETATM   10  C   UNL     1      -6.531   9.292  69.458  1.00  0.00    -0.043 A  
HETATM   11  S   UNL     1      -7.893   9.958  68.660  1.00  0.00    -0.089 SA 
HETATM   12  N   UNL     1      -5.713  10.189  69.975  1.00  0.00    -0.044 NA 
HETATM   13  C   UNL     1      -6.088  11.462  69.589  1.00  0.00    -0.110 A  
HETATM   14  C   UNL     1      -7.221  11.524  68.809  1.00  0.00    -0.112 A  
BRANCH  14  15
HETATM   15  C   UNL     1      -7.794  12.659  68.125  1.00  0.00    -0.145 C  
HETATM   16  O   UNL     1      -7.124  13.419  67.434  1.00  0.00    -0.164 OA 
HETATM   17  H   UNL     1      -9.595  12.223  69.058  1.00  0.00     0.000 HD 
HETATM   18  N   UNL     1      -9.150  12.824  68.364  1.00  0.00    -0.170 N  
BRANCH  18  19
HETATM   19  C   UNL     1      -9.943  13.773  67.701  1.00  0.00    -0.238 A  
HETATM   20  C   UNL     1     -11.130  15.878  67.730  1.00  0.00    -0.288 A  
HETATM   21  C   UNL     1     -10.006  15.189  69.843  1.00  0.00    -0.107 C  
HETATM   22  C   UNL     1     -10.358  14.919  68.405  1.00  0.00    -0.233 A  
HETATM   23  C   UNL     1     -11.499  15.694  66.396  1.00  0.00     0.180 A  
HETATM   24  C   UNL     1     -11.139  14.533  65.724  1.00  0.00    -0.324 A  
HETATM   25  C   UNL     1     -10.371  13.567  66.373  1.00  0.00    -0.289 A  
HETATM   26 CL   UNL     1     -10.147  12.056  65.550  1.00  0.00    -0.273 Cl 
ENDBRANCH  18  19
ENDBRANCH  14  15
ENDBRANCH   8  10
ENDBRANCH   4   8
BRANCH   5  27
HETATM   27  N   UNL     1      -7.574   5.024  65.843  1.00  0.00    -0.089 NA 
HETATM   28  C   UNL     1      -7.478   6.008  64.744  1.00  0.00    -0.079 C  
HETATM   29  C   UNL     1      -8.331   3.819  65.474  1.00  0.00    -0.105 C  
HETATM   30  N   UNL     1      -7.570   4.136  63.021  1.00  0.00    -0.057 NA 
HETATM   31  C   UNL     1      -6.855   5.340  63.503  1.00  0.00    -0.041 C  
HETATM   32  C   UNL     1      -7.724   3.206  64.180  1.00  0.00    -0.077 C  
BRANCH  30  33
HETATM   33  C   UNL     1      -8.890   4.445  62.428  1.00  0.00    -0.108 C  
BRANCH  33  34
HETATM   34  C   UNL     1      -9.982   3.420  62.784  1.00  0.00    -0.120 C  
HETATM   35  H   UNL     1     -11.950   3.311  62.724  1.00  0.00     0.000 HD 
HETATM   36  O   UNL     1     -11.277   3.944  62.504  1.00  0.00    -0.019 OA 
ENDBRANCH  33  34
ENDBRANCH  30  33
ENDBRANCH   5  27
TORSDOF 7
ENDMDL
MODEL      208
REMARK 921   NORMALIZED FREE ENERGY PREDICTED BY IDOCK:   -3.13 KCAL/MOL
REMARK 922        TOTAL FREE ENERGY PREDICTED BY IDOCK:   -4.79 KCAL/MOL
REMARK 923 INTER-LIGAND FREE ENERGY PREDICTED BY IDOCK:   -3.62 KCAL/MOL
REMARK 924 INTRA-LIGAND FREE ENERGY PREDICTED BY IDOCK:   -1.17 KCAL/MOL
REMARK 927      BINDING AFFINITY PREDICTED BY RF-SCORE:    0.00 PKD
ROOT
HETATM    1  C   UNL     1     -12.295  16.377  66.630  1.00  0.00     2.756 C  
HETATM    2  C   UNL     1     -11.284  15.299  66.864  1.00  0.00    -0.256 A  
HETATM    3  N   UNL     1     -11.606  14.059  66.457  1.00  0.00    -0.357 NA 
HETATM    4  C   UNL     1     -10.645  13.132  66.551  1.00  0.00    -0.284 A  
HETATM    5  C   UNL     1      -9.158  14.709  67.510  1.00  0.00    -0.190 A  
HETATM    6  C   UNL     1      -9.390  13.450  66.999  1.00  0.00    -0.243 A  
HETATM    7  N   UNL     1     -10.106  15.656  67.413  1.00  0.00    -0.247 NA 
ENDROOT
BRANCH   4   8
HETATM    8  N   UNL     1     -10.980  11.845  66.143  1.00  0.00    -0.297 NA 
HETATM    9  H   UNL     1     -11.698  11.778  65.422  1.00  0.00     0.000 HD 
BRANCH   8  10
HETATM   10  C   UNL     1     -10.472  10.676  66.583  1.00  0.00    -0.237 A  
HETATM   11  S   UNL     1     -11.219   9.955  67.947  1.00  0.00     0.134 SA 
HETATM   12  N   UNL     1      -9.444  10.000  66.107  1.00  0.00    -0.178 NA 
HETATM   13  C   UNL     1      -9.127   8.950  66.946  1.00  0.00    -0.133 A  
HETATM   14  C   UNL     1      -9.950   8.811  68.042  1.00  0.00    -0.182 A  
BRANCH  14  15
HETATM   15  C   UNL     1      -9.815   7.927  69.175  1.00  0.00    -0.174 C  
HETATM   16  O   UNL     1      -9.787   6.706  69.058  1.00  0.00    -0.142 OA 
HETATM   17  H   UNL     1      -9.933   9.595  70.402  1.00  0.00     0.000 HD 
HETATM   18  N   UNL     1      -9.767   8.588  70.393  1.00  0.00    -0.172 N  
BRANCH  18  19
HETATM   19  C   UNL     1      -9.503   7.947  71.612  1.00  0.00    -0.152 A  
HETATM   20  C   UNL     1     -10.277   7.172  73.767  1.00  0.00    -0.395 A  
HETATM   21  C   UNL     1     -11.928   8.377  72.343  1.00  0.00    -0.451 C  
HETATM   22  C   UNL     1     -10.539   7.837  72.558  1.00  0.00    -0.352 A  
HETATM   23  C   UNL     1      -9.011   6.649  74.039  1.00  0.00    -0.181 A  
HETATM   24  C   UNL     1      -7.975   6.814  73.128  1.00  0.00    -0.104 A  
HETATM   25  C   UNL     1      -8.212   7.469  71.921  1.00  0.00    -0.106 A  
HETATM   26 CL   UNL     1      -6.829   7.830  70.936  1.00  0.00    -0.042 Cl 
ENDBRANCH  18  19
ENDBRANCH  14  15
ENDBRANCH   8  10
ENDBRANCH   4   8
BRANCH   5  27
HETATM   27  N   UNL     1      -7.910  14.990  68.079  1.00  0.00    -0.118 NA 
HETATM   28  C   UNL     1      -6.896  13.924  67.932  1.00  0.00    -0.160 C  
HETATM   29  C   UNL     1      -7.937  15.578  69.427  1.00  0.00    -0.229 C  
HETATM   30  N   UNL     1      -5.414  15.052  69.669  1.00  0.00    -0.094 NA 
HETATM   31  C   UNL     1      -5.506  14.474  68.308  1.00  0.00    -0.114 C  
HETATM   32  C   UNL     1      -6.508  16.061  69.807  1.00  0.00    -0.164 C  
BRANCH  30  33
HETATM   33  C   UNL     1      -5.512  14.034  70.738  1.00  0.00    -0.159 C  
BRANCH  33  34
HETATM   34  C   UNL     1      -5.211  14.585  72.143  1.00  0.00    -0.158 C  
HETATM   35  H   UNL     1      -5.469  14.016  74.015  1.00  0.00     0.000 HD 
HETATM   36  O   UNL     1      -5.655  13.676  73.147  1.00  0.00    -0.436 OA 
ENDBRANCH  33  34
ENDBRANCH  30  33
ENDBRANCH   5  27
TORSDOF 7
ENDMDL
MODEL      209
REMARK 921   NORMALIZED FREE ENERGY PREDICTED BY IDOCK:   -2.92 KCAL/MOL
REMARK 922        TOTAL FREE ENERGY PREDICTED BY IDOCK:   -4.49 KCAL/MOL
REMARK 923 INTER-LIGAND FREE ENERGY PREDICTED BY IDOCK:   -4.01 KCAL/MOL
REMARK 924 INTRA-LIGAND FREE ENERGY PREDICTED BY IDOCK:   -0.49 KCAL/MOL
REMARK 927      BINDING AFFINITY PREDICTED BY RF-SCORE:    0.00 PKD
ROOT
HETATM    1  C   UNL     1     -10.263  19.308  65.525  1.00  0.00     0.079 C  
HETATM    2  C   UNL     1      -9.956  18.147  66.418  1.00  0.00    -0.376 A  
HETATM    3  N   UNL     1     -10.841  17.135  66.435  1.00  0.00    -0.041 NA 
HETATM    4  C   UNL     1     -10.492  16.049  67.133  1.00  0.00    -0.308 A  
HETATM    5  C   UNL     1      -8.464  17.078  67.803  1.00  0.00    -0.198 A  
HETATM    6  C   UNL     1      -9.276  15.965  67.759  1.00  0.00    -0.201 A  
HETATM    7  N   UNL     1      -8.793  18.173  67.097  1.00  0.00    -0.254 NA 
ENDROOT
BRANCH   4   8
HETATM    8  N   UNL     1     -11.412  15.006  67.163  1.00  0.00    -0.332 NA 
HETATM    9  H   UNL     1     -12.395  15.277  67.139  1.00  0.00     0.000 HD 
BRANCH   8  10
HETATM   10  C   UNL     1     -11.163  13.681  67.219  1.00  0.00    -0.309 A  
HETATM   11  S   UNL     1      -9.938  13.064  66.192  1.00  0.00    -0.273 SA 
HETATM   12  N   UNL     1     -11.758  12.768  67.963  1.00  0.00    -0.345 NA 
HETATM   13  C   UNL     1     -11.344  11.503  67.596  1.00  0.00    -0.291 A  
HETATM   14  C   UNL     1     -10.399  11.467  66.594  1.00  0.00    -0.233 A  
BRANCH  14  15
HETATM   15  C   UNL     1      -9.870  10.327  65.884  1.00  0.00    -0.237 C  
HETATM   16  O   UNL     1     -10.287   9.985  64.782  1.00  0.00    -0.132 OA 
HETATM   17  H   UNL     1      -8.699   9.923  67.548  1.00  0.00     0.000 HD 
HETATM   18  N   UNL     1      -8.887   9.645  66.585  1.00  0.00    -0.137 N  
BRANCH  18  19
HETATM   19  C   UNL     1      -8.136   8.593  66.039  1.00  0.00    -0.109 A  
HETATM   20  C   UNL     1      -7.649   6.229  65.917  1.00  0.00    -0.084 A  
HETATM   21  C   UNL     1      -9.413   6.934  67.527  1.00  0.00    -0.143 C  
HETATM   22  C   UNL     1      -8.385   7.281  66.485  1.00  0.00    -0.121 A  
HETATM   23  C   UNL     1      -6.674   6.474  64.948  1.00  0.00    -0.042 A  
HETATM   24  C   UNL     1      -6.390   7.776  64.556  1.00  0.00    -0.048 A  
HETATM   25  C   UNL     1      -7.109   8.837  65.103  1.00  0.00    -0.086 A  
HETATM   26 CL   UNL     1      -6.553  10.439  64.734  1.00  0.00    -0.089 Cl 
ENDBRANCH  18  19
ENDBRANCH  14  15
ENDBRANCH   8  10
ENDBRANCH   4   8
BRANCH   5  27
HETATM   27  N   UNL     1      -7.280  17.024  68.548  1.00  0.00    -0.199 NA 
HETATM   28  C   UNL     1      -7.333  16.172  69.756  1.00  0.00     0.156 C  
HETATM   29  C   UNL     1      -6.608  18.311  68.779  1.00  0.00    -0.237 C  
HETATM   30  N   UNL     1      -5.156  17.186  70.602  1.00  0.00    -0.249 NA 
HETATM   31  C   UNL     1      -5.907  15.947  70.295  1.00  0.00    -0.122 C  
HETATM   32  C   UNL     1      -5.200  18.056  69.388  1.00  0.00    -0.186 C  
BRANCH  30  33
HETATM   33  C   UNL     1      -5.692  17.911  71.776  1.00  0.00     0.884 C  
BRANCH  33  34
HETATM   34  C   UNL     1      -5.695  19.441  71.607  1.00  0.00    -0.173 C  
HETATM   35  H   UNL     1      -6.554  20.997  72.463  1.00  0.00     0.000 HD 
HETATM   36  O   UNL     1      -6.552  20.052  72.567  1.00  0.00     0.430 OA 
ENDBRANCH  33  34
ENDBRANCH  30  33
ENDBRANCH   5  27
TORSDOF 7
ENDMDL
MODEL      210
REMARK 921   NORMALIZED FREE ENERGY PREDICTED BY IDOCK:   -2.87 KCAL/MOL
REMARK 922        TOTAL FREE ENERGY PREDICTED BY IDOCK:   -4.41 KCAL/MOL
REMARK 923 INTER-LIGAND FREE ENERGY PREDICTED BY IDOCK:   -4.34 KCAL/MOL
REMARK 924 INTRA-LIGAND FREE ENERGY PREDICTED BY IDOCK:   -0.08 KCAL/MOL
REMARK 927      BINDING AFFINITY PREDICTED BY RF-SCORE:    0.00 PKD
ROOT
HETATM    1  C   UNL     1      -7.959   6.969  70.526  1.00  0.00    -0.113 C  
HETATM    2  C   UNL     1      -7.523   7.951  69.486  1.00  0.00    -0.093 A  
HETATM    3  N   UNL     1      -7.198   9.186  69.907  1.00  0.00    -0.056 NA 
HETATM    4  C   UNL     1      -6.685  10.014  68.989  1.00  0.00    -0.053 A  
HETATM    5  C   UNL     1      -6.929   8.365  67.304  1.00  0.00    -0.075 A  
HETATM    6  C   UNL     1      -6.466   9.601  67.701  1.00  0.00    -0.061 A  
HETATM    7  N   UNL     1      -7.435   7.516  68.213  1.00  0.00    -0.106 NA 
ENDROOT
BRANCH   4   8
HETATM    8  N   UNL     1      -6.360  11.296  69.420  1.00  0.00    -0.080 NA 
HETATM    9  H   UNL     1      -5.862  11.356  70.309  1.00  0.00     0.000 HD 
BRANCH   8  10
HETATM   10  C   UNL     1      -6.621  12.469  68.807  1.00  0.00    -0.089 A  
HETATM   11  S   UNL     1      -7.284  13.727  69.763  1.00  0.00     0.516 SA 
HETATM   12  N   UNL     1      -6.445  12.785  67.539  1.00  0.00    -0.154 NA 
HETATM   13  C   UNL     1      -7.006  14.019  67.268  1.00  0.00     0.140 A  
HETATM   14  C   UNL     1      -7.571  14.653  68.353  1.00  0.00    -0.119 A  
BRANCH  14  15
HETATM   15  C   UNL     1      -8.356  15.863  68.392  1.00  0.00    -0.174 C  
HETATM   16  O   UNL     1      -9.067  16.157  69.347  1.00  0.00    -0.240 OA 
HETATM   17  H   UNL     1      -7.749  16.236  66.444  1.00  0.00     0.000 HD 
HETATM   18  N   UNL     1      -8.258  16.625  67.238  1.00  0.00    -0.168 N  
BRANCH  18  19
HETATM   19  C   UNL     1      -8.822  17.903  67.103  1.00  0.00    -0.247 A  
HETATM   20  C   UNL     1     -10.556  19.329  66.209  1.00  0.00    -0.545 A  
HETATM   21  C   UNL     1     -10.658  16.915  65.603  1.00  0.00    -0.231 C  
HETATM   22  C   UNL     1      -9.981  18.052  66.319  1.00  0.00    -0.338 A  
HETATM   23  C   UNL     1      -9.982  20.433  66.842  1.00  0.00    -0.549 A  
HETATM   24  C   UNL     1      -8.803  20.291  67.564  1.00  0.00    -0.415 A  
HETATM   25  C   UNL     1      -8.215  19.034  67.690  1.00  0.00    -0.275 A  
HETATM   26 CL   UNL     1      -6.639  18.970  68.413  1.00  0.00    -0.262 Cl 
ENDBRANCH  18  19
ENDBRANCH  14  15
ENDBRANCH   8  10
ENDBRANCH   4   8
BRANCH   5  27
HETATM   27  N   UNL     1      -6.813   8.000  65.957  1.00  0.00    -0.057 NA 
HETATM   28  C   UNL     1      -7.917   7.169  65.431  1.00  0.00    -0.125 C  
HETATM   29  C   UNL     1      -5.485   7.532  65.531  1.00  0.00    -0.029 C  
HETATM   30  N   UNL     1      -6.547   6.606  63.360  1.00  0.00    -0.041 NA 
HETATM   31  C   UNL     1      -7.835   7.108  63.894  1.00  0.00    -0.109 C  
HETATM   32  C   UNL     1      -5.454   7.413  63.981  1.00  0.00    -0.033 C  
BRANCH  30  33
HETATM   33  C   UNL     1      -6.336   5.164  63.620  1.00  0.00    -0.022 C  
BRANCH  33  34
HETATM   34  C   UNL     1      -7.501   4.496  64.371  1.00  0.00    -0.071 C  
HETATM   35  H   UNL     1      -8.205   2.672  64.637  1.00  0.00     0.000 HD 
HETATM   36  O   UNL     1      -7.486   3.085  64.173  1.00  0.00    -0.064 OA 
ENDBRANCH  33  34
ENDBRANCH  30  33
ENDBRANCH   5  27
TORSDOF 7
ENDMDL
MODEL      211
REMARK 921   NORMALIZED FREE ENERGY PREDICTED BY IDOCK:   -2.70 KCAL/MOL
REMARK 922        TOTAL FREE ENERGY PREDICTED BY IDOCK:   -4.18 KCAL/MOL
REMARK 923 INTER-LIGAND FREE ENERGY PREDICTED BY IDOCK:   -3.93 KCAL/MOL
REMARK 924 INTRA-LIGAND FREE ENERGY PREDICTED BY IDOCK:   -0.25 KCAL/MOL
REMARK 927      BINDING AFFINITY PREDICTED BY RF-SCORE:    0.00 PKD
ROOT
HETATM    1  C   UNL     1      -5.125   6.640  71.398  1.00  0.00    -0.026 C  
HETATM    2  C   UNL     1      -5.921   7.837  70.982  1.00  0.00    -0.034 A  
HETATM    3  N   UNL     1      -5.233   8.928  70.603  1.00  0.00    -0.020 NA 
HETATM    4  C   UNL     1      -5.950   9.944  70.109  1.00  0.00    -0.058 A  
HETATM    5  C   UNL     1      -7.967   8.753  70.475  1.00  0.00    -0.113 A  
HETATM    6  C   UNL     1      -7.309   9.850  69.960  1.00  0.00    -0.159 A  
HETATM    7  N   UNL     1      -7.263   7.719  70.963  1.00  0.00    -0.053 NA 
ENDROOT
BRANCH   4   8
HETATM    8  N   UNL     1      -5.242  11.079  69.729  1.00  0.00    -0.042 NA 
HETATM    9  H   UNL     1      -4.256  11.098  69.989  1.00  0.00     0.000 HD 
BRANCH   8  10
HETATM   10  C   UNL     1      -5.698  12.156  69.058  1.00  0.00    -0.062 A  
HETATM   11  S   UNL     1      -5.339  13.700  69.708  1.00  0.00    -0.094 SA 
HETATM   12  N   UNL     1      -6.414  12.187  67.950  1.00  0.00    -0.069 NA 
HETATM   13  C   UNL     1      -6.836  13.475  67.685  1.00  0.00    -0.170 A  
HETATM   14  C   UNL     1      -6.399  14.428  68.580  1.00  0.00    -0.088 A  
BRANCH  14  15
HETATM   15  C   UNL     1      -6.769  15.819  68.680  1.00  0.00    -0.117 C  
HETATM   16  O   UNL     1      -7.818  16.187  69.198  1.00  0.00    -0.222 OA 
HETATM   17  H   UNL     1      -5.074  16.276  67.574  1.00  0.00     0.000 HD 
HETATM   18  N   UNL     1      -5.850  16.680  68.099  1.00  0.00    -0.112 N  
BRANCH  18  19
HETATM   19  C   UNL     1      -5.931  18.078  68.194  1.00  0.00    -0.171 A  
HETATM   20  C   UNL     1      -5.825  20.081  69.542  1.00  0.00    -0.337 A  
HETATM   21  C   UNL     1      -5.519  17.910  70.724  1.00  0.00    -0.175 C  
HETATM   22  C   UNL     1      -5.769  18.680  69.456  1.00  0.00    -0.246 A  
HETATM   23  C   UNL     1      -6.059  20.862  68.408  1.00  0.00    -0.362 A  
HETATM   24  C   UNL     1      -6.279  20.259  67.177  1.00  0.00    -0.225 A  
HETATM   25  C   UNL     1      -6.226  18.871  67.065  1.00  0.00    -0.185 A  
HETATM   26 CL   UNL     1      -6.726  18.182  65.553  1.00  0.00    -0.256 Cl 
ENDBRANCH  18  19
ENDBRANCH  14  15
ENDBRANCH   8  10
ENDBRANCH   4   8
BRANCH   5  27
HETATM   27  N   UNL     1      -9.366   8.721  70.430  1.00  0.00    -0.169 NA 
HETATM   28  C   UNL     1     -10.049   9.541  71.453  1.00  0.00    -0.047 C  
HETATM   29  C   UNL     1      -9.972   7.392  70.258  1.00  0.00    -0.188 C  
HETATM   30  N   UNL     1     -12.260   8.384  70.947  1.00  0.00    -0.170 NA 
HETATM   31  C   UNL     1     -11.544   9.671  71.101  1.00  0.00    -0.381 C  
HETATM   32  C   UNL     1     -11.492   7.552  69.973  1.00  0.00    -0.029 C  
BRANCH  30  33
HETATM   33  C   UNL     1     -12.428   7.659  72.226  1.00  0.00    -0.151 C  
BRANCH  33  34
HETATM   34  C   UNL     1     -13.641   6.712  72.243  1.00  0.00     0.303 C  
HETATM   35  H   UNL     1     -14.015   4.836  72.726  1.00  0.00     0.000 HD 
HETATM   36  O   UNL     1     -13.266   5.421  72.715  1.00  0.00     0.300 OA 
ENDBRANCH  33  34
ENDBRANCH  30  33
ENDBRANCH   5  27
TORSDOF 7
ENDMDL
MODEL      212
REMARK 921   NORMALIZED FREE ENERGY PREDICTED BY IDOCK:   -2.55 KCAL/MOL
REMARK 922        TOTAL FREE ENERGY PREDICTED BY IDOCK:   -3.97 KCAL/MOL
REMARK 923 INTER-LIGAND FREE ENERGY PREDICTED BY IDOCK:   -2.94 KCAL/MOL
REMARK 924 INTRA-LIGAND FREE ENERGY PREDICTED BY IDOCK:   -1.03 KCAL/MOL
REMARK 927      BINDING AFFINITY PREDICTED BY RF-SCORE:    0.00 PKD
ROOT
HETATM    1  C   UNL     1      -5.443   8.119  70.486  1.00  0.00    -0.022 C  
HETATM    2  C   UNL     1      -6.117   9.393  70.084  1.00  0.00    -0.042 A  
HETATM    3  N   UNL     1      -5.358  10.502  70.042  1.00  0.00    -0.039 NA 
HETATM    4  C   UNL     1      -5.938  11.605  69.557  1.00  0.00    -0.090 A  
HETATM    5  C   UNL     1      -7.988  10.451  69.268  1.00  0.00    -0.157 A  
HETATM    6  C   UNL     1      -7.226  11.585  69.090  1.00  0.00    -0.084 A  
HETATM    7  N   UNL     1      -7.419   9.330  69.743  1.00  0.00    -0.067 NA 
ENDROOT
BRANCH   4   8
HETATM    8  N   UNL     1      -5.158  12.756  69.525  1.00  0.00    -0.071 NA 
HETATM    9  H   UNL     1      -4.256  12.698  69.997  1.00  0.00     0.000 HD 
BRANCH   8  10
HETATM   10  C   UNL     1      -5.448  13.940  68.946  1.00  0.00    -0.074 A  
HETATM   11  S   UNL     1      -6.358  15.064  69.864  1.00  0.00    -0.166 SA 
HETATM   12  N   UNL     1      -5.132  14.357  67.735  1.00  0.00    -0.300 NA 
HETATM   13  C   UNL     1      -5.770  15.550  67.455  1.00  0.00    -0.027 A  
HETATM   14  C   UNL     1      -6.539  16.054  68.481  1.00  0.00    -0.123 A  
BRANCH  14  15
HETATM   15  C   UNL     1      -7.438  17.183  68.473  1.00  0.00    -0.238 C  
HETATM   16  O   UNL     1      -7.411  18.053  69.338  1.00  0.00    -0.053 OA 
HETATM   17  H   UNL     1      -8.384  16.330  66.837  1.00  0.00     0.000 HD 
HETATM   18  N   UNL     1      -8.350  17.160  67.429  1.00  0.00    -0.188 N  
BRANCH  18  19
HETATM   19  C   UNL     1      -9.227  18.217  67.142  1.00  0.00    -0.256 A  
HETATM   20  C   UNL     1     -11.485  19.062  66.982  1.00  0.00     0.717 A  
HETATM   21  C   UNL     1     -11.219  16.675  67.641  1.00  0.00    -0.007 C  
HETATM   22  C   UNL     1     -10.612  17.993  67.245  1.00  0.00    -0.358 A  
HETATM   23  C   UNL     1     -10.995  20.314  66.605  1.00  0.00     0.341 A  
HETATM   24  C   UNL     1      -9.630  20.512  66.445  1.00  0.00    -0.272 A  
HETATM   25  C   UNL     1      -8.743  19.467  66.702  1.00  0.00    -0.342 A  
HETATM   26 CL   UNL     1      -7.082  19.720  66.272  1.00  0.00    -0.240 Cl 
ENDBRANCH  18  19
ENDBRANCH  14  15
ENDBRANCH   8  10
ENDBRANCH   4   8
BRANCH   5  27
HETATM   27  N   UNL     1      -9.340  10.478  68.901  1.00  0.00    -0.179 NA 
HETATM   28  C   UNL     1      -9.904  11.825  68.673  1.00  0.00    -0.144 C  
HETATM   29  C   UNL     1     -10.232   9.601  69.674  1.00  0.00    -0.222 C  
HETATM   30  N   UNL     1     -12.265  10.872  68.700  1.00  0.00    -0.474 NA 
HETATM   31  C   UNL     1     -11.274  11.703  67.978  1.00  0.00    -0.263 C  
HETATM   32  C   UNL     1     -11.627   9.552  68.988  1.00  0.00     0.431 C  
BRANCH  30  33
HETATM   33  C   UNL     1     -12.742  11.499  69.953  1.00  0.00     0.150 C  
BRANCH  33  34
HETATM   34  C   UNL     1     -13.608  10.566  70.819  1.00  0.00     0.365 C  
HETATM   35  H   UNL     1     -13.889  10.208  72.738  1.00  0.00     0.000 HD 
HETATM   36  O   UNL     1     -13.354  10.784  72.204  1.00  0.00    -0.442 OA 
ENDBRANCH  33  34
ENDBRANCH  30  33
ENDBRANCH   5  27
TORSDOF 7
ENDMDL
MODEL      213
REMARK 921   NORMALIZED FREE ENERGY PREDICTED BY IDOCK:   -2.54 KCAL/MOL
REMARK 922        TOTAL FREE ENERGY PREDICTED BY IDOCK:   -3.96 KCAL/MOL
REMARK 923 INTER-LIGAND FREE ENERGY PREDICTED BY IDOCK:   -4.66 KCAL/MOL
REMARK 924 INTRA-LIGAND FREE ENERGY PREDICTED BY IDOCK:    0.70 KCAL/MOL
REMARK 927      BINDING AFFINITY PREDICTED BY RF-SCORE:    0.00 PKD
ROOT
HETATM    1  C   UNL     1      -8.842  19.627  65.982  1.00  0.00    -0.276 C  
HETATM    2  C   UNL     1      -9.076  18.345  66.716  1.00  0.00    -0.292 A  
HETATM    3  N   UNL     1     -10.122  17.596  66.325  1.00  0.00    -0.381 NA 
HETATM    4  C   UNL     1     -10.243  16.394  66.899  1.00  0.00    -0.290 A  
HETATM    5  C   UNL     1      -8.337  16.799  68.249  1.00  0.00    -0.213 A  
HETATM    6  C   UNL     1      -9.319  15.940  67.804  1.00  0.00    -0.207 A  
HETATM    7  N   UNL     1      -8.194  18.006  67.676  1.00  0.00    -0.238 NA 
ENDROOT
BRANCH   4   8
HETATM    8  N   UNL     1     -11.332  15.624  66.505  1.00  0.00    -0.040 NA 
HETATM    9  H   UNL     1     -12.188  16.136  66.294  1.00  0.00     0.000 HD 
BRANCH   8  10
HETATM   10  C   UNL     1     -11.395  14.283  66.369  1.00  0.00    -0.343 A  
HETATM   11  S   UNL     1      -9.914  13.420  66.365  1.00  0.00    -0.298 SA 
HETATM   12  N   UNL     1     -12.465  13.525  66.221  1.00  0.00    -0.370 NA 
HETATM   13  C   UNL     1     -12.098  12.226  65.929  1.00  0.00    -0.186 A  
HETATM   14  C   UNL     1     -10.740  11.996  65.900  1.00  0.00    -0.275 A  
BRANCH  14  15
HETATM   15  C   UNL     1     -10.027  10.810  65.491  1.00  0.00    -0.263 C  
HETATM   16  O   UNL     1      -9.834  10.530  64.312  1.00  0.00    -0.300 OA 
HETATM   17  H   UNL     1      -9.948  10.255  67.488  1.00  0.00     0.000 HD 
HETATM   18  N   UNL     1      -9.627  10.010  66.551  1.00  0.00    -0.178 N  
BRANCH  18  19
HETATM   19  C   UNL     1      -8.805   8.883  66.403  1.00  0.00    -0.152 A  
HETATM   20  C   UNL     1      -8.490   6.496  66.610  1.00  0.00    -0.116 A  
HETATM   21  C   UNL     1     -10.684   7.411  67.351  1.00  0.00    -0.348 C  
HETATM   22  C   UNL     1      -9.307   7.624  66.784  1.00  0.00    -0.218 A  
HETATM   23  C   UNL     1      -7.198   6.616  66.093  1.00  0.00    -0.071 A  
HETATM   24  C   UNL     1      -6.685   7.868  65.777  1.00  0.00    -0.045 A  
HETATM   25  C   UNL     1      -7.478   9.003  65.939  1.00  0.00    -0.094 A  
HETATM   26 CL   UNL     1      -6.702  10.541  65.735  1.00  0.00    -0.128 Cl 
ENDBRANCH  18  19
ENDBRANCH  14  15
ENDBRANCH   8  10
ENDBRANCH   4   8
BRANCH   5  27
HETATM   27  N   UNL     1      -7.473  16.371  69.265  1.00  0.00    -0.233 NA 
HETATM   28  C   UNL     1      -6.041  16.332  68.899  1.00  0.00    -0.131 C  
HETATM   29  C   UNL     1      -7.908  15.186  70.020  1.00  0.00     0.229 C  
HETATM   30  N   UNL     1      -5.516  14.965  70.982  1.00  0.00    -0.132 NA 
HETATM   31  C   UNL     1      -5.186  16.158  70.169  1.00  0.00    -0.156 C  
HETATM   32  C   UNL     1      -6.984  14.996  71.256  1.00  0.00     1.401 C  
BRANCH  30  33
HETATM   33  C   UNL     1      -5.140  13.694  70.324  1.00  0.00    -0.095 C  
BRANCH  33  34
HETATM   34  C   UNL     1      -6.291  13.044  69.535  1.00  0.00    -0.103 C  
HETATM   35  H   UNL     1      -7.054  11.241  69.297  1.00  0.00     0.000 HD 
HETATM   36  O   UNL     1      -6.343  11.642  69.784  1.00  0.00    -0.122 OA 
ENDBRANCH  33  34
ENDBRANCH  30  33
ENDBRANCH   5  27
TORSDOF 7
ENDMDL
MODEL      214
REMARK 921   NORMALIZED FREE ENERGY PREDICTED BY IDOCK:   -1.77 KCAL/MOL
REMARK 922        TOTAL FREE ENERGY PREDICTED BY IDOCK:   -2.87 KCAL/MOL
REMARK 923 INTER-LIGAND FREE ENERGY PREDICTED BY IDOCK:   -4.03 KCAL/MOL
REMARK 924 INTRA-LIGAND FREE ENERGY PREDICTED BY IDOCK:    1.16 KCAL/MOL
REMARK 927      BINDING AFFINITY PREDICTED BY RF-SCORE:    0.00 PKD
ROOT
HETATM    1  C   UNL     1      -9.363  10.389  62.338  1.00  0.00    -0.294 C  
HETATM    2  C   UNL     1      -9.335  11.023  63.693  1.00  0.00    -0.238 A  
HETATM    3  N   UNL     1      -9.461  12.361  63.746  1.00  0.00     0.036 NA 
HETATM    4  C   UNL     1      -9.566  12.903  64.965  1.00  0.00     0.210 A  
HETATM    5  C   UNL     1      -9.335  10.772  65.978  1.00  0.00    -0.186 A  
HETATM    6  C   UNL     1      -9.587  12.122  66.092  1.00  0.00    -0.250 A  
HETATM    7  N   UNL     1      -9.239  10.209  64.762  1.00  0.00    -0.220 NA 
ENDROOT
BRANCH   4   8
HETATM    8  N   UNL     1      -9.684  14.287  65.023  1.00  0.00    -0.492 NA 
HETATM    9  H   UNL     1      -9.745  14.768  64.125  1.00  0.00     0.000 HD 
BRANCH   8  10
HETATM   10  C   UNL     1      -9.729  15.071  66.119  1.00  0.00    -0.306 A  
HETATM   11  S   UNL     1     -10.498  14.436  67.512  1.00  0.00    -0.253 SA 
HETATM   12  N   UNL     1      -9.264  16.297  66.267  1.00  0.00    -0.302 NA 
HETATM   13  C   UNL     1      -9.670  16.823  67.478  1.00  0.00    -0.252 A  
HETATM   14  C   UNL     1     -10.413  15.970  68.265  1.00  0.00    -0.269 A  
BRANCH  14  15
HETATM   15  C   UNL     1     -11.106  16.244  69.501  1.00  0.00    -0.330 C  
HETATM   16  O   UNL     1     -11.620  17.332  69.741  1.00  0.00     1.080 OA 
HETATM   17  H   UNL     1     -10.527  14.366  70.160  1.00  0.00     0.000 HD 
HETATM   18  N   UNL     1     -11.092  15.182  70.392  1.00  0.00    -0.267 N  
BRANCH  18  19
HETATM   19  C   UNL     1     -11.815  15.171  71.594  1.00  0.00    -0.387 A  
HETATM   20  C   UNL     1     -13.369  14.065  73.078  1.00  0.00    -0.303 A  
HETATM   21  C   UNL     1     -12.859  12.922  70.925  1.00  0.00    -0.203 C  
HETATM   22  C   UNL     1     -12.667  14.084  71.861  1.00  0.00    -0.388 A  
HETATM   23  C   UNL     1     -13.245  15.110  73.995  1.00  0.00     0.515 A  
HETATM   24  C   UNL     1     -12.451  16.210  73.699  1.00  0.00    -0.684 A  
HETATM   25  C   UNL     1     -11.742  16.251  72.500  1.00  0.00    -0.393 A  
HETATM   26 CL   UNL     1     -10.951  17.743  72.102  1.00  0.00     1.987 Cl 
ENDBRANCH  18  19
ENDBRANCH  14  15
ENDBRANCH   8  10
ENDBRANCH   4   8
BRANCH   5  27
HETATM   27  N   UNL     1      -9.235  10.002  67.144  1.00  0.00    -0.141 NA 
HETATM   28  C   UNL     1      -9.883   8.675  67.081  1.00  0.00    -0.207 C  
HETATM   29  C   UNL     1      -9.493  10.712  68.406  1.00  0.00    -0.165 C  
HETATM   30  N   UNL     1      -9.690   8.429  69.608  1.00  0.00    -0.171 NA 
HETATM   31  C   UNL     1      -9.434   7.820  68.282  1.00  0.00    -0.147 C  
HETATM   32  C   UNL     1      -9.096   9.800  69.601  1.00  0.00    -0.220 C  
BRANCH  30  33
HETATM   33  C   UNL     1     -11.129   8.492  69.947  1.00  0.00    -0.112 C  
BRANCH  33  34
HETATM   34  C   UNL     1     -11.437   9.374  71.171  1.00  0.00    -0.352 C  
HETATM   35  H   UNL     1     -11.238   9.263  73.130  1.00  0.00     0.000 HD 
HETATM   36  O   UNL     1     -11.049   8.718  72.375  1.00  0.00    -0.327 OA 
ENDBRANCH  33  34
ENDBRANCH  30  33
ENDBRANCH   5  27
TORSDOF 7
ENDMDL
MODEL      215
REMARK 921   NORMALIZED FREE ENERGY PREDICTED BY IDOCK:   -1.50 KCAL/MOL
REMARK 922        TOTAL FREE ENERGY PREDICTED BY IDOCK:   -2.49 KCAL/MOL
REMARK 923 INTER-LIGAND FREE ENERGY PREDICTED BY IDOCK:   -2.31 KCAL/MOL
REMARK 924 INTRA-LIGAND FREE ENERGY PREDICTED BY IDOCK:   -0.18 KCAL/MOL
REMARK 927      BINDING AFFINITY PREDICTED BY RF-SCORE:    0.00 PKD
ROOT
HETATM    1  C   UNL     1      -6.233   7.393  70.960  1.00  0.00    -0.036 C  
HETATM    2  C   UNL     1      -6.604   8.601  70.160  1.00  0.00    -0.038 A  
HETATM    3  N   UNL     1      -5.854   9.704  70.331  1.00  0.00    -0.046 NA 
HETATM    4  C   UNL     1      -6.113  10.734  69.516  1.00  0.00    -0.057 A  
HETATM    5  C   UNL     1      -7.878   9.532  68.487  1.00  0.00    -0.085 A  
HETATM    6  C   UNL     1      -7.064  10.644  68.534  1.00  0.00    -0.069 A  
HETATM    7  N   UNL     1      -7.625   8.484  69.288  1.00  0.00    -0.092 NA 
ENDROOT
BRANCH   4   8
HETATM    8  N   UNL     1      -5.347  11.880  69.700  1.00  0.00    -0.067 NA 
HETATM    9  H   UNL     1      -4.532  11.780  70.306  1.00  0.00     0.000 HD 
BRANCH   8  10
HETATM   10  C   UNL     1      -5.548  13.106  69.176  1.00  0.00    -0.073 A  
HETATM   11  S   UNL     1      -6.408  14.241  70.130  1.00  0.00    -0.113 SA 
HETATM   12  N   UNL     1      -5.179  13.561  67.993  1.00  0.00    -0.107 NA 
HETATM   13  C   UNL     1      -5.734  14.804  67.760  1.00  0.00    -0.069 A  
HETATM   14  C   UNL     1      -6.494  15.306  68.794  1.00  0.00    -0.097 A  
BRANCH  14  15
HETATM   15  C   UNL     1      -7.320  16.489  68.824  1.00  0.00    -0.208 C  
HETATM   16  O   UNL     1      -7.254  17.316  69.728  1.00  0.00     0.148 OA 
HETATM   17  H   UNL     1      -8.289  15.770  67.137  1.00  0.00     0.000 HD 
HETATM   18  N   UNL     1      -8.213  16.569  67.767  1.00  0.00    -0.163 N  
BRANCH  18  19
HETATM   19  C   UNL     1      -9.016  17.692  67.516  1.00  0.00    -0.235 A  
HETATM   20  C   UNL     1      -9.255  19.921  66.613  1.00  0.00    -0.483 A  
HETATM   21  C   UNL     1      -6.997  18.880  66.463  1.00  0.00    -0.231 C  
HETATM   22  C   UNL     1      -8.440  18.810  66.885  1.00  0.00    -0.285 A  
HETATM   23  C   UNL     1     -10.602  19.930  66.979  1.00  0.00    -0.533 A  
HETATM   24  C   UNL     1     -11.151  18.849  67.657  1.00  0.00    -0.117 A  
HETATM   25  C   UNL     1     -10.363  17.734  67.936  1.00  0.00    -0.386 A  
HETATM   26 CL   UNL     1     -11.050  16.524  68.972  1.00  0.00    -0.311 Cl 
ENDBRANCH  18  19
ENDBRANCH  14  15
ENDBRANCH   8  10
ENDBRANCH   4   8
BRANCH   5  27
HETATM   27  N   UNL     1      -8.928   9.500  67.561  1.00  0.00    -0.125 NA 
HETATM   28  C   UNL     1      -8.891   8.374  66.603  1.00  0.00    -0.142 C  
HETATM   29  C   UNL     1      -9.264  10.784  66.928  1.00  0.00    -0.156 C  
HETATM   30  N   UNL     1     -10.652   9.508  65.156  1.00  0.00     1.100 NA 
HETATM   31  C   UNL     1     -10.240   8.275  65.866  1.00  0.00     0.784 C  
HETATM   32  C   UNL     1     -10.592  10.636  66.135  1.00  0.00    -0.142 C  
BRANCH  30  33
HETATM   33  C   UNL     1      -9.811   9.804  63.975  1.00  0.00     0.424 C  
BRANCH  33  34
HETATM   34  C   UNL     1      -8.529   8.956  63.904  1.00  0.00    -0.136 C  
HETATM   35  H   UNL     1      -7.670   7.723  62.626  1.00  0.00     0.000 HD 
HETATM   36  O   UNL     1      -8.462   8.246  62.670  1.00  0.00    -0.163 OA 
ENDBRANCH  33  34
ENDBRANCH  30  33
ENDBRANCH   5  27
TORSDOF 7
ENDMDL
MODEL      216
REMARK 921   NORMALIZED FREE ENERGY PREDICTED BY IDOCK:   -0.59 KCAL/MOL
REMARK 922        TOTAL FREE ENERGY PREDICTED BY IDOCK:   -1.21 KCAL/MOL
REMARK 923 INTER-LIGAND FREE ENERGY PREDICTED BY IDOCK:   -2.13 KCAL/MOL
REMARK 924 INTRA-LIGAND FREE ENERGY PREDICTED BY IDOCK:    0.91 KCAL/MOL
REMARK 927      BINDING AFFINITY PREDICTED BY RF-SCORE:    0.00 PKD
ROOT
HETATM    1  C   UNL     1     -10.170  10.759  63.496  1.00  0.00    -0.315 C  
HETATM    2  C   UNL     1     -10.079  11.379  64.855  1.00  0.00    -0.274 A  
HETATM    3  N   UNL     1      -9.650  10.594  65.859  1.00  0.00    -0.195 NA 
HETATM    4  C   UNL     1      -9.447  11.191  67.039  1.00  0.00    -0.177 A  
HETATM    5  C   UNL     1     -10.181  13.267  66.161  1.00  0.00    -0.296 A  
HETATM    6  C   UNL     1      -9.628  12.540  67.194  1.00  0.00    -0.208 A  
HETATM    7  N   UNL     1     -10.379  12.687  64.966  1.00  0.00    -0.295 NA 
ENDROOT
BRANCH   4   8
HETATM    8  N   UNL     1      -9.016  10.378  68.081  1.00  0.00    -0.130 NA 
HETATM    9  H   UNL     1      -8.013  10.388  68.270  1.00  0.00     0.000 HD 
BRANCH   8  10
HETATM   10  C   UNL     1      -9.760   9.579  68.874  1.00  0.00    -0.164 A  
HETATM   11  S   UNL     1      -9.019   8.158  69.479  1.00  0.00    -0.151 SA 
HETATM   12  N   UNL     1     -11.016   9.737  69.246  1.00  0.00    -0.219 NA 
HETATM   13  C   UNL     1     -11.468   8.611  69.905  1.00  0.00     0.152 A  
HETATM   14  C   UNL     1     -10.531   7.614  70.066  1.00  0.00    -0.229 A  
BRANCH  14  15
HETATM   15  C   UNL     1     -10.706   6.273  70.570  1.00  0.00    -0.269 C  
HETATM   16  O   UNL     1     -11.758   5.654  70.443  1.00  0.00     0.281 OA 
HETATM   17  H   UNL     1      -8.817   6.417  71.413  1.00  0.00     0.000 HD 
HETATM   18  N   UNL     1      -9.597   5.783  71.241  1.00  0.00    -0.164 N  
BRANCH  18  19
HETATM   19  C   UNL     1      -9.489   4.459  71.695  1.00  0.00    -0.153 A  
HETATM   20  C   UNL     1     -10.381   2.624  72.989  1.00  0.00    -0.235 A  
HETATM   21  C   UNL     1     -11.659   4.761  73.035  1.00  0.00    -0.252 C  
HETATM   22  C   UNL     1     -10.480   3.957  72.558  1.00  0.00    -0.176 A  
HETATM   23  C   UNL     1      -9.313   1.817  72.592  1.00  0.00    -0.114 A  
HETATM   24  C   UNL     1      -8.305   2.337  71.790  1.00  0.00    -0.067 A  
HETATM   25  C   UNL     1      -8.382   3.656  71.347  1.00  0.00    -0.072 A  
HETATM   26 CL   UNL     1      -6.988   4.299  70.538  1.00  0.00    -0.033 Cl 
ENDBRANCH  18  19
ENDBRANCH  14  15
ENDBRANCH   8  10
ENDBRANCH   4   8
BRANCH   5  27
HETATM   27  N   UNL     1     -10.478  14.620  66.369  1.00  0.00    -0.288 NA 
HETATM   28  C   UNL     1      -9.485  15.369  67.169  1.00  0.00    -0.213 C  
HETATM   29  C   UNL     1     -11.867  14.920  66.747  1.00  0.00    -0.174 C  
HETATM   30  N   UNL     1     -11.124  17.296  67.454  1.00  0.00    -0.034 NA 
HETATM   31  C   UNL     1      -9.760  16.881  67.054  1.00  0.00    -0.253 C  
HETATM   32  C   UNL     1     -12.096  16.457  66.690  1.00  0.00     2.000 C  
BRANCH  30  33
HETATM   33  C   UNL     1     -11.364  17.169  68.909  1.00  0.00     0.411 C  
BRANCH  33  34
HETATM   34  C   UNL     1     -10.099  16.826  69.715  1.00  0.00     0.092 C  
HETATM   35  H   UNL     1      -9.628  15.736  71.290  1.00  0.00     0.000 HD 
HETATM   36  O   UNL     1     -10.409  15.947  70.792  1.00  0.00     0.084 OA 
ENDBRANCH  33  34
ENDBRANCH  30  33
ENDBRANCH   5  27
TORSDOF 7
ENDMDL
MODEL      217
REMARK 921   NORMALIZED FREE ENERGY PREDICTED BY IDOCK:   -0.15 KCAL/MOL
REMARK 922        TOTAL FREE ENERGY PREDICTED BY IDOCK:   -0.58 KCAL/MOL
REMARK 923 INTER-LIGAND FREE ENERGY PREDICTED BY IDOCK:   -1.28 KCAL/MOL
REMARK 924 INTRA-LIGAND FREE ENERGY PREDICTED BY IDOCK:    0.70 KCAL/MOL
REMARK 927      BINDING AFFINITY PREDICTED BY RF-SCORE:    0.00 PKD
ROOT
HETATM    1  C   UNL     1     -11.086   7.972  66.482  1.00  0.00     1.312 C  
HETATM    2  C   UNL     1     -10.442   9.319  66.574  1.00  0.00    -0.134 A  
HETATM    3  N   UNL     1      -9.213   9.376  67.116  1.00  0.00    -0.133 NA 
HETATM    4  C   UNL     1      -8.595  10.561  67.073  1.00  0.00    -0.127 A  
HETATM    5  C   UNL     1     -10.480  11.554  66.033  1.00  0.00    -0.252 A  
HETATM    6  C   UNL     1      -9.175  11.645  66.466  1.00  0.00    -0.205 A  
HETATM    7  N   UNL     1     -11.112  10.368  66.058  1.00  0.00     0.256 NA 
ENDROOT
BRANCH   4   8
HETATM    8  N   UNL     1      -7.329  10.625  67.645  1.00  0.00    -0.089 NA 
HETATM    9  H   UNL     1      -6.868  11.534  67.611  1.00  0.00     0.000 HD 
BRANCH   8  10
HETATM   10  C   UNL     1      -6.636   9.632  68.241  1.00  0.00    -0.057 A  
HETATM   11  S   UNL     1      -7.256   8.041  68.097  1.00  0.00    -0.096 SA 
HETATM   12  N   UNL     1      -5.526   9.720  68.949  1.00  0.00    -0.036 NA 
HETATM   13  C   UNL     1      -5.235   8.506  69.540  1.00  0.00    -0.030 A  
HETATM   14  C   UNL     1      -6.112   7.487  69.241  1.00  0.00    -0.031 A  
BRANCH  14  15
HETATM   15  C   UNL     1      -6.184   6.156  69.796  1.00  0.00    -0.027 C  
HETATM   16  O   UNL     1      -5.367   5.283  69.520  1.00  0.00    -0.003 OA 
HETATM   17  H   UNL     1      -7.975   6.701  70.688  1.00  0.00     0.000 HD 
HETATM   18  N   UNL     1      -7.278   5.959  70.624  1.00  0.00    -0.080 N  
BRANCH  18  19
HETATM   19  C   UNL     1      -7.477   4.793  71.379  1.00  0.00    -0.077 A  
HETATM   20  C   UNL     1      -8.875   2.915  71.978  1.00  0.00    -0.119 A  
HETATM   21  C   UNL     1      -9.804   4.530  70.326  1.00  0.00    -0.299 C  
HETATM   22  C   UNL     1      -8.691   4.096  71.240  1.00  0.00    -0.134 A  
HETATM   23  C   UNL     1      -7.888   2.452  72.850  1.00  0.00    -0.050 A  
HETATM   24  C   UNL     1      -6.717   3.177  73.031  1.00  0.00    -0.029 A  
HETATM   25  C   UNL     1      -6.510   4.350  72.307  1.00  0.00    -0.022 A  
HETATM   26 CL   UNL     1      -5.134   5.313  72.743  1.00  0.00    -0.008 Cl 
ENDBRANCH  18  19
ENDBRANCH  14  15
ENDBRANCH   8  10
ENDBRANCH   4   8
BRANCH   5  27
HETATM   27  N   UNL     1     -11.107  12.699  65.527  1.00  0.00    -0.286 NA 
HETATM   28  C   UNL     1     -10.520  13.242  64.284  1.00  0.00    -0.352 C  
HETATM   29  C   UNL     1     -11.435  13.740  66.513  1.00  0.00    -0.348 C  
HETATM   30  N   UNL     1     -11.835  15.403  64.572  1.00  0.00    -0.332 NA 
HETATM   31  C   UNL     1     -11.475  14.284  63.671  1.00  0.00     0.631 C  
HETATM   32  C   UNL     1     -12.342  14.813  65.848  1.00  0.00     0.024 C  
BRANCH  30  33
HETATM   33  C   UNL     1     -10.703  16.317  64.840  1.00  0.00    -0.234 C  
BRANCH  33  34
HETATM   34  C   UNL     1     -11.138  17.739  65.239  1.00  0.00     0.576 C  
HETATM   35  H   UNL     1     -10.402  19.250  66.270  1.00  0.00     0.000 HD 
HETATM   36  O   UNL     1     -10.133  18.373  66.024  1.00  0.00    -0.491 OA 
ENDBRANCH  33  34
ENDBRANCH  30  33
ENDBRANCH   5  27
TORSDOF 7
ENDMDL
MODEL      218
REMARK 921   NORMALIZED FREE ENERGY PREDICTED BY IDOCK:    0.27 KCAL/MOL
REMARK 922        TOTAL FREE ENERGY PREDICTED BY IDOCK:    0.01 KCAL/MOL
REMARK 923 INTER-LIGAND FREE ENERGY PREDICTED BY IDOCK:    0.41 KCAL/MOL
REMARK 924 INTRA-LIGAND FREE ENERGY PREDICTED BY IDOCK:   -0.40 KCAL/MOL
REMARK 927      BINDING AFFINITY PREDICTED BY RF-SCORE:    0.00 PKD
ROOT
HETATM    1  C   UNL     1     -12.304  20.115  67.378  1.00  0.00     3.614 C  
HETATM    2  C   UNL     1     -11.427  18.911  67.527  1.00  0.00     0.791 A  
HETATM    3  N   UNL     1     -12.026  17.708  67.480  1.00  0.00     1.870 NA 
HETATM    4  C   UNL     1     -11.220  16.640  67.482  1.00  0.00     0.051 A  
HETATM    5  C   UNL     1      -9.308  18.030  67.653  1.00  0.00    -0.259 A  
HETATM    6  C   UNL     1      -9.856  16.777  67.487  1.00  0.00    -0.255 A  
HETATM    7  N   UNL     1     -10.101  19.114  67.641  1.00  0.00    -0.354 NA 
ENDROOT
BRANCH   4   8
HETATM    8  N   UNL     1     -11.837  15.394  67.447  1.00  0.00    -0.169 NA 
HETATM    9  H   UNL     1     -12.816  15.389  67.162  1.00  0.00     0.000 HD 
BRANCH   8  10
HETATM   10  C   UNL     1     -11.300  14.193  67.744  1.00  0.00    -0.306 A  
HETATM   11  S   UNL     1     -10.293  13.466  66.563  1.00  0.00    -0.289 SA 
HETATM   12  N   UNL     1     -11.458  13.474  68.839  1.00  0.00    -0.283 NA 
HETATM   13  C   UNL     1     -10.893  12.224  68.681  1.00  0.00    -0.236 A  
HETATM   14  C   UNL     1     -10.269  12.016  67.471  1.00  0.00    -0.198 A  
BRANCH  14  15
HETATM   15  C   UNL     1      -9.714  10.797  66.931  1.00  0.00    -0.178 C  
HETATM   16  O   UNL     1     -10.327   9.734  66.938  1.00  0.00    -0.233 OA 
HETATM   17  H   UNL     1      -7.944  11.828  66.610  1.00  0.00     0.000 HD 
HETATM   18  N   UNL     1      -8.421  10.941  66.452  1.00  0.00    -0.158 N  
BRANCH  18  19
HETATM   19  C   UNL     1      -7.735   9.930  65.762  1.00  0.00    -0.112 A  
HETATM   20  C   UNL     1      -7.188   8.835  63.678  1.00  0.00    -0.094 A  
HETATM   21  C   UNL     1      -8.777  10.750  63.562  1.00  0.00    -0.106 C  
HETATM   22  C   UNL     1      -7.898   9.832  64.368  1.00  0.00    -0.137 A  
HETATM   23  C   UNL     1      -6.357   7.943  64.359  1.00  0.00    -0.056 A  
HETATM   24  C   UNL     1      -6.248   8.005  65.742  1.00  0.00    -0.041 A  
HETATM   25  C   UNL     1      -6.940   8.988  66.448  1.00  0.00    -0.080 A  
HETATM   26 CL   UNL     1      -6.931   8.867  68.179  1.00  0.00    -0.076 Cl 
ENDBRANCH  18  19
ENDBRANCH  14  15
ENDBRANCH   8  10
ENDBRANCH   4   8
BRANCH   5  27
HETATM   27  N   UNL     1      -7.918  18.149  67.782  1.00  0.00    -0.233 NA 
HETATM   28  C   UNL     1      -7.287  17.197  68.720  1.00  0.00    -0.241 C  
HETATM   29  C   UNL     1      -7.402  19.520  67.917  1.00  0.00    -0.275 C  
HETATM   30  N   UNL     1      -5.131  18.550  68.690  1.00  0.00    -0.180 NA 
HETATM   31  C   UNL     1      -5.758  17.218  68.531  1.00  0.00    -0.150 C  
HETATM   32  C   UNL     1      -5.852  19.501  67.792  1.00  0.00    -0.195 C  
BRANCH  30  33
HETATM   33  C   UNL     1      -5.157  19.038  70.087  1.00  0.00    -0.203 C  
BRANCH  33  34
HETATM   34  C   UNL     1      -5.650  20.490  70.224  1.00  0.00    -0.314 C  
HETATM   35  H   UNL     1      -5.445  21.982  71.498  1.00  0.00     0.000 HD 
HETATM   36  O   UNL     1      -5.141  21.086  71.413  1.00  0.00    -0.503 OA 
ENDBRANCH  33  34
ENDBRANCH  30  33
ENDBRANCH   5  27
TORSDOF 7
ENDMDL
MODEL      219
REMARK 921   NORMALIZED FREE ENERGY PREDICTED BY IDOCK:    1.03 KCAL/MOL
REMARK 922        TOTAL FREE ENERGY PREDICTED BY IDOCK:    1.07 KCAL/MOL
REMARK 923 INTER-LIGAND FREE ENERGY PREDICTED BY IDOCK:    0.82 KCAL/MOL
REMARK 924 INTRA-LIGAND FREE ENERGY PREDICTED BY IDOCK:    0.25 KCAL/MOL
REMARK 927      BINDING AFFINITY PREDICTED BY RF-SCORE:    0.00 PKD
ROOT
HETATM    1  C   UNL     1     -10.643  10.596  62.330  1.00  0.00     1.167 C  
HETATM    2  C   UNL     1      -9.926  11.194  63.499  1.00  0.00    -0.379 A  
HETATM    3  N   UNL     1      -9.966  12.532  63.624  1.00  0.00    -0.333 NA 
HETATM    4  C   UNL     1      -9.436  13.044  64.741  1.00  0.00     0.508 A  
HETATM    5  C   UNL     1      -8.802  10.883  65.480  1.00  0.00    -0.188 A  
HETATM    6  C   UNL     1      -8.920  12.235  65.719  1.00  0.00     0.217 A  
HETATM    7  N   UNL     1      -9.339  10.350  64.371  1.00  0.00    -0.246 NA 
ENDROOT
BRANCH   4   8
HETATM    8  N   UNL     1      -9.465  14.428  64.866  1.00  0.00    -0.102 NA 
HETATM    9  H   UNL     1      -9.467  14.956  63.992  1.00  0.00     0.000 HD 
BRANCH   8  10
HETATM   10  C   UNL     1      -9.490  15.159  65.999  1.00  0.00    -0.323 A  
HETATM   11  S   UNL     1     -10.406  14.547  67.312  1.00  0.00    -0.261 SA 
HETATM   12  N   UNL     1      -8.905  16.317  66.239  1.00  0.00    -0.308 NA 
HETATM   13  C   UNL     1      -9.324  16.827  67.452  1.00  0.00    -0.233 A  
HETATM   14  C   UNL     1     -10.201  16.025  68.150  1.00  0.00    -0.243 A  
BRANCH  14  15
HETATM   15  C   UNL     1     -10.933  16.314  69.359  1.00  0.00    -0.337 C  
HETATM   16  O   UNL     1     -11.391  17.426  69.602  1.00  0.00     0.770 OA 
HETATM   17  H   UNL     1     -10.500  14.390  69.999  1.00  0.00     0.000 HD 
HETATM   18  N   UNL     1     -11.025  15.235  70.224  1.00  0.00    -0.284 N  
BRANCH  18  19
HETATM   19  C   UNL     1     -11.803  15.242  71.392  1.00  0.00    -0.372 A  
HETATM   20  C   UNL     1     -13.644  14.341  72.672  1.00  0.00    -0.601 A  
HETATM   21  C   UNL     1     -13.266  13.375  70.408  1.00  0.00     0.417 C  
HETATM   22  C   UNL     1     -12.884  14.347  71.491  1.00  0.00    -0.411 A  
HETATM   23  C   UNL     1     -13.352  15.217  73.719  1.00  0.00     0.159 A  
HETATM   24  C   UNL     1     -12.322  16.141  73.591  1.00  0.00    -0.667 A  
HETATM   25  C   UNL     1     -11.553  16.165  72.430  1.00  0.00    -0.296 A  
HETATM   26 CL   UNL     1     -10.436  17.481  72.251  1.00  0.00     3.908 Cl 
ENDBRANCH  18  19
ENDBRANCH  14  15
ENDBRANCH   8  10
ENDBRANCH   4   8
BRANCH   5  27
HETATM   27  N   UNL     1      -8.161  10.080  66.433  1.00  0.00    -0.118 NA 
HETATM   28  C   UNL     1      -6.733   9.807  66.170  1.00  0.00    -0.085 C  
HETATM   29  C   UNL     1      -8.905   8.890  66.873  1.00  0.00    -0.127 C  
HETATM   30  N   UNL     1      -6.731   7.965  67.929  1.00  0.00    -0.066 NA 
HETATM   31  C   UNL     1      -6.080   9.198  67.426  1.00  0.00    -0.054 C  
HETATM   32  C   UNL     1      -8.186   8.257  68.098  1.00  0.00    -0.128 C  
BRANCH  30  33
HETATM   33  C   UNL     1      -6.538   6.804  67.032  1.00  0.00    -0.044 C  
BRANCH  33  34
HETATM   34  C   UNL     1      -7.305   5.546  67.479  1.00  0.00    -0.076 C  
HETATM   35  H   UNL     1      -7.014   4.020  68.694  1.00  0.00     0.000 HD 
HETATM   36  O   UNL     1      -6.540   4.796  68.418  1.00  0.00    -0.043 OA 
ENDBRANCH  33  34
ENDBRANCH  30  33
ENDBRANCH   5  27
TORSDOF 7
ENDMDL
MODEL      220
REMARK 921   NORMALIZED FREE ENERGY PREDICTED BY IDOCK:    1.07 KCAL/MOL
REMARK 922        TOTAL FREE ENERGY PREDICTED BY IDOCK:    1.14 KCAL/MOL
REMARK 923 INTER-LIGAND FREE ENERGY PREDICTED BY IDOCK:    1.70 KCAL/MOL
REMARK 924 INTRA-LIGAND FREE ENERGY PREDICTED BY IDOCK:   -0.57 KCAL/MOL
REMARK 927      BINDING AFFINITY PREDICTED BY RF-SCORE:    0.00 PKD
ROOT
HETATM    1  C   UNL     1      -8.570  15.691  65.402  1.00  0.00     1.814 C  
HETATM    2  C   UNL     1      -8.887  14.411  66.109  1.00  0.00     0.261 A  
HETATM    3  N   UNL     1      -8.087  13.359  65.860  1.00  0.00     1.885 NA 
HETATM    4  C   UNL     1      -8.299  12.261  66.595  1.00  0.00    -0.014 A  
HETATM    5  C   UNL     1     -10.119  13.302  67.702  1.00  0.00    -0.229 A  
HETATM    6  C   UNL     1      -9.256  12.235  67.576  1.00  0.00    -0.181 A  
HETATM    7  N   UNL     1      -9.914  14.417  66.981  1.00  0.00    -0.253 NA 
ENDROOT
BRANCH   4   8
HETATM    8  N   UNL     1      -7.482  11.168  66.331  1.00  0.00    -0.245 NA 
HETATM    9  H   UNL     1      -7.056  11.142  65.404  1.00  0.00     0.000 HD 
BRANCH   8  10
HETATM   10  C   UNL     1      -7.182  10.138  67.149  1.00  0.00    -0.090 A  
HETATM   11  S   UNL     1      -8.474   9.414  68.011  1.00  0.00    -0.120 SA 
HETATM   12  N   UNL     1      -6.000   9.606  67.395  1.00  0.00    -0.048 NA 
HETATM   13  C   UNL     1      -6.089   8.693  68.428  1.00  0.00    -0.050 A  
HETATM   14  C   UNL     1      -7.356   8.508  68.935  1.00  0.00    -0.086 A  
BRANCH  14  15
HETATM   15  C   UNL     1      -7.771   7.751  70.092  1.00  0.00    -0.090 C  
HETATM   16  O   UNL     1      -7.012   7.502  71.024  1.00  0.00    -0.053 OA 
HETATM   17  H   UNL     1      -9.594   7.446  69.152  1.00  0.00     0.000 HD 
HETATM   18  N   UNL     1      -9.081   7.305  70.022  1.00  0.00    -0.149 N  
BRANCH  18  19
HETATM   19  C   UNL     1      -9.741   6.670  71.086  1.00  0.00    -0.174 A  
HETATM   20  C   UNL     1     -11.063   6.823  73.103  1.00  0.00    -0.220 A  
HETATM   21  C   UNL     1     -10.400   8.968  72.025  1.00  0.00    -0.287 C  
HETATM   22  C   UNL     1     -10.382   7.464  72.055  1.00  0.00    -0.223 A  
HETATM   23  C   UNL     1     -11.086   5.431  73.200  1.00  0.00    -0.363 A  
HETATM   24  C   UNL     1     -10.400   4.654  72.276  1.00  0.00    -0.251 A  
HETATM   25  C   UNL     1      -9.719   5.266  71.225  1.00  0.00    -0.166 A  
HETATM   26 CL   UNL     1      -8.709   4.253  70.244  1.00  0.00    -0.109 Cl 
ENDBRANCH  18  19
ENDBRANCH  14  15
ENDBRANCH   8  10
ENDBRANCH   4   8
BRANCH   5  27
HETATM   27  N   UNL     1     -11.171  13.217  68.623  1.00  0.00    -0.258 NA 
HETATM   28  C   UNL     1     -11.801  14.506  68.981  1.00  0.00    -0.318 C  
HETATM   29  C   UNL     1     -10.937  12.346  69.785  1.00  0.00     0.308 C  
HETATM   30  N   UNL     1     -12.988  13.411  70.950  1.00  0.00    -0.182 NA 
HETATM   31  C   UNL     1     -13.120  14.247  69.734  1.00  0.00     0.646 C  
HETATM   32  C   UNL     1     -12.270  12.159  70.564  1.00  0.00    -0.304 C  
BRANCH  30  33
HETATM   33  C   UNL     1     -12.272  14.099  72.049  1.00  0.00    -0.049 C  
BRANCH  33  34
HETATM   34  C   UNL     1     -13.190  14.530  73.207  1.00  0.00    -0.234 C  
HETATM   35  H   UNL     1     -14.666  13.753  74.260  1.00  0.00     0.000 HD 
HETATM   36  O   UNL     1     -14.100  13.487  73.544  1.00  0.00     1.534 OA 
ENDBRANCH  33  34
ENDBRANCH  30  33
ENDBRANCH   5  27
TORSDOF 7
ENDMDL
MODEL      221
REMARK 921   NORMALIZED FREE ENERGY PREDICTED BY IDOCK:    1.15 KCAL/MOL
REMARK 922        TOTAL FREE ENERGY PREDICTED BY IDOCK:    1.24 KCAL/MOL
REMARK 923 INTER-LIGAND FREE ENERGY PREDICTED BY IDOCK:    1.47 KCAL/MOL
REMARK 924 INTRA-LIGAND FREE ENERGY PREDICTED BY IDOCK:   -0.23 KCAL/MOL
REMARK 927      BINDING AFFINITY PREDICTED BY RF-SCORE:    0.00 PKD
ROOT
HETATM    1  C   UNL     1     -12.156  20.017  67.367  1.00  0.00     2.674 C  
HETATM    2  C   UNL     1     -11.350  18.821  66.967  1.00  0.00     0.636 A  
HETATM    3  N   UNL     1     -12.001  17.825  66.342  1.00  0.00     2.991 NA 
HETATM    4  C   UNL     1     -11.249  16.822  65.874  1.00  0.00     0.442 A  
HETATM    5  C   UNL     1      -9.288  17.830  66.745  1.00  0.00    -0.280 A  
HETATM    6  C   UNL     1      -9.884  16.841  65.992  1.00  0.00    -0.311 A  
HETATM    7  N   UNL     1     -10.026  18.850  67.212  1.00  0.00    -0.319 NA 
ENDROOT
BRANCH   4   8
HETATM    8  N   UNL     1     -11.922  15.784  65.238  1.00  0.00     0.437 NA 
HETATM    9  H   UNL     1     -12.857  16.003  64.893  1.00  0.00     0.000 HD 
BRANCH   8  10
HETATM   10  C   UNL     1     -11.491  14.524  65.022  1.00  0.00    -0.382 A  
HETATM   11  S   UNL     1     -10.987  13.618  66.386  1.00  0.00    -0.300 SA 
HETATM   12  N   UNL     1     -11.386  13.881  63.875  1.00  0.00    -0.074 NA 
HETATM   13  C   UNL     1     -10.731  12.679  64.055  1.00  0.00    -0.425 A  
HETATM   14  C   UNL     1     -10.376  12.397  65.356  1.00  0.00    -0.277 A  
BRANCH  14  15
HETATM   15  C   UNL     1      -9.566  11.316  65.864  1.00  0.00    -0.221 C  
HETATM   16  O   UNL     1      -8.444  11.495  66.328  1.00  0.00    -0.174 OA 
HETATM   17  H   UNL     1     -11.034  10.004  65.216  1.00  0.00     0.000 HD 
HETATM   18  N   UNL     1     -10.159  10.070  65.735  1.00  0.00    -0.271 N  
BRANCH  18  19
HETATM   19  C   UNL     1      -9.619   8.895  66.280  1.00  0.00    -0.260 A  
HETATM   20  C   UNL     1      -9.359   7.403  68.163  1.00  0.00    -0.135 A  
HETATM   21  C   UNL     1     -10.707   9.464  68.536  1.00  0.00    -0.203 C  
HETATM   22  C   UNL     1      -9.880   8.593  67.629  1.00  0.00    -0.229 A  
HETATM   23  C   UNL     1      -8.579   6.547  67.384  1.00  0.00    -0.118 A  
HETATM   24  C   UNL     1      -8.273   6.880  66.071  1.00  0.00    -0.125 A  
HETATM   25  C   UNL     1      -8.781   8.055  65.518  1.00  0.00    -0.102 A  
HETATM   26 CL   UNL     1      -8.180   8.513  63.956  1.00  0.00    -0.154 Cl 
ENDBRANCH  18  19
ENDBRANCH  14  15
ENDBRANCH   8  10
ENDBRANCH   4   8
BRANCH   5  27
HETATM   27  N   UNL     1      -7.906  17.773  66.964  1.00  0.00    -0.206 NA 
HETATM   28  C   UNL     1      -7.316  16.418  66.924  1.00  0.00    -0.234 C  
HETATM   29  C   UNL     1      -7.400  18.590  68.077  1.00  0.00    -0.248 C  
HETATM   30  N   UNL     1      -5.163  17.293  67.966  1.00  0.00    -0.119 NA 
HETATM   31  C   UNL     1      -5.780  16.523  66.861  1.00  0.00    -0.019 C  
HETATM   32  C   UNL     1      -5.846  18.621  68.029  1.00  0.00    -0.191 C  
BRANCH  30  33
HETATM   33  C   UNL     1      -5.254  16.604  69.272  1.00  0.00    -0.130 C  
BRANCH  33  34
HETATM   34  C   UNL     1      -6.081  15.307  69.229  1.00  0.00    -0.110 C  
HETATM   35  H   UNL     1      -6.022  13.516  70.053  1.00  0.00     0.000 HD 
HETATM   36  O   UNL     1      -5.511  14.316  70.079  1.00  0.00    -0.095 OA 
ENDBRANCH  33  34
ENDBRANCH  30  33
ENDBRANCH   5  27
TORSDOF 7
ENDMDL
MODEL      222
REMARK 921   NORMALIZED FREE ENERGY PREDICTED BY IDOCK:    1.25 KCAL/MOL
REMARK 922        TOTAL FREE ENERGY PREDICTED BY IDOCK:    1.39 KCAL/MOL
REMARK 923 INTER-LIGAND FREE ENERGY PREDICTED BY IDOCK:    1.89 KCAL/MOL
REMARK 924 INTRA-LIGAND FREE ENERGY PREDICTED BY IDOCK:   -0.50 KCAL/MOL
REMARK 927      BINDING AFFINITY PREDICTED BY RF-SCORE:    0.00 PKD
ROOT
HETATM    1  C   UNL     1     -12.145  20.013  67.369  1.00  0.00     2.674 C  
HETATM    2  C   UNL     1     -11.323  18.817  67.006  1.00  0.00     0.636 A  
HETATM    3  N   UNL     1     -11.954  17.804  66.388  1.00  0.00     2.991 NA 
HETATM    4  C   UNL     1     -11.186  16.799  65.952  1.00  0.00     0.442 A  
HETATM    5  C   UNL     1      -9.249  17.839  66.838  1.00  0.00    -0.258 A  
HETATM    6  C   UNL     1      -9.824  16.831  66.094  1.00  0.00    -0.330 A  
HETATM    7  N   UNL     1     -10.003  18.862  67.273  1.00  0.00    -0.319 NA 
ENDROOT
BRANCH   4   8
HETATM    8  N   UNL     1     -11.839  15.744  65.324  1.00  0.00     0.294 NA 
HETATM    9  H   UNL     1     -12.752  15.959  64.923  1.00  0.00     0.000 HD 
BRANCH   8  10
HETATM   10  C   UNL     1     -11.414  14.472  65.181  1.00  0.00    -0.368 A  
HETATM   11  S   UNL     1     -11.001  13.613  66.605  1.00  0.00    -0.294 SA 
HETATM   12  N   UNL     1     -11.254  13.783  64.067  1.00  0.00    -0.200 NA 
HETATM   13  C   UNL     1     -10.627  12.581  64.330  1.00  0.00    -0.369 A  
HETATM   14  C   UNL     1     -10.350  12.346  65.658  1.00  0.00    -0.258 A  
BRANCH  14  15
HETATM   15  C   UNL     1      -9.585  11.276  66.253  1.00  0.00    -0.209 C  
HETATM   16  O   UNL     1      -9.575  10.138  65.793  1.00  0.00    -0.195 OA 
HETATM   17  H   UNL     1      -9.083  12.580  67.785  1.00  0.00     0.000 HD 
HETATM   18  N   UNL     1      -8.909  11.650  67.404  1.00  0.00    -0.156 N  
BRANCH  18  19
HETATM   19  C   UNL     1      -7.998  10.818  68.072  1.00  0.00    -0.108 A  
HETATM   20  C   UNL     1      -5.754   9.952  68.304  1.00  0.00    -0.042 A  
HETATM   21  C   UNL     1      -6.156  11.554  66.440  1.00  0.00    -0.022 C  
HETATM   22  C   UNL     1      -6.668  10.767  67.616  1.00  0.00    -0.069 A  
HETATM   23  C   UNL     1      -6.156   9.190  69.402  1.00  0.00    -0.037 A  
HETATM   24  C   UNL     1      -7.483   9.196  69.810  1.00  0.00    -0.069 A  
HETATM   25  C   UNL     1      -8.409   9.998  69.144  1.00  0.00    -0.146 A  
HETATM   26 CL   UNL     1     -10.079   9.789  69.564  1.00  0.00    -0.215 Cl 
ENDBRANCH  18  19
ENDBRANCH  14  15
ENDBRANCH   8  10
ENDBRANCH   4   8
BRANCH   5  27
HETATM   27  N   UNL     1      -7.871  17.798  67.083  1.00  0.00    -0.206 NA 
HETATM   28  C   UNL     1      -7.269  16.448  67.080  1.00  0.00    -0.222 C  
HETATM   29  C   UNL     1      -7.391  18.641  68.189  1.00  0.00    -0.255 C  
HETATM   30  N   UNL     1      -5.142  17.361  68.142  1.00  0.00    -0.127 NA 
HETATM   31  C   UNL     1      -5.733  16.564  67.041  1.00  0.00    -0.089 C  
HETATM   32  C   UNL     1      -5.837  18.683  68.167  1.00  0.00    -0.195 C  
BRANCH  30  33
HETATM   33  C   UNL     1      -5.250  16.695  69.459  1.00  0.00    -0.137 C  
BRANCH  33  34
HETATM   34  C   UNL     1      -6.066  15.390  69.426  1.00  0.00    -0.120 C  
HETATM   35  H   UNL     1      -6.188  13.725  70.476  1.00  0.00     0.000 HD 
HETATM   36  O   UNL     1      -5.685  14.530  70.496  1.00  0.00    -0.134 OA 
ENDBRANCH  33  34
ENDBRANCH  30  33
ENDBRANCH   5  27
TORSDOF 7
ENDMDL
MODEL      223
REMARK 921   NORMALIZED FREE ENERGY PREDICTED BY IDOCK:    1.27 KCAL/MOL
REMARK 922        TOTAL FREE ENERGY PREDICTED BY IDOCK:    1.42 KCAL/MOL
REMARK 923 INTER-LIGAND FREE ENERGY PREDICTED BY IDOCK:    1.52 KCAL/MOL
REMARK 924 INTRA-LIGAND FREE ENERGY PREDICTED BY IDOCK:   -0.10 KCAL/MOL
REMARK 927      BINDING AFFINITY PREDICTED BY RF-SCORE:    0.00 PKD
ROOT
HETATM    1  C   UNL     1     -12.395  20.163  67.373  1.00  0.00     3.614 C  
HETATM    2  C   UNL     1     -11.410  19.055  67.579  1.00  0.00     0.413 A  
HETATM    3  N   UNL     1     -11.891  17.800  67.574  1.00  0.00     1.556 NA 
HETATM    4  C   UNL     1     -10.987  16.814  67.627  1.00  0.00    -0.178 A  
HETATM    5  C   UNL     1      -9.218  18.387  67.761  1.00  0.00    -0.277 A  
HETATM    6  C   UNL     1      -9.643  17.081  67.640  1.00  0.00    -0.249 A  
HETATM    7  N   UNL     1     -10.110  19.389  67.698  1.00  0.00    -0.371 NA 
ENDROOT
BRANCH   4   8
HETATM    8  N   UNL     1     -11.483  15.515  67.635  1.00  0.00    -0.267 NA 
HETATM    9  H   UNL     1     -12.341  15.361  67.106  1.00  0.00     0.000 HD 
BRANCH   8  10
HETATM   10  C   UNL     1     -10.968  14.434  68.257  1.00  0.00    -0.247 A  
HETATM   11  S   UNL     1     -10.415  13.147  67.272  1.00  0.00    -0.243 SA 
HETATM   12  N   UNL     1     -10.841  14.219  69.553  1.00  0.00    -0.171 NA 
HETATM   13  C   UNL     1     -10.440  12.919  69.788  1.00  0.00     1.006 A  
HETATM   14  C   UNL     1     -10.223  12.162  68.657  1.00  0.00    -0.174 A  
BRANCH  14  15
HETATM   15  C   UNL     1      -9.943  10.751  68.547  1.00  0.00    -0.178 C  
HETATM   16  O   UNL     1     -10.787   9.938  68.182  1.00  0.00    -0.241 OA 
HETATM   17  H   UNL     1      -8.069  11.130  69.351  1.00  0.00     0.000 HD 
HETATM   18  N   UNL     1      -8.657  10.408  68.934  1.00  0.00    -0.140 N  
BRANCH  18  19
HETATM   19  C   UNL     1      -8.120   9.120  68.783  1.00  0.00    -0.101 A  
HETATM   20  C   UNL     1      -7.617   6.952  69.724  1.00  0.00    -0.104 A  
HETATM   21  C   UNL     1      -8.686   8.616  71.237  1.00  0.00    -0.246 C  
HETATM   22  C   UNL     1      -8.132   8.248  69.888  1.00  0.00    -0.117 A  
HETATM   23  C   UNL     1      -7.082   6.540  68.502  1.00  0.00    -0.083 A  
HETATM   24  C   UNL     1      -7.016   7.425  67.433  1.00  0.00    -0.079 A  
HETATM   25  C   UNL     1      -7.523   8.716  67.570  1.00  0.00    -0.090 A  
HETATM   26 CL   UNL     1      -7.209   9.827  66.276  1.00  0.00    -0.096 Cl 
ENDBRANCH  18  19
ENDBRANCH  14  15
ENDBRANCH   8  10
ENDBRANCH   4   8
BRANCH   5  27
HETATM   27  N   UNL     1      -7.848  18.643  67.899  1.00  0.00    -0.252 NA 
HETATM   28  C   UNL     1      -7.163  17.862  68.950  1.00  0.00    -0.256 C  
HETATM   29  C   UNL     1      -7.456  20.060  67.885  1.00  0.00    -0.295 C  
HETATM   30  N   UNL     1      -5.131  19.390  68.802  1.00  0.00    -0.189 NA 
HETATM   31  C   UNL     1      -5.637  17.998  68.786  1.00  0.00    -0.180 C  
HETATM   32  C   UNL     1      -5.908  20.166  67.789  1.00  0.00    -0.196 C  
BRANCH  30  33
HETATM   33  C   UNL     1      -5.237  20.028  70.133  1.00  0.00    -0.226 C  
BRANCH  33  34
HETATM   34  C   UNL     1      -6.205  19.306  71.088  1.00  0.00     0.355 C  
HETATM   35  H   UNL     1      -6.439  19.094  73.035  1.00  0.00     0.000 HD 
HETATM   36  O   UNL     1      -5.841  19.539  72.446  1.00  0.00    -0.180 OA 
ENDBRANCH  33  34
ENDBRANCH  30  33
ENDBRANCH   5  27
TORSDOF 7
ENDMDL
MODEL      224
REMARK 921   NORMALIZED FREE ENERGY PREDICTED BY IDOCK:    1.78 KCAL/MOL
REMARK 922        TOTAL FREE ENERGY PREDICTED BY IDOCK:    2.13 KCAL/MOL
REMARK 923 INTER-LIGAND FREE ENERGY PREDICTED BY IDOCK:    0.08 KCAL/MOL
REMARK 924 INTRA-LIGAND FREE ENERGY PREDICTED BY IDOCK:    2.05 KCAL/MOL
REMARK 927      BINDING AFFINITY PREDICTED BY RF-SCORE:    0.00 PKD
ROOT
HETATM    1  C   UNL     1     -10.077  10.924  62.392  1.00  0.00     0.288 C  
HETATM    2  C   UNL     1      -9.861  11.518  63.749  1.00  0.00    -0.319 A  
HETATM    3  N   UNL     1      -9.814  12.859  63.831  1.00  0.00    -0.149 NA 
HETATM    4  C   UNL     1      -9.752  13.380  65.061  1.00  0.00     0.096 A  
HETATM    5  C   UNL     1      -9.709  11.213  66.022  1.00  0.00    -0.226 A  
HETATM    6  C   UNL     1      -9.780  12.581  66.175  1.00  0.00    -0.259 A  
HETATM    7  N   UNL     1      -9.783  10.672  64.795  1.00  0.00    -0.264 NA 
ENDROOT
BRANCH   4   8
HETATM    8  N   UNL     1      -9.691  14.767  65.148  1.00  0.00    -0.436 NA 
HETATM    9  H   UNL     1      -9.603  15.266  64.263  1.00  0.00     0.000 HD 
BRANCH   8  10
HETATM   10  C   UNL     1      -9.733  15.532  66.258  1.00  0.00    -0.302 A  
HETATM   11  S   UNL     1     -10.527  14.886  67.632  1.00  0.00    -0.251 SA 
HETATM   12  N   UNL     1      -9.248  16.746  66.433  1.00  0.00    -0.264 NA 
HETATM   13  C   UNL     1      -9.657  17.258  67.649  1.00  0.00    -0.256 A  
HETATM   14  C   UNL     1     -10.422  16.404  68.413  1.00  0.00    -0.298 A  
BRANCH  14  15
HETATM   15  C   UNL     1     -11.122  16.668  69.647  1.00  0.00    -0.144 C  
HETATM   16  O   UNL     1     -11.695  17.731  69.865  1.00  0.00     2.622 OA 
HETATM   17  H   UNL     1     -10.434  14.841  70.346  1.00  0.00     0.000 HD 
HETATM   18  N   UNL     1     -11.044  15.630  70.562  1.00  0.00    -0.331 N  
BRANCH  18  19
HETATM   19  C   UNL     1     -11.758  15.607  71.770  1.00  0.00    -0.454 A  
HETATM   20  C   UNL     1     -12.502  16.742  73.770  1.00  0.00    -0.191 A  
HETATM   21  C   UNL     1     -11.039  18.032  72.220  1.00  0.00     2.766 C  
HETATM   22  C   UNL     1     -11.764  16.762  72.575  1.00  0.00    -0.014 A  
HETATM   23  C   UNL     1     -13.196  15.598  74.167  1.00  0.00     0.246 A  
HETATM   24  C   UNL     1     -13.136  14.442  73.400  1.00  0.00    -0.159 A  
HETATM   25  C   UNL     1     -12.413  14.437  72.208  1.00  0.00    -0.235 A  
HETATM   26 CL   UNL     1     -12.202  12.906  71.420  1.00  0.00    -0.069 Cl 
ENDBRANCH  18  19
ENDBRANCH  14  15
ENDBRANCH   8  10
ENDBRANCH   4   8
BRANCH   5  27
HETATM   27  N   UNL     1      -9.613  10.409  67.165  1.00  0.00    -0.162 NA 
HETATM   28  C   UNL     1      -8.244   9.975  67.517  1.00  0.00    -0.114 C  
HETATM   29  C   UNL     1     -10.606   9.330  67.275  1.00  0.00    -0.233 C  
HETATM   30  N   UNL     1      -9.177   8.253  69.144  1.00  0.00    -0.151 NA 
HETATM   31  C   UNL     1      -8.238   9.380  68.938  1.00  0.00    -0.111 C  
HETATM   32  C   UNL     1     -10.529   8.703  68.696  1.00  0.00    -0.177 C  
BRANCH  30  33
HETATM   33  C   UNL     1      -8.775   7.026  68.422  1.00  0.00    -0.125 C  
BRANCH  33  34
HETATM   34  C   UNL     1      -9.677   5.814  68.717  1.00  0.00    -0.132 C  
HETATM   35  H   UNL     1      -9.798   4.387  70.074  1.00  0.00     0.000 HD 
HETATM   36  O   UNL     1      -9.242   5.135  69.892  1.00  0.00    -0.118 OA 
ENDBRANCH  33  34
ENDBRANCH  30  33
ENDBRANCH   5  27
TORSDOF 7
ENDMDL
MODEL      225
REMARK 921   NORMALIZED FREE ENERGY PREDICTED BY IDOCK:    1.86 KCAL/MOL
REMARK 922        TOTAL FREE ENERGY PREDICTED BY IDOCK:    2.24 KCAL/MOL
REMARK 923 INTER-LIGAND FREE ENERGY PREDICTED BY IDOCK:   -1.28 KCAL/MOL
REMARK 924 INTRA-LIGAND FREE ENERGY PREDICTED BY IDOCK:    3.52 KCAL/MOL
REMARK 927      BINDING AFFINITY PREDICTED BY RF-SCORE:    0.00 PKD
ROOT
HETATM    1  C   UNL     1     -11.121  10.379  62.336  1.00  0.00     2.561 C  
HETATM    2  C   UNL     1     -10.324  10.951  63.466  1.00  0.00    -0.277 A  
HETATM    3  N   UNL     1     -10.311  12.290  63.589  1.00  0.00    -0.434 NA 
HETATM    4  C   UNL     1      -9.706  12.783  64.676  1.00  0.00     0.112 A  
HETATM    5  C   UNL     1      -9.111  10.601  65.387  1.00  0.00    -0.189 A  
HETATM    6  C   UNL     1      -9.169  11.957  65.629  1.00  0.00    -0.060 A  
HETATM    7  N   UNL     1      -9.724  10.088  64.307  1.00  0.00    -0.255 NA 
ENDROOT
BRANCH   4   8
HETATM    8  N   UNL     1      -9.679  14.168  64.799  1.00  0.00    -0.470 NA 
HETATM    9  H   UNL     1      -9.720  14.695  63.927  1.00  0.00     0.000 HD 
BRANCH   8  10
HETATM   10  C   UNL     1      -9.606  14.900  65.930  1.00  0.00    -0.308 A  
HETATM   11  S   UNL     1     -10.461  14.324  67.299  1.00  0.00    -0.270 SA 
HETATM   12  N   UNL     1      -8.963  16.034  66.130  1.00  0.00    -0.342 NA 
HETATM   13  C   UNL     1      -9.286  16.560  67.366  1.00  0.00    -0.216 A  
HETATM   14  C   UNL     1     -10.147  15.792  68.119  1.00  0.00    -0.220 A  
BRANCH  14  15
HETATM   15  C   UNL     1     -10.791  16.110  69.371  1.00  0.00    -0.320 C  
HETATM   16  O   UNL     1     -11.055  17.261  69.702  1.00  0.00     0.194 OA 
HETATM   17  H   UNL     1     -10.662  14.100  69.867  1.00  0.00     0.000 HD 
HETATM   18  N   UNL     1     -11.036  15.001  70.166  1.00  0.00    -0.242 N  
BRANCH  18  19
HETATM   19  C   UNL     1     -11.772  15.051  71.359  1.00  0.00    -0.357 A  
HETATM   20  C   UNL     1     -12.359  16.214  73.395  1.00  0.00    -0.652 A  
HETATM   21  C   UNL     1     -10.663  17.297  71.927  1.00  0.00     2.713 C  
HETATM   22  C   UNL     1     -11.601  16.156  72.214  1.00  0.00    -0.435 A  
HETATM   23  C   UNL     1     -13.247  15.190  73.730  1.00  0.00     0.017 A  
HETATM   24  C   UNL     1     -13.366  14.072  72.914  1.00  0.00    -0.487 A  
HETATM   25  C   UNL     1     -12.626  13.993  71.736  1.00  0.00    -0.287 A  
HETATM   26 CL   UNL     1     -12.659  12.481  70.885  1.00  0.00    -0.390 Cl 
ENDBRANCH  18  19
ENDBRANCH  14  15
ENDBRANCH   8  10
ENDBRANCH   4   8
BRANCH   5  27
HETATM   27  N   UNL     1      -8.452   9.777  66.307  1.00  0.00    -0.123 NA 
HETATM   28  C   UNL     1      -9.313   9.178  67.348  1.00  0.00    -0.134 C  
HETATM   29  C   UNL     1      -7.182  10.296  66.838  1.00  0.00    -0.093 C  
HETATM   30  N   UNL     1      -7.263   8.495  68.694  1.00  0.00    -0.078 NA 
HETATM   31  C   UNL     1      -8.542   8.065  68.083  1.00  0.00    -0.126 C  
HETATM   32  C   UNL     1      -6.459   9.172  67.633  1.00  0.00    -0.063 C  
BRANCH  30  33
HETATM   33  C   UNL     1      -7.450   9.396  69.854  1.00  0.00    -0.100 C  
BRANCH  33  34
HETATM   34  C   UNL     1      -7.916  10.811  69.467  1.00  0.00    -0.010 C  
HETATM   35  H   UNL     1      -7.245  12.658  69.629  1.00  0.00     0.000 HD 
HETATM   36  O   UNL     1      -6.957  11.785  69.868  1.00  0.00     0.059 OA 
ENDBRANCH  33  34
ENDBRANCH  30  33
ENDBRANCH   5  27
TORSDOF 7
ENDMDL
MODEL      226
REMARK 921   NORMALIZED FREE ENERGY PREDICTED BY IDOCK:    9.50 KCAL/MOL
REMARK 922        TOTAL FREE ENERGY PREDICTED BY IDOCK:   13.00 KCAL/MOL
REMARK 923 INTER-LIGAND FREE ENERGY PREDICTED BY IDOCK:   11.28 KCAL/MOL
REMARK 924 INTRA-LIGAND FREE ENERGY PREDICTED BY IDOCK:    1.72 KCAL/MOL
REMARK 927      BINDING AFFINITY PREDICTED BY RF-SCORE:    0.00 PKD
ROOT
HETATM    1  C   UNL     1      -7.550  18.372  67.340  1.00  0.00    -0.222 C  
HETATM    2  C   UNL     1      -8.097  17.300  68.229  1.00  0.00    -0.246 A  
HETATM    3  N   UNL     1      -9.188  16.643  67.798  1.00  0.00    -0.213 NA 
HETATM    4  C   UNL     1      -9.589  15.602  68.536  1.00  0.00    -0.199 A  
HETATM    5  C   UNL     1      -7.851  15.990  70.102  1.00  0.00     1.009 A  
HETATM    6  C   UNL     1      -8.891  15.207  69.648  1.00  0.00    -0.054 A  
HETATM    7  N   UNL     1      -7.428  17.032  69.368  1.00  0.00    -0.080 NA 
ENDROOT
BRANCH   4   8
HETATM    8  N   UNL     1     -10.725  14.930  68.100  1.00  0.00    -0.246 NA 
HETATM    9  H   UNL     1     -11.465  15.512  67.707  1.00  0.00     0.000 HD 
BRANCH   8  10
HETATM   10  C   UNL     1     -10.968  13.603  68.131  1.00  0.00    -0.253 A  
HETATM   11  S   UNL     1      -9.637  12.564  68.422  1.00  0.00    -0.129 SA 
HETATM   12  N   UNL     1     -12.116  12.978  67.949  1.00  0.00    -0.272 NA 
HETATM   13  C   UNL     1     -11.914  11.613  67.876  1.00  0.00    -0.089 A  
HETATM   14  C   UNL     1     -10.609  11.207  68.045  1.00  0.00    -0.198 A  
BRANCH  14  15
HETATM   15  C   UNL     1     -10.037   9.891  67.885  1.00  0.00    -0.173 C  
HETATM   16  O   UNL     1     -10.710   8.868  67.957  1.00  0.00    -0.200 OA 
HETATM   17  H   UNL     1      -8.172  10.791  67.779  1.00  0.00     0.000 HD 
HETATM   18  N   UNL     1      -8.665   9.902  67.690  1.00  0.00    -0.122 N  
BRANCH  18  19
HETATM   19  C   UNL     1      -7.918   8.756  67.377  1.00  0.00    -0.098 A  
HETATM   20  C   UNL     1      -6.463   7.574  65.852  1.00  0.00    -0.045 A  
HETATM   21  C   UNL     1      -7.249   9.827  65.140  1.00  0.00    -0.122 C  
HETATM   22  C   UNL     1      -7.230   8.712  66.150  1.00  0.00    -0.085 A  
HETATM   23  C   UNL     1      -6.401   6.497  66.739  1.00  0.00    -0.042 A  
HETATM   24  C   UNL     1      -7.132   6.520  67.920  1.00  0.00    -0.085 A  
HETATM   25  C   UNL     1      -7.898   7.640  68.239  1.00  0.00    -0.121 A  
HETATM   26 CL   UNL     1      -8.951   7.509  69.612  1.00  0.00    -0.141 Cl 
ENDBRANCH  18  19
ENDBRANCH  14  15
ENDBRANCH   8  10
ENDBRANCH   4   8
BRANCH   5  27
HETATM   27  N   UNL     1      -7.223  15.648  71.306  1.00  0.00     2.346 NA 
HETATM   28  C   UNL     1      -5.775  15.367  71.204  1.00  0.00     0.173 C  
HETATM   29  C   UNL     1      -7.939  14.682  72.153  1.00  0.00     5.638 C  
HETATM   30  N   UNL     1      -5.779  14.345  73.536  1.00  0.00    -0.269 NA 
HETATM   31  C   UNL     1      -5.154  15.321  72.614  1.00  0.00     0.180 C  
HETATM   32  C   UNL     1      -7.250  14.606  73.544  1.00  0.00     4.889 C  
BRANCH  30  33
HETATM   33  C   UNL     1      -5.506  12.939  73.162  1.00  0.00     0.687 C  
BRANCH  33  34
HETATM   34  C   UNL     1      -5.630  12.668  71.652  1.00  0.00     0.286 C  
HETATM   35  H   UNL     1      -5.297  11.172  70.411  1.00  0.00     0.000 HD 
HETATM   36  O   UNL     1      -5.220  11.339  71.343  1.00  0.00    -0.225 OA 
ENDBRANCH  33  34
ENDBRANCH  30  33
ENDBRANCH   5  27
TORSDOF 7
ENDMDL
MODEL      227
REMARK 921   NORMALIZED FREE ENERGY PREDICTED BY IDOCK:    9.54 KCAL/MOL
REMARK 922        TOTAL FREE ENERGY PREDICTED BY IDOCK:   13.06 KCAL/MOL
REMARK 923 INTER-LIGAND FREE ENERGY PREDICTED BY IDOCK:   11.23 KCAL/MOL
REMARK 924 INTRA-LIGAND FREE ENERGY PREDICTED BY IDOCK:    1.83 KCAL/MOL
REMARK 927      BINDING AFFINITY PREDICTED BY RF-SCORE:    0.00 PKD
ROOT
HETATM    1  C   UNL     1      -7.550  18.372  67.340  1.00  0.00    -0.222 C  
HETATM    2  C   UNL     1      -8.097  17.300  68.229  1.00  0.00    -0.246 A  
HETATM    3  N   UNL     1      -9.188  16.643  67.798  1.00  0.00    -0.213 NA 
HETATM    4  C   UNL     1      -9.589  15.602  68.536  1.00  0.00    -0.199 A  
HETATM    5  C   UNL     1      -7.851  15.990  70.102  1.00  0.00     1.009 A  
HETATM    6  C   UNL     1      -8.891  15.207  69.648  1.00  0.00    -0.054 A  
HETATM    7  N   UNL     1      -7.428  17.032  69.368  1.00  0.00    -0.080 NA 
ENDROOT
BRANCH   4   8
HETATM    8  N   UNL     1     -10.725  14.930  68.100  1.00  0.00    -0.246 NA 
HETATM    9  H   UNL     1     -11.465  15.512  67.707  1.00  0.00     0.000 HD 
BRANCH   8  10
HETATM   10  C   UNL     1     -10.968  13.603  68.131  1.00  0.00    -0.253 A  
HETATM   11  S   UNL     1      -9.637  12.564  68.422  1.00  0.00    -0.129 SA 
HETATM   12  N   UNL     1     -12.116  12.978  67.949  1.00  0.00    -0.272 NA 
HETATM   13  C   UNL     1     -11.914  11.613  67.876  1.00  0.00    -0.089 A  
HETATM   14  C   UNL     1     -10.609  11.207  68.045  1.00  0.00    -0.198 A  
BRANCH  14  15
HETATM   15  C   UNL     1     -10.037   9.891  67.885  1.00  0.00    -0.173 C  
HETATM   16  O   UNL     1      -9.108   9.666  67.117  1.00  0.00    -0.133 OA 
HETATM   17  H   UNL     1     -11.515   9.172  69.150  1.00  0.00     0.000 HD 
HETATM   18  N   UNL     1     -10.668   8.917  68.644  1.00  0.00    -0.136 N  
BRANCH  18  19
HETATM   19  C   UNL     1     -10.200   7.598  68.753  1.00  0.00    -0.199 A  
HETATM   20  C   UNL     1      -9.372   5.791  70.127  1.00  0.00    -0.184 A  
HETATM   21  C   UNL     1      -9.867   7.945  71.276  1.00  0.00    -0.198 C  
HETATM   22  C   UNL     1      -9.815   7.120  70.019  1.00  0.00    -0.178 A  
HETATM   23  C   UNL     1      -9.293   4.966  69.004  1.00  0.00    -0.183 A  
HETATM   24  C   UNL     1      -9.615   5.463  67.747  1.00  0.00    -0.147 A  
HETATM   25  C   UNL     1     -10.060   6.777  67.615  1.00  0.00    -0.161 A  
HETATM   26 CL   UNL     1     -10.232   7.391  66.001  1.00  0.00     0.411 Cl 
ENDBRANCH  18  19
ENDBRANCH  14  15
ENDBRANCH   8  10
ENDBRANCH   4   8
BRANCH   5  27
HETATM   27  N   UNL     1      -7.223  15.648  71.306  1.00  0.00     2.346 NA 
HETATM   28  C   UNL     1      -5.775  15.367  71.204  1.00  0.00     0.173 C  
HETATM   29  C   UNL     1      -7.939  14.682  72.153  1.00  0.00     5.638 C  
HETATM   30  N   UNL     1      -5.779  14.345  73.536  1.00  0.00    -0.269 NA 
HETATM   31  C   UNL     1      -5.154  15.321  72.614  1.00  0.00     0.180 C  
HETATM   32  C   UNL     1      -7.250  14.606  73.544  1.00  0.00     4.889 C  
BRANCH  30  33
HETATM   33  C   UNL     1      -5.506  12.939  73.162  1.00  0.00     0.687 C  
BRANCH  33  34
HETATM   34  C   UNL     1      -5.630  12.668  71.652  1.00  0.00     0.286 C  
HETATM   35  H   UNL     1      -5.297  11.172  70.411  1.00  0.00     0.000 HD 
HETATM   36  O   UNL     1      -5.220  11.339  71.343  1.00  0.00    -0.225 OA 
ENDBRANCH  33  34
ENDBRANCH  30  33
ENDBRANCH   5  27
TORSDOF 7
ENDMDL
