MODEL        1
REMARK 921   NORMALIZED FREE ENERGY PREDICTED BY IDOCK:   -9.04 KCAL/MOL
REMARK 922        TOTAL FREE ENERGY PREDICTED BY IDOCK:  -11.75 KCAL/MOL
REMARK 923 INTER-LIGAND FREE ENERGY PREDICTED BY IDOCK:  -11.15 KCAL/MOL
REMARK 924 INTRA-LIGAND FREE ENERGY PREDICTED BY IDOCK:   -0.59 KCAL/MOL
REMARK 927      BINDING AFFINITY PREDICTED BY RF-SCORE:    0.00 PKD
ROOT
HETATM    1  C   UNL     1      -9.614  16.624  69.090  1.00  0.00    -0.208 C  
HETATM    2  O   UNL     1     -10.797  16.047  68.542  1.00  0.00    -0.271 OA 
ENDROOT
BRANCH   2   3
HETATM    3  C   UNL     1     -10.759  15.705  67.215  1.00  0.00    -0.305 A  
HETATM    4  C   UNL     1     -10.842  16.676  66.203  1.00  0.00    -0.024 A  
HETATM    5  C   UNL     1     -10.794  16.314  64.861  1.00  0.00    -0.315 A  
HETATM    6  C   UNL     1     -10.666  14.975  64.519  1.00  0.00    -0.076 A  
HETATM    7  C   UNL     1     -10.608  13.989  65.517  1.00  0.00    -0.327 A  
HETATM    8  C   UNL     1     -10.671  14.339  66.866  1.00  0.00    -0.290 A  
HETATM    9  C   UNL     1     -10.641  13.249  67.876  1.00  0.00    -0.238 C  
HETATM   10  O   UNL     1     -10.805  13.461  69.075  1.00  0.00    -0.245 OA 
HETATM   11  C   UNL     1     -10.421  11.839  67.459  1.00  0.00    -0.228 A  
HETATM   12  C   UNL     1     -10.275  10.824  68.428  1.00  0.00    -0.175 A  
HETATM   13  O   UNL     1     -10.295  11.107  69.774  1.00  0.00    -0.438 OA 
HETATM   14  C   UNL     1     -10.085   9.473  68.071  1.00  0.00    -0.226 A  
HETATM   15  H   UNL     1     -10.196  10.424  70.427  1.00  0.00     0.000 HD 
HETATM   16  C   UNL     1     -10.059   9.132  66.698  1.00  0.00    -0.343 A  
HETATM   17  C   UNL     1     -10.157  10.160  65.736  1.00  0.00    -0.254 A  
HETATM   18  C   UNL     1      -9.889   7.687  66.254  1.00  0.00    -0.080 C  
HETATM   19  C   UNL     1     -10.122   6.664  67.371  1.00  0.00    -0.164 C  
HETATM   20  C   UNL     1     -10.352  11.508  66.107  1.00  0.00    -0.287 A  
HETATM   21  O   UNL     1     -10.058   9.857  64.405  1.00  0.00    -0.427 OA 
HETATM   22  O   UNL     1     -10.469  12.358  63.887  1.00  0.00    -0.381 OA 
HETATM   23  C   UNL     1     -10.477  12.584  65.090  1.00  0.00    -0.293 C  
HETATM   24  C   UNL     1      -9.333   7.119  68.600  1.00  0.00    -0.134 C  
HETATM   25  O   UNL     1     -11.527   6.554  67.610  1.00  0.00    -0.694 OA 
HETATM   26  H   UNL     1     -10.124  10.550  63.757  1.00  0.00     0.000 HD 
HETATM   27  C   UNL     1      -9.924   8.415  69.164  1.00  0.00    -0.196 C  
HETATM   28  H   UNL     1     -11.672   5.920  68.302  1.00  0.00     0.000 HD 
BRANCH  19  29
HETATM   29  C   UNL     1      -9.623   5.270  66.953  1.00  0.00    -0.145 C  
HETATM   30  O   UNL     1      -8.803   4.641  67.627  1.00  0.00    -0.103 OA 
HETATM   31  C   UNL     1     -10.256   4.645  65.730  1.00  0.00    -0.283 C  
ENDBRANCH  19  29
BRANCH  27  32
HETATM   32  O   UNL     1     -11.219   8.192  69.751  1.00  0.00    -0.129 OA 
BRANCH  32  33
HETATM   33  C   UNL     1     -11.276   8.204  71.183  1.00  0.00    -0.257 C  
HETATM   34  C   UNL     1     -11.577   9.570  71.798  1.00  0.00    -0.382 C  
HETATM   35  C   UNL     1     -13.016   9.983  71.485  1.00  0.00    -0.434 C  
HETATM   36  N   UNL     1     -13.310  11.296  72.095  1.00  0.00    -0.569 NA 
HETATM   37  C   UNL     1     -13.978   8.898  72.003  1.00  0.00    -0.437 C  
HETATM   38  H1  UNL     1     -14.270  11.571  71.887  1.00  0.00     0.000 HD 
HETATM   39  H2  UNL     1     -12.639  12.008  71.810  1.00  0.00     0.000 HD 
HETATM   40  O   UNL     1     -13.932   8.884  73.439  1.00  0.00    -1.236 OA 
HETATM   41  C   UNL     1     -13.576   7.528  71.419  1.00  0.00    -0.317 C  
HETATM   42  H   UNL     1     -14.526   8.215  73.759  1.00  0.00     0.000 HD 
HETATM   43  C   UNL     1     -14.395   6.398  72.036  1.00  0.00     0.067 C  
HETATM   44  O   UNL     1     -12.197   7.217  71.650  1.00  0.00    -0.308 OA 
ENDBRANCH  32  33
ENDBRANCH  27  32
ENDBRANCH   2   3
TORSDOF 4
ENDMDL
MODEL        2
REMARK 921   NORMALIZED FREE ENERGY PREDICTED BY IDOCK:   -8.84 KCAL/MOL
REMARK 922        TOTAL FREE ENERGY PREDICTED BY IDOCK:  -11.50 KCAL/MOL
REMARK 923 INTER-LIGAND FREE ENERGY PREDICTED BY IDOCK:  -11.35 KCAL/MOL
REMARK 924 INTRA-LIGAND FREE ENERGY PREDICTED BY IDOCK:   -0.15 KCAL/MOL
REMARK 927      BINDING AFFINITY PREDICTED BY RF-SCORE:    0.00 PKD
ROOT
HETATM    1  C   UNL     1      -5.231  18.845  71.459  1.00  0.00    -0.305 C  
HETATM    2  O   UNL     1      -5.682  18.166  70.290  1.00  0.00    -0.247 OA 
ENDROOT
BRANCH   2   3
HETATM    3  C   UNL     1      -6.368  18.913  69.367  1.00  0.00    -0.275 A  
HETATM    4  C   UNL     1      -6.176  20.300  69.254  1.00  0.00    -0.356 A  
HETATM    5  C   UNL     1      -6.875  21.042  68.307  1.00  0.00     0.033 A  
HETATM    6  C   UNL     1      -7.775  20.402  67.467  1.00  0.00    -0.334 A  
HETATM    7  C   UNL     1      -7.999  19.021  67.585  1.00  0.00    -0.285 A  
HETATM    8  C   UNL     1      -7.316  18.269  68.541  1.00  0.00    -0.297 A  
HETATM    9  C   UNL     1      -7.622  16.818  68.642  1.00  0.00    -0.222 C  
HETATM   10  O   UNL     1      -7.150  16.109  69.527  1.00  0.00    -0.217 OA 
HETATM   11  C   UNL     1      -8.534  16.169  67.663  1.00  0.00    -0.178 A  
HETATM   12  C   UNL     1      -8.728  14.772  67.690  1.00  0.00    -0.178 A  
HETATM   13  O   UNL     1      -8.061  13.970  68.586  1.00  0.00    -0.140 OA 
HETATM   14  C   UNL     1      -9.601  14.123  66.792  1.00  0.00    -0.290 A  
HETATM   15  H   UNL     1      -8.191  13.029  68.604  1.00  0.00     0.000 HD 
HETATM   16  C   UNL     1     -10.312  14.906  65.853  1.00  0.00    -0.330 A  
HETATM   17  C   UNL     1     -10.074  16.296  65.801  1.00  0.00    -0.347 A  
HETATM   18  C   UNL     1     -11.291  14.264  64.880  1.00  0.00    -0.372 C  
HETATM   19  C   UNL     1     -11.690  12.833  65.256  1.00  0.00    -0.368 C  
HETATM   20  C   UNL     1      -9.202  16.933  66.709  1.00  0.00    -0.266 A  
HETATM   21  O   UNL     1     -10.696  17.058  64.849  1.00  0.00    -0.728 OA 
HETATM   22  O   UNL     1      -9.558  19.138  65.883  1.00  0.00    -0.445 OA 
HETATM   23  C   UNL     1      -8.972  18.401  66.666  1.00  0.00    -0.289 C  
HETATM   24  C   UNL     1     -10.412  12.058  65.583  1.00  0.00    -0.293 C  
HETATM   25  O   UNL     1     -12.615  12.884  66.346  1.00  0.00    -0.343 OA 
HETATM   26  H   UNL     1     -10.536  17.994  64.815  1.00  0.00     0.000 HD 
HETATM   27  C   UNL     1      -9.767  12.603  66.861  1.00  0.00    -0.234 C  
HETATM   28  H   UNL     1     -12.862  11.996  66.579  1.00  0.00     0.000 HD 
BRANCH  19  29
HETATM   29  C   UNL     1     -12.405  12.136  64.087  1.00  0.00    -0.409 C  
HETATM   30  O   UNL     1     -13.636  12.091  64.010  1.00  0.00    -0.479 OA 
HETATM   31  C   UNL     1     -11.544  11.594  62.970  1.00  0.00     0.090 C  
ENDBRANCH  19  29
BRANCH  27  32
HETATM   32  O   UNL     1     -10.561  12.302  68.022  1.00  0.00    -0.204 OA 
BRANCH  32  33
HETATM   33  C   UNL     1     -11.291  11.070  67.988  1.00  0.00    -0.306 C  
HETATM   34  C   UNL     1     -10.426   9.813  68.070  1.00  0.00    -0.271 C  
HETATM   35  C   UNL     1      -9.799   9.696  69.460  1.00  0.00    -0.206 C  
HETATM   36  N   UNL     1      -8.976   8.472  69.544  1.00  0.00    -0.148 NA 
HETATM   37  C   UNL     1     -10.915   9.692  70.520  1.00  0.00    -0.313 C  
HETATM   38  H1  UNL     1      -8.559   8.393  70.471  1.00  0.00     0.000 HD 
HETATM   39  H2  UNL     1      -8.275   8.432  68.805  1.00  0.00     0.000 HD 
HETATM   40  O   UNL     1     -11.678   8.481  70.387  1.00  0.00    -0.465 OA 
HETATM   41  C   UNL     1     -11.808  10.936  70.336  1.00  0.00    -0.357 C  
HETATM   42  H   UNL     1     -12.367   8.478  71.041  1.00  0.00     0.000 HD 
HETATM   43  C   UNL     1     -13.026  10.888  71.255  1.00  0.00    -0.492 C  
HETATM   44  O   UNL     1     -12.301  11.064  68.997  1.00  0.00    -0.481 OA 
ENDBRANCH  32  33
ENDBRANCH  27  32
ENDBRANCH   2   3
TORSDOF 4
ENDMDL
MODEL        3
REMARK 921   NORMALIZED FREE ENERGY PREDICTED BY IDOCK:   -8.67 KCAL/MOL
REMARK 922        TOTAL FREE ENERGY PREDICTED BY IDOCK:  -11.29 KCAL/MOL
REMARK 923 INTER-LIGAND FREE ENERGY PREDICTED BY IDOCK:  -10.71 KCAL/MOL
REMARK 924 INTRA-LIGAND FREE ENERGY PREDICTED BY IDOCK:   -0.58 KCAL/MOL
REMARK 927      BINDING AFFINITY PREDICTED BY RF-SCORE:    0.00 PKD
ROOT
HETATM    1  C   UNL     1     -10.219   6.671  74.353  1.00  0.00    -0.262 C  
HETATM    2  O   UNL     1     -10.875   6.746  73.090  1.00  0.00    -0.273 OA 
ENDROOT
BRANCH   2   3
HETATM    3  C   UNL     1     -10.311   6.040  72.058  1.00  0.00    -0.202 A  
HETATM    4  C   UNL     1      -9.855   4.722  72.232  1.00  0.00    -0.221 A  
HETATM    5  C   UNL     1      -9.293   4.017  71.173  1.00  0.00    -0.216 A  
HETATM    6  C   UNL     1      -9.179   4.625  69.931  1.00  0.00    -0.188 A  
HETATM    7  C   UNL     1      -9.605   5.951  69.747  1.00  0.00    -0.189 A  
HETATM    8  C   UNL     1     -10.156   6.673  70.805  1.00  0.00    -0.205 A  
HETATM    9  C   UNL     1     -10.555   8.084  70.559  1.00  0.00    -0.220 C  
HETATM   10  O   UNL     1     -10.942   8.823  71.461  1.00  0.00    -0.259 OA 
HETATM   11  C   UNL     1     -10.487   8.659  69.190  1.00  0.00    -0.223 A  
HETATM   12  C   UNL     1     -10.978   9.958  68.938  1.00  0.00    -0.179 A  
HETATM   13  O   UNL     1     -11.561  10.711  69.931  1.00  0.00    -0.265 OA 
HETATM   14  C   UNL     1     -10.912  10.546  67.659  1.00  0.00    -0.375 A  
HETATM   15  H   UNL     1     -11.892  11.585  69.761  1.00  0.00     0.000 HD 
HETATM   16  C   UNL     1     -10.317   9.812  66.605  1.00  0.00    -0.276 A  
HETATM   17  C   UNL     1      -9.874   8.495  66.855  1.00  0.00    -0.242 A  
HETATM   18  C   UNL     1     -10.190  10.407  65.210  1.00  0.00    -0.332 C  
HETATM   19  C   UNL     1     -10.404  11.924  65.162  1.00  0.00    -0.277 C  
HETATM   20  C   UNL     1      -9.942   7.921  68.142  1.00  0.00    -0.210 A  
HETATM   21  O   UNL     1      -9.366   7.743  65.830  1.00  0.00    -0.392 OA 
HETATM   22  O   UNL     1      -8.923   5.854  67.541  1.00  0.00    -0.111 OA 
HETATM   23  C   UNL     1      -9.453   6.543  68.405  1.00  0.00    -0.120 C  
HETATM   24  C   UNL     1     -11.675  12.246  65.951  1.00  0.00    -0.451 C  
HETATM   25  O   UNL     1      -9.238  12.570  65.679  1.00  0.00    -0.440 OA 
HETATM   26  H   UNL     1      -9.067   6.856  65.998  1.00  0.00     0.000 HD 
HETATM   27  C   UNL     1     -11.467  11.955  67.441  1.00  0.00    -0.323 C  
HETATM   28  H   UNL     1      -9.371  13.511  65.649  1.00  0.00     0.000 HD 
BRANCH  19  29
HETATM   29  C   UNL     1     -10.586  12.407  63.714  1.00  0.00    -0.452 C  
HETATM   30  O   UNL     1      -9.743  12.184  62.841  1.00  0.00    -0.272 OA 
HETATM   31  C   UNL     1     -11.893  13.083  63.366  1.00  0.00    -0.543 C  
ENDBRANCH  19  29
BRANCH  27  32
HETATM   32  O   UNL     1     -10.545  12.885  68.037  1.00  0.00    -0.216 OA 
BRANCH  32  33
HETATM   33  C   UNL     1     -10.686  14.256  67.645  1.00  0.00    -0.258 C  
HETATM   34  C   UNL     1     -11.901  14.967  68.239  1.00  0.00    -0.308 C  
HETATM   35  C   UNL     1     -11.716  15.154  69.746  1.00  0.00    -0.319 C  
HETATM   36  N   UNL     1     -12.884  15.856  70.317  1.00  0.00    -0.666 NA 
HETATM   37  C   UNL     1     -10.415  15.934  70.004  1.00  0.00    -0.291 C  
HETATM   38  H1  UNL     1     -12.760  15.981  71.322  1.00  0.00     0.000 HD 
HETATM   39  H2  UNL     1     -13.760  15.383  70.096  1.00  0.00     0.000 HD 
HETATM   40  O   UNL     1     -10.571  17.275  69.511  1.00  0.00    -0.361 OA 
HETATM   41  C   UNL     1      -9.237  15.219  69.310  1.00  0.00    -0.233 C  
HETATM   42  H   UNL     1      -9.768  17.756  69.670  1.00  0.00     0.000 HD 
HETATM   43  C   UNL     1      -7.957  16.045  69.395  1.00  0.00    -0.152 C  
HETATM   44  O   UNL     1      -9.485  14.977  67.920  1.00  0.00    -0.193 OA 
ENDBRANCH  32  33
ENDBRANCH  27  32
ENDBRANCH   2   3
TORSDOF 4
ENDMDL
MODEL        4
REMARK 921   NORMALIZED FREE ENERGY PREDICTED BY IDOCK:   -8.63 KCAL/MOL
REMARK 922        TOTAL FREE ENERGY PREDICTED BY IDOCK:  -11.24 KCAL/MOL
REMARK 923 INTER-LIGAND FREE ENERGY PREDICTED BY IDOCK:  -11.64 KCAL/MOL
REMARK 924 INTRA-LIGAND FREE ENERGY PREDICTED BY IDOCK:    0.40 KCAL/MOL
REMARK 927      BINDING AFFINITY PREDICTED BY RF-SCORE:    0.00 PKD
ROOT
HETATM    1  C   UNL     1     -11.212   6.015  70.042  1.00  0.00    -0.355 C  
HETATM    2  O   UNL     1     -10.793   7.323  70.421  1.00  0.00    -0.234 OA 
ENDROOT
BRANCH   2   3
HETATM    3  C   UNL     1     -11.710   8.097  71.085  1.00  0.00    -0.283 A  
HETATM    4  C   UNL     1     -12.594   7.545  72.027  1.00  0.00    -0.268 A  
HETATM    5  C   UNL     1     -13.512   8.346  72.698  1.00  0.00    -0.091 A  
HETATM    6  C   UNL     1     -13.557   9.707  72.429  1.00  0.00    -0.397 A  
HETATM    7  C   UNL     1     -12.699  10.270  71.471  1.00  0.00    -0.557 A  
HETATM    8  C   UNL     1     -11.784   9.475  70.781  1.00  0.00    -0.370 A  
HETATM    9  C   UNL     1     -10.927  10.122  69.752  1.00  0.00    -0.280 C  
HETATM   10  O   UNL     1     -10.179   9.477  69.023  1.00  0.00    -0.185 OA 
HETATM   11  C   UNL     1     -10.959  11.596  69.562  1.00  0.00    -0.159 A  
HETATM   12  C   UNL     1     -10.060  12.218  68.670  1.00  0.00    -0.144 A  
HETATM   13  O   UNL     1      -9.113  11.495  67.983  1.00  0.00    -0.161 OA 
HETATM   14  C   UNL     1     -10.073  13.610  68.448  1.00  0.00    -0.241 A  
HETATM   15  H   UNL     1      -8.508  11.914  67.382  1.00  0.00     0.000 HD 
HETATM   16  C   UNL     1     -11.032  14.397  69.130  1.00  0.00    -0.288 A  
HETATM   17  C   UNL     1     -11.894  13.773  70.057  1.00  0.00    -0.307 A  
HETATM   18  C   UNL     1     -11.114  15.900  68.906  1.00  0.00    -0.316 C  
HETATM   19  C   UNL     1     -10.362  16.383  67.661  1.00  0.00    -0.284 C  
HETATM   20  C   UNL     1     -11.873  12.377  70.266  1.00  0.00    -0.315 A  
HETATM   21  O   UNL     1     -12.775  14.528  70.782  1.00  0.00    -0.330 OA 
HETATM   22  O   UNL     1     -13.655  12.340  71.845  1.00  0.00    -0.319 OA 
HETATM   23  C   UNL     1     -12.798  11.721  71.226  1.00  0.00    -0.308 C  
HETATM   24  C   UNL     1      -8.969  15.749  67.676  1.00  0.00    -0.190 C  
HETATM   25  O   UNL     1     -11.126  16.043  66.501  1.00  0.00    -0.156 OA 
HETATM   26  H   UNL     1     -13.356  14.108  71.406  1.00  0.00     0.000 HD 
HETATM   27  C   UNL     1      -9.070  14.233  67.475  1.00  0.00    -0.193 C  
HETATM   28  H   UNL     1     -10.659  16.343  65.729  1.00  0.00     0.000 HD 
BRANCH  19  29
HETATM   29  C   UNL     1     -10.208  17.913  67.671  1.00  0.00    -0.365 C  
HETATM   30  O   UNL     1     -10.013  18.542  68.715  1.00  0.00    -0.374 OA 
HETATM   31  C   UNL     1     -10.198  18.618  66.334  1.00  0.00    -0.461 C  
ENDBRANCH  19  29
BRANCH  27  32
HETATM   32  O   UNL     1      -9.494  13.905  66.140  1.00  0.00    -0.255 OA 
BRANCH  32  33
HETATM   33  C   UNL     1     -10.492  12.883  66.026  1.00  0.00    -0.276 C  
HETATM   34  C   UNL     1     -11.782  13.325  65.337  1.00  0.00    -0.370 C  
HETATM   35  C   UNL     1     -11.523  13.590  63.854  1.00  0.00    -0.250 C  
HETATM   36  N   UNL     1     -12.775  14.002  63.186  1.00  0.00    -0.724 NA 
HETATM   37  C   UNL     1     -10.936  12.323  63.207  1.00  0.00    -0.311 C  
HETATM   38  H1  UNL     1     -12.602  14.178  62.196  1.00  0.00     0.000 HD 
HETATM   39  H2  UNL     1     -13.208  14.802  63.646  1.00  0.00     0.000 HD 
HETATM   40  O   UNL     1     -11.942  11.297  63.199  1.00  0.00    -0.830 OA 
HETATM   41  C   UNL     1      -9.688  11.872  63.993  1.00  0.00    -0.154 C  
HETATM   42  H   UNL     1     -11.580  10.515  62.800  1.00  0.00     0.000 HD 
HETATM   43  C   UNL     1      -9.171  10.527  63.493  1.00  0.00    -0.300 C  
HETATM   44  O   UNL     1      -9.945  11.725  65.394  1.00  0.00    -0.241 OA 
ENDBRANCH  32  33
ENDBRANCH  27  32
ENDBRANCH   2   3
TORSDOF 4
ENDMDL
MODEL        5
REMARK 921   NORMALIZED FREE ENERGY PREDICTED BY IDOCK:   -8.61 KCAL/MOL
REMARK 922        TOTAL FREE ENERGY PREDICTED BY IDOCK:  -11.22 KCAL/MOL
REMARK 923 INTER-LIGAND FREE ENERGY PREDICTED BY IDOCK:  -10.42 KCAL/MOL
REMARK 924 INTRA-LIGAND FREE ENERGY PREDICTED BY IDOCK:   -0.80 KCAL/MOL
REMARK 927      BINDING AFFINITY PREDICTED BY RF-SCORE:    0.00 PKD
ROOT
HETATM    1  C   UNL     1     -10.142   6.835  74.265  1.00  0.00    -0.317 C  
HETATM    2  O   UNL     1     -11.015   6.665  73.152  1.00  0.00    -0.266 OA 
ENDROOT
BRANCH   2   3
HETATM    3  C   UNL     1     -10.544   5.909  72.108  1.00  0.00    -0.219 A  
HETATM    4  C   UNL     1     -10.196   4.558  72.277  1.00  0.00    -0.257 A  
HETATM    5  C   UNL     1      -9.728   3.804  71.206  1.00  0.00    -0.245 A  
HETATM    6  C   UNL     1      -9.601   4.396  69.957  1.00  0.00    -0.273 A  
HETATM    7  C   UNL     1      -9.918   5.751  69.778  1.00  0.00    -0.250 A  
HETATM    8  C   UNL     1     -10.374   6.522  70.847  1.00  0.00    -0.243 A  
HETATM    9  C   UNL     1     -10.660   7.961  70.604  1.00  0.00    -0.219 C  
HETATM   10  O   UNL     1     -10.955   8.733  71.512  1.00  0.00    -0.259 OA 
HETATM   11  C   UNL     1     -10.585   8.523  69.230  1.00  0.00    -0.193 A  
HETATM   12  C   UNL     1     -10.972   9.858  68.985  1.00  0.00    -0.190 A  
HETATM   13  O   UNL     1     -11.459  10.661  69.989  1.00  0.00    -0.274 OA 
HETATM   14  C   UNL     1     -10.895  10.433  67.700  1.00  0.00    -0.361 A  
HETATM   15  H   UNL     1     -11.720  11.560  69.824  1.00  0.00     0.000 HD 
HETATM   16  C   UNL     1     -10.397   9.647  66.634  1.00  0.00    -0.279 A  
HETATM   17  C   UNL     1     -10.059   8.298  66.878  1.00  0.00    -0.296 A  
HETATM   18  C   UNL     1     -10.262  10.224  65.232  1.00  0.00    -0.308 C  
HETATM   19  C   UNL     1     -10.348  11.753  65.181  1.00  0.00    -0.279 C  
HETATM   20  C   UNL     1     -10.136   7.737  68.171  1.00  0.00    -0.220 A  
HETATM   21  O   UNL     1      -9.648   7.502  65.844  1.00  0.00    -0.420 OA 
HETATM   22  O   UNL     1      -9.314   5.589  67.553  1.00  0.00    -0.110 OA 
HETATM   23  C   UNL     1      -9.757   6.323  68.428  1.00  0.00    -0.124 C  
HETATM   24  C   UNL     1     -11.563  12.185  66.005  1.00  0.00    -0.420 C  
HETATM   25  O   UNL     1      -9.116  12.300  65.658  1.00  0.00    -0.431 OA 
HETATM   26  H   UNL     1      -9.420   6.594  66.008  1.00  0.00     0.000 HD 
HETATM   27  C   UNL     1     -11.335  11.883  67.490  1.00  0.00    -0.314 C  
HETATM   28  H   UNL     1      -9.170  13.249  65.626  1.00  0.00     0.000 HD 
BRANCH  19  29
HETATM   29  C   UNL     1     -10.532  12.245  63.735  1.00  0.00    -0.444 C  
HETATM   30  O   UNL     1      -9.705  12.000  62.853  1.00  0.00    -0.334 OA 
HETATM   31  C   UNL     1     -11.824  12.956  63.403  1.00  0.00    -0.576 C  
ENDBRANCH  19  29
BRANCH  27  32
HETATM   32  O   UNL     1     -10.320  12.734  68.052  1.00  0.00    -0.216 OA 
BRANCH  32  33
HETATM   33  C   UNL     1     -10.750  14.030  68.488  1.00  0.00    -0.256 C  
HETATM   34  C   UNL     1      -9.772  14.745  69.419  1.00  0.00    -0.047 C  
HETATM   35  C   UNL     1      -8.511  15.144  68.651  1.00  0.00    -0.170 C  
HETATM   36  N   UNL     1      -7.573  15.852  69.548  1.00  0.00    -0.201 NA 
HETATM   37  C   UNL     1      -8.905  16.023  67.451  1.00  0.00    -0.184 C  
HETATM   38  H1  UNL     1      -6.733  16.118  69.036  1.00  0.00     0.000 HD 
HETATM   39  H2  UNL     1      -7.356  15.304  70.381  1.00  0.00     0.000 HD 
HETATM   40  O   UNL     1      -9.417  17.274  67.939  1.00  0.00    -0.256 OA 
HETATM   41  C   UNL     1      -9.956  15.288  66.594  1.00  0.00    -0.254 C  
HETATM   42  H   UNL     1      -9.660  17.817  67.198  1.00  0.00     0.000 HD 
HETATM   43  C   UNL     1     -10.502  16.187  65.489  1.00  0.00    -0.407 C  
HETATM   44  O   UNL     1     -11.080  14.847  67.365  1.00  0.00    -0.305 OA 
ENDBRANCH  32  33
ENDBRANCH  27  32
ENDBRANCH   2   3
TORSDOF 4
ENDMDL
MODEL        6
REMARK 921   NORMALIZED FREE ENERGY PREDICTED BY IDOCK:   -8.29 KCAL/MOL
REMARK 922        TOTAL FREE ENERGY PREDICTED BY IDOCK:  -10.82 KCAL/MOL
REMARK 923 INTER-LIGAND FREE ENERGY PREDICTED BY IDOCK:   -9.70 KCAL/MOL
REMARK 924 INTRA-LIGAND FREE ENERGY PREDICTED BY IDOCK:   -1.13 KCAL/MOL
REMARK 927      BINDING AFFINITY PREDICTED BY RF-SCORE:    0.00 PKD
ROOT
HETATM    1  C   UNL     1      -8.263   2.909  70.324  1.00  0.00    -0.041 C  
HETATM    2  O   UNL     1      -8.526   4.301  70.485  1.00  0.00    -0.074 OA 
ENDROOT
BRANCH   2   3
HETATM    3  C   UNL     1      -9.562   4.641  71.317  1.00  0.00    -0.172 A  
HETATM    4  C   UNL     1     -10.084   3.732  72.252  1.00  0.00    -0.228 A  
HETATM    5  C   UNL     1     -11.129   4.096  73.095  1.00  0.00    -0.269 A  
HETATM    6  C   UNL     1     -11.663   5.373  73.006  1.00  0.00    -0.195 A  
HETATM    7  C   UNL     1     -11.172   6.286  72.059  1.00  0.00    -0.327 A  
HETATM    8  C   UNL     1     -10.134   5.927  71.199  1.00  0.00    -0.249 A  
HETATM    9  C   UNL     1      -9.680   6.924  70.193  1.00  0.00    -0.171 C  
HETATM   10  O   UNL     1      -8.853   6.650  69.327  1.00  0.00    -0.133 OA 
HETATM   11  C   UNL     1     -10.232   8.304  70.197  1.00  0.00    -0.199 A  
HETATM   12  C   UNL     1      -9.713   9.280  69.319  1.00  0.00    -0.169 A  
HETATM   13  O   UNL     1      -8.670   9.000  68.467  1.00  0.00    -0.132 OA 
HETATM   14  C   UNL     1     -10.223  10.594  69.278  1.00  0.00    -0.235 A  
HETATM   15  H   UNL     1      -8.320   9.657  67.877  1.00  0.00     0.000 HD 
HETATM   16  C   UNL     1     -11.299  10.930  70.134  1.00  0.00    -0.367 A  
HETATM   17  C   UNL     1     -11.778   9.962  71.043  1.00  0.00    -0.382 A  
HETATM   18  C   UNL     1     -11.912  12.323  70.112  1.00  0.00    -0.377 C  
HETATM   19  C   UNL     1     -11.526  13.149  68.880  1.00  0.00    -0.298 C  
HETATM   20  C   UNL     1     -11.261   8.649  71.069  1.00  0.00    -0.321 A  
HETATM   21  O   UNL     1     -12.767  10.292  71.930  1.00  0.00    -0.415 OA 
HETATM   22  O   UNL     1     -12.717   7.848  72.775  1.00  0.00     0.023 OA 
HETATM   23  C   UNL     1     -11.785   7.626  72.012  1.00  0.00    -0.298 C  
HETATM   24  C   UNL     1     -10.011  13.044  68.696  1.00  0.00    -0.114 C  
HETATM   25  O   UNL     1     -12.268  12.671  67.754  1.00  0.00    -0.338 OA 
HETATM   26  H   UNL     1     -13.090   9.640  72.542  1.00  0.00     0.000 HD 
HETATM   27  C   UNL     1      -9.617  11.614  68.312  1.00  0.00    -0.198 C  
HETATM   28  H   UNL     1     -12.029  13.183  66.990  1.00  0.00     0.000 HD 
BRANCH  19  29
HETATM   29  C   UNL     1     -11.899  14.629  69.072  1.00  0.00    -0.310 C  
HETATM   30  O   UNL     1     -11.709  15.469  68.188  1.00  0.00    -0.342 OA 
HETATM   31  C   UNL     1     -12.609  15.005  70.353  1.00  0.00    -0.399 C  
ENDBRANCH  19  29
BRANCH  27  32
HETATM   32  O   UNL     1     -10.067  11.280  66.986  1.00  0.00    -0.197 OA 
BRANCH  32  33
HETATM   33  C   UNL     1      -9.336  11.869  65.903  1.00  0.00    -0.184 C  
HETATM   34  C   UNL     1      -8.568  10.872  65.037  1.00  0.00    -0.056 C  
HETATM   35  C   UNL     1      -9.544  10.005  64.240  1.00  0.00    -0.235 C  
HETATM   36  N   UNL     1      -8.799   9.054  63.390  1.00  0.00    -0.429 NA 
HETATM   37  C   UNL     1     -10.455  10.913  63.395  1.00  0.00    -0.153 C  
HETATM   38  H1  UNL     1      -9.450   8.475  62.859  1.00  0.00     0.000 HD 
HETATM   39  H2  UNL     1      -8.143   8.491  63.932  1.00  0.00     0.000 HD 
HETATM   40  O   UNL     1      -9.662  11.553  62.382  1.00  0.00    -0.458 OA 
HETATM   41  C   UNL     1     -11.138  11.953  64.307  1.00  0.00    -0.356 C  
HETATM   42  H   UNL     1     -10.224  12.114  61.860  1.00  0.00     0.000 HD 
HETATM   43  C   UNL     1     -11.918  12.981  63.493  1.00  0.00    -0.615 C  
HETATM   44  O   UNL     1     -10.199  12.682  65.107  1.00  0.00    -0.287 OA 
ENDBRANCH  32  33
ENDBRANCH  27  32
ENDBRANCH   2   3
TORSDOF 4
ENDMDL
MODEL        7
REMARK 921   NORMALIZED FREE ENERGY PREDICTED BY IDOCK:   -8.28 KCAL/MOL
REMARK 922        TOTAL FREE ENERGY PREDICTED BY IDOCK:  -10.81 KCAL/MOL
REMARK 923 INTER-LIGAND FREE ENERGY PREDICTED BY IDOCK:  -10.25 KCAL/MOL
REMARK 924 INTRA-LIGAND FREE ENERGY PREDICTED BY IDOCK:   -0.57 KCAL/MOL
REMARK 927      BINDING AFFINITY PREDICTED BY RF-SCORE:    0.00 PKD
ROOT
HETATM    1  C   UNL     1      -8.225   4.452  67.371  1.00  0.00    -0.100 C  
HETATM    2  O   UNL     1      -7.982   5.347  68.454  1.00  0.00    -0.087 OA 
ENDROOT
BRANCH   2   3
HETATM    3  C   UNL     1      -8.912   5.363  69.462  1.00  0.00    -0.105 A  
HETATM    4  C   UNL     1      -9.216   4.208  70.201  1.00  0.00    -0.210 A  
HETATM    5  C   UNL     1     -10.156   4.245  71.226  1.00  0.00    -0.178 A  
HETATM    6  C   UNL     1     -10.802   5.437  71.518  1.00  0.00    -0.218 A  
HETATM    7  C   UNL     1     -10.529   6.595  70.771  1.00  0.00    -0.251 A  
HETATM    8  C   UNL     1      -9.600   6.567  69.731  1.00  0.00    -0.161 A  
HETATM    9  C   UNL     1      -9.380   7.815  68.954  1.00  0.00    -0.146 C  
HETATM   10  O   UNL     1      -8.666   7.847  67.954  1.00  0.00    -0.125 OA 
HETATM   11  C   UNL     1     -10.038   9.084  69.361  1.00  0.00    -0.198 A  
HETATM   12  C   UNL     1      -9.734  10.290  68.694  1.00  0.00    -0.167 A  
HETATM   13  O   UNL     1      -8.805  10.336  67.681  1.00  0.00    -0.122 OA 
HETATM   14  C   UNL     1     -10.353  11.509  69.037  1.00  0.00    -0.143 A  
HETATM   15  H   UNL     1      -8.600  11.148  67.232  1.00  0.00     0.000 HD 
HETATM   16  C   UNL     1     -11.318  11.512  70.071  1.00  0.00    -0.222 A  
HETATM   17  C   UNL     1     -11.580  10.311  70.766  1.00  0.00    -0.355 A  
HETATM   18  C   UNL     1     -12.042  12.792  70.465  1.00  0.00    -0.369 C  
HETATM   19  C   UNL     1     -11.908  13.920  69.436  1.00  0.00    -0.334 C  
HETATM   20  C   UNL     1     -10.957   9.096  70.408  1.00  0.00    -0.290 A  
HETATM   21  O   UNL     1     -12.455  10.311  71.819  1.00  0.00    -0.397 OA 
HETATM   22  O   UNL     1     -12.080   7.760  72.027  1.00  0.00    -0.293 OA 
HETATM   23  C   UNL     1     -11.252   7.830  71.127  1.00  0.00    -0.264 C  
HETATM   24  C   UNL     1     -10.431  14.035  69.052  1.00  0.00    -0.169 C  
HETATM   25  O   UNL     1     -12.761  13.633  68.324  1.00  0.00     0.004 OA 
HETATM   26  H   UNL     1     -12.631   9.502  72.287  1.00  0.00     0.000 HD 
HETATM   27  C   UNL     1      -9.979  12.788  68.285  1.00  0.00    -0.230 C  
HETATM   28  H   UNL     1     -12.678  14.333  67.687  1.00  0.00     0.000 HD 
BRANCH  19  29
HETATM   29  C   UNL     1     -12.370  15.261  70.028  1.00  0.00    -0.328 C  
HETATM   30  O   UNL     1     -11.781  16.319  69.786  1.00  0.00    -0.237 OA 
HETATM   31  C   UNL     1     -13.645  15.259  70.840  1.00  0.00    -0.402 C  
ENDBRANCH  19  29
BRANCH  27  32
HETATM   32  O   UNL     1     -10.586  12.722  66.982  1.00  0.00    -0.239 OA 
BRANCH  32  33
HETATM   33  C   UNL     1      -9.887  13.390  65.924  1.00  0.00    -0.238 C  
HETATM   34  C   UNL     1     -10.549  13.274  64.551  1.00  0.00    -0.437 C  
HETATM   35  C   UNL     1     -11.857  14.065  64.529  1.00  0.00    -0.434 C  
HETATM   36  N   UNL     1     -12.487  13.966  63.196  1.00  0.00    -1.079 NA 
HETATM   37  C   UNL     1     -11.570  15.530  64.903  1.00  0.00    -0.201 C  
HETATM   38  H1  UNL     1     -13.359  14.494  63.181  1.00  0.00     0.000 HD 
HETATM   39  H2  UNL     1     -12.622  12.997  62.909  1.00  0.00     0.000 HD 
HETATM   40  O   UNL     1     -10.790  16.133  63.857  1.00  0.00    -0.659 OA 
HETATM   41  C   UNL     1     -10.827  15.583  66.253  1.00  0.00    -0.283 C  
HETATM   42  H   UNL     1     -10.613  17.037  64.088  1.00  0.00     0.000 HD 
HETATM   43  C   UNL     1     -10.372  17.002  66.583  1.00  0.00    -0.299 C  
HETATM   44  O   UNL     1      -9.657  14.756  66.268  1.00  0.00    -0.280 OA 
ENDBRANCH  32  33
ENDBRANCH  27  32
ENDBRANCH   2   3
TORSDOF 4
ENDMDL
MODEL        8
REMARK 921   NORMALIZED FREE ENERGY PREDICTED BY IDOCK:   -8.26 KCAL/MOL
REMARK 922        TOTAL FREE ENERGY PREDICTED BY IDOCK:  -10.79 KCAL/MOL
REMARK 923 INTER-LIGAND FREE ENERGY PREDICTED BY IDOCK:   -9.74 KCAL/MOL
REMARK 924 INTRA-LIGAND FREE ENERGY PREDICTED BY IDOCK:   -1.05 KCAL/MOL
REMARK 927      BINDING AFFINITY PREDICTED BY RF-SCORE:    0.00 PKD
ROOT
HETATM    1  C   UNL     1     -10.461  17.760  68.665  1.00  0.00    -0.292 C  
HETATM    2  O   UNL     1     -10.097  16.447  68.245  1.00  0.00    -0.234 OA 
ENDROOT
BRANCH   2   3
HETATM    3  C   UNL     1     -10.412  16.102  66.955  1.00  0.00    -0.306 A  
HETATM    4  C   UNL     1     -10.756  17.071  65.997  1.00  0.00    -0.116 A  
HETATM    5  C   UNL     1     -11.065  16.704  64.692  1.00  0.00    -0.042 A  
HETATM    6  C   UNL     1     -11.037  15.364  64.334  1.00  0.00    -0.149 A  
HETATM    7  C   UNL     1     -10.722  14.380  65.285  1.00  0.00    -0.387 A  
HETATM    8  C   UNL     1     -10.425  14.734  66.601  1.00  0.00    -0.286 A  
HETATM    9  C   UNL     1     -10.134  13.647  67.572  1.00  0.00    -0.237 C  
HETATM   10  O   UNL     1      -9.975  13.863  68.771  1.00  0.00    -0.213 OA 
HETATM   11  C   UNL     1     -10.037  12.235  67.117  1.00  0.00    -0.218 A  
HETATM   12  C   UNL     1      -9.644  11.222  68.017  1.00  0.00    -0.180 A  
HETATM   13  O   UNL     1      -9.308  11.508  69.320  1.00  0.00    -0.392 OA 
HETATM   14  C   UNL     1      -9.561   9.869  67.628  1.00  0.00    -0.172 A  
HETATM   15  H   UNL     1      -9.043  10.827  69.926  1.00  0.00     0.000 HD 
HETATM   16  C   UNL     1      -9.900   9.524  66.299  1.00  0.00    -0.334 A  
HETATM   17  C   UNL     1     -10.244  10.550  65.392  1.00  0.00    -0.270 A  
HETATM   18  C   UNL     1      -9.859   8.077  65.830  1.00  0.00     0.250 C  
HETATM   19  C   UNL     1      -9.792   7.058  66.973  1.00  0.00    -0.183 C  
HETATM   20  C   UNL     1     -10.328  11.899  65.796  1.00  0.00    -0.285 A  
HETATM   21  O   UNL     1     -10.501  10.243  64.083  1.00  0.00    -0.393 OA 
HETATM   22  O   UNL     1     -11.025  12.745  63.682  1.00  0.00    -0.425 OA 
HETATM   23  C   UNL     1     -10.713  12.973  64.844  1.00  0.00    -0.332 C  
HETATM   24  C   UNL     1      -8.705   7.513  67.949  1.00  0.00    -0.124 C  
HETATM   25  O   UNL     1     -11.086   6.956  67.575  1.00  0.00    -0.499 OA 
HETATM   26  H   UNL     1     -10.733  10.934  63.473  1.00  0.00     0.000 HD 
HETATM   27  C   UNL     1      -9.121   8.813  68.644  1.00  0.00    -0.141 C  
HETATM   28  H   UNL     1     -11.045   6.324  68.284  1.00  0.00     0.000 HD 
BRANCH  19  29
HETATM   29  C   UNL     1      -9.428   5.661  66.444  1.00  0.00    -0.155 C  
HETATM   30  O   UNL     1     -10.141   4.676  66.655  1.00  0.00    -0.218 OA 
HETATM   31  C   UNL     1      -8.207   5.551  65.559  1.00  0.00    -0.130 C  
ENDBRANCH  19  29
BRANCH  27  32
HETATM   32  O   UNL     1     -10.217   8.598  69.553  1.00  0.00    -0.198 OA 
BRANCH  32  33
HETATM   33  C   UNL     1      -9.872   8.446  70.935  1.00  0.00    -0.184 C  
HETATM   34  C   UNL     1     -10.912   8.988  71.915  1.00  0.00    -0.423 C  
HETATM   35  C   UNL     1     -12.174   8.125  71.874  1.00  0.00    -0.331 C  
HETATM   36  N   UNL     1     -13.172   8.639  72.834  1.00  0.00    -0.744 NA 
HETATM   37  C   UNL     1     -11.800   6.665  72.186  1.00  0.00    -0.298 C  
HETATM   38  H1  UNL     1     -14.013   8.064  72.806  1.00  0.00     0.000 HD 
HETATM   39  H2  UNL     1     -13.379   9.626  72.677  1.00  0.00     0.000 HD 
HETATM   40  O   UNL     1     -11.372   6.578  73.556  1.00  0.00    -0.426 OA 
HETATM   41  C   UNL     1     -10.687   6.198  71.225  1.00  0.00    -0.256 C  
HETATM   42  H   UNL     1     -11.141   5.677  73.749  1.00  0.00     0.000 HD 
HETATM   43  C   UNL     1     -10.166   4.816  71.606  1.00  0.00    -0.249 C  
HETATM   44  O   UNL     1      -9.560   7.082  71.221  1.00  0.00    -0.165 OA 
ENDBRANCH  32  33
ENDBRANCH  27  32
ENDBRANCH   2   3
TORSDOF 4
ENDMDL
MODEL        9
REMARK 921   NORMALIZED FREE ENERGY PREDICTED BY IDOCK:   -8.09 KCAL/MOL
REMARK 922        TOTAL FREE ENERGY PREDICTED BY IDOCK:  -10.57 KCAL/MOL
REMARK 923 INTER-LIGAND FREE ENERGY PREDICTED BY IDOCK:   -9.74 KCAL/MOL
REMARK 924 INTRA-LIGAND FREE ENERGY PREDICTED BY IDOCK:   -0.83 KCAL/MOL
REMARK 927      BINDING AFFINITY PREDICTED BY RF-SCORE:    0.00 PKD
ROOT
HETATM    1  C   UNL     1     -10.623  16.536  69.436  1.00  0.00    -0.329 C  
HETATM    2  O   UNL     1     -10.919  15.251  68.894  1.00  0.00    -0.239 OA 
ENDROOT
BRANCH   2   3
HETATM    3  C   UNL     1     -10.799  15.111  67.535  1.00  0.00    -0.301 A  
HETATM    4  C   UNL     1     -10.907  16.213  66.670  1.00  0.00    -0.149 A  
HETATM    5  C   UNL     1     -10.775  16.055  65.294  1.00  0.00    -0.417 A  
HETATM    6  C   UNL     1     -10.538  14.792  64.772  1.00  0.00    -0.355 A  
HETATM    7  C   UNL     1     -10.455  13.676  65.619  1.00  0.00    -0.304 A  
HETATM    8  C   UNL     1     -10.600  13.819  66.999  1.00  0.00    -0.278 A  
HETATM    9  C   UNL     1     -10.538  12.596  67.842  1.00  0.00    -0.220 C  
HETATM   10  O   UNL     1     -10.768  12.619  69.049  1.00  0.00    -0.195 OA 
HETATM   11  C   UNL     1     -10.201  11.280  67.239  1.00  0.00    -0.226 A  
HETATM   12  C   UNL     1     -10.026  10.145  68.059  1.00  0.00    -0.148 A  
HETATM   13  O   UNL     1     -10.125  10.225  69.428  1.00  0.00    -0.212 OA 
HETATM   14  C   UNL     1      -9.726   8.876  67.522  1.00  0.00    -0.216 A  
HETATM   15  H   UNL     1     -10.007   9.461  69.980  1.00  0.00     0.000 HD 
HETATM   16  C   UNL     1      -9.617   8.743  66.118  1.00  0.00    -0.323 A  
HETATM   17  C   UNL     1      -9.745   9.893  65.309  1.00  0.00    -0.313 A  
HETATM   18  C   UNL     1      -9.326   7.392  65.480  1.00  0.00     0.392 C  
HETATM   19  C   UNL     1      -9.535   6.203  66.424  1.00  0.00    -0.144 C  
HETATM   20  C   UNL     1     -10.050  11.156  65.859  1.00  0.00    -0.296 A  
HETATM   21  O   UNL     1      -9.567   9.796  63.955  1.00  0.00    -0.396 OA 
HETATM   22  O   UNL     1     -10.130  12.314  63.781  1.00  0.00    -0.385 OA 
HETATM   23  C   UNL     1     -10.206  12.360  65.002  1.00  0.00    -0.283 C  
HETATM   24  C   UNL     1      -8.834   6.522  67.746  1.00  0.00    -0.113 C  
HETATM   25  O   UNL     1     -10.938   5.971  66.570  1.00  0.00    -0.631 OA 
HETATM   26  H   UNL     1      -9.653  10.570  63.411  1.00  0.00     0.000 HD 
HETATM   27  C   UNL     1      -9.539   7.681  68.459  1.00  0.00    -0.148 C  
HETATM   28  H   UNL     1     -11.068   5.234  67.155  1.00  0.00     0.000 HD 
BRANCH  19  29
HETATM   29  C   UNL     1      -8.922   4.921  65.837  1.00  0.00    -0.134 C  
HETATM   30  O   UNL     1      -9.538   3.851  65.822  1.00  0.00    -0.171 OA 
HETATM   31  C   UNL     1      -7.566   5.038  65.178  1.00  0.00    -0.081 C  
ENDBRANCH  19  29
BRANCH  27  32
HETATM   32  O   UNL     1     -10.840   7.293  68.938  1.00  0.00    -0.180 OA 
BRANCH  32  33
HETATM   33  C   UNL     1     -10.863   6.474  70.113  1.00  0.00    -0.282 C  
HETATM   34  C   UNL     1      -9.803   6.825  71.156  1.00  0.00    -0.188 C  
HETATM   35  C   UNL     1     -10.115   8.182  71.788  1.00  0.00    -0.205 C  
HETATM   36  N   UNL     1      -9.099   8.512  72.808  1.00  0.00    -0.322 NA 
HETATM   37  C   UNL     1     -11.527   8.143  72.399  1.00  0.00    -0.397 C  
HETATM   38  H1  UNL     1      -9.307   9.417  73.230  1.00  0.00     0.000 HD 
HETATM   39  H2  UNL     1      -8.152   8.477  72.429  1.00  0.00     0.000 HD 
HETATM   40  O   UNL     1     -11.525   7.239  73.517  1.00  0.00    -0.542 OA 
HETATM   41  C   UNL     1     -12.543   7.700  71.327  1.00  0.00    -0.289 C  
HETATM   42  H   UNL     1     -12.397   7.215  73.894  1.00  0.00     0.000 HD 
HETATM   43  C   UNL     1     -13.929   7.484  71.928  1.00  0.00    -0.391 C  
HETATM   44  O   UNL     1     -12.169   6.473  70.690  1.00  0.00    -0.331 OA 
ENDBRANCH  32  33
ENDBRANCH  27  32
ENDBRANCH   2   3
TORSDOF 4
ENDMDL
MODEL       10
REMARK 921   NORMALIZED FREE ENERGY PREDICTED BY IDOCK:   -8.03 KCAL/MOL
REMARK 922        TOTAL FREE ENERGY PREDICTED BY IDOCK:  -10.51 KCAL/MOL
REMARK 923 INTER-LIGAND FREE ENERGY PREDICTED BY IDOCK:  -10.15 KCAL/MOL
REMARK 924 INTRA-LIGAND FREE ENERGY PREDICTED BY IDOCK:   -0.36 KCAL/MOL
REMARK 927      BINDING AFFINITY PREDICTED BY RF-SCORE:    0.00 PKD
ROOT
HETATM    1  C   UNL     1     -10.282  17.098  69.094  1.00  0.00    -0.284 C  
HETATM    2  O   UNL     1     -11.029  15.978  68.625  1.00  0.00    -0.285 OA 
ENDROOT
BRANCH   2   3
HETATM    3  C   UNL     1     -10.883  15.649  67.302  1.00  0.00    -0.298 A  
HETATM    4  C   UNL     1     -10.906  16.627  66.293  1.00  0.00    -0.015 A  
HETATM    5  C   UNL     1     -10.748  16.277  64.956  1.00  0.00    -0.319 A  
HETATM    6  C   UNL     1     -10.569  14.944  64.616  1.00  0.00    -0.208 A  
HETATM    7  C   UNL     1     -10.570  13.950  65.609  1.00  0.00    -0.306 A  
HETATM    8  C   UNL     1     -10.743  14.287  66.951  1.00  0.00    -0.290 A  
HETATM    9  C   UNL     1     -10.771  13.189  67.952  1.00  0.00    -0.235 C  
HETATM   10  O   UNL     1     -11.030  13.388  69.137  1.00  0.00    -0.237 OA 
HETATM   11  C   UNL     1     -10.493  11.787  67.543  1.00  0.00    -0.228 A  
HETATM   12  C   UNL     1     -10.403  10.766  68.513  1.00  0.00    -0.185 A  
HETATM   13  O   UNL     1     -10.533  11.037  69.856  1.00  0.00    -0.446 OA 
HETATM   14  C   UNL     1     -10.162   9.422  68.162  1.00  0.00    -0.239 A  
HETATM   15  H   UNL     1     -10.472  10.350  70.509  1.00  0.00     0.000 HD 
HETATM   16  C   UNL     1     -10.024   9.094  66.793  1.00  0.00    -0.322 A  
HETATM   17  C   UNL     1     -10.067  10.128  65.833  1.00  0.00    -0.254 A  
HETATM   18  C   UNL     1      -9.794   7.655  66.352  1.00  0.00    -0.174 C  
HETATM   19  C   UNL     1     -10.093   6.619  67.441  1.00  0.00    -0.164 C  
HETATM   20  C   UNL     1     -10.314  11.469  66.198  1.00  0.00    -0.287 A  
HETATM   21  O   UNL     1      -9.860   9.839  64.512  1.00  0.00    -0.413 OA 
HETATM   22  O   UNL     1     -10.276  12.336  63.981  1.00  0.00    -0.345 OA 
HETATM   23  C   UNL     1     -10.380  12.551  65.183  1.00  0.00    -0.289 C  
HETATM   24  C   UNL     1      -9.409   7.078  68.730  1.00  0.00    -0.134 C  
HETATM   25  O   UNL     1     -11.511   6.482  67.569  1.00  0.00    -0.721 OA 
HETATM   26  H   UNL     1      -9.888  10.535  63.865  1.00  0.00     0.000 HD 
HETATM   27  C   UNL     1     -10.066   8.358  69.257  1.00  0.00    -0.202 C  
HETATM   28  H   UNL     1     -11.696   5.839  68.244  1.00  0.00     0.000 HD 
BRANCH  19  29
HETATM   29  C   UNL     1      -9.538   5.238  67.052  1.00  0.00    -0.142 C  
HETATM   30  O   UNL     1      -9.064   5.017  65.934  1.00  0.00    -0.140 OA 
HETATM   31  C   UNL     1      -9.497   4.178  68.129  1.00  0.00    -0.215 C  
ENDBRANCH  19  29
BRANCH  27  32
HETATM   32  O   UNL     1     -11.398   8.107  69.740  1.00  0.00    -0.058 OA 
BRANCH  32  33
HETATM   33  C   UNL     1     -11.673   8.523  71.083  1.00  0.00    -0.281 C  
HETATM   34  C   UNL     1     -12.508   7.535  71.898  1.00  0.00    -0.335 C  
HETATM   35  C   UNL     1     -11.695   6.272  72.187  1.00  0.00    -0.319 C  
HETATM   36  N   UNL     1     -12.497   5.326  72.989  1.00  0.00    -0.270 NA 
HETATM   37  C   UNL     1     -10.396   6.661  72.916  1.00  0.00    -0.213 C  
HETATM   38  H1  UNL     1     -11.955   4.483  73.182  1.00  0.00     0.000 HD 
HETATM   39  H2  UNL     1     -13.390   5.112  72.546  1.00  0.00     0.000 HD 
HETATM   40  O   UNL     1     -10.728   7.159  74.223  1.00  0.00    -0.540 OA 
HETATM   41  C   UNL     1      -9.638   7.722  72.092  1.00  0.00    -0.176 C  
HETATM   42  H   UNL     1      -9.926   7.398  74.672  1.00  0.00     0.000 HD 
HETATM   43  C   UNL     1      -8.431   8.261  72.854  1.00  0.00    -0.260 C  
HETATM   44  O   UNL     1     -10.459   8.848  71.760  1.00  0.00    -0.314 OA 
ENDBRANCH  32  33
ENDBRANCH  27  32
ENDBRANCH   2   3
TORSDOF 4
ENDMDL
MODEL       11
REMARK 921   NORMALIZED FREE ENERGY PREDICTED BY IDOCK:   -8.00 KCAL/MOL
REMARK 922        TOTAL FREE ENERGY PREDICTED BY IDOCK:  -10.46 KCAL/MOL
REMARK 923 INTER-LIGAND FREE ENERGY PREDICTED BY IDOCK:   -9.36 KCAL/MOL
REMARK 924 INTRA-LIGAND FREE ENERGY PREDICTED BY IDOCK:   -1.10 KCAL/MOL
REMARK 927      BINDING AFFINITY PREDICTED BY RF-SCORE:    0.00 PKD
ROOT
HETATM    1  C   UNL     1     -11.344  15.588  67.910  1.00  0.00    -0.308 C  
HETATM    2  O   UNL     1     -12.097  14.424  67.579  1.00  0.00    -0.377 OA 
ENDROOT
BRANCH   2   3
HETATM    3  C   UNL     1     -11.918  13.910  66.320  1.00  0.00    -0.434 A  
HETATM    4  C   UNL     1     -12.395  14.576  65.179  1.00  0.00    -0.324 A  
HETATM    5  C   UNL     1     -12.198  14.045  63.909  1.00  0.00    -0.336 A  
HETATM    6  C   UNL     1     -11.524  12.841  63.769  1.00  0.00    -0.533 A  
HETATM    7  C   UNL     1     -11.064  12.148  64.901  1.00  0.00    -0.367 A  
HETATM    8  C   UNL     1     -11.269  12.663  66.181  1.00  0.00    -0.350 A  
HETATM    9  C   UNL     1     -10.791  11.867  67.342  1.00  0.00    -0.243 C  
HETATM   10  O   UNL     1     -11.031  12.192  68.502  1.00  0.00    -0.214 OA 
HETATM   11  C   UNL     1     -10.003  10.624  67.132  1.00  0.00    -0.234 A  
HETATM   12  C   UNL     1      -9.450   9.937  68.234  1.00  0.00    -0.139 A  
HETATM   13  O   UNL     1      -9.590  10.408  69.519  1.00  0.00    -0.298 OA 
HETATM   14  C   UNL     1      -8.715   8.744  68.077  1.00  0.00    -0.141 A  
HETATM   15  H   UNL     1      -9.217   9.946  70.260  1.00  0.00     0.000 HD 
HETATM   16  C   UNL     1      -8.547   8.218  66.774  1.00  0.00    -0.131 A  
HETATM   17  C   UNL     1      -9.061   8.938  65.674  1.00  0.00    -0.212 A  
HETATM   18  C   UNL     1      -7.790   6.918  66.546  1.00  0.00    -0.106 C  
HETATM   19  C   UNL     1      -7.579   6.093  67.820  1.00  0.00    -0.097 C  
HETATM   20  C   UNL     1      -9.799  10.128  65.846  1.00  0.00    -0.308 A  
HETATM   21  O   UNL     1      -8.842   8.484  64.401  1.00  0.00    -0.413 OA 
HETATM   22  O   UNL     1     -10.255  10.470  63.534  1.00  0.00    -0.234 OA 
HETATM   23  C   UNL     1     -10.359  10.871  64.687  1.00  0.00    -0.338 C  
HETATM   24  C   UNL     1      -7.054   7.031  68.908  1.00  0.00    -0.085 C  
HETATM   25  O   UNL     1      -8.813   5.458  68.168  1.00  0.00    -0.106 OA 
HETATM   26  H   UNL     1      -9.189   8.968  63.661  1.00  0.00     0.000 HD 
HETATM   27  C   UNL     1      -8.131   8.045  69.306  1.00  0.00    -0.118 C  
HETATM   28  H   UNL     1      -8.681   4.946  68.958  1.00  0.00     0.000 HD 
BRANCH  19  29
HETATM   29  C   UNL     1      -6.545   4.978  67.589  1.00  0.00    -0.050 C  
HETATM   30  O   UNL     1      -6.042   4.350  68.524  1.00  0.00    -0.029 OA 
HETATM   31  C   UNL     1      -6.240   4.601  66.157  1.00  0.00    -0.032 C  
ENDBRANCH  19  29
BRANCH  27  32
HETATM   32  O   UNL     1      -9.218   7.413  70.006  1.00  0.00    -0.148 OA 
BRANCH  32  33
HETATM   33  C   UNL     1      -9.064   7.278  71.425  1.00  0.00    -0.142 C  
HETATM   34  C   UNL     1     -10.098   8.040  72.253  1.00  0.00    -0.311 C  
HETATM   35  C   UNL     1     -11.478   7.403  72.088  1.00  0.00    -0.282 C  
HETATM   36  N   UNL     1     -12.473   8.130  72.903  1.00  0.00    -0.653 NA 
HETATM   37  C   UNL     1     -11.403   5.920  72.492  1.00  0.00    -0.304 C  
HETATM   38  H1  UNL     1     -13.393   7.705  72.793  1.00  0.00     0.000 HD 
HETATM   39  H2  UNL     1     -12.485   9.128  72.690  1.00  0.00     0.000 HD 
HETATM   40  O   UNL     1     -11.155   5.835  73.905  1.00  0.00    -0.386 OA 
HETATM   41  C   UNL     1     -10.288   5.220  71.688  1.00  0.00    -0.216 C  
HETATM   42  H   UNL     1     -11.109   4.919  74.154  1.00  0.00     0.000 HD 
HETATM   43  C   UNL     1     -10.063   3.792  72.174  1.00  0.00    -0.220 C  
HETATM   44  O   UNL     1      -9.030   5.899  71.791  1.00  0.00    -0.139 OA 
ENDBRANCH  32  33
ENDBRANCH  27  32
ENDBRANCH   2   3
TORSDOF 4
ENDMDL
MODEL       12
REMARK 921   NORMALIZED FREE ENERGY PREDICTED BY IDOCK:   -7.99 KCAL/MOL
REMARK 922        TOTAL FREE ENERGY PREDICTED BY IDOCK:  -10.45 KCAL/MOL
REMARK 923 INTER-LIGAND FREE ENERGY PREDICTED BY IDOCK:   -9.94 KCAL/MOL
REMARK 924 INTRA-LIGAND FREE ENERGY PREDICTED BY IDOCK:   -0.51 KCAL/MOL
REMARK 927      BINDING AFFINITY PREDICTED BY RF-SCORE:    0.00 PKD
ROOT
HETATM    1  C   UNL     1     -12.051  12.465  63.333  1.00  0.00    -0.524 C  
HETATM    2  O   UNL     1     -10.943  12.660  64.208  1.00  0.00    -0.319 OA 
ENDROOT
BRANCH   2   3
HETATM    3  C   UNL     1     -11.217  13.196  65.440  1.00  0.00    -0.291 A  
HETATM    4  C   UNL     1     -11.519  14.559  65.599  1.00  0.00    -0.341 A  
HETATM    5  C   UNL     1     -11.803  15.085  66.856  1.00  0.00    -0.110 A  
HETATM    6  C   UNL     1     -11.782  14.252  67.965  1.00  0.00    -0.386 A  
HETATM    7  C   UNL     1     -11.456  12.893  67.828  1.00  0.00    -0.369 A  
HETATM    8  C   UNL     1     -11.155  12.357  66.576  1.00  0.00    -0.346 A  
HETATM    9  C   UNL     1     -10.781  10.920  66.498  1.00  0.00    -0.209 C  
HETATM   10  O   UNL     1     -10.394  10.399  65.456  1.00  0.00    -0.264 OA 
HETATM   11  C   UNL     1     -10.855  10.056  67.705  1.00  0.00    -0.337 A  
HETATM   12  C   UNL     1     -10.615   8.669  67.603  1.00  0.00    -0.203 A  
HETATM   13  O   UNL     1     -10.344   8.073  66.393  1.00  0.00    -0.471 OA 
HETATM   14  C   UNL     1     -10.655   7.820  68.728  1.00  0.00    -0.161 A  
HETATM   15  H   UNL     1     -10.183   7.139  66.324  1.00  0.00     0.000 HD 
HETATM   16  C   UNL     1     -10.927   8.386  69.995  1.00  0.00    -0.194 A  
HETATM   17  C   UNL     1     -11.214   9.766  70.081  1.00  0.00    -0.272 A  
HETATM   18  C   UNL     1     -10.952   7.525  71.250  1.00  0.00    -0.262 C  
HETATM   19  C   UNL     1     -10.314   6.144  71.065  1.00  0.00    -0.210 C  
HETATM   20  C   UNL     1     -11.166  10.605  68.947  1.00  0.00    -0.333 A  
HETATM   21  O   UNL     1     -11.554  10.317  71.287  1.00  0.00    -0.344 OA 
HETATM   22  O   UNL     1     -11.683  12.617  70.111  1.00  0.00    -0.275 OA 
HETATM   23  C   UNL     1     -11.446  12.061  69.045  1.00  0.00    -0.300 C  
HETATM   24  C   UNL     1     -10.876   5.532  69.780  1.00  0.00    -0.291 C  
HETATM   25  O   UNL     1      -8.892   6.292  71.046  1.00  0.00    -0.135 OA 
HETATM   26  H   UNL     1     -11.747  11.246  71.344  1.00  0.00     0.000 HD 
HETATM   27  C   UNL     1     -10.395   6.322  68.558  1.00  0.00    -0.203 C  
HETATM   28  H   UNL     1      -8.496   5.436  70.932  1.00  0.00     0.000 HD 
BRANCH  19  29
HETATM   29  C   UNL     1     -10.657   5.217  72.243  1.00  0.00    -0.222 C  
HETATM   30  O   UNL     1     -11.717   5.322  72.868  1.00  0.00    -0.295 OA 
HETATM   31  C   UNL     1      -9.691   4.095  72.548  1.00  0.00    -0.203 C  
ENDBRANCH  19  29
BRANCH  27  32
HETATM   32  O   UNL     1      -8.983   6.145  68.338  1.00  0.00    -0.117 OA 
BRANCH  32  33
HETATM   33  C   UNL     1      -8.586   4.907  67.737  1.00  0.00    -0.103 C  
HETATM   34  C   UNL     1      -9.702   4.171  66.996  1.00  0.00    -0.230 C  
HETATM   35  C   UNL     1     -10.099   4.945  65.739  1.00  0.00    -0.170 C  
HETATM   36  N   UNL     1     -11.166   4.224  65.014  1.00  0.00    -1.020 NA 
HETATM   37  C   UNL     1      -8.856   5.142  64.851  1.00  0.00    -0.118 C  
HETATM   38  H1  UNL     1     -11.430   4.741  64.175  1.00  0.00     0.000 HD 
HETATM   39  H2  UNL     1     -11.969   4.031  65.612  1.00  0.00     0.000 HD 
HETATM   40  O   UNL     1      -8.439   3.863  64.346  1.00  0.00    -0.096 OA 
HETATM   41  C   UNL     1      -7.734   5.809  65.673  1.00  0.00    -0.093 C  
HETATM   42  H   UNL     1      -7.673   3.984  63.799  1.00  0.00     0.000 HD 
HETATM   43  C   UNL     1      -6.429   5.870  64.885  1.00  0.00    -0.038 C  
HETATM   44  O   UNL     1      -7.454   5.108  66.890  1.00  0.00    -0.085 OA 
ENDBRANCH  32  33
ENDBRANCH  27  32
ENDBRANCH   2   3
TORSDOF 4
ENDMDL
MODEL       13
REMARK 921   NORMALIZED FREE ENERGY PREDICTED BY IDOCK:   -7.88 KCAL/MOL
REMARK 922        TOTAL FREE ENERGY PREDICTED BY IDOCK:  -10.32 KCAL/MOL
REMARK 923 INTER-LIGAND FREE ENERGY PREDICTED BY IDOCK:   -9.15 KCAL/MOL
REMARK 924 INTRA-LIGAND FREE ENERGY PREDICTED BY IDOCK:   -1.16 KCAL/MOL
REMARK 927      BINDING AFFINITY PREDICTED BY RF-SCORE:    0.00 PKD
ROOT
HETATM    1  C   UNL     1     -11.121   4.744  73.533  1.00  0.00    -0.335 C  
HETATM    2  O   UNL     1     -11.086   5.581  72.380  1.00  0.00    -0.248 OA 
ENDROOT
BRANCH   2   3
HETATM    3  C   UNL     1     -10.128   5.299  71.440  1.00  0.00    -0.203 A  
HETATM    4  C   UNL     1      -9.370   4.117  71.494  1.00  0.00    -0.207 A  
HETATM    5  C   UNL     1      -8.408   3.843  70.528  1.00  0.00    -0.083 A  
HETATM    6  C   UNL     1      -8.193   4.751  69.501  1.00  0.00    -0.076 A  
HETATM    7  C   UNL     1      -8.923   5.949  69.447  1.00  0.00    -0.122 A  
HETATM    8  C   UNL     1      -9.880   6.242  70.418  1.00  0.00    -0.207 A  
HETATM    9  C   UNL     1     -10.595   7.542  70.328  1.00  0.00    -0.229 C  
HETATM   10  O   UNL     1     -11.368   7.927  71.202  1.00  0.00    -0.257 OA 
HETATM   11  C   UNL     1     -10.384   8.441  69.163  1.00  0.00    -0.229 A  
HETATM   12  C   UNL     1     -11.153   9.616  69.022  1.00  0.00    -0.070 A  
HETATM   13  O   UNL     1     -12.133   9.947  69.928  1.00  0.00    -0.467 OA 
HETATM   14  C   UNL     1     -10.968  10.503  67.942  1.00  0.00    -0.352 A  
HETATM   15  H   UNL     1     -12.651  10.738  69.833  1.00  0.00     0.000 HD 
HETATM   16  C   UNL     1      -9.968  10.207  66.985  1.00  0.00    -0.249 A  
HETATM   17  C   UNL     1      -9.239   9.005  67.107  1.00  0.00    -0.134 A  
HETATM   18  C   UNL     1      -9.702  11.143  65.815  1.00  0.00    -0.266 C  
HETATM   19  C   UNL     1     -10.320  12.536  65.983  1.00  0.00    -0.256 C  
HETATM   20  C   UNL     1      -9.431   8.128  68.196  1.00  0.00    -0.150 A  
HETATM   21  O   UNL     1      -8.322   8.665  66.149  1.00  0.00    -0.115 OA 
HETATM   22  O   UNL     1      -7.762   6.560  67.545  1.00  0.00    -0.102 OA 
HETATM   23  C   UNL     1      -8.645   6.875  68.333  1.00  0.00    -0.125 C  
HETATM   24  C   UNL     1     -11.774  12.357  66.425  1.00  0.00    -0.453 C  
HETATM   25  O   UNL     1      -9.532  13.279  66.917  1.00  0.00    -0.233 OA 
HETATM   26  H   UNL     1      -7.831   7.855  66.232  1.00  0.00     0.000 HD 
HETATM   27  C   UNL     1     -11.835  11.759  67.834  1.00  0.00    -0.219 C  
HETATM   28  H   UNL     1      -9.915  14.143  67.021  1.00  0.00     0.000 HD 
BRANCH  19  29
HETATM   29  C   UNL     1     -10.299  13.311  64.655  1.00  0.00    -0.375 C  
HETATM   30  O   UNL     1     -10.139  12.743  63.571  1.00  0.00    -0.350 OA 
HETATM   31  C   UNL     1     -10.588  14.793  64.712  1.00  0.00    -0.355 C  
ENDBRANCH  19  29
BRANCH  27  32
HETATM   32  O   UNL     1     -11.372  12.695  68.825  1.00  0.00    -0.249 OA 
BRANCH  32  33
HETATM   33  C   UNL     1     -12.094  13.929  68.916  1.00  0.00    -0.319 C  
HETATM   34  C   UNL     1     -12.885  14.111  70.211  1.00  0.00    -0.183 C  
HETATM   35  C   UNL     1     -11.928  14.291  71.391  1.00  0.00    -0.196 C  
HETATM   36  N   UNL     1     -12.694  14.484  72.640  1.00  0.00    -0.364 NA 
HETATM   37  C   UNL     1     -11.002  15.489  71.113  1.00  0.00    -0.222 C  
HETATM   38  H1  UNL     1     -12.056  14.604  73.426  1.00  0.00     0.000 HD 
HETATM   39  H2  UNL     1     -13.359  13.727  72.800  1.00  0.00     0.000 HD 
HETATM   40  O   UNL     1     -11.785  16.694  71.123  1.00  0.00    -0.577 OA 
HETATM   41  C   UNL     1     -10.296  15.294  69.756  1.00  0.00    -0.254 C  
HETATM   42  H   UNL     1     -11.214  17.433  70.952  1.00  0.00     0.000 HD 
HETATM   43  C   UNL     1      -9.499  16.533  69.360  1.00  0.00    -0.068 C  
HETATM   44  O   UNL     1     -11.219  15.034  68.691  1.00  0.00    -0.252 OA 
ENDBRANCH  32  33
ENDBRANCH  27  32
ENDBRANCH   2   3
TORSDOF 4
ENDMDL
MODEL       14
REMARK 921   NORMALIZED FREE ENERGY PREDICTED BY IDOCK:   -7.76 KCAL/MOL
REMARK 922        TOTAL FREE ENERGY PREDICTED BY IDOCK:  -10.17 KCAL/MOL
REMARK 923 INTER-LIGAND FREE ENERGY PREDICTED BY IDOCK:   -9.14 KCAL/MOL
REMARK 924 INTRA-LIGAND FREE ENERGY PREDICTED BY IDOCK:   -1.03 KCAL/MOL
REMARK 927      BINDING AFFINITY PREDICTED BY RF-SCORE:    0.00 PKD
ROOT
HETATM    1  C   UNL     1      -5.467   3.531  66.029  1.00  0.00    -0.017 C  
HETATM    2  O   UNL     1      -6.871   3.758  65.930  1.00  0.00    -0.054 OA 
ENDROOT
BRANCH   2   3
HETATM    3  C   UNL     1      -7.632   3.401  67.014  1.00  0.00    -0.079 A  
HETATM    4  C   UNL     1      -7.686   2.073  67.469  1.00  0.00    -0.060 A  
HETATM    5  C   UNL     1      -8.456   1.729  68.575  1.00  0.00    -0.084 A  
HETATM    6  C   UNL     1      -9.183   2.711  69.233  1.00  0.00    -0.203 A  
HETATM    7  C   UNL     1      -9.162   4.038  68.775  1.00  0.00    -0.211 A  
HETATM    8  C   UNL     1      -8.405   4.392  67.658  1.00  0.00    -0.099 A  
HETATM    9  C   UNL     1      -8.450   5.805  67.199  1.00  0.00    -0.107 C  
HETATM   10  O   UNL     1      -7.906   6.175  66.161  1.00  0.00    -0.100 OA 
HETATM   11  C   UNL     1      -9.180   6.832  67.988  1.00  0.00    -0.117 A  
HETATM   12  C   UNL     1      -9.121   8.192  67.614  1.00  0.00    -0.134 A  
HETATM   13  O   UNL     1      -8.368   8.611  66.542  1.00  0.00    -0.105 OA 
HETATM   14  C   UNL     1      -9.816   9.192  68.325  1.00  0.00    -0.181 A  
HETATM   15  H   UNL     1      -8.329   9.526  66.290  1.00  0.00     0.000 HD 
HETATM   16  C   UNL     1     -10.607   8.809  69.434  1.00  0.00    -0.218 A  
HETATM   17  C   UNL     1     -10.620   7.454  69.830  1.00  0.00    -0.236 A  
HETATM   18  C   UNL     1     -11.404   9.840  70.220  1.00  0.00    -0.333 C  
HETATM   19  C   UNL     1     -11.559  11.184  69.500  1.00  0.00    -0.321 C  
HETATM   20  C   UNL     1      -9.924   6.463  69.106  1.00  0.00    -0.173 A  
HETATM   21  O   UNL     1     -11.319   7.079  70.946  1.00  0.00    -0.267 OA 
HETATM   22  O   UNL     1     -10.627   4.634  70.459  1.00  0.00    -0.037 OA 
HETATM   23  C   UNL     1      -9.959   5.035  69.514  1.00  0.00    -0.232 C  
HETATM   24  C   UNL     1     -10.181  11.604  68.984  1.00  0.00    -0.077 C  
HETATM   25  O   UNL     1     -12.532  11.041  68.462  1.00  0.00    -0.713 OA 
HETATM   26  H   UNL     1     -11.328   6.166  71.213  1.00  0.00     0.000 HD 
HETATM   27  C   UNL     1      -9.711  10.652  67.880  1.00  0.00    -0.161 C  
HETATM   28  H   UNL     1     -12.628  11.875  68.016  1.00  0.00     0.000 HD 
BRANCH  19  29
HETATM   29  C   UNL     1     -12.077  12.267  70.461  1.00  0.00    -0.282 C  
HETATM   30  O   UNL     1     -12.575  11.984  71.555  1.00  0.00    -0.279 OA 
HETATM   31  C   UNL     1     -11.859  13.709  70.065  1.00  0.00    -0.378 C  
ENDBRANCH  19  29
BRANCH  27  32
HETATM   32  O   UNL     1     -10.497  10.802  66.683  1.00  0.00    -0.236 OA 
BRANCH  32  33
HETATM   33  C   UNL     1      -9.984  11.707  65.698  1.00  0.00    -0.240 C  
HETATM   34  C   UNL     1     -10.604  11.556  64.310  1.00  0.00    -0.405 C  
HETATM   35  C   UNL     1     -12.064  12.011  64.333  1.00  0.00    -0.286 C  
HETATM   36  N   UNL     1     -12.658  11.881  62.987  1.00  0.00    -0.842 NA 
HETATM   37  C   UNL     1     -12.135  13.463  64.837  1.00  0.00    -0.392 C  
HETATM   38  H1  UNL     1     -13.631  12.184  63.002  1.00  0.00     0.000 HD 
HETATM   39  H2  UNL     1     -12.558  10.936  62.615  1.00  0.00     0.000 HD 
HETATM   40  O   UNL     1     -11.527  14.324  63.860  1.00  0.00    -0.595 OA 
HETATM   41  C   UNL     1     -11.420  13.575  66.199  1.00  0.00    -0.325 C  
HETATM   42  H   UNL     1     -11.571  15.220  64.170  1.00  0.00     0.000 HD 
HETATM   43  C   UNL     1     -11.317  15.027  66.657  1.00  0.00    -0.289 C  
HETATM   44  O   UNL     1     -10.086  13.054  66.162  1.00  0.00    -0.274 OA 
ENDBRANCH  32  33
ENDBRANCH  27  32
ENDBRANCH   2   3
TORSDOF 4
ENDMDL
MODEL       15
REMARK 921   NORMALIZED FREE ENERGY PREDICTED BY IDOCK:   -7.69 KCAL/MOL
REMARK 922        TOTAL FREE ENERGY PREDICTED BY IDOCK:  -10.08 KCAL/MOL
REMARK 923 INTER-LIGAND FREE ENERGY PREDICTED BY IDOCK:   -9.39 KCAL/MOL
REMARK 924 INTRA-LIGAND FREE ENERGY PREDICTED BY IDOCK:   -0.70 KCAL/MOL
REMARK 927      BINDING AFFINITY PREDICTED BY RF-SCORE:    0.00 PKD
ROOT
HETATM    1  C   UNL     1     -11.264  16.181  69.276  1.00  0.00    -0.337 C  
HETATM    2  O   UNL     1     -12.091  15.050  69.013  1.00  0.00    -0.281 OA 
ENDROOT
BRANCH   2   3
HETATM    3  C   UNL     1     -12.556  14.358  70.102  1.00  0.00    -0.286 A  
HETATM    4  C   UNL     1     -13.275  14.996  71.127  1.00  0.00    -0.498 A  
HETATM    5  C   UNL     1     -13.747  14.278  72.221  1.00  0.00    -0.592 A  
HETATM    6  C   UNL     1     -13.499  12.915  72.301  1.00  0.00    -0.631 A  
HETATM    7  C   UNL     1     -12.759  12.267  71.299  1.00  0.00    -0.351 A  
HETATM    8  C   UNL     1     -12.268  12.979  70.205  1.00  0.00    -0.368 A  
HETATM    9  C   UNL     1     -11.460  12.246  69.195  1.00  0.00    -0.296 C  
HETATM   10  O   UNL     1     -10.898  12.817  68.265  1.00  0.00    -0.229 OA 
HETATM   11  C   UNL     1     -11.295  10.771  69.288  1.00  0.00    -0.352 A  
HETATM   12  C   UNL     1     -10.629  10.064  68.264  1.00  0.00    -0.226 A  
HETATM   13  O   UNL     1     -10.149  10.702  67.145  1.00  0.00    -0.191 OA 
HETATM   14  C   UNL     1     -10.434   8.669  68.326  1.00  0.00    -0.234 A  
HETATM   15  H   UNL     1      -9.701  10.226  66.455  1.00  0.00     0.000 HD 
HETATM   16  C   UNL     1     -10.908   7.968  69.461  1.00  0.00    -0.135 A  
HETATM   17  C   UNL     1     -11.616   8.676  70.456  1.00  0.00    -0.139 A  
HETATM   18  C   UNL     1     -10.699   6.467  69.597  1.00  0.00    -0.339 C  
HETATM   19  C   UNL     1      -9.655   5.896  68.632  1.00  0.00    -0.123 C  
HETATM   20  C   UNL     1     -11.800  10.073  70.383  1.00  0.00    -0.343 A  
HETATM   21  O   UNL     1     -12.148   8.002  71.522  1.00  0.00    -0.283 OA 
HETATM   22  O   UNL     1     -12.956  10.276  72.454  1.00  0.00    -0.295 OA 
HETATM   23  C   UNL     1     -12.525  10.818  71.444  1.00  0.00    -0.373 C  
HETATM   24  C   UNL     1      -9.958   6.440  67.234  1.00  0.00    -0.184 C  
HETATM   25  O   UNL     1      -8.351   6.245  69.105  1.00  0.00    -0.118 OA 
HETATM   26  H   UNL     1     -12.624   8.479  72.192  1.00  0.00     0.000 HD 
HETATM   27  C   UNL     1      -9.712   7.952  67.184  1.00  0.00    -0.191 C  
HETATM   28  H   UNL     1      -7.704   5.892  68.506  1.00  0.00     0.000 HD 
BRANCH  19  29
HETATM   29  C   UNL     1      -9.726   4.361  68.590  1.00  0.00    -0.120 C  
HETATM   30  O   UNL     1      -9.822   3.741  67.527  1.00  0.00    -0.146 OA 
HETATM   31  C   UNL     1      -9.567   3.623  69.900  1.00  0.00    -0.238 C  
ENDBRANCH  19  29
BRANCH  27  32
HETATM   32  O   UNL     1      -8.311   8.262  67.289  1.00  0.00    -0.122 OA 
BRANCH  32  33
HETATM   33  C   UNL     1      -7.503   7.937  66.152  1.00  0.00    -0.079 C  
HETATM   34  C   UNL     1      -8.243   7.968  64.815  1.00  0.00    -0.124 C  
HETATM   35  C   UNL     1      -8.617   9.406  64.454  1.00  0.00    -0.194 C  
HETATM   36  N   UNL     1      -9.317   9.437  63.153  1.00  0.00    -0.490 NA 
HETATM   37  C   UNL     1      -7.343  10.269  64.423  1.00  0.00    -0.075 C  
HETATM   38  H1  UNL     1      -9.566  10.396  62.912  1.00  0.00     0.000 HD 
HETATM   39  H2  UNL     1     -10.127   8.817  63.141  1.00  0.00     0.000 HD 
HETATM   40  O   UNL     1      -6.521   9.845  63.323  1.00  0.00    -0.113 OA 
HETATM   41  C   UNL     1      -6.593  10.132  65.764  1.00  0.00    -0.109 C  
HETATM   42  H   UNL     1      -5.735  10.377  63.304  1.00  0.00     0.000 HD 
HETATM   43  C   UNL     1      -5.239  10.834  65.718  1.00  0.00    -0.122 C  
HETATM   44  O   UNL     1      -6.342   8.766  66.115  1.00  0.00    -0.061 OA 
ENDBRANCH  32  33
ENDBRANCH  27  32
ENDBRANCH   2   3
TORSDOF 4
ENDMDL
MODEL       16
REMARK 921   NORMALIZED FREE ENERGY PREDICTED BY IDOCK:   -7.66 KCAL/MOL
REMARK 922        TOTAL FREE ENERGY PREDICTED BY IDOCK:  -10.05 KCAL/MOL
REMARK 923 INTER-LIGAND FREE ENERGY PREDICTED BY IDOCK:   -8.93 KCAL/MOL
REMARK 924 INTRA-LIGAND FREE ENERGY PREDICTED BY IDOCK:   -1.12 KCAL/MOL
REMARK 927      BINDING AFFINITY PREDICTED BY RF-SCORE:    0.00 PKD
ROOT
HETATM    1  C   UNL     1      -7.373   2.885  66.934  1.00  0.00    -0.069 C  
HETATM    2  O   UNL     1      -7.189   3.789  68.021  1.00  0.00    -0.057 OA 
ENDROOT
BRANCH   2   3
HETATM    3  C   UNL     1      -8.091   3.709  69.050  1.00  0.00    -0.057 A  
HETATM    4  C   UNL     1      -8.310   2.509  69.746  1.00  0.00    -0.077 A  
HETATM    5  C   UNL     1      -9.224   2.448  70.793  1.00  0.00    -0.199 A  
HETATM    6  C   UNL     1      -9.929   3.587  71.151  1.00  0.00    -0.087 A  
HETATM    7  C   UNL     1      -9.743   4.789  70.449  1.00  0.00    -0.289 A  
HETATM    8  C   UNL     1      -8.841   4.859  69.387  1.00  0.00    -0.120 A  
HETATM    9  C   UNL     1      -8.713   6.148  68.659  1.00  0.00    -0.112 C  
HETATM   10  O   UNL     1      -8.028   6.263  67.646  1.00  0.00    -0.110 OA 
HETATM   11  C   UNL     1      -9.432   7.359  69.136  1.00  0.00    -0.149 A  
HETATM   12  C   UNL     1      -9.215   8.607  68.514  1.00  0.00    -0.138 A  
HETATM   13  O   UNL     1      -8.316   8.750  67.483  1.00  0.00    -0.109 OA 
HETATM   14  C   UNL     1      -9.893   9.773  68.924  1.00  0.00    -0.177 A  
HETATM   15  H   UNL     1      -8.169   9.590  67.064  1.00  0.00     0.000 HD 
HETATM   16  C   UNL     1     -10.830   9.676  69.979  1.00  0.00    -0.302 A  
HETATM   17  C   UNL     1     -11.005   8.434  70.628  1.00  0.00    -0.243 A  
HETATM   18  C   UNL     1     -11.615  10.894  70.444  1.00  0.00    -0.418 C  
HETATM   19  C   UNL     1     -11.573  12.070  69.462  1.00  0.00    -0.321 C  
HETATM   20  C   UNL     1     -10.322   7.274  70.204  1.00  0.00    -0.221 A  
HETATM   21  O   UNL     1     -11.851   8.339  71.700  1.00  0.00    -0.273 OA 
HETATM   22  O   UNL     1     -11.325   5.808  71.789  1.00  0.00    -0.253 OA 
HETATM   23  C   UNL     1     -10.526   5.964  70.874  1.00  0.00    -0.244 C  
HETATM   24  C   UNL     1     -10.116  12.287  69.049  1.00  0.00     0.117 C  
HETATM   25  O   UNL     1     -12.436  11.780  68.359  1.00  0.00    -0.207 OA 
HETATM   26  H   UNL     1     -11.968   7.503  72.136  1.00  0.00     0.000 HD 
HETATM   27  C   UNL     1      -9.613  11.101  68.219  1.00  0.00    -0.185 C  
HETATM   28  H   UNL     1     -12.410  12.509  67.750  1.00  0.00     0.000 HD 
BRANCH  19  29
HETATM   29  C   UNL     1     -12.096  13.356  70.121  1.00  0.00    -0.344 C  
HETATM   30  O   UNL     1     -12.520  13.369  71.281  1.00  0.00    -0.345 OA 
HETATM   31  C   UNL     1     -11.977  14.640  69.331  1.00  0.00    -0.351 C  
ENDBRANCH  19  29
BRANCH  27  32
HETATM   32  O   UNL     1     -10.248  11.054  66.928  1.00  0.00    -0.206 OA 
BRANCH  32  33
HETATM   33  C   UNL     1      -9.879  12.084  66.003  1.00  0.00    -0.237 C  
HETATM   34  C   UNL     1      -9.503  11.583  64.609  1.00  0.00    -0.120 C  
HETATM   35  C   UNL     1     -10.739  11.035  63.895  1.00  0.00    -0.240 C  
HETATM   36  N   UNL     1     -10.378  10.567  62.541  1.00  0.00    -0.653 NA 
HETATM   37  C   UNL     1     -11.819  12.130  63.838  1.00  0.00    -0.466 C  
HETATM   38  H1  UNL     1     -11.202  10.201  62.065  1.00  0.00     0.000 HD 
HETATM   39  H2  UNL     1      -9.617   9.888  62.563  1.00  0.00     0.000 HD 
HETATM   40  O   UNL     1     -11.366  13.184  62.972  1.00  0.00    -0.589 OA 
HETATM   41  C   UNL     1     -12.097  12.658  65.260  1.00  0.00    -0.467 C  
HETATM   42  H   UNL     1     -12.032  13.860  62.936  1.00  0.00     0.000 HD 
HETATM   43  C   UNL     1     -13.035  13.861  65.234  1.00  0.00    -0.341 C  
HETATM   44  O   UNL     1     -10.903  13.076  65.932  1.00  0.00    -0.270 OA 
ENDBRANCH  32  33
ENDBRANCH  27  32
ENDBRANCH   2   3
TORSDOF 4
ENDMDL
MODEL       17
REMARK 921   NORMALIZED FREE ENERGY PREDICTED BY IDOCK:   -7.57 KCAL/MOL
REMARK 922        TOTAL FREE ENERGY PREDICTED BY IDOCK:   -9.93 KCAL/MOL
REMARK 923 INTER-LIGAND FREE ENERGY PREDICTED BY IDOCK:   -9.14 KCAL/MOL
REMARK 924 INTRA-LIGAND FREE ENERGY PREDICTED BY IDOCK:   -0.79 KCAL/MOL
REMARK 927      BINDING AFFINITY PREDICTED BY RF-SCORE:    0.00 PKD
ROOT
HETATM    1  C   UNL     1     -10.610  20.042  66.890  1.00  0.00    -0.327 C  
HETATM    2  O   UNL     1      -9.444  19.629  66.182  1.00  0.00    -0.380 OA 
ENDROOT
BRANCH   2   3
HETATM    3  C   UNL     1      -8.279  19.553  66.902  1.00  0.00    -0.285 A  
HETATM    4  C   UNL     1      -7.498  20.693  67.159  1.00  0.00    -0.381 A  
HETATM    5  C   UNL     1      -6.324  20.600  67.898  1.00  0.00    -0.351 A  
HETATM    6  C   UNL     1      -5.917  19.365  68.383  1.00  0.00    -0.248 A  
HETATM    7  C   UNL     1      -6.671  18.212  68.112  1.00  0.00    -0.206 A  
HETATM    8  C   UNL     1      -7.843  18.290  67.360  1.00  0.00    -0.229 A  
HETATM    9  C   UNL     1      -8.579  17.030  67.075  1.00  0.00    -0.210 C  
HETATM   10  O   UNL     1      -9.554  16.995  66.328  1.00  0.00    -0.265 OA 
HETATM   11  C   UNL     1      -8.144  15.747  67.687  1.00  0.00    -0.163 A  
HETATM   12  C   UNL     1      -8.914  14.577  67.511  1.00  0.00    -0.188 A  
HETATM   13  O   UNL     1     -10.095  14.593  66.807  1.00  0.00    -0.256 OA 
HETATM   14  C   UNL     1      -8.523  13.338  68.059  1.00  0.00    -0.170 A  
HETATM   15  H   UNL     1     -10.613  13.806  66.689  1.00  0.00     0.000 HD 
HETATM   16  C   UNL     1      -7.314  13.271  68.790  1.00  0.00    -0.070 A  
HETATM   17  C   UNL     1      -6.576  14.456  69.002  1.00  0.00    -0.103 A  
HETATM   18  C   UNL     1      -6.825  11.955  69.377  1.00  0.00    -0.048 C  
HETATM   19  C   UNL     1      -7.532  10.721  68.804  1.00  0.00    -0.109 C  
HETATM   20  C   UNL     1      -6.976  15.689  68.444  1.00  0.00    -0.115 A  
HETATM   21  O   UNL     1      -5.444  14.423  69.771  1.00  0.00    -0.092 OA 
HETATM   22  O   UNL     1      -5.126  16.941  69.268  1.00  0.00    -0.128 OA 
HETATM   23  C   UNL     1      -6.184  16.929  68.651  1.00  0.00    -0.154 C  
HETATM   24  C   UNL     1      -9.038  10.987  68.828  1.00  0.00    -0.161 C  
HETATM   25  O   UNL     1      -7.023  10.467  67.492  1.00  0.00    -0.082 OA 
HETATM   26  H   UNL     1      -4.947  15.221  69.914  1.00  0.00     0.000 HD 
HETATM   27  C   UNL     1      -9.400  12.103  67.843  1.00  0.00    -0.192 C  
HETATM   28  H   UNL     1      -7.461   9.702  67.137  1.00  0.00     0.000 HD 
BRANCH  19  29
HETATM   29  C   UNL     1      -7.237   9.474  69.654  1.00  0.00    -0.076 C  
HETATM   30  O   UNL     1      -7.275   9.502  70.888  1.00  0.00    -0.223 OA 
HETATM   31  C   UNL     1      -6.998   8.174  68.920  1.00  0.00    -0.062 C  
ENDBRANCH  19  29
BRANCH  27  32
HETATM   32  O   UNL     1      -9.230  11.679  66.479  1.00  0.00    -0.187 OA 
BRANCH  32  33
HETATM   33  C   UNL     1     -10.322  10.955  65.900  1.00  0.00    -0.250 C  
HETATM   34  C   UNL     1     -11.612  11.760  65.750  1.00  0.00    -0.194 C  
HETATM   35  C   UNL     1     -11.436  12.844  64.686  1.00  0.00    -0.327 C  
HETATM   36  N   UNL     1     -12.689  13.611  64.530  1.00  0.00    -0.655 NA 
HETATM   37  C   UNL     1     -11.015  12.187  63.359  1.00  0.00    -0.412 C  
HETATM   38  H1  UNL     1     -12.572  14.333  63.820  1.00  0.00     0.000 HD 
HETATM   39  H2  UNL     1     -13.013  13.996  65.417  1.00  0.00     0.000 HD 
HETATM   40  O   UNL     1     -12.109  11.398  62.863  1.00  0.00    -0.919 OA 
HETATM   41  C   UNL     1      -9.760  11.319  63.586  1.00  0.00    -0.321 C  
HETATM   42  H   UNL     1     -11.849  10.993  62.044  1.00  0.00     0.000 HD 
HETATM   43  C   UNL     1      -9.405  10.515  62.339  1.00  0.00    -0.281 C  
HETATM   44  O   UNL     1      -9.930  10.379  64.653  1.00  0.00    -0.324 OA 
ENDBRANCH  32  33
ENDBRANCH  27  32
ENDBRANCH   2   3
TORSDOF 4
ENDMDL
MODEL       18
REMARK 921   NORMALIZED FREE ENERGY PREDICTED BY IDOCK:   -7.51 KCAL/MOL
REMARK 922        TOTAL FREE ENERGY PREDICTED BY IDOCK:   -9.86 KCAL/MOL
REMARK 923 INTER-LIGAND FREE ENERGY PREDICTED BY IDOCK:   -9.25 KCAL/MOL
REMARK 924 INTRA-LIGAND FREE ENERGY PREDICTED BY IDOCK:   -0.61 KCAL/MOL
REMARK 927      BINDING AFFINITY PREDICTED BY RF-SCORE:    0.00 PKD
ROOT
HETATM    1  C   UNL     1      -8.929  17.623  68.487  1.00  0.00    -0.289 C  
HETATM    2  O   UNL     1      -9.799  16.501  68.364  1.00  0.00    -0.223 OA 
ENDROOT
BRANCH   2   3
HETATM    3  C   UNL     1     -10.217  16.179  67.099  1.00  0.00    -0.281 A  
HETATM    4  C   UNL     1     -10.613  17.167  66.181  1.00  0.00    -0.201 A  
HETATM    5  C   UNL     1     -11.027  16.823  64.898  1.00  0.00    -0.099 A  
HETATM    6  C   UNL     1     -11.052  15.488  64.523  1.00  0.00    -0.290 A  
HETATM    7  C   UNL     1     -10.685  14.486  65.436  1.00  0.00    -0.372 A  
HETATM    8  C   UNL     1     -10.283  14.817  66.730  1.00  0.00    -0.266 A  
HETATM    9  C   UNL     1      -9.942  13.711  67.663  1.00  0.00    -0.239 C  
HETATM   10  O   UNL     1      -9.688  13.908  68.849  1.00  0.00    -0.140 OA 
HETATM   11  C   UNL     1      -9.907  12.304  67.184  1.00  0.00    -0.207 A  
HETATM   12  C   UNL     1      -9.467  11.271  68.041  1.00  0.00    -0.173 A  
HETATM   13  O   UNL     1      -9.028  11.534  69.317  1.00  0.00    -0.369 OA 
HETATM   14  C   UNL     1      -9.440   9.923  67.630  1.00  0.00    -0.167 A  
HETATM   15  H   UNL     1      -8.732  10.839  69.894  1.00  0.00     0.000 HD 
HETATM   16  C   UNL     1      -9.885   9.602  66.326  1.00  0.00    -0.323 A  
HETATM   17  C   UNL     1     -10.276  10.646  65.460  1.00  0.00    -0.262 A  
HETATM   18  C   UNL     1      -9.907   8.160  65.838  1.00  0.00     0.192 C  
HETATM   19  C   UNL     1      -9.775   7.125  66.961  1.00  0.00    -0.170 C  
HETATM   20  C   UNL     1     -10.303  11.991  65.886  1.00  0.00    -0.278 A  
HETATM   21  O   UNL     1     -10.636  10.362  64.171  1.00  0.00    -0.340 OA 
HETATM   22  O   UNL     1     -11.139  12.878  63.840  1.00  0.00    -0.394 OA 
HETATM   23  C   UNL     1     -10.737  13.085  64.979  1.00  0.00    -0.315 C  
HETATM   24  C   UNL     1      -8.609   7.547  67.857  1.00  0.00    -0.121 C  
HETATM   25  O   UNL     1     -11.021   7.039  67.657  1.00  0.00    -0.434 OA 
HETATM   26  H   UNL     1     -10.900  11.065  63.588  1.00  0.00     0.000 HD 
HETATM   27  C   UNL     1      -8.946   8.845  68.597  1.00  0.00    -0.137 C  
HETATM   28  H   UNL     1     -10.939   6.397  68.353  1.00  0.00     0.000 HD 
BRANCH  19  29
HETATM   29  C   UNL     1      -9.478   5.729  66.389  1.00  0.00    -0.156 C  
HETATM   30  O   UNL     1      -8.355   5.222  66.454  1.00  0.00    -0.108 OA 
HETATM   31  C   UNL     1     -10.645   4.945  65.831  1.00  0.00    -0.280 C  
ENDBRANCH  19  29
BRANCH  27  32
HETATM   32  O   UNL     1      -9.974   8.638  69.583  1.00  0.00    -0.183 OA 
BRANCH  32  33
HETATM   33  C   UNL     1      -9.921   7.401  70.303  1.00  0.00    -0.188 C  
HETATM   34  C   UNL     1      -9.081   7.441  71.579  1.00  0.00    -0.148 C  
HETATM   35  C   UNL     1      -9.764   8.315  72.631  1.00  0.00    -0.287 C  
HETATM   36  N   UNL     1      -8.960   8.339  73.870  1.00  0.00    -0.262 NA 
HETATM   37  C   UNL     1     -11.181   7.775  72.896  1.00  0.00    -0.376 C  
HETATM   38  H1  UNL     1      -9.415   8.922  74.572  1.00  0.00     0.000 HD 
HETATM   39  H2  UNL     1      -7.998   8.633  73.696  1.00  0.00     0.000 HD 
HETATM   40  O   UNL     1     -11.078   6.492  73.535  1.00  0.00    -0.475 OA 
HETATM   41  C   UNL     1     -11.954   7.675  71.565  1.00  0.00    -0.303 C  
HETATM   42  H   UNL     1     -11.952   6.159  73.698  1.00  0.00     0.000 HD 
HETATM   43  C   UNL     1     -13.302   6.987  71.755  1.00  0.00    -0.311 C  
HETATM   44  O   UNL     1     -11.241   6.927  70.573  1.00  0.00    -0.272 OA 
ENDBRANCH  32  33
ENDBRANCH  27  32
ENDBRANCH   2   3
TORSDOF 4
ENDMDL
MODEL       19
REMARK 921   NORMALIZED FREE ENERGY PREDICTED BY IDOCK:   -7.50 KCAL/MOL
REMARK 922        TOTAL FREE ENERGY PREDICTED BY IDOCK:   -9.85 KCAL/MOL
REMARK 923 INTER-LIGAND FREE ENERGY PREDICTED BY IDOCK:   -9.88 KCAL/MOL
REMARK 924 INTRA-LIGAND FREE ENERGY PREDICTED BY IDOCK:    0.03 KCAL/MOL
REMARK 927      BINDING AFFINITY PREDICTED BY RF-SCORE:    0.00 PKD
ROOT
HETATM    1  C   UNL     1     -10.964  16.696  69.922  1.00  0.00    -0.187 C  
HETATM    2  O   UNL     1     -12.110  15.940  69.537  1.00  0.00    -0.329 OA 
ENDROOT
BRANCH   2   3
HETATM    3  C   UNL     1     -12.616  15.069  70.468  1.00  0.00    -0.369 A  
HETATM    4  C   UNL     1     -13.393  15.517  71.549  1.00  0.00    -0.593 A  
HETATM    5  C   UNL     1     -13.906  14.619  72.479  1.00  0.00    -0.561 A  
HETATM    6  C   UNL     1     -13.642  13.264  72.338  1.00  0.00    -0.694 A  
HETATM    7  C   UNL     1     -12.845  12.802  71.279  1.00  0.00    -0.355 A  
HETATM    8  C   UNL     1     -12.313  13.694  70.348  1.00  0.00    -0.415 A  
HETATM    9  C   UNL     1     -11.447  13.149  69.269  1.00  0.00    -0.291 C  
HETATM   10  O   UNL     1     -10.849  13.876  68.479  1.00  0.00    -0.243 OA 
HETATM   11  C   UNL     1     -11.264  11.682  69.117  1.00  0.00    -0.325 A  
HETATM   12  C   UNL     1     -10.540  11.165  68.022  1.00  0.00    -0.198 A  
HETATM   13  O   UNL     1     -10.016  11.988  67.053  1.00  0.00    -0.202 OA 
HETATM   14  C   UNL     1     -10.328   9.781  67.854  1.00  0.00    -0.258 A  
HETATM   15  H   UNL     1      -9.528  11.640  66.315  1.00  0.00     0.000 HD 
HETATM   16  C   UNL     1     -10.845   8.893  68.827  1.00  0.00    -0.040 A  
HETATM   17  C   UNL     1     -11.610   9.416  69.892  1.00  0.00     0.064 A  
HETATM   18  C   UNL     1     -10.621   7.392  68.716  1.00  0.00    -0.189 C  
HETATM   19  C   UNL     1      -9.523   7.002  67.720  1.00  0.00    -0.124 C  
HETATM   20  C   UNL     1     -11.811  10.804  70.050  1.00  0.00    -0.424 A  
HETATM   21  O   UNL     1     -12.182   8.566  70.800  1.00  0.00    -0.487 OA 
HETATM   22  O   UNL     1     -13.068  10.641  72.065  1.00  0.00    -0.481 OA 
HETATM   23  C   UNL     1     -12.597  11.351  71.185  1.00  0.00    -0.386 C  
HETATM   24  C   UNL     1      -9.766   7.776  66.423  1.00  0.00    -0.219 C  
HETATM   25  O   UNL     1      -8.249   7.273  68.310  1.00  0.00    -0.122 OA 
HETATM   26  H   UNL     1     -12.697   8.918  71.517  1.00  0.00     0.000 HD 
HETATM   27  C   UNL     1      -9.541   9.275  66.643  1.00  0.00    -0.204 C  
HETATM   28  H   UNL     1      -7.568   7.032  67.692  1.00  0.00     0.000 HD 
BRANCH  19  29
HETATM   29  C   UNL     1      -9.569   5.496  67.413  1.00  0.00    -0.122 C  
HETATM   30  O   UNL     1      -8.986   4.668  68.119  1.00  0.00    -0.107 OA 
HETATM   31  C   UNL     1     -10.446   5.047  66.267  1.00  0.00    -0.352 C  
ENDBRANCH  19  29
BRANCH  27  32
HETATM   32  O   UNL     1      -8.151   9.572  66.870  1.00  0.00    -0.108 OA 
BRANCH  32  33
HETATM   33  C   UNL     1      -7.584  10.606  66.057  1.00  0.00    -0.142 C  
HETATM   34  C   UNL     1      -6.259  10.239  65.390  1.00  0.00    -0.124 C  
HETATM   35  C   UNL     1      -6.488   9.173  64.317  1.00  0.00    -0.083 C  
HETATM   36  N   UNL     1      -5.210   8.830  63.661  1.00  0.00    -0.060 NA 
HETATM   37  C   UNL     1      -7.517   9.693  63.298  1.00  0.00    -0.116 C  
HETATM   38  H1  UNL     1      -5.362   8.120  62.946  1.00  0.00     0.000 HD 
HETATM   39  H2  UNL     1      -4.499   8.547  64.336  1.00  0.00     0.000 HD 
HETATM   40  O   UNL     1      -6.938  10.788  62.570  1.00  0.00    -0.283 OA 
HETATM   41  C   UNL     1      -8.801  10.129  64.034  1.00  0.00    -0.228 C  
HETATM   42  H   UNL     1      -7.573  11.109  61.941  1.00  0.00     0.000 HD 
HETATM   43  C   UNL     1      -9.784  10.808  63.085  1.00  0.00    -0.394 C  
HETATM   44  O   UNL     1      -8.536  11.057  65.093  1.00  0.00    -0.133 OA 
ENDBRANCH  32  33
ENDBRANCH  27  32
ENDBRANCH   2   3
TORSDOF 4
ENDMDL
MODEL       20
REMARK 921   NORMALIZED FREE ENERGY PREDICTED BY IDOCK:   -7.50 KCAL/MOL
REMARK 922        TOTAL FREE ENERGY PREDICTED BY IDOCK:   -9.85 KCAL/MOL
REMARK 923 INTER-LIGAND FREE ENERGY PREDICTED BY IDOCK:   -9.54 KCAL/MOL
REMARK 924 INTRA-LIGAND FREE ENERGY PREDICTED BY IDOCK:   -0.31 KCAL/MOL
REMARK 927      BINDING AFFINITY PREDICTED BY RF-SCORE:    0.00 PKD
ROOT
HETATM    1  C   UNL     1      -6.211   7.426  64.057  1.00  0.00    -0.048 C  
HETATM    2  O   UNL     1      -7.464   8.056  64.304  1.00  0.00    -0.092 OA 
ENDROOT
BRANCH   2   3
HETATM    3  C   UNL     1      -8.274   7.474  65.246  1.00  0.00    -0.129 A  
HETATM    4  C   UNL     1      -8.415   6.079  65.333  1.00  0.00    -0.145 A  
HETATM    5  C   UNL     1      -9.234   5.504  66.299  1.00  0.00    -0.161 A  
HETATM    6  C   UNL     1      -9.921   6.320  67.186  1.00  0.00    -0.189 A  
HETATM    7  C   UNL     1      -9.812   7.717  67.096  1.00  0.00    -0.270 A  
HETATM    8  C   UNL     1      -9.006   8.306  66.122  1.00  0.00    -0.222 A  
HETATM    9  C   UNL     1      -8.959   9.790  66.053  1.00  0.00    -0.155 C  
HETATM   10  O   UNL     1      -8.366  10.386  65.157  1.00  0.00    -0.160 OA 
HETATM   11  C   UNL     1      -9.650  10.615  67.079  1.00  0.00    -0.196 A  
HETATM   12  C   UNL     1      -9.504  12.019  67.079  1.00  0.00    -0.198 A  
HETATM   13  O   UNL     1      -8.700  12.659  66.165  1.00  0.00    -0.414 OA 
HETATM   14  C   UNL     1     -10.160  12.837  68.022  1.00  0.00    -0.230 A  
HETATM   15  H   UNL     1      -8.601  13.604  66.166  1.00  0.00     0.000 HD 
HETATM   16  C   UNL     1     -11.001  12.225  68.981  1.00  0.00    -0.250 A  
HETATM   17  C   UNL     1     -11.102  10.817  69.004  1.00  0.00    -0.253 A  
HETATM   18  C   UNL     1     -11.759  13.059  70.004  1.00  0.00    -0.285 C  
HETATM   19  C   UNL     1     -11.817  14.552  69.665  1.00  0.00    -0.318 C  
HETATM   20  C   UNL     1     -10.443  10.011  68.051  1.00  0.00    -0.260 A  
HETATM   21  O   UNL     1     -11.850  10.204  69.972  1.00  0.00    -0.353 OA 
HETATM   22  O   UNL     1     -11.285   7.937  68.862  1.00  0.00     0.175 OA 
HETATM   23  C   UNL     1     -10.571   8.531  68.064  1.00  0.00    -0.137 C  
HETATM   24  C   UNL     1     -10.404  15.007  69.293  1.00  0.00    -0.249 C  
HETATM   25  O   UNL     1     -12.769  14.749  68.615  1.00  0.00    -0.335 OA 
HETATM   26  H   UNL     1     -11.918   9.256  69.988  1.00  0.00     0.000 HD 
HETATM   27  C   UNL     1      -9.959  14.353  67.981  1.00  0.00    -0.225 C  
HETATM   28  H   UNL     1     -12.805  15.675  68.405  1.00  0.00     0.000 HD 
BRANCH  19  29
HETATM   29  C   UNL     1     -12.298  15.372  70.873  1.00  0.00    -0.398 C  
HETATM   30  O   UNL     1     -11.577  16.211  71.421  1.00  0.00    -0.445 OA 
HETATM   31  C   UNL     1     -13.735  15.191  71.307  1.00  0.00    -0.555 C  
ENDBRANCH  19  29
BRANCH  27  32
HETATM   32  O   UNL     1     -10.703  14.862  66.859  1.00  0.00    -0.295 OA 
BRANCH  32  33
HETATM   33  C   UNL     1      -9.935  15.469  65.813  1.00  0.00    -0.359 C  
HETATM   34  C   UNL     1     -10.461  16.823  65.340  1.00  0.00    -0.212 C  
HETATM   35  C   UNL     1     -10.270  17.874  66.434  1.00  0.00    -0.372 C  
HETATM   36  N   UNL     1     -10.763  19.187  65.969  1.00  0.00    -0.420 NA 
HETATM   37  C   UNL     1      -8.781  17.941  66.818  1.00  0.00    -0.254 C  
HETATM   38  H1  UNL     1     -10.635  19.887  66.699  1.00  0.00     0.000 HD 
HETATM   39  H2  UNL     1     -11.731  19.139  65.650  1.00  0.00     0.000 HD 
HETATM   40  O   UNL     1      -8.038  18.469  65.707  1.00  0.00    -0.490 OA 
HETATM   41  C   UNL     1      -8.282  16.534  67.204  1.00  0.00    -0.179 C  
HETATM   42  H   UNL     1      -7.119  18.510  65.944  1.00  0.00     0.000 HD 
HETATM   43  C   UNL     1      -6.773  16.520  67.428  1.00  0.00    -0.195 C  
HETATM   44  O   UNL     1      -8.561  15.557  66.194  1.00  0.00    -0.265 OA 
ENDBRANCH  32  33
ENDBRANCH  27  32
ENDBRANCH   2   3
TORSDOF 4
ENDMDL
MODEL       21
REMARK 921   NORMALIZED FREE ENERGY PREDICTED BY IDOCK:   -7.46 KCAL/MOL
REMARK 922        TOTAL FREE ENERGY PREDICTED BY IDOCK:   -9.80 KCAL/MOL
REMARK 923 INTER-LIGAND FREE ENERGY PREDICTED BY IDOCK:   -8.77 KCAL/MOL
REMARK 924 INTRA-LIGAND FREE ENERGY PREDICTED BY IDOCK:   -1.02 KCAL/MOL
REMARK 927      BINDING AFFINITY PREDICTED BY RF-SCORE:    0.00 PKD
ROOT
HETATM    1  C   UNL     1      -7.602   6.147  72.173  1.00  0.00    -0.096 C  
HETATM    2  O   UNL     1      -7.647   7.120  71.132  1.00  0.00    -0.083 OA 
ENDROOT
BRANCH   2   3
HETATM    3  C   UNL     1      -7.645   6.648  69.845  1.00  0.00    -0.100 A  
HETATM    4  C   UNL     1      -7.138   5.377  69.528  1.00  0.00    -0.063 A  
HETATM    5  C   UNL     1      -7.151   4.910  68.218  1.00  0.00    -0.061 A  
HETATM    6  C   UNL     1      -7.668   5.713  67.212  1.00  0.00    -0.101 A  
HETATM    7  C   UNL     1      -8.154   6.997  67.506  1.00  0.00    -0.113 A  
HETATM    8  C   UNL     1      -8.132   7.483  68.814  1.00  0.00    -0.128 A  
HETATM    9  C   UNL     1      -8.627   8.863  69.059  1.00  0.00    -0.138 C  
HETATM   10  O   UNL     1      -8.538   9.406  70.157  1.00  0.00    -0.172 OA 
HETATM   11  C   UNL     1      -9.245   9.649  67.959  1.00  0.00    -0.132 A  
HETATM   12  C   UNL     1      -9.821  10.910  68.221  1.00  0.00    -0.170 A  
HETATM   13  O   UNL     1      -9.860  11.432  69.494  1.00  0.00    -0.386 OA 
HETATM   14  C   UNL     1     -10.398  11.694  67.201  1.00  0.00    -0.247 A  
HETATM   15  H   UNL     1     -10.248  12.281  69.671  1.00  0.00     0.000 HD 
HETATM   16  C   UNL     1     -10.379  11.201  65.875  1.00  0.00    -0.314 A  
HETATM   17  C   UNL     1      -9.846   9.918  65.630  1.00  0.00    -0.298 A  
HETATM   18  C   UNL     1     -10.959  12.017  64.728  1.00  0.00    -0.361 C  
HETATM   19  C   UNL     1     -11.198  13.490  65.075  1.00  0.00    -0.322 C  
HETATM   20  C   UNL     1      -9.267   9.146  66.660  1.00  0.00    -0.207 A  
HETATM   21  O   UNL     1      -9.889   9.393  64.366  1.00  0.00    -0.309 OA 
HETATM   22  O   UNL     1      -8.632   7.320  65.269  1.00  0.00    -0.097 OA 
HETATM   23  C   UNL     1      -8.686   7.804  66.393  1.00  0.00    -0.150 C  
HETATM   24  C   UNL     1     -11.928  13.547  66.418  1.00  0.00    -0.459 C  
HETATM   25  O   UNL     1      -9.940  14.171  65.086  1.00  0.00    -0.529 OA 
HETATM   26  H   UNL     1      -9.530   8.529  64.201  1.00  0.00     0.000 HD 
HETATM   27  C   UNL     1     -11.015  13.051  67.545  1.00  0.00    -0.259 C  
HETATM   28  H   UNL     1     -10.088  15.084  65.301  1.00  0.00     0.000 HD 
BRANCH  19  29
HETATM   29  C   UNL     1     -12.072  14.172  64.009  1.00  0.00    -0.348 C  
HETATM   30  O   UNL     1     -12.586  13.536  63.084  1.00  0.00    -0.762 OA 
HETATM   31  C   UNL     1     -12.369  15.643  64.191  1.00  0.00     0.134 C  
ENDBRANCH  19  29
BRANCH  27  32
HETATM   32  O   UNL     1      -9.937  13.972  67.793  1.00  0.00    -0.228 OA 
BRANCH  32  33
HETATM   33  C   UNL     1     -10.232  15.074  68.659  1.00  0.00    -0.231 C  
HETATM   34  C   UNL     1      -9.062  15.531  69.530  1.00  0.00    -0.260 C  
HETATM   35  C   UNL     1      -7.980  16.176  68.662  1.00  0.00    -0.201 C  
HETATM   36  N   UNL     1      -6.858  16.633  69.506  1.00  0.00    -0.213 NA 
HETATM   37  C   UNL     1      -8.595  17.344  67.871  1.00  0.00    -0.232 C  
HETATM   38  H1  UNL     1      -6.136  17.063  68.927  1.00  0.00     0.000 HD 
HETATM   39  H2  UNL     1      -6.484  15.880  70.085  1.00  0.00     0.000 HD 
HETATM   40  O   UNL     1      -8.960  18.387  68.790  1.00  0.00    -0.304 OA 
HETATM   41  C   UNL     1      -9.822  16.845  67.079  1.00  0.00    -0.270 C  
HETATM   42  H   UNL     1      -9.340  19.108  68.302  1.00  0.00     0.000 HD 
HETATM   43  C   UNL     1     -10.564  18.000  66.415  1.00  0.00    -0.259 C  
HETATM   44  O   UNL     1     -10.769  16.164  67.910  1.00  0.00    -0.302 OA 
ENDBRANCH  32  33
ENDBRANCH  27  32
ENDBRANCH   2   3
TORSDOF 4
ENDMDL
MODEL       22
REMARK 921   NORMALIZED FREE ENERGY PREDICTED BY IDOCK:   -7.38 KCAL/MOL
REMARK 922        TOTAL FREE ENERGY PREDICTED BY IDOCK:   -9.71 KCAL/MOL
REMARK 923 INTER-LIGAND FREE ENERGY PREDICTED BY IDOCK:   -9.23 KCAL/MOL
REMARK 924 INTRA-LIGAND FREE ENERGY PREDICTED BY IDOCK:   -0.47 KCAL/MOL
REMARK 927      BINDING AFFINITY PREDICTED BY RF-SCORE:    0.00 PKD
ROOT
HETATM    1  C   UNL     1      -6.261   5.838  67.611  1.00  0.00    -0.030 C  
HETATM    2  O   UNL     1      -7.517   6.469  67.373  1.00  0.00    -0.088 OA 
ENDROOT
BRANCH   2   3
HETATM    3  C   UNL     1      -8.537   6.158  68.234  1.00  0.00    -0.116 A  
HETATM    4  C   UNL     1      -8.805   4.830  68.610  1.00  0.00    -0.121 A  
HETATM    5  C   UNL     1      -9.838   4.533  69.492  1.00  0.00    -0.277 A  
HETATM    6  C   UNL     1     -10.616   5.562  70.003  1.00  0.00    -0.384 A  
HETATM    7  C   UNL     1     -10.380   6.891  69.618  1.00  0.00    -0.224 A  
HETATM    8  C   UNL     1      -9.356   7.200  68.723  1.00  0.00    -0.135 A  
HETATM    9  C   UNL     1      -9.177   8.621  68.325  1.00  0.00    -0.137 C  
HETATM   10  O   UNL     1      -8.376   8.963  67.458  1.00  0.00    -0.109 OA 
HETATM   11  C   UNL     1      -9.985   9.692  68.965  1.00  0.00    -0.189 A  
HETATM   12  C   UNL     1      -9.730  11.048  68.672  1.00  0.00    -0.195 A  
HETATM   13  O   UNL     1      -8.715  11.422  67.822  1.00  0.00    -0.130 OA 
HETATM   14  C   UNL     1     -10.488  12.091  69.244  1.00  0.00     0.090 A  
HETATM   15  H   UNL     1      -8.543  12.335  67.625  1.00  0.00     0.000 HD 
HETATM   16  C   UNL     1     -11.545  11.757  70.122  1.00  0.00    -0.281 A  
HETATM   17  C   UNL     1     -11.762  10.400  70.448  1.00  0.00    -0.331 A  
HETATM   18  C   UNL     1     -12.418  12.838  70.745  1.00  0.00    -0.357 C  
HETATM   19  C   UNL     1     -12.289  14.205  70.065  1.00  0.00    -0.344 C  
HETATM   20  C   UNL     1     -10.998   9.367  69.865  1.00  0.00    -0.251 A  
HETATM   21  O   UNL     1     -12.730  10.065  71.355  1.00  0.00    -0.347 OA 
HETATM   22  O   UNL     1     -12.145   7.579  70.941  1.00  0.00    -0.293 OA 
HETATM   23  C   UNL     1     -11.244   7.939  70.193  1.00  0.00    -0.152 C  
HETATM   24  C   UNL     1     -10.799  14.511  69.900  1.00  0.00    -0.083 C  
HETATM   25  O   UNL     1     -13.001  14.172  68.825  1.00  0.00     0.207 OA 
HETATM   26  H   UNL     1     -12.876   9.151  71.574  1.00  0.00     0.000 HD 
HETATM   27  C   UNL     1     -10.162  13.545  68.896  1.00  0.00    -0.057 C  
HETATM   28  H   UNL     1     -12.921  15.020  68.403  1.00  0.00     0.000 HD 
BRANCH  19  29
HETATM   29  C   UNL     1     -12.928  15.309  70.924  1.00  0.00    -0.462 C  
HETATM   30  O   UNL     1     -14.138  15.546  70.887  1.00  0.00    -0.460 OA 
HETATM   31  C   UNL     1     -12.032  16.032  71.904  1.00  0.00    -0.606 C  
ENDBRANCH  19  29
BRANCH  27  32
HETATM   32  O   UNL     1     -10.631  13.790  67.557  1.00  0.00    -0.243 OA 
BRANCH  32  33
HETATM   33  C   UNL     1      -9.635  14.154  66.594  1.00  0.00    -0.289 C  
HETATM   34  C   UNL     1     -10.170  14.910  65.379  1.00  0.00    -0.409 C  
HETATM   35  C   UNL     1     -10.641  16.305  65.793  1.00  0.00    -0.324 C  
HETATM   36  N   UNL     1     -11.142  17.042  64.615  1.00  0.00    -1.014 NA 
HETATM   37  C   UNL     1      -9.477  17.054  66.466  1.00  0.00    -0.276 C  
HETATM   38  H1  UNL     1     -11.456  17.972  64.891  1.00  0.00     0.000 HD 
HETATM   39  H2  UNL     1     -11.869  16.524  64.122  1.00  0.00     0.000 HD 
HETATM   40  O   UNL     1      -8.462  17.316  65.483  1.00  0.00    -0.250 OA 
HETATM   41  C   UNL     1      -8.921  16.208  67.630  1.00  0.00    -0.191 C  
HETATM   42  H   UNL     1      -7.744  17.778  65.899  1.00  0.00     0.000 HD 
HETATM   43  C   UNL     1      -7.659  16.831  68.219  1.00  0.00    -0.188 C  
HETATM   44  O   UNL     1      -8.578  14.877  67.224  1.00  0.00    -0.185 OA 
ENDBRANCH  32  33
ENDBRANCH  27  32
ENDBRANCH   2   3
TORSDOF 4
ENDMDL
MODEL       23
REMARK 921   NORMALIZED FREE ENERGY PREDICTED BY IDOCK:   -7.33 KCAL/MOL
REMARK 922        TOTAL FREE ENERGY PREDICTED BY IDOCK:   -9.64 KCAL/MOL
REMARK 923 INTER-LIGAND FREE ENERGY PREDICTED BY IDOCK:   -8.60 KCAL/MOL
REMARK 924 INTRA-LIGAND FREE ENERGY PREDICTED BY IDOCK:   -1.05 KCAL/MOL
REMARK 927      BINDING AFFINITY PREDICTED BY RF-SCORE:    0.00 PKD
ROOT
HETATM    1  C   UNL     1      -9.445   5.749  71.927  1.00  0.00    -0.151 C  
HETATM    2  O   UNL     1      -9.186   7.108  71.586  1.00  0.00    -0.145 OA 
ENDROOT
BRANCH   2   3
HETATM    3  C   UNL     1      -8.157   7.339  70.709  1.00  0.00    -0.111 A  
HETATM    4  C   UNL     1      -7.076   6.450  70.593  1.00  0.00    -0.069 A  
HETATM    5  C   UNL     1      -6.044   6.695  69.693  1.00  0.00    -0.026 A  
HETATM    6  C   UNL     1      -6.083   7.835  68.903  1.00  0.00    -0.035 A  
HETATM    7  C   UNL     1      -7.143   8.748  69.025  1.00  0.00    -0.065 A  
HETATM    8  C   UNL     1      -8.175   8.521  69.935  1.00  0.00    -0.121 A  
HETATM    9  C   UNL     1      -9.251   9.541  70.045  1.00  0.00    -0.234 C  
HETATM   10  O   UNL     1     -10.133   9.475  70.898  1.00  0.00    -0.286 OA 
HETATM   11  C   UNL     1      -9.287  10.703  69.118  1.00  0.00    -0.174 A  
HETATM   12  C   UNL     1     -10.373  11.604  69.147  1.00  0.00    -0.014 A  
HETATM   13  O   UNL     1     -11.437  11.420  69.999  1.00  0.00    -0.373 OA 
HETATM   14  C   UNL     1     -10.433  12.728  68.299  1.00  0.00    -0.250 A  
HETATM   15  H   UNL     1     -12.168  12.026  70.018  1.00  0.00     0.000 HD 
HETATM   16  C   UNL     1      -9.359  12.962  67.407  1.00  0.00    -0.194 A  
HETATM   17  C   UNL     1      -8.301  12.029  67.350  1.00  0.00    -0.171 A  
HETATM   18  C   UNL     1      -9.354  14.176  66.489  1.00  0.00    -0.285 C  
HETATM   19  C   UNL     1     -10.373  15.251  66.879  1.00  0.00    -0.278 C  
HETATM   20  C   UNL     1      -8.252  10.910  68.209  1.00  0.00    -0.127 A  
HETATM   21  O   UNL     1      -7.293  12.198  66.440  1.00  0.00    -0.350 OA 
HETATM   22  O   UNL     1      -6.162  10.088  67.418  1.00  0.00    -0.058 OA 
HETATM   23  C   UNL     1      -7.125   9.943  68.161  1.00  0.00    -0.077 C  
HETATM   24  C   UNL     1     -11.716  14.562  67.126  1.00  0.00    -0.420 C  
HETATM   25  O   UNL     1      -9.882  15.959  68.021  1.00  0.00    -0.216 OA 
HETATM   26  H   UNL     1      -6.581  11.570  66.401  1.00  0.00     0.000 HD 
HETATM   27  C   UNL     1     -11.638  13.667  68.367  1.00  0.00    -0.342 C  
HETATM   28  H   UNL     1     -10.514  16.626  68.263  1.00  0.00     0.000 HD 
BRANCH  19  29
HETATM   29  C   UNL     1     -10.547  16.280  65.749  1.00  0.00    -0.324 C  
HETATM   30  O   UNL     1     -10.976  15.961  64.637  1.00  0.00    -0.528 OA 
HETATM   31  C   UNL     1     -10.270  17.729  66.081  1.00  0.00    -0.339 C  
ENDBRANCH  19  29
BRANCH  27  32
HETATM   32  O   UNL     1     -11.517  14.446  69.572  1.00  0.00    -0.261 OA 
BRANCH  32  33
HETATM   33  C   UNL     1     -12.733  14.992  70.097  1.00  0.00    -0.224 C  
HETATM   34  C   UNL     1     -13.660  13.969  70.752  1.00  0.00     0.131 C  
HETATM   35  C   UNL     1     -13.038  13.449  72.048  1.00  0.00    -0.377 C  
HETATM   36  N   UNL     1     -13.943  12.473  72.689  1.00  0.00    -0.506 NA 
HETATM   37  C   UNL     1     -12.745  14.636  72.983  1.00  0.00    -0.424 C  
HETATM   38  H1  UNL     1     -13.528  12.126  73.554  1.00  0.00     0.000 HD 
HETATM   39  H2  UNL     1     -14.196  11.714  72.056  1.00  0.00     0.000 HD 
HETATM   40  O   UNL     1     -13.992  15.209  73.410  1.00  0.00    -0.433 OA 
HETATM   41  C   UNL     1     -11.879  15.676  72.243  1.00  0.00    -0.481 C  
HETATM   42  H   UNL     1     -13.811  15.942  73.987  1.00  0.00     0.000 HD 
HETATM   43  C   UNL     1     -11.705  16.946  73.070  1.00  0.00     0.136 C  
HETATM   44  O   UNL     1     -12.448  16.070  70.989  1.00  0.00    -0.394 OA 
ENDBRANCH  32  33
ENDBRANCH  27  32
ENDBRANCH   2   3
TORSDOF 4
ENDMDL
MODEL       24
REMARK 921   NORMALIZED FREE ENERGY PREDICTED BY IDOCK:   -7.27 KCAL/MOL
REMARK 922        TOTAL FREE ENERGY PREDICTED BY IDOCK:   -9.57 KCAL/MOL
REMARK 923 INTER-LIGAND FREE ENERGY PREDICTED BY IDOCK:   -8.52 KCAL/MOL
REMARK 924 INTRA-LIGAND FREE ENERGY PREDICTED BY IDOCK:   -1.05 KCAL/MOL
REMARK 927      BINDING AFFINITY PREDICTED BY RF-SCORE:    0.00 PKD
ROOT
HETATM    1  C   UNL     1     -10.110   4.728  70.794  1.00  0.00    -0.216 C  
HETATM    2  O   UNL     1      -9.274   5.835  70.467  1.00  0.00    -0.144 OA 
ENDROOT
BRANCH   2   3
HETATM    3  C   UNL     1      -8.653   5.800  69.244  1.00  0.00    -0.111 A  
HETATM    4  C   UNL     1      -7.794   4.747  68.887  1.00  0.00    -0.076 A  
HETATM    5  C   UNL     1      -7.178   4.722  67.639  1.00  0.00    -0.070 A  
HETATM    6  C   UNL     1      -7.414   5.753  66.741  1.00  0.00    -0.084 A  
HETATM    7  C   UNL     1      -8.249   6.825  67.092  1.00  0.00    -0.121 A  
HETATM    8  C   UNL     1      -8.860   6.869  68.345  1.00  0.00    -0.123 A  
HETATM    9  C   UNL     1      -9.704   8.048  68.673  1.00  0.00    -0.159 C  
HETATM   10  O   UNL     1     -10.185   8.220  69.791  1.00  0.00    -0.194 OA 
HETATM   11  C   UNL     1      -9.989   9.082  67.644  1.00  0.00    -0.252 A  
HETATM   12  C   UNL     1     -10.886  10.136  67.923  1.00  0.00    -0.284 A  
HETATM   13  O   UNL     1     -11.545  10.220  69.127  1.00  0.00    -0.424 OA 
HETATM   14  C   UNL     1     -11.165  11.146  66.980  1.00  0.00    -0.291 A  
HETATM   15  H   UNL     1     -12.149  10.929  69.314  1.00  0.00     0.000 HD 
HETATM   16  C   UNL     1     -10.509  11.105  65.727  1.00  0.00    -0.305 A  
HETATM   17  C   UNL     1      -9.652  10.021  65.439  1.00  0.00    -0.279 A  
HETATM   18  C   UNL     1     -10.748  12.185  64.682  1.00  0.00    -0.346 C  
HETATM   19  C   UNL     1     -11.426  13.443  65.236  1.00  0.00    -0.298 C  
HETATM   20  C   UNL     1      -9.378   9.019  66.394  1.00  0.00    -0.264 A  
HETATM   21  O   UNL     1      -9.069   9.924  64.204  1.00  0.00    -0.223 OA 
HETATM   22  O   UNL     1      -7.852   7.797  65.034  1.00  0.00    -0.109 OA 
HETATM   23  C   UNL     1      -8.457   7.892  66.095  1.00  0.00    -0.133 C  
HETATM   24  C   UNL     1     -12.624  13.002  66.077  1.00  0.00    -0.089 C  
HETATM   25  O   UNL     1     -10.462  14.198  65.975  1.00  0.00    -0.289 OA 
HETATM   26  H   UNL     1      -8.491   9.194  64.011  1.00  0.00     0.000 HD 
HETATM   27  C   UNL     1     -12.153  12.261  67.332  1.00  0.00     0.050 C  
HETATM   28  H   UNL     1     -10.883  14.978  66.318  1.00  0.00     0.000 HD 
BRANCH  19  29
HETATM   29  C   UNL     1     -11.928  14.344  64.095  1.00  0.00    -0.346 C  
HETATM   30  O   UNL     1     -12.576  13.895  63.146  1.00  0.00    -0.775 OA 
HETATM   31  C   UNL     1     -11.689  15.831  64.228  1.00  0.00    -0.162 C  
ENDBRANCH  19  29
BRANCH  27  32
HETATM   32  O   UNL     1     -11.497  13.150  68.255  1.00  0.00    -0.272 OA 
BRANCH  32  33
HETATM   33  C   UNL     1     -12.216  14.337  68.610  1.00  0.00    -0.170 C  
HETATM   34  C   UNL     1     -12.808  14.326  70.019  1.00  0.00    -0.037 C  
HETATM   35  C   UNL     1     -11.690  14.389  71.060  1.00  0.00    -0.194 C  
HETATM   36  N   UNL     1     -12.264  14.396  72.421  1.00  0.00    -0.155 NA 
HETATM   37  C   UNL     1     -10.834  15.643  70.809  1.00  0.00    -0.242 C  
HETATM   38  H1  UNL     1     -11.519  14.437  73.115  1.00  0.00     0.000 HD 
HETATM   39  H2  UNL     1     -12.887  13.602  72.576  1.00  0.00     0.000 HD 
HETATM   40  O   UNL     1     -11.625  16.810  71.089  1.00  0.00    -0.534 OA 
HETATM   41  C   UNL     1     -10.334  15.645  69.350  1.00  0.00    -0.260 C  
HETATM   42  H   UNL     1     -11.096  17.583  70.934  1.00  0.00     0.000 HD 
HETATM   43  C   UNL     1      -9.623  16.951  69.007  1.00  0.00    -0.216 C  
HETATM   44  O   UNL     1     -11.400  15.491  68.405  1.00  0.00    -0.320 OA 
ENDBRANCH  32  33
ENDBRANCH  27  32
ENDBRANCH   2   3
TORSDOF 4
ENDMDL
MODEL       25
REMARK 921   NORMALIZED FREE ENERGY PREDICTED BY IDOCK:   -7.26 KCAL/MOL
REMARK 922        TOTAL FREE ENERGY PREDICTED BY IDOCK:   -9.56 KCAL/MOL
REMARK 923 INTER-LIGAND FREE ENERGY PREDICTED BY IDOCK:   -8.44 KCAL/MOL
REMARK 924 INTRA-LIGAND FREE ENERGY PREDICTED BY IDOCK:   -1.12 KCAL/MOL
REMARK 927      BINDING AFFINITY PREDICTED BY RF-SCORE:    0.00 PKD
ROOT
HETATM    1  C   UNL     1     -12.093  12.529  63.391  1.00  0.00    -0.529 C  
HETATM    2  O   UNL     1     -11.036  12.491  64.346  1.00  0.00    -0.301 OA 
ENDROOT
BRANCH   2   3
HETATM    3  C   UNL     1     -11.312  12.988  65.594  1.00  0.00    -0.301 A  
HETATM    4  C   UNL     1     -11.659  14.335  65.789  1.00  0.00    -0.346 A  
HETATM    5  C   UNL     1     -11.945  14.821  67.061  1.00  0.00    -0.225 A  
HETATM    6  C   UNL     1     -11.882  13.963  68.149  1.00  0.00    -0.407 A  
HETATM    7  C   UNL     1     -11.511  12.620  67.976  1.00  0.00    -0.366 A  
HETATM    8  C   UNL     1     -11.207  12.125  66.708  1.00  0.00    -0.375 A  
HETATM    9  C   UNL     1     -10.786  10.704  66.592  1.00  0.00    -0.181 C  
HETATM   10  O   UNL     1     -10.393  10.222  65.532  1.00  0.00    -0.258 OA 
HETATM   11  C   UNL     1     -10.815   9.809  67.778  1.00  0.00    -0.306 A  
HETATM   12  C   UNL     1     -10.528   8.434  67.640  1.00  0.00    -0.239 A  
HETATM   13  O   UNL     1     -10.252   7.877  66.413  1.00  0.00    -0.470 OA 
HETATM   14  C   UNL     1     -10.525   7.558  68.744  1.00  0.00    -0.212 A  
HETATM   15  H   UNL     1     -10.060   6.952  66.320  1.00  0.00     0.000 HD 
HETATM   16  C   UNL     1     -10.801   8.085  70.028  1.00  0.00    -0.235 A  
HETATM   17  C   UNL     1     -11.134   9.451  70.150  1.00  0.00    -0.242 A  
HETATM   18  C   UNL     1     -10.781   7.193  71.261  1.00  0.00    -0.245 C  
HETATM   19  C   UNL     1     -10.098   5.840  71.036  1.00  0.00    -0.205 C  
HETATM   20  C   UNL     1     -11.129  10.318  69.037  1.00  0.00    -0.277 A  
HETATM   21  O   UNL     1     -11.478   9.961  71.373  1.00  0.00    -0.371 OA 
HETATM   22  O   UNL     1     -11.700  12.283  70.254  1.00  0.00    -0.271 OA 
HETATM   23  C   UNL     1     -11.458  11.761  69.173  1.00  0.00    -0.297 C  
HETATM   24  C   UNL     1     -10.654   5.240  69.743  1.00  0.00    -0.283 C  
HETATM   25  O   UNL     1      -8.682   6.038  71.005  1.00  0.00    -0.130 OA 
HETATM   26  H   UNL     1     -11.702  10.881  71.455  1.00  0.00     0.000 HD 
HETATM   27  C   UNL     1     -10.216   6.074  68.535  1.00  0.00    -0.184 C  
HETATM   28  H   UNL     1      -8.259   5.199  70.865  1.00  0.00     0.000 HD 
BRANCH  19  29
HETATM   29  C   UNL     1     -10.395   4.875  72.196  1.00  0.00    -0.200 C  
HETATM   30  O   UNL     1     -11.325   5.068  72.984  1.00  0.00    -0.299 OA 
HETATM   31  C   UNL     1      -9.567   3.612  72.277  1.00  0.00    -0.207 C  
ENDBRANCH  19  29
BRANCH  27  32
HETATM   32  O   UNL     1      -8.802   5.953  68.295  1.00  0.00    -0.112 OA 
BRANCH  32  33
HETATM   33  C   UNL     1      -8.369   4.739  67.669  1.00  0.00    -0.104 C  
HETATM   34  C   UNL     1      -7.626   4.933  66.347  1.00  0.00    -0.087 C  
HETATM   35  C   UNL     1      -6.267   5.586  66.598  1.00  0.00    -0.034 C  
HETATM   36  N   UNL     1      -5.543   5.758  65.322  1.00  0.00    -0.016 NA 
HETATM   37  C   UNL     1      -5.462   4.720  67.584  1.00  0.00    -0.012 C  
HETATM   38  H1  UNL     1      -4.636   6.193  65.489  1.00  0.00     0.000 HD 
HETATM   39  H2  UNL     1      -6.094   6.275  64.637  1.00  0.00     0.000 HD 
HETATM   40  O   UNL     1      -5.130   3.476  66.945  1.00  0.00    -0.007 OA 
HETATM   41  C   UNL     1      -6.292   4.484  68.862  1.00  0.00    -0.032 C  
HETATM   42  H   UNL     1      -4.634   2.941  67.553  1.00  0.00     0.000 HD 
HETATM   43  C   UNL     1      -5.606   3.492  69.797  1.00  0.00    -0.017 C  
HETATM   44  O   UNL     1      -7.595   3.959  68.581  1.00  0.00    -0.054 OA 
ENDBRANCH  32  33
ENDBRANCH  27  32
ENDBRANCH   2   3
TORSDOF 4
ENDMDL
MODEL       26
REMARK 921   NORMALIZED FREE ENERGY PREDICTED BY IDOCK:   -7.26 KCAL/MOL
REMARK 922        TOTAL FREE ENERGY PREDICTED BY IDOCK:   -9.55 KCAL/MOL
REMARK 923 INTER-LIGAND FREE ENERGY PREDICTED BY IDOCK:   -8.44 KCAL/MOL
REMARK 924 INTRA-LIGAND FREE ENERGY PREDICTED BY IDOCK:   -1.12 KCAL/MOL
REMARK 927      BINDING AFFINITY PREDICTED BY RF-SCORE:    0.00 PKD
ROOT
HETATM    1  C   UNL     1      -6.645  18.299  65.559  1.00  0.00    -0.219 C  
HETATM    2  O   UNL     1      -8.018  17.916  65.607  1.00  0.00    -0.527 OA 
ENDROOT
BRANCH   2   3
HETATM    3  C   UNL     1      -8.717  18.265  66.734  1.00  0.00    -0.272 A  
HETATM    4  C   UNL     1      -8.848  19.605  67.134  1.00  0.00    -0.374 A  
HETATM    5  C   UNL     1      -9.568  19.942  68.275  1.00  0.00    -0.436 A  
HETATM    6  C   UNL     1     -10.160  18.939  69.030  1.00  0.00    -0.310 A  
HETATM    7  C   UNL     1     -10.016  17.592  68.660  1.00  0.00    -0.367 A  
HETATM    8  C   UNL     1      -9.284  17.241  67.526  1.00  0.00    -0.227 A  
HETATM    9  C   UNL     1      -9.137  15.797  67.205  1.00  0.00    -0.207 C  
HETATM   10  O   UNL     1      -8.417  15.398  66.293  1.00  0.00    -0.225 OA 
HETATM   11  C   UNL     1      -9.860  14.770  68.001  1.00  0.00    -0.218 A  
HETATM   12  C   UNL     1      -9.812  13.412  67.620  1.00  0.00    -0.226 A  
HETATM   13  O   UNL     1      -9.134  13.003  66.495  1.00  0.00    -0.358 OA 
HETATM   14  C   UNL     1     -10.467  12.406  68.360  1.00  0.00    -0.245 A  
HETATM   15  H   UNL     1      -9.103  12.089  66.239  1.00  0.00     0.000 HD 
HETATM   16  C   UNL     1     -11.176  12.777  69.527  1.00  0.00    -0.147 A  
HETATM   17  C   UNL     1     -11.259  14.143  69.873  1.00  0.00    -0.107 A  
HETATM   18  C   UNL     1     -11.876  11.731  70.384  1.00  0.00    -0.362 C  
HETATM   19  C   UNL     1     -11.438  10.293  70.086  1.00  0.00    -0.309 C  
HETATM   20  C   UNL     1     -10.594  15.139  69.125  1.00  0.00    -0.256 A  
HETATM   21  O   UNL     1     -12.003  14.527  70.955  1.00  0.00    -0.316 OA 
HETATM   22  O   UNL     1     -11.256  16.963  70.506  1.00  0.00    -0.014 OA 
HETATM   23  C   UNL     1     -10.665  16.573  69.506  1.00  0.00    -0.321 C  
HETATM   24  C   UNL     1     -11.468  10.095  68.569  1.00  0.00    -0.098 C  
HETATM   25  O   UNL     1     -10.146  10.077  70.659  1.00  0.00    -0.374 OA 
HETATM   26  H   UNL     1     -12.059  15.447  71.188  1.00  0.00     0.000 HD 
HETATM   27  C   UNL     1     -10.389  10.950  67.897  1.00  0.00    -0.187 C  
HETATM   28  H   UNL     1      -9.875   9.185  70.475  1.00  0.00     0.000 HD 
BRANCH  19  29
HETATM   29  C   UNL     1     -12.398   9.281  70.735  1.00  0.00    -0.087 C  
HETATM   30  O   UNL     1     -13.528   9.603  71.113  1.00  0.00    -0.356 OA 
HETATM   31  C   UNL     1     -11.946   7.840  70.800  1.00  0.00    -0.168 C  
ENDBRANCH  19  29
BRANCH  27  32
HETATM   32  O   UNL     1      -9.068  10.466  68.200  1.00  0.00    -0.137 OA 
BRANCH  32  33
HETATM   33  C   UNL     1      -8.650   9.287  67.500  1.00  0.00    -0.116 C  
HETATM   34  C   UNL     1      -8.299   9.510  66.029  1.00  0.00    -0.123 C  
HETATM   35  C   UNL     1      -7.019  10.339  65.914  1.00  0.00    -0.126 C  
HETATM   36  N   UNL     1      -6.670  10.539  64.492  1.00  0.00    -0.349 NA 
HETATM   37  C   UNL     1      -5.884   9.626  66.671  1.00  0.00    -0.055 C  
HETATM   38  H1  UNL     1      -5.817  11.091  64.415  1.00  0.00     0.000 HD 
HETATM   39  H2  UNL     1      -7.441  10.951  63.965  1.00  0.00     0.000 HD 
HETATM   40  O   UNL     1      -5.562   8.405  65.985  1.00  0.00    -0.041 OA 
HETATM   41  C   UNL     1      -6.325   9.350  68.123  1.00  0.00    -0.054 C  
HETATM   42  H   UNL     1      -4.862   7.966  66.453  1.00  0.00     0.000 HD 
HETATM   43  C   UNL     1      -5.300   8.496  68.864  1.00  0.00    -0.032 C  
HETATM   44  O   UNL     1      -7.575   8.654  68.193  1.00  0.00    -0.095 OA 
ENDBRANCH  32  33
ENDBRANCH  27  32
ENDBRANCH   2   3
TORSDOF 4
ENDMDL
MODEL       27
REMARK 921   NORMALIZED FREE ENERGY PREDICTED BY IDOCK:   -7.20 KCAL/MOL
REMARK 922        TOTAL FREE ENERGY PREDICTED BY IDOCK:   -9.48 KCAL/MOL
REMARK 923 INTER-LIGAND FREE ENERGY PREDICTED BY IDOCK:   -9.32 KCAL/MOL
REMARK 924 INTRA-LIGAND FREE ENERGY PREDICTED BY IDOCK:   -0.17 KCAL/MOL
REMARK 927      BINDING AFFINITY PREDICTED BY RF-SCORE:    0.00 PKD
ROOT
HETATM    1  C   UNL     1      -5.537   8.975  73.252  1.00  0.00    -0.087 C  
HETATM    2  O   UNL     1      -5.648   9.324  71.874  1.00  0.00    -0.068 OA 
ENDROOT
BRANCH   2   3
HETATM    3  C   UNL     1      -6.123   8.355  71.028  1.00  0.00    -0.035 A  
HETATM    4  C   UNL     1      -5.794   7.000  71.202  1.00  0.00    -0.036 A  
HETATM    5  C   UNL     1      -6.292   6.029  70.340  1.00  0.00    -0.032 A  
HETATM    6  C   UNL     1      -7.121   6.406  69.292  1.00  0.00    -0.080 A  
HETATM    7  C   UNL     1      -7.438   7.758  69.088  1.00  0.00    -0.094 A  
HETATM    8  C   UNL     1      -6.933   8.742  69.937  1.00  0.00    -0.046 A  
HETATM    9  C   UNL     1      -7.274  10.160  69.649  1.00  0.00    -0.127 C  
HETATM   10  O   UNL     1      -6.781  11.094  70.277  1.00  0.00    -0.218 OA 
HETATM   11  C   UNL     1      -8.232  10.500  68.563  1.00  0.00    -0.123 A  
HETATM   12  C   UNL     1      -8.644  11.836  68.371  1.00  0.00    -0.156 A  
HETATM   13  O   UNL     1      -8.208  12.849  69.193  1.00  0.00    -0.289 OA 
HETATM   14  C   UNL     1      -9.535  12.201  67.340  1.00  0.00    -0.179 A  
HETATM   15  H   UNL     1      -8.486  13.748  69.063  1.00  0.00     0.000 HD 
HETATM   16  C   UNL     1     -10.009  11.194  66.467  1.00  0.00    -0.252 A  
HETATM   17  C   UNL     1      -9.630   9.854  66.697  1.00  0.00    -0.184 A  
HETATM   18  C   UNL     1     -10.947  11.533  65.317  1.00  0.00    -0.291 C  
HETATM   19  C   UNL     1     -11.011  13.028  64.990  1.00  0.00    -0.298 C  
HETATM   20  C   UNL     1      -8.734   9.504  67.730  1.00  0.00    -0.115 A  
HETATM   21  O   UNL     1     -10.140   8.857  65.909  1.00  0.00    -0.432 OA 
HETATM   22  O   UNL     1      -8.688   7.175  67.234  1.00  0.00    -0.120 OA 
HETATM   23  C   UNL     1      -8.320   8.095  67.955  1.00  0.00    -0.129 C  
HETATM   24  C   UNL     1     -11.203  13.790  66.303  1.00  0.00    -0.310 C  
HETATM   25  O   UNL     1      -9.819  13.398  64.290  1.00  0.00    -0.679 OA 
HETATM   26  H   UNL     1      -9.884   7.955  66.064  1.00  0.00     0.000 HD 
HETATM   27  C   UNL     1      -9.955  13.663  67.182  1.00  0.00    -0.247 C  
HETATM   28  H   UNL     1      -9.859  14.326  64.087  1.00  0.00     0.000 HD 
BRANCH  19  29
HETATM   29  C   UNL     1     -12.196  13.338  64.061  1.00  0.00    -0.410 C  
HETATM   30  O   UNL     1     -12.629  14.485  63.916  1.00  0.00    -0.827 OA 
HETATM   31  C   UNL     1     -12.754  12.196  63.242  1.00  0.00    -0.417 C  
ENDBRANCH  19  29
BRANCH  27  32
HETATM   32  O   UNL     1      -8.839  14.380  66.622  1.00  0.00    -0.232 OA 
BRANCH  32  33
HETATM   33  C   UNL     1      -8.369  15.507  67.374  1.00  0.00    -0.182 C  
HETATM   34  C   UNL     1      -8.483  16.848  66.650  1.00  0.00    -0.285 C  
HETATM   35  C   UNL     1      -9.953  17.241  66.499  1.00  0.00    -0.305 C  
HETATM   36  N   UNL     1     -10.062  18.546  65.815  1.00  0.00    -0.526 NA 
HETATM   37  C   UNL     1     -10.612  17.284  67.890  1.00  0.00    -0.384 C  
HETATM   38  H1  UNL     1     -11.042  18.809  65.715  1.00  0.00     0.000 HD 
HETATM   39  H2  UNL     1      -9.572  18.549  64.920  1.00  0.00     0.000 HD 
HETATM   40  O   UNL     1     -10.043  18.371  68.640  1.00  0.00    -0.369 OA 
HETATM   41  C   UNL     1     -10.392  15.937  68.608  1.00  0.00    -0.229 C  
HETATM   42  H   UNL     1     -10.450  18.397  69.498  1.00  0.00     0.000 HD 
HETATM   43  C   UNL     1     -10.879  15.990  70.053  1.00  0.00    -0.353 C  
HETATM   44  O   UNL     1      -9.012  15.555  68.648  1.00  0.00    -0.175 OA 
ENDBRANCH  32  33
ENDBRANCH  27  32
ENDBRANCH   2   3
TORSDOF 4
ENDMDL
MODEL       28
REMARK 921   NORMALIZED FREE ENERGY PREDICTED BY IDOCK:   -7.08 KCAL/MOL
REMARK 922        TOTAL FREE ENERGY PREDICTED BY IDOCK:   -9.33 KCAL/MOL
REMARK 923 INTER-LIGAND FREE ENERGY PREDICTED BY IDOCK:   -8.61 KCAL/MOL
REMARK 924 INTRA-LIGAND FREE ENERGY PREDICTED BY IDOCK:   -0.71 KCAL/MOL
REMARK 927      BINDING AFFINITY PREDICTED BY RF-SCORE:    0.00 PKD
ROOT
HETATM    1  C   UNL     1     -13.838   9.169  72.287  1.00  0.00    -0.463 C  
HETATM    2  O   UNL     1     -12.549   9.768  72.190  1.00  0.00    -0.358 OA 
ENDROOT
BRANCH   2   3
HETATM    3  C   UNL     1     -12.468  10.954  71.507  1.00  0.00    -0.314 A  
HETATM    4  C   UNL     1     -13.098  12.118  71.978  1.00  0.00    -0.462 A  
HETATM    5  C   UNL     1     -13.000  13.316  71.278  1.00  0.00    -0.353 A  
HETATM    6  C   UNL     1     -12.273  13.359  70.097  1.00  0.00    -0.385 A  
HETATM    7  C   UNL     1     -11.659  12.199  69.598  1.00  0.00    -0.361 A  
HETATM    8  C   UNL     1     -11.763  10.989  70.283  1.00  0.00    -0.445 A  
HETATM    9  C   UNL     1     -11.123   9.787  69.687  1.00  0.00    -0.217 C  
HETATM   10  O   UNL     1     -11.262   8.664  70.166  1.00  0.00    -0.237 OA 
HETATM   11  C   UNL     1     -10.288   9.906  68.463  1.00  0.00    -0.221 A  
HETATM   12  C   UNL     1      -9.585   8.786  67.969  1.00  0.00    -0.142 A  
HETATM   13  O   UNL     1      -9.621   7.572  68.615  1.00  0.00    -0.149 OA 
HETATM   14  C   UNL     1      -8.800   8.854  66.800  1.00  0.00    -0.142 A  
HETATM   15  H   UNL     1      -9.148   6.818  68.282  1.00  0.00     0.000 HD 
HETATM   16  C   UNL     1      -8.734  10.081  66.098  1.00  0.00    -0.153 A  
HETATM   17  C   UNL     1      -9.400  11.208  66.626  1.00  0.00    -0.177 A  
HETATM   18  C   UNL     1      -7.928  10.206  64.813  1.00  0.00    -0.146 C  
HETATM   19  C   UNL     1      -7.539   8.860  64.193  1.00  0.00    -0.120 C  
HETATM   20  C   UNL     1     -10.187  11.124  67.795  1.00  0.00    -0.205 A  
HETATM   21  O   UNL     1      -9.285  12.421  66.002  1.00  0.00    -0.394 OA 
HETATM   22  O   UNL     1     -10.895  13.397  67.776  1.00  0.00    -0.245 OA 
HETATM   23  C   UNL     1     -10.904  12.308  68.335  1.00  0.00    -0.230 C  
HETATM   24  C   UNL     1      -6.963   7.978  65.302  1.00  0.00    -0.063 C  
HETATM   25  O   UNL     1      -8.691   8.295  63.560  1.00  0.00    -0.411 OA 
HETATM   26  H   UNL     1      -9.733  13.180  66.358  1.00  0.00     0.000 HD 
HETATM   27  C   UNL     1      -8.053   7.611  66.313  1.00  0.00    -0.112 C  
HETATM   28  H   UNL     1      -8.449   7.460  63.176  1.00  0.00     0.000 HD 
BRANCH  19  29
HETATM   29  C   UNL     1      -6.470   9.046  63.103  1.00  0.00    -0.090 C  
HETATM   30  O   UNL     1      -6.049   8.098  62.434  1.00  0.00    -0.083 OA 
HETATM   31  C   UNL     1      -6.021  10.458  62.804  1.00  0.00    -0.141 C  
ENDBRANCH  19  29
BRANCH  27  32
HETATM   32  O   UNL     1      -9.023   6.714  65.741  1.00  0.00    -0.127 OA 
BRANCH  32  33
HETATM   33  C   UNL     1      -9.228   5.477  66.435  1.00  0.00    -0.150 C  
HETATM   34  C   UNL     1     -10.361   4.615  65.879  1.00  0.00    -0.315 C  
HETATM   35  C   UNL     1      -9.981   4.071  64.501  1.00  0.00    -0.192 C  
HETATM   36  N   UNL     1     -11.070   3.224  63.973  1.00  0.00    -0.578 NA 
HETATM   37  C   UNL     1      -8.664   3.282  64.613  1.00  0.00    -0.103 C  
HETATM   38  H1  UNL     1     -10.817   2.861  63.054  1.00  0.00     0.000 HD 
HETATM   39  H2  UNL     1     -11.963   3.717  63.956  1.00  0.00     0.000 HD 
HETATM   40  O   UNL     1      -8.897   2.098  65.394  1.00  0.00    -0.116 OA 
HETATM   41  C   UNL     1      -7.581   4.171  65.258  1.00  0.00    -0.081 C  
HETATM   42  H   UNL     1      -8.084   1.612  65.463  1.00  0.00     0.000 HD 
HETATM   43  C   UNL     1      -6.309   3.380  65.545  1.00  0.00    -0.032 C  
HETATM   44  O   UNL     1      -8.008   4.739  66.503  1.00  0.00    -0.102 OA 
ENDBRANCH  32  33
ENDBRANCH  27  32
ENDBRANCH   2   3
TORSDOF 4
ENDMDL
MODEL       29
REMARK 921   NORMALIZED FREE ENERGY PREDICTED BY IDOCK:   -7.05 KCAL/MOL
REMARK 922        TOTAL FREE ENERGY PREDICTED BY IDOCK:   -9.30 KCAL/MOL
REMARK 923 INTER-LIGAND FREE ENERGY PREDICTED BY IDOCK:   -8.27 KCAL/MOL
REMARK 924 INTRA-LIGAND FREE ENERGY PREDICTED BY IDOCK:   -1.03 KCAL/MOL
REMARK 927      BINDING AFFINITY PREDICTED BY RF-SCORE:    0.00 PKD
ROOT
HETATM    1  C   UNL     1     -12.910  12.135  63.760  1.00  0.00    -0.333 C  
HETATM    2  O   UNL     1     -12.884  12.684  65.074  1.00  0.00    -0.765 OA 
ENDROOT
BRANCH   2   3
HETATM    3  C   UNL     1     -11.811  13.478  65.391  1.00  0.00    -0.357 A  
HETATM    4  C   UNL     1     -11.668  14.769  64.857  1.00  0.00    -0.390 A  
HETATM    5  C   UNL     1     -10.578  15.564  65.196  1.00  0.00    -0.455 A  
HETATM    6  C   UNL     1      -9.619  15.072  66.069  1.00  0.00    -0.359 A  
HETATM    7  C   UNL     1      -9.732  13.773  66.591  1.00  0.00    -0.293 A  
HETATM    8  C   UNL     1     -10.813  12.961  66.247  1.00  0.00    -0.295 A  
HETATM    9  C   UNL     1     -10.860  11.583  66.803  1.00  0.00    -0.282 C  
HETATM   10  O   UNL     1     -11.714  10.768  66.462  1.00  0.00     0.096 OA 
HETATM   11  C   UNL     1      -9.850  11.136  67.798  1.00  0.00    -0.186 A  
HETATM   12  C   UNL     1      -9.968   9.870  68.411  1.00  0.00    -0.158 A  
HETATM   13  O   UNL     1     -11.026   9.035  68.140  1.00  0.00    -0.471 OA 
HETATM   14  C   UNL     1      -9.019   9.402  69.344  1.00  0.00    -0.157 A  
HETATM   15  H   UNL     1     -11.105   8.183  68.553  1.00  0.00     0.000 HD 
HETATM   16  C   UNL     1      -7.911  10.225  69.654  1.00  0.00    -0.168 A  
HETATM   17  C   UNL     1      -7.828  11.509  69.073  1.00  0.00    -0.004 A  
HETATM   18  C   UNL     1      -6.839   9.760  70.629  1.00  0.00    -0.108 C  
HETATM   19  C   UNL     1      -6.879   8.257  70.922  1.00  0.00    -0.044 C  
HETATM   20  C   UNL     1      -8.782  11.963  68.137  1.00  0.00    -0.173 A  
HETATM   21  O   UNL     1      -6.803  12.348  69.420  1.00  0.00    -0.251 OA 
HETATM   22  O   UNL     1      -7.743  14.066  67.730  1.00  0.00    -0.139 OA 
HETATM   23  C   UNL     1      -8.678  13.306  67.511  1.00  0.00    -0.202 C  
HETATM   24  C   UNL     1      -8.327   7.875  71.234  1.00  0.00    -0.120 C  
HETATM   25  O   UNL     1      -6.337   7.554  69.800  1.00  0.00    -0.030 OA 
HETATM   26  H   UNL     1      -6.747  13.212  69.028  1.00  0.00     0.000 HD 
HETATM   27  C   UNL     1      -9.200   8.025  69.984  1.00  0.00    -0.156 C  
HETATM   28  H   UNL     1      -6.362   6.622  69.982  1.00  0.00     0.000 HD 
BRANCH  19  29
HETATM   29  C   UNL     1      -6.004   7.910  72.138  1.00  0.00    -0.041 C  
HETATM   30  O   UNL     1      -5.790   6.743  72.477  1.00  0.00    -0.038 OA 
HETATM   31  C   UNL     1      -5.321   9.056  72.852  1.00  0.00    -0.077 C  
ENDBRANCH  19  29
BRANCH  27  32
HETATM   32  O   UNL     1      -8.875   7.035  68.992  1.00  0.00    -0.134 OA 
BRANCH  32  33
HETATM   33  C   UNL     1      -9.498   5.754  69.148  1.00  0.00    -0.128 C  
HETATM   34  C   UNL     1     -10.636   5.475  68.166  1.00  0.00    -0.207 C  
HETATM   35  C   UNL     1     -10.082   5.315  66.750  1.00  0.00    -0.224 C  
HETATM   36  N   UNL     1     -11.181   5.028  65.805  1.00  0.00    -0.867 NA 
HETATM   37  C   UNL     1      -9.030   4.191  66.741  1.00  0.00    -0.126 C  
HETATM   38  H1  UNL     1     -10.811   4.921  64.861  1.00  0.00     0.000 HD 
HETATM   39  H2  UNL     1     -11.916   5.733  65.850  1.00  0.00     0.000 HD 
HETATM   40  O   UNL     1      -9.687   2.938  66.993  1.00  0.00    -0.407 OA 
HETATM   41  C   UNL     1      -7.954   4.480  67.808  1.00  0.00    -0.088 C  
HETATM   42  H   UNL     1      -9.038   2.244  66.988  1.00  0.00     0.000 HD 
HETATM   43  C   UNL     1      -6.985   3.311  67.952  1.00  0.00    -0.050 C  
HETATM   44  O   UNL     1      -8.517   4.717  69.104  1.00  0.00    -0.080 OA 
ENDBRANCH  32  33
ENDBRANCH  27  32
ENDBRANCH   2   3
TORSDOF 4
ENDMDL
MODEL       30
REMARK 921   NORMALIZED FREE ENERGY PREDICTED BY IDOCK:   -6.94 KCAL/MOL
REMARK 922        TOTAL FREE ENERGY PREDICTED BY IDOCK:   -9.16 KCAL/MOL
REMARK 923 INTER-LIGAND FREE ENERGY PREDICTED BY IDOCK:   -8.42 KCAL/MOL
REMARK 924 INTRA-LIGAND FREE ENERGY PREDICTED BY IDOCK:   -0.74 KCAL/MOL
REMARK 927      BINDING AFFINITY PREDICTED BY RF-SCORE:    0.00 PKD
ROOT
HETATM    1  C   UNL     1      -6.707  18.092  65.484  1.00  0.00    -0.140 C  
HETATM    2  O   UNL     1      -8.020  17.584  65.704  1.00  0.00    -0.512 OA 
ENDROOT
BRANCH   2   3
HETATM    3  C   UNL     1      -8.673  18.024  66.827  1.00  0.00    -0.255 A  
HETATM    4  C   UNL     1      -8.709  19.386  67.170  1.00  0.00    -0.332 A  
HETATM    5  C   UNL     1      -9.383  19.817  68.308  1.00  0.00    -0.415 A  
HETATM    6  C   UNL     1     -10.023  18.887  69.115  1.00  0.00    -0.273 A  
HETATM    7  C   UNL     1      -9.974  17.519  68.802  1.00  0.00    -0.342 A  
HETATM    8  C   UNL     1      -9.289  17.074  67.671  1.00  0.00    -0.241 A  
HETATM    9  C   UNL     1      -9.242  15.611  67.410  1.00  0.00    -0.198 C  
HETATM   10  O   UNL     1      -8.568  15.128  66.504  1.00  0.00    -0.270 OA 
HETATM   11  C   UNL     1     -10.013  14.668  68.262  1.00  0.00    -0.222 A  
HETATM   12  C   UNL     1     -10.061  13.294  67.939  1.00  0.00    -0.235 A  
HETATM   13  O   UNL     1      -9.434  12.796  66.821  1.00  0.00    -0.230 OA 
HETATM   14  C   UNL     1     -10.765  12.366  68.733  1.00  0.00    -0.242 A  
HETATM   15  H   UNL     1      -9.466  11.872  66.604  1.00  0.00     0.000 HD 
HETATM   16  C   UNL     1     -11.425  12.830  69.895  1.00  0.00    -0.141 A  
HETATM   17  C   UNL     1     -11.412  14.212  70.183  1.00  0.00    -0.163 A  
HETATM   18  C   UNL     1     -12.174  11.870  70.808  1.00  0.00    -0.401 C  
HETATM   19  C   UNL     1     -11.836  10.395  70.565  1.00  0.00    -0.337 C  
HETATM   20  C   UNL     1     -10.700  15.130  69.382  1.00  0.00    -0.269 A  
HETATM   21  O   UNL     1     -12.109  14.689  71.261  1.00  0.00    -0.321 OA 
HETATM   22  O   UNL     1     -11.215  17.050  70.693  1.00  0.00     0.163 OA 
HETATM   23  C   UNL     1     -10.671  16.581  69.701  1.00  0.00    -0.323 C  
HETATM   24  C   UNL     1     -11.909  10.136  69.059  1.00  0.00     0.107 C  
HETATM   25  O   UNL     1     -10.549  10.118  71.125  1.00  0.00    -0.233 OA 
HETATM   26  H   UNL     1     -12.100  15.620  71.454  1.00  0.00     0.000 HD 
HETATM   27  C   UNL     1     -10.790  10.890  68.332  1.00  0.00    -0.222 C  
HETATM   28  H   UNL     1     -10.340   9.204  70.974  1.00  0.00     0.000 HD 
BRANCH  19  29
HETATM   29  C   UNL     1     -12.845   9.476  71.273  1.00  0.00    -0.333 C  
HETATM   30  O   UNL     1     -14.037   9.447  70.954  1.00  0.00    -0.056 OA 
HETATM   31  C   UNL     1     -12.304   8.522  72.314  1.00  0.00    -0.450 C  
ENDBRANCH  19  29
BRANCH  27  32
HETATM   32  O   UNL     1      -9.497  10.333  68.632  1.00  0.00    -0.155 OA 
BRANCH  32  33
HETATM   33  C   UNL     1      -8.849   9.628  67.567  1.00  0.00    -0.125 C  
HETATM   34  C   UNL     1      -7.498   9.017  67.937  1.00  0.00    -0.085 C  
HETATM   35  C   UNL     1      -7.694   7.862  68.920  1.00  0.00    -0.105 C  
HETATM   36  N   UNL     1      -6.389   7.261  69.263  1.00  0.00    -0.035 NA 
HETATM   37  C   UNL     1      -8.641   6.821  68.296  1.00  0.00    -0.124 C  
HETATM   38  H1  UNL     1      -6.520   6.491  69.919  1.00  0.00     0.000 HD 
HETATM   39  H2  UNL     1      -5.730   7.955  69.617  1.00  0.00     0.000 HD 
HETATM   40  O   UNL     1      -7.983   6.207  67.176  1.00  0.00    -0.101 OA 
HETATM   41  C   UNL     1      -9.952   7.508  67.864  1.00  0.00    -0.165 C  
HETATM   42  H   UNL     1      -8.568   5.564  66.792  1.00  0.00     0.000 HD 
HETATM   43  C   UNL     1     -10.853   6.551  67.088  1.00  0.00    -0.472 C  
HETATM   44  O   UNL     1      -9.724   8.642  67.019  1.00  0.00    -0.168 OA 
ENDBRANCH  32  33
ENDBRANCH  27  32
ENDBRANCH   2   3
TORSDOF 4
ENDMDL
MODEL       31
REMARK 921   NORMALIZED FREE ENERGY PREDICTED BY IDOCK:   -6.93 KCAL/MOL
REMARK 922        TOTAL FREE ENERGY PREDICTED BY IDOCK:   -9.14 KCAL/MOL
REMARK 923 INTER-LIGAND FREE ENERGY PREDICTED BY IDOCK:   -8.26 KCAL/MOL
REMARK 924 INTRA-LIGAND FREE ENERGY PREDICTED BY IDOCK:   -0.88 KCAL/MOL
REMARK 927      BINDING AFFINITY PREDICTED BY RF-SCORE:    0.00 PKD
ROOT
HETATM    1  C   UNL     1     -11.116   3.881  73.502  1.00  0.00    -0.249 C  
HETATM    2  O   UNL     1     -10.695   4.609  72.351  1.00  0.00    -0.190 OA 
ENDROOT
BRANCH   2   3
HETATM    3  C   UNL     1      -9.570   4.155  71.711  1.00  0.00    -0.156 A  
HETATM    4  C   UNL     1      -8.861   3.035  72.175  1.00  0.00    -0.116 A  
HETATM    5  C   UNL     1      -7.726   2.583  71.510  1.00  0.00    -0.041 A  
HETATM    6  C   UNL     1      -7.289   3.251  70.375  1.00  0.00    -0.040 A  
HETATM    7  C   UNL     1      -7.970   4.388  69.913  1.00  0.00    -0.056 A  
HETATM    8  C   UNL     1      -9.100   4.860  70.581  1.00  0.00    -0.174 A  
HETATM    9  C   UNL     1      -9.759   6.089  70.065  1.00  0.00    -0.165 C  
HETATM   10  O   UNL     1     -10.687   6.634  70.658  1.00  0.00    -0.223 OA 
HETATM   11  C   UNL     1      -9.297   6.718  68.799  1.00  0.00    -0.132 A  
HETATM   12  C   UNL     1      -9.999   7.813  68.251  1.00  0.00    -0.178 A  
HETATM   13  O   UNL     1     -11.138   8.306  68.844  1.00  0.00    -0.424 OA 
HETATM   14  C   UNL     1      -9.581   8.448  67.064  1.00  0.00    -0.248 A  
HETATM   15  H   UNL     1     -11.611   9.043  68.475  1.00  0.00     0.000 HD 
HETATM   16  C   UNL     1      -8.412   7.978  66.419  1.00  0.00    -0.138 A  
HETATM   17  C   UNL     1      -7.745   6.852  66.947  1.00  0.00    -0.099 A  
HETATM   18  C   UNL     1      -7.895   8.644  65.152  1.00  0.00    -0.110 C  
HETATM   19  C   UNL     1      -8.509  10.023  64.883  1.00  0.00    -0.166 C  
HETATM   20  C   UNL     1      -8.172   6.228  68.139  1.00  0.00    -0.115 A  
HETATM   21  O   UNL     1      -6.658   6.337  66.294  1.00  0.00    -0.045 OA 
HETATM   22  O   UNL     1      -6.434   4.603  68.201  1.00  0.00    -0.039 OA 
HETATM   23  C   UNL     1      -7.454   5.057  68.704  1.00  0.00    -0.070 C  
HETATM   24  C   UNL     1     -10.025   9.905  65.047  1.00  0.00    -0.236 C  
HETATM   25  O   UNL     1      -7.915  10.973  65.772  1.00  0.00    -0.303 OA 
HETATM   26  H   UNL     1      -6.209   5.579  66.650  1.00  0.00     0.000 HD 
HETATM   27  C   UNL     1     -10.384   9.627  66.511  1.00  0.00    -0.194 C  
HETATM   28  H   UNL     1      -8.296  11.828  65.605  1.00  0.00     0.000 HD 
BRANCH  19  29
HETATM   29  C   UNL     1      -8.202  10.490  63.450  1.00  0.00    -0.098 C  
HETATM   30  O   UNL     1      -7.148  10.196  62.879  1.00  0.00    -0.125 OA 
HETATM   31  C   UNL     1      -9.290  11.243  62.718  1.00  0.00    -0.362 C  
ENDBRANCH  19  29
BRANCH  27  32
HETATM   32  O   UNL     1     -10.117  10.768  67.346  1.00  0.00    -0.182 OA 
BRANCH  32  33
HETATM   33  C   UNL     1     -11.257  11.391  67.950  1.00  0.00    -0.288 C  
HETATM   34  C   UNL     1     -10.924  12.418  69.032  1.00  0.00    -0.247 C  
HETATM   35  C   UNL     1     -10.267  13.648  68.405  1.00  0.00    -0.245 C  
HETATM   36  N   UNL     1      -9.961  14.647  69.450  1.00  0.00    -0.416 NA 
HETATM   37  C   UNL     1     -11.204  14.232  67.333  1.00  0.00    -0.316 C  
HETATM   38  H1  UNL     1      -9.523  15.468  69.032  1.00  0.00     0.000 HD 
HETATM   39  H2  UNL     1      -9.394  14.252  70.201  1.00  0.00     0.000 HD 
HETATM   40  O   UNL     1     -12.374  14.762  67.977  1.00  0.00    -0.592 OA 
HETATM   41  C   UNL     1     -11.576  13.133  66.317  1.00  0.00    -0.356 C  
HETATM   42  H   UNL     1     -12.952  15.122  67.315  1.00  0.00     0.000 HD 
HETATM   43  C   UNL     1     -12.636  13.619  65.333  1.00  0.00    -0.533 C  
HETATM   44  O   UNL     1     -12.101  11.959  66.948  1.00  0.00    -0.599 OA 
ENDBRANCH  32  33
ENDBRANCH  27  32
ENDBRANCH   2   3
TORSDOF 4
ENDMDL
MODEL       32
REMARK 921   NORMALIZED FREE ENERGY PREDICTED BY IDOCK:   -6.88 KCAL/MOL
REMARK 922        TOTAL FREE ENERGY PREDICTED BY IDOCK:   -9.08 KCAL/MOL
REMARK 923 INTER-LIGAND FREE ENERGY PREDICTED BY IDOCK:   -8.81 KCAL/MOL
REMARK 924 INTRA-LIGAND FREE ENERGY PREDICTED BY IDOCK:   -0.27 KCAL/MOL
REMARK 927      BINDING AFFINITY PREDICTED BY RF-SCORE:    0.00 PKD
ROOT
HETATM    1  C   UNL     1      -8.322   6.501  71.927  1.00  0.00    -0.115 C  
HETATM    2  O   UNL     1      -7.366   7.058  71.028  1.00  0.00    -0.074 OA 
ENDROOT
BRANCH   2   3
HETATM    3  C   UNL     1      -7.380   6.585  69.741  1.00  0.00    -0.079 A  
HETATM    4  C   UNL     1      -6.854   5.323  69.416  1.00  0.00    -0.054 A  
HETATM    5  C   UNL     1      -6.883   4.854  68.107  1.00  0.00    -0.056 A  
HETATM    6  C   UNL     1      -7.436   5.646  67.110  1.00  0.00    -0.084 A  
HETATM    7  C   UNL     1      -7.941   6.920  67.413  1.00  0.00    -0.112 A  
HETATM    8  C   UNL     1      -7.904   7.408  68.719  1.00  0.00    -0.121 A  
HETATM    9  C   UNL     1      -8.421   8.778  68.973  1.00  0.00    -0.130 C  
HETATM   10  O   UNL     1      -8.322   9.324  70.068  1.00  0.00    -0.132 OA 
HETATM   11  C   UNL     1      -9.076   9.550  67.884  1.00  0.00    -0.131 A  
HETATM   12  C   UNL     1      -9.671  10.801  68.157  1.00  0.00    -0.159 A  
HETATM   13  O   UNL     1      -9.696  11.323  69.429  1.00  0.00    -0.414 OA 
HETATM   14  C   UNL     1     -10.283  11.572  67.148  1.00  0.00    -0.233 A  
HETATM   15  H   UNL     1     -10.097  12.164  69.613  1.00  0.00     0.000 HD 
HETATM   16  C   UNL     1     -10.281  11.078  65.822  1.00  0.00    -0.316 A  
HETATM   17  C   UNL     1      -9.727   9.804  65.567  1.00  0.00    -0.312 A  
HETATM   18  C   UNL     1     -10.899  11.880  64.686  1.00  0.00    -0.363 C  
HETATM   19  C   UNL     1     -11.160  13.349  65.036  1.00  0.00    -0.319 C  
HETATM   20  C   UNL     1      -9.113   9.045  66.586  1.00  0.00    -0.196 A  
HETATM   21  O   UNL     1      -9.784   9.278  64.305  1.00  0.00    -0.278 OA 
HETATM   22  O   UNL     1      -8.469   7.231  65.185  1.00  0.00    -0.115 OA 
HETATM   23  C   UNL     1      -8.511   7.715  66.309  1.00  0.00    -0.139 C  
HETATM   24  C   UNL     1     -11.865  13.393  66.393  1.00  0.00    -0.441 C  
HETATM   25  O   UNL     1      -9.915  14.054  65.022  1.00  0.00    -0.567 OA 
HETATM   26  H   UNL     1      -9.411   8.420  64.133  1.00  0.00     0.000 HD 
HETATM   27  C   UNL     1     -10.920  12.917  67.502  1.00  0.00    -0.255 C  
HETATM   28  H   UNL     1     -10.077  14.965  65.239  1.00  0.00     0.000 HD 
BRANCH  19  29
HETATM   29  C   UNL     1     -12.067  14.011  63.986  1.00  0.00    -0.376 C  
HETATM   30  O   UNL     1     -12.615  13.359  63.092  1.00  0.00    -0.710 OA 
HETATM   31  C   UNL     1     -12.355  15.487  64.148  1.00  0.00     0.049 C  
ENDBRANCH  19  29
BRANCH  27  32
HETATM   32  O   UNL     1      -9.856  13.858  67.728  1.00  0.00    -0.226 OA 
BRANCH  32  33
HETATM   33  C   UNL     1      -9.680  14.303  69.079  1.00  0.00    -0.033 C  
HETATM   34  C   UNL     1      -9.446  15.806  69.230  1.00  0.00    -0.270 C  
HETATM   35  C   UNL     1     -10.719  16.575  68.874  1.00  0.00    -0.337 C  
HETATM   36  N   UNL     1     -10.497  18.027  69.037  1.00  0.00    -0.414 NA 
HETATM   37  C   UNL     1     -11.874  16.084  69.766  1.00  0.00    -0.227 C  
HETATM   38  H1  UNL     1     -11.346  18.540  68.801  1.00  0.00     0.000 HD 
HETATM   39  H2  UNL     1      -9.692  18.352  68.501  1.00  0.00     0.000 HD 
HETATM   40  O   UNL     1     -11.609  16.472  71.124  1.00  0.00    -0.612 OA 
HETATM   41  C   UNL     1     -12.009  14.553  69.641  1.00  0.00    -0.328 C  
HETATM   42  H   UNL     1     -12.322  16.169  71.675  1.00  0.00     0.000 HD 
HETATM   43  C   UNL     1     -13.028  14.000  70.633  1.00  0.00    -0.261 C  
HETATM   44  O   UNL     1     -10.774  13.871  69.889  1.00  0.00     0.130 OA 
ENDBRANCH  32  33
ENDBRANCH  27  32
ENDBRANCH   2   3
TORSDOF 4
ENDMDL
MODEL       33
REMARK 921   NORMALIZED FREE ENERGY PREDICTED BY IDOCK:   -6.84 KCAL/MOL
REMARK 922        TOTAL FREE ENERGY PREDICTED BY IDOCK:   -9.04 KCAL/MOL
REMARK 923 INTER-LIGAND FREE ENERGY PREDICTED BY IDOCK:  -10.08 KCAL/MOL
REMARK 924 INTRA-LIGAND FREE ENERGY PREDICTED BY IDOCK:    1.05 KCAL/MOL
REMARK 927      BINDING AFFINITY PREDICTED BY RF-SCORE:    0.00 PKD
ROOT
HETATM    1  C   UNL     1      -9.460   4.917  70.162  1.00  0.00    -0.172 C  
HETATM    2  O   UNL     1      -9.763   6.285  69.902  1.00  0.00    -0.163 OA 
ENDROOT
BRANCH   2   3
HETATM    3  C   UNL     1     -10.743   6.858  70.672  1.00  0.00    -0.236 A  
HETATM    4  C   UNL     1     -11.533   6.092  71.546  1.00  0.00    -0.325 A  
HETATM    5  C   UNL     1     -12.518   6.690  72.326  1.00  0.00    -0.103 A  
HETATM    6  C   UNL     1     -12.723   8.059  72.235  1.00  0.00    -0.242 A  
HETATM    7  C   UNL     1     -11.960   8.835  71.348  1.00  0.00    -0.367 A  
HETATM    8  C   UNL     1     -10.981   8.245  70.549  1.00  0.00    -0.253 A  
HETATM    9  C   UNL     1     -10.230   9.112  69.603  1.00  0.00    -0.203 C  
HETATM   10  O   UNL     1      -9.434   8.655  68.787  1.00  0.00    -0.142 OA 
HETATM   11  C   UNL     1     -10.433  10.584  69.606  1.00  0.00    -0.257 A  
HETATM   12  C   UNL     1      -9.635  11.414  68.790  1.00  0.00    -0.129 A  
HETATM   13  O   UNL     1      -8.631  10.899  68.004  1.00  0.00    -0.124 OA 
HETATM   14  C   UNL     1      -9.811  12.813  68.750  1.00  0.00     0.020 A  
HETATM   15  H   UNL     1      -8.093  11.458  67.455  1.00  0.00     0.000 HD 
HETATM   16  C   UNL     1     -10.833  13.390  69.540  1.00  0.00     0.084 A  
HETATM   17  C   UNL     1     -11.594  12.558  70.389  1.00  0.00     0.168 A  
HETATM   18  C   UNL     1     -11.090  14.890  69.513  1.00  0.00    -0.301 C  
HETATM   19  C   UNL     1     -10.431  15.611  68.332  1.00  0.00    -0.242 C  
HETATM   20  C   UNL     1     -11.410  11.159  70.416  1.00  0.00    -0.147 A  
HETATM   21  O   UNL     1     -12.535  13.109  71.216  1.00  0.00    -0.332 OA 
HETATM   22  O   UNL     1     -13.133  10.717  71.999  1.00  0.00    -0.481 OA 
HETATM   23  C   UNL     1     -12.229  10.284  71.294  1.00  0.00    -0.395 C  
HETATM   24  C   UNL     1      -8.977  15.145  68.247  1.00  0.00    -0.175 C  
HETATM   25  O   UNL     1     -11.183  15.336  67.147  1.00  0.00    -0.334 OA 
HETATM   26  H   UNL     1     -13.048  12.549  71.788  1.00  0.00     0.000 HD 
HETATM   27  C   UNL     1      -8.911  13.665  67.854  1.00  0.00    -0.188 C  
HETATM   28  H   UNL     1     -10.775  15.783  66.415  1.00  0.00     0.000 HD 
BRANCH  19  29
HETATM   29  C   UNL     1     -10.451  17.134  68.538  1.00  0.00    -0.377 C  
HETATM   30  O   UNL     1     -10.476  17.641  69.663  1.00  0.00    -0.074 OA 
HETATM   31  C   UNL     1     -10.331  18.003  67.306  1.00  0.00    -0.387 C  
ENDBRANCH  19  29
BRANCH  27  32
HETATM   32  O   UNL     1      -9.332  13.463  66.492  1.00  0.00    -0.256 OA 
BRANCH  32  33
HETATM   33  C   UNL     1     -10.471  12.616  66.301  1.00  0.00    -0.251 C  
HETATM   34  C   UNL     1     -11.701  13.321  65.731  1.00  0.00    -0.395 C  
HETATM   35  C   UNL     1     -11.446  13.731  64.279  1.00  0.00    -0.340 C  
HETATM   36  N   UNL     1     -12.642  14.397  63.723  1.00  0.00    -0.973 NA 
HETATM   37  C   UNL     1     -11.070  12.484  63.459  1.00  0.00    -0.439 C  
HETATM   38  H1  UNL     1     -12.472  14.670  62.755  1.00  0.00     0.000 HD 
HETATM   39  H2  UNL     1     -12.940  15.186  64.296  1.00  0.00     0.000 HD 
HETATM   40  O   UNL     1     -12.216  11.621  63.373  1.00  0.00    -0.747 OA 
HETATM   41  C   UNL     1      -9.880  11.765  64.127  1.00  0.00    -0.223 C  
HETATM   42  H   UNL     1     -11.983  10.851  62.867  1.00  0.00     0.000 HD 
HETATM   43  C   UNL     1      -9.580  10.433  63.446  1.00  0.00    -0.361 C  
HETATM   44  O   UNL     1     -10.118  11.480  65.511  1.00  0.00    -0.223 OA 
ENDBRANCH  32  33
ENDBRANCH  27  32
ENDBRANCH   2   3
TORSDOF 4
ENDMDL
MODEL       34
REMARK 921   NORMALIZED FREE ENERGY PREDICTED BY IDOCK:   -6.82 KCAL/MOL
REMARK 922        TOTAL FREE ENERGY PREDICTED BY IDOCK:   -9.01 KCAL/MOL
REMARK 923 INTER-LIGAND FREE ENERGY PREDICTED BY IDOCK:   -7.83 KCAL/MOL
REMARK 924 INTRA-LIGAND FREE ENERGY PREDICTED BY IDOCK:   -1.18 KCAL/MOL
REMARK 927      BINDING AFFINITY PREDICTED BY RF-SCORE:    0.00 PKD
ROOT
HETATM    1  C   UNL     1     -10.581  19.598  66.407  1.00  0.00    -0.486 C  
HETATM    2  O   UNL     1      -9.366  18.938  66.060  1.00  0.00    -0.467 OA 
ENDROOT
BRANCH   2   3
HETATM    3  C   UNL     1      -8.351  18.988  66.981  1.00  0.00    -0.276 A  
HETATM    4  C   UNL     1      -7.770  20.206  67.370  1.00  0.00    -0.341 A  
HETATM    5  C   UNL     1      -6.747  20.240  68.313  1.00  0.00    -0.331 A  
HETATM    6  C   UNL     1      -6.295  19.053  68.872  1.00  0.00    -0.282 A  
HETATM    7  C   UNL     1      -6.847  17.824  68.475  1.00  0.00    -0.233 A  
HETATM    8  C   UNL     1      -7.862  17.777  67.520  1.00  0.00    -0.214 A  
HETATM    9  C   UNL     1      -8.382  16.445  67.114  1.00  0.00    -0.187 C  
HETATM   10  O   UNL     1      -9.193  16.308  66.201  1.00  0.00    -0.297 OA 
HETATM   11  C   UNL     1      -7.920  15.212  67.804  1.00  0.00    -0.155 A  
HETATM   12  C   UNL     1      -8.503  13.964  67.498  1.00  0.00    -0.196 A  
HETATM   13  O   UNL     1      -9.529  13.853  66.589  1.00  0.00    -0.270 OA 
HETATM   14  C   UNL     1      -8.077  12.770  68.116  1.00  0.00    -0.158 A  
HETATM   15  H   UNL     1      -9.921  13.012  66.383  1.00  0.00     0.000 HD 
HETATM   16  C   UNL     1      -7.022  12.833  69.057  1.00  0.00    -0.059 A  
HETATM   17  C   UNL     1      -6.479  14.091  69.393  1.00  0.00    -0.118 A  
HETATM   18  C   UNL     1      -6.500  11.573  69.733  1.00  0.00    -0.125 C  
HETATM   19  C   UNL     1      -6.941  10.275  69.048  1.00  0.00    -0.064 C  
HETATM   20  C   UNL     1      -6.911  15.278  68.763  1.00  0.00    -0.111 A  
HETATM   21  O   UNL     1      -5.511  14.179  70.357  1.00  0.00    -0.102 OA 
HETATM   22  O   UNL     1      -5.402  16.724  69.904  1.00  0.00    -0.160 OA 
HETATM   23  C   UNL     1      -6.321  16.598  69.103  1.00  0.00    -0.196 C  
HETATM   24  C   UNL     1      -8.447  10.364  68.794  1.00  0.00    -0.132 C  
HETATM   25  O   UNL     1      -6.174  10.100  67.853  1.00  0.00    -0.056 OA 
HETATM   26  H   UNL     1      -5.145  15.027  70.583  1.00  0.00     0.000 HD 
HETATM   27  C   UNL     1      -8.750  11.445  67.752  1.00  0.00    -0.136 C  
HETATM   28  H   UNL     1      -6.448   9.295  67.429  1.00  0.00     0.000 HD 
BRANCH  19  29
HETATM   29  C   UNL     1      -6.663   9.058  69.947  1.00  0.00    -0.046 C  
HETATM   30  O   UNL     1      -5.659   8.355  69.801  1.00  0.00    -0.029 OA 
HETATM   31  C   UNL     1      -7.616   8.809  71.093  1.00  0.00    -0.134 C  
ENDBRANCH  19  29
BRANCH  27  32
HETATM   32  O   UNL     1      -8.284  11.063  66.444  1.00  0.00    -0.158 OA 
BRANCH  32  33
HETATM   33  C   UNL     1      -8.874   9.885  65.881  1.00  0.00    -0.148 C  
HETATM   34  C   UNL     1      -9.900  10.149  64.780  1.00  0.00    -0.382 C  
HETATM   35  C   UNL     1      -9.205  10.702  63.535  1.00  0.00    -0.262 C  
HETATM   36  N   UNL     1     -10.195  10.941  62.465  1.00  0.00    -0.700 NA 
HETATM   37  C   UNL     1      -8.118   9.712  63.079  1.00  0.00    -0.143 C  
HETATM   38  H1  UNL     1      -9.732  11.310  61.635  1.00  0.00     0.000 HD 
HETATM   39  H2  UNL     1     -10.956  11.545  62.778  1.00  0.00     0.000 HD 
HETATM   40  O   UNL     1      -8.752   8.511  62.610  1.00  0.00    -0.407 OA 
HETATM   41  C   UNL     1      -7.163   9.415  64.253  1.00  0.00    -0.105 C  
HETATM   42  H   UNL     1      -8.082   7.900  62.328  1.00  0.00     0.000 HD 
HETATM   43  C   UNL     1      -6.171   8.311  63.898  1.00  0.00    -0.067 C  
HETATM   44  O   UNL     1      -7.857   8.989  65.431  1.00  0.00    -0.096 OA 
ENDBRANCH  32  33
ENDBRANCH  27  32
ENDBRANCH   2   3
TORSDOF 4
ENDMDL
MODEL       35
REMARK 921   NORMALIZED FREE ENERGY PREDICTED BY IDOCK:   -6.81 KCAL/MOL
REMARK 922        TOTAL FREE ENERGY PREDICTED BY IDOCK:   -9.00 KCAL/MOL
REMARK 923 INTER-LIGAND FREE ENERGY PREDICTED BY IDOCK:   -8.02 KCAL/MOL
REMARK 924 INTRA-LIGAND FREE ENERGY PREDICTED BY IDOCK:   -0.98 KCAL/MOL
REMARK 927      BINDING AFFINITY PREDICTED BY RF-SCORE:    0.00 PKD
ROOT
HETATM    1  C   UNL     1      -8.443   2.800  65.372  1.00  0.00    -0.099 C  
HETATM    2  O   UNL     1      -9.566   3.338  66.065  1.00  0.00    -0.122 OA 
ENDROOT
BRANCH   2   3
HETATM    3  C   UNL     1      -9.418   3.550  67.412  1.00  0.00    -0.190 A  
HETATM    4  C   UNL     1      -9.472   2.491  68.334  1.00  0.00    -0.217 A  
HETATM    5  C   UNL     1      -9.311   2.723  69.696  1.00  0.00    -0.198 A  
HETATM    6  C   UNL     1      -9.097   4.017  70.148  1.00  0.00    -0.186 A  
HETATM    7  C   UNL     1      -9.066   5.090  69.243  1.00  0.00    -0.142 A  
HETATM    8  C   UNL     1      -9.242   4.872  67.877  1.00  0.00    -0.142 A  
HETATM    9  C   UNL     1      -9.235   6.052  66.971  1.00  0.00    -0.121 C  
HETATM   10  O   UNL     1      -9.494   5.961  65.774  1.00  0.00    -0.076 OA 
HETATM   11  C   UNL     1      -8.920   7.406  67.499  1.00  0.00    -0.126 A  
HETATM   12  C   UNL     1      -8.797   8.502  66.618  1.00  0.00    -0.135 A  
HETATM   13  O   UNL     1      -8.928   8.349  65.257  1.00  0.00    -0.366 OA 
HETATM   14  C   UNL     1      -8.520   9.804  67.082  1.00  0.00    -0.125 A  
HETATM   15  H   UNL     1      -8.845   9.087  64.664  1.00  0.00     0.000 HD 
HETATM   16  C   UNL     1      -8.380  10.012  68.474  1.00  0.00    -0.113 A  
HETATM   17  C   UNL     1      -8.456   8.902  69.343  1.00  0.00    -0.124 A  
HETATM   18  C   UNL     1      -8.112  11.401  69.036  1.00  0.00    -0.005 C  
HETATM   19  C   UNL     1      -8.377  12.534  68.038  1.00  0.00    -0.171 C  
HETATM   20  C   UNL     1      -8.738   7.604  68.866  1.00  0.00    -0.135 A  
HETATM   21  O   UNL     1      -8.247   9.073  70.685  1.00  0.00    -0.144 OA 
HETATM   22  O   UNL     1      -8.735   6.552  71.001  1.00  0.00    -0.137 OA 
HETATM   23  C   UNL     1      -8.840   6.442  69.786  1.00  0.00    -0.142 C  
HETATM   24  C   UNL     1      -7.701  12.166  66.716  1.00  0.00     0.027 C  
HETATM   25  O   UNL     1      -9.790  12.720  67.918  1.00  0.00    -0.209 OA 
HETATM   26  H   UNL     1      -8.298   8.325  71.270  1.00  0.00     0.000 HD 
HETATM   27  C   UNL     1      -8.390  10.954  66.081  1.00  0.00    -0.168 C  
HETATM   28  H   UNL     1      -9.954  13.423  67.299  1.00  0.00     0.000 HD 
BRANCH  19  29
HETATM   29  C   UNL     1      -7.786  13.861  68.543  1.00  0.00    -0.139 C  
HETATM   30  O   UNL     1      -6.657  13.925  69.038  1.00  0.00    -0.096 OA 
HETATM   31  C   UNL     1      -8.600  15.114  68.316  1.00  0.00    -0.164 C  
ENDBRANCH  19  29
BRANCH  27  32
HETATM   32  O   UNL     1      -9.712  11.282  65.618  1.00  0.00    -0.212 OA 
BRANCH  32  33
HETATM   33  C   UNL     1      -9.788  12.188  64.510  1.00  0.00    -0.125 C  
HETATM   34  C   UNL     1     -10.765  11.770  63.411  1.00  0.00    -0.468 C  
HETATM   35  C   UNL     1     -12.204  11.872  63.919  1.00  0.00    -0.392 C  
HETATM   36  N   UNL     1     -13.147  11.485  62.850  1.00  0.00    -0.650 NA 
HETATM   37  C   UNL     1     -12.469  13.309  64.405  1.00  0.00    -0.290 C  
HETATM   38  H1  UNL     1     -14.107  11.553  63.189  1.00  0.00     0.000 HD 
HETATM   39  H2  UNL     1     -12.940  10.559  62.475  1.00  0.00     0.000 HD 
HETATM   40  O   UNL     1     -12.444  14.194  63.273  1.00  0.00    -1.146 OA 
HETATM   41  C   UNL     1     -11.405  13.708  65.447  1.00  0.00    -0.301 C  
HETATM   42  H   UNL     1     -12.608  15.080  63.573  1.00  0.00     0.000 HD 
HETATM   43  C   UNL     1     -11.526  15.179  65.832  1.00  0.00    -0.159 C  
HETATM   44  O   UNL     1     -10.069  13.510  64.970  1.00  0.00    -0.316 OA 
ENDBRANCH  32  33
ENDBRANCH  27  32
ENDBRANCH   2   3
TORSDOF 4
ENDMDL
MODEL       36
REMARK 921   NORMALIZED FREE ENERGY PREDICTED BY IDOCK:   -6.80 KCAL/MOL
REMARK 922        TOTAL FREE ENERGY PREDICTED BY IDOCK:   -8.98 KCAL/MOL
REMARK 923 INTER-LIGAND FREE ENERGY PREDICTED BY IDOCK:  -10.59 KCAL/MOL
REMARK 924 INTRA-LIGAND FREE ENERGY PREDICTED BY IDOCK:    1.61 KCAL/MOL
REMARK 927      BINDING AFFINITY PREDICTED BY RF-SCORE:    0.00 PKD
ROOT
HETATM    1  C   UNL     1      -7.042   5.007  66.244  1.00  0.00    -0.072 C  
HETATM    2  O   UNL     1      -7.147   5.856  67.385  1.00  0.00    -0.071 OA 
ENDROOT
BRANCH   2   3
HETATM    3  C   UNL     1      -8.226   5.655  68.207  1.00  0.00    -0.103 A  
HETATM    4  C   UNL     1      -8.568   4.374  68.672  1.00  0.00    -0.108 A  
HETATM    5  C   UNL     1      -9.661   4.189  69.512  1.00  0.00    -0.274 A  
HETATM    6  C   UNL     1     -10.423   5.284  69.892  1.00  0.00    -0.351 A  
HETATM    7  C   UNL     1     -10.111   6.567  69.416  1.00  0.00    -0.198 A  
HETATM    8  C   UNL     1      -9.027   6.763  68.561  1.00  0.00    -0.121 A  
HETATM    9  C   UNL     1      -8.768   8.139  68.060  1.00  0.00    -0.128 C  
HETATM   10  O   UNL     1      -7.906   8.379  67.218  1.00  0.00    -0.096 OA 
HETATM   11  C   UNL     1      -9.566   9.288  68.564  1.00  0.00    -0.155 A  
HETATM   12  C   UNL     1      -9.239  10.605  68.178  1.00  0.00    -0.148 A  
HETATM   13  O   UNL     1      -8.163  10.870  67.362  1.00  0.00    -0.115 OA 
HETATM   14  C   UNL     1      -9.984  11.719  68.618  1.00  0.00    -0.181 A  
HETATM   15  H   UNL     1      -7.943  11.757  67.102  1.00  0.00     0.000 HD 
HETATM   16  C   UNL     1     -11.101  11.497  69.457  1.00  0.00    -0.256 A  
HETATM   17  C   UNL     1     -11.391  10.181  69.878  1.00  0.00    -0.275 A  
HETATM   18  C   UNL     1     -11.962  12.657  69.938  1.00  0.00    -0.365 C  
HETATM   19  C   UNL     1     -11.739  13.958  69.159  1.00  0.00    -0.338 C  
HETATM   20  C   UNL     1     -10.640   9.076  69.426  1.00  0.00    -0.231 A  
HETATM   21  O   UNL     1     -12.422   9.957  70.750  1.00  0.00    -0.367 OA 
HETATM   22  O   UNL     1     -11.918   7.426  70.572  1.00  0.00    -0.223 OA 
HETATM   23  C   UNL     1     -10.962   7.690  69.853  1.00  0.00    -0.200 C  
HETATM   24  C   UNL     1     -10.231  14.195  69.057  1.00  0.00    -0.130 C  
HETATM   25  O   UNL     1     -12.381  13.848  67.885  1.00  0.00    -0.476 OA 
HETATM   26  H   UNL     1     -12.617   9.071  71.033  1.00  0.00     0.000 HD 
HETATM   27  C   UNL     1      -9.580  13.126  68.174  1.00  0.00    -0.227 C  
HETATM   28  H   UNL     1     -12.243  14.654  67.402  1.00  0.00     0.000 HD 
BRANCH  19  29
HETATM   29  C   UNL     1     -12.379  15.151  69.887  1.00  0.00    -0.276 C  
HETATM   30  O   UNL     1     -12.239  16.311  69.488  1.00  0.00    -0.028 OA 
HETATM   31  C   UNL     1     -13.281  14.845  71.061  1.00  0.00    -0.456 C  
ENDBRANCH  19  29
BRANCH  27  32
HETATM   32  O   UNL     1      -9.963  13.276  66.795  1.00  0.00    -0.250 OA 
BRANCH  32  33
HETATM   33  C   UNL     1     -10.990  12.396  66.324  1.00  0.00    -0.286 C  
HETATM   34  C   UNL     1     -12.049  13.063  65.446  1.00  0.00    -0.490 C  
HETATM   35  C   UNL     1     -11.437  13.476  64.107  1.00  0.00    -0.360 C  
HETATM   36  N   UNL     1     -12.465  14.106  63.253  1.00  0.00    -1.098 NA 
HETATM   37  C   UNL     1     -10.827  12.238  63.425  1.00  0.00    -0.403 C  
HETATM   38  H1  UNL     1     -12.058  14.381  62.359  1.00  0.00     0.000 HD 
HETATM   39  H2  UNL     1     -12.923  14.888  63.721  1.00  0.00     0.000 HD 
HETATM   40  O   UNL     1     -11.887  11.342  63.054  1.00  0.00    -0.903 OA 
HETATM   41  C   UNL     1      -9.832  11.556  64.386  1.00  0.00    -0.241 C  
HETATM   42  H   UNL     1     -11.511  10.578  62.633  1.00  0.00     0.000 HD 
HETATM   43  C   UNL     1      -9.330  10.231  63.820  1.00  0.00    -0.339 C  
HETATM   44  O   UNL     1     -10.413  11.269  65.664  1.00  0.00    -0.253 OA 
ENDBRANCH  32  33
ENDBRANCH  27  32
ENDBRANCH   2   3
TORSDOF 4
ENDMDL
MODEL       37
REMARK 921   NORMALIZED FREE ENERGY PREDICTED BY IDOCK:   -6.76 KCAL/MOL
REMARK 922        TOTAL FREE ENERGY PREDICTED BY IDOCK:   -8.94 KCAL/MOL
REMARK 923 INTER-LIGAND FREE ENERGY PREDICTED BY IDOCK:   -8.05 KCAL/MOL
REMARK 924 INTRA-LIGAND FREE ENERGY PREDICTED BY IDOCK:   -0.88 KCAL/MOL
REMARK 927      BINDING AFFINITY PREDICTED BY RF-SCORE:    0.00 PKD
ROOT
HETATM    1  C   UNL     1      -7.373   2.682  65.957  1.00  0.00    -0.067 C  
HETATM    2  O   UNL     1      -8.338   3.539  65.352  1.00  0.00    -0.097 OA 
ENDROOT
BRANCH   2   3
HETATM    3  C   UNL     1      -7.869   4.448  64.439  1.00  0.00    -0.086 A  
HETATM    4  C   UNL     1      -7.134   4.046  63.311  1.00  0.00    -0.045 A  
HETATM    5  C   UNL     1      -6.673   4.981  62.390  1.00  0.00    -0.026 A  
HETATM    6  C   UNL     1      -6.942   6.327  62.590  1.00  0.00    -0.042 A  
HETATM    7  C   UNL     1      -7.653   6.749  63.725  1.00  0.00    -0.104 A  
HETATM    8  C   UNL     1      -8.107   5.822  64.664  1.00  0.00    -0.132 A  
HETATM    9  C   UNL     1      -8.822   6.332  65.864  1.00  0.00    -0.139 C  
HETATM   10  O   UNL     1      -9.154   5.597  66.791  1.00  0.00    -0.117 OA 
HETATM   11  C   UNL     1      -9.154   7.775  65.988  1.00  0.00    -0.169 A  
HETATM   12  C   UNL     1      -9.936   8.236  67.068  1.00  0.00    -0.255 A  
HETATM   13  O   UNL     1     -10.441   7.370  68.011  1.00  0.00    -0.198 OA 
HETATM   14  C   UNL     1     -10.255   9.599  67.231  1.00  0.00    -0.292 A  
HETATM   15  H   UNL     1     -10.967   7.680  68.739  1.00  0.00     0.000 HD 
HETATM   16  C   UNL     1      -9.757  10.529  66.289  1.00  0.00    -0.254 A  
HETATM   17  C   UNL     1      -9.017  10.054  65.184  1.00  0.00    -0.192 A  
HETATM   18  C   UNL     1     -10.041  12.017  66.430  1.00  0.00    -0.242 C  
HETATM   19  C   UNL     1     -10.560  12.419  67.815  1.00  0.00    -0.217 C  
HETATM   20  C   UNL     1      -8.701   8.687  65.036  1.00  0.00    -0.154 A  
HETATM   21  O   UNL     1      -8.592  10.930  64.222  1.00  0.00    -0.350 OA 
HETATM   22  O   UNL     1      -7.436   8.943  63.035  1.00  0.00    -0.097 OA 
HETATM   23  C   UNL     1      -7.903   8.193  63.884  1.00  0.00    -0.147 C  
HETATM   24  C   UNL     1     -11.678  11.449  68.200  1.00  0.00    -0.355 C  
HETATM   25  O   UNL     1      -9.465  12.415  68.736  1.00  0.00    -0.398 OA 
HETATM   26  H   UNL     1      -8.094  10.610  63.479  1.00  0.00     0.000 HD 
HETATM   27  C   UNL     1     -11.114  10.041  68.418  1.00  0.00    -0.182 C  
HETATM   28  H   UNL     1      -9.787  12.665  69.595  1.00  0.00     0.000 HD 
BRANCH  19  29
HETATM   29  C   UNL     1     -11.130  13.847  67.796  1.00  0.00    -0.262 C  
HETATM   30  O   UNL     1     -10.815  14.687  68.644  1.00  0.00    -0.240 OA 
HETATM   31  C   UNL     1     -12.018  14.225  66.632  1.00  0.00    -0.454 C  
ENDBRANCH  19  29
BRANCH  27  32
HETATM   32  O   UNL     1     -10.293   9.979  69.599  1.00  0.00    -0.215 OA 
BRANCH  32  33
HETATM   33  C   UNL     1     -10.979  10.082  70.853  1.00  0.00    -0.267 C  
HETATM   34  C   UNL     1     -12.321   9.354  70.906  1.00  0.00    -0.263 C  
HETATM   35  C   UNL     1     -12.102   7.842  70.862  1.00  0.00    -0.179 C  
HETATM   36  N   UNL     1     -13.400   7.139  70.932  1.00  0.00    -0.523 NA 
HETATM   37  C   UNL     1     -11.182   7.429  72.025  1.00  0.00    -0.251 C  
HETATM   38  H1  UNL     1     -13.254   6.130  70.903  1.00  0.00     0.000 HD 
HETATM   39  H2  UNL     1     -14.043   7.452  70.204  1.00  0.00     0.000 HD 
HETATM   40  O   UNL     1     -11.877   7.637  73.265  1.00  0.00    -0.631 OA 
HETATM   41  C   UNL     1      -9.880   8.254  71.972  1.00  0.00    -0.257 C  
HETATM   42  H   UNL     1     -11.309   7.382  73.982  1.00  0.00     0.000 HD 
HETATM   43  C   UNL     1      -9.010   8.002  73.200  1.00  0.00    -0.333 C  
HETATM   44  O   UNL     1     -10.126   9.665  71.919  1.00  0.00     0.178 OA 
ENDBRANCH  32  33
ENDBRANCH  27  32
ENDBRANCH   2   3
TORSDOF 4
ENDMDL
MODEL       38
REMARK 921   NORMALIZED FREE ENERGY PREDICTED BY IDOCK:   -6.74 KCAL/MOL
REMARK 922        TOTAL FREE ENERGY PREDICTED BY IDOCK:   -8.91 KCAL/MOL
REMARK 923 INTER-LIGAND FREE ENERGY PREDICTED BY IDOCK:   -7.94 KCAL/MOL
REMARK 924 INTRA-LIGAND FREE ENERGY PREDICTED BY IDOCK:   -0.97 KCAL/MOL
REMARK 927      BINDING AFFINITY PREDICTED BY RF-SCORE:    0.00 PKD
ROOT
HETATM    1  C   UNL     1      -6.861  17.220  66.090  1.00  0.00    -0.192 C  
HETATM    2  O   UNL     1      -8.152  16.620  66.021  1.00  0.00    -0.356 OA 
ENDROOT
BRANCH   2   3
HETATM    3  C   UNL     1      -9.084  17.055  66.928  1.00  0.00    -0.236 A  
HETATM    4  C   UNL     1      -9.390  18.418  67.073  1.00  0.00    -0.281 A  
HETATM    5  C   UNL     1     -10.345  18.842  67.992  1.00  0.00    -0.442 A  
HETATM    6  C   UNL     1     -10.998  17.904  68.778  1.00  0.00     0.468 A  
HETATM    7  C   UNL     1     -10.685  16.540  68.666  1.00  0.00    -0.334 A  
HETATM    8  C   UNL     1      -9.719  16.105  67.759  1.00  0.00    -0.229 A  
HETATM    9  C   UNL     1      -9.405  14.652  67.710  1.00  0.00    -0.197 C  
HETATM   10  O   UNL     1      -8.492  14.202  67.023  1.00  0.00    -0.208 OA 
HETATM   11  C   UNL     1     -10.193  13.683  68.516  1.00  0.00    -0.234 A  
HETATM   12  C   UNL     1      -9.971  12.296  68.377  1.00  0.00    -0.209 A  
HETATM   13  O   UNL     1      -9.056  11.801  67.478  1.00  0.00    -0.167 OA 
HETATM   14  C   UNL     1     -10.683  11.347  69.139  1.00  0.00    -0.229 A  
HETATM   15  H   UNL     1      -8.906  10.867  67.385  1.00  0.00     0.000 HD 
HETATM   16  C   UNL     1     -11.634  11.808  70.080  1.00  0.00    -0.318 A  
HETATM   17  C   UNL     1     -11.884  13.194  70.176  1.00  0.00    -0.257 A  
HETATM   18  C   UNL     1     -12.410  10.832  70.952  1.00  0.00    -0.497 C  
HETATM   19  C   UNL     1     -11.817   9.419  70.978  1.00  0.00    -0.322 C  
HETATM   20  C   UNL     1     -11.161  14.133  69.411  1.00  0.00    -0.261 A  
HETATM   21  O   UNL     1     -12.854  13.652  71.026  1.00  0.00    -0.323 OA 
HETATM   22  O   UNL     1     -12.215  16.060  70.330  1.00  0.00    -0.296 OA 
HETATM   23  C   UNL     1     -11.411  15.593  69.533  1.00  0.00    -0.344 C  
HETATM   24  C   UNL     1     -11.532   9.000  69.535  1.00  0.00     0.291 C  
HETATM   25  O   UNL     1     -10.652   9.424  71.807  1.00  0.00    -0.309 OA 
HETATM   26  H   UNL     1     -13.023  14.586  71.091  1.00  0.00     0.000 HD 
HETATM   27  C   UNL     1     -10.407   9.855  68.942  1.00  0.00    -0.205 C  
HETATM   28  H   UNL     1     -10.284   8.547  71.823  1.00  0.00     0.000 HD 
BRANCH  19  29
HETATM   29  C   UNL     1     -12.808   8.418  71.596  1.00  0.00    -0.334 C  
HETATM   30  O   UNL     1     -12.603   7.201  71.579  1.00  0.00    -0.354 OA 
HETATM   31  C   UNL     1     -14.005   8.986  72.325  1.00  0.00    -0.522 C  
ENDBRANCH  19  29
BRANCH  27  32
HETATM   32  O   UNL     1      -9.140   9.560  69.557  1.00  0.00    -0.160 OA 
BRANCH  32  33
HETATM   33  C   UNL     1      -8.355   8.538  68.930  1.00  0.00    -0.118 C  
HETATM   34  C   UNL     1      -6.892   8.498  69.370  1.00  0.00    -0.046 C  
HETATM   35  C   UNL     1      -6.792   8.037  70.824  1.00  0.00    -0.037 C  
HETATM   36  N   UNL     1      -5.376   7.983  71.243  1.00  0.00    -0.033 NA 
HETATM   37  C   UNL     1      -7.469   6.662  70.968  1.00  0.00    -0.084 C  
HETATM   38  H1  UNL     1      -5.309   7.675  72.213  1.00  0.00     0.000 HD 
HETATM   39  H2  UNL     1      -4.899   8.871  71.091  1.00  0.00     0.000 HD 
HETATM   40  O   UNL     1      -6.698   5.687  70.247  1.00  0.00    -0.044 OA 
HETATM   41  C   UNL     1      -8.913   6.738  70.431  1.00  0.00    -0.152 C  
HETATM   42  H   UNL     1      -7.116   4.838  70.335  1.00  0.00     0.000 HD 
HETATM   43  C   UNL     1      -9.567   5.360  70.395  1.00  0.00    -0.233 C  
HETATM   44  O   UNL     1      -8.975   7.263  69.099  1.00  0.00    -0.136 OA 
ENDBRANCH  32  33
ENDBRANCH  27  32
ENDBRANCH   2   3
TORSDOF 4
ENDMDL
MODEL       39
REMARK 921   NORMALIZED FREE ENERGY PREDICTED BY IDOCK:   -6.72 KCAL/MOL
REMARK 922        TOTAL FREE ENERGY PREDICTED BY IDOCK:   -8.89 KCAL/MOL
REMARK 923 INTER-LIGAND FREE ENERGY PREDICTED BY IDOCK:   -9.06 KCAL/MOL
REMARK 924 INTRA-LIGAND FREE ENERGY PREDICTED BY IDOCK:    0.18 KCAL/MOL
REMARK 927      BINDING AFFINITY PREDICTED BY RF-SCORE:    0.00 PKD
ROOT
HETATM    1  C   UNL     1      -9.501  11.416  62.734  1.00  0.00    -0.281 C  
HETATM    2  O   UNL     1     -10.816  11.173  63.226  1.00  0.00    -0.283 OA 
ENDROOT
BRANCH   2   3
HETATM    3  C   UNL     1     -11.299  12.055  64.159  1.00  0.00    -0.382 A  
HETATM    4  C   UNL     1     -11.885  13.275  63.784  1.00  0.00    -0.522 A  
HETATM    5  C   UNL     1     -12.377  14.155  64.742  1.00  0.00    -0.436 A  
HETATM    6  C   UNL     1     -12.284  13.821  66.086  1.00  0.00    -0.499 A  
HETATM    7  C   UNL     1     -11.678  12.618  66.480  1.00  0.00    -0.463 A  
HETATM    8  C   UNL     1     -11.167  11.735  65.529  1.00  0.00    -0.316 A  
HETATM    9  C   UNL     1     -10.504  10.494  66.008  1.00  0.00    -0.156 C  
HETATM   10  O   UNL     1      -9.930   9.721  65.245  1.00  0.00    -0.318 OA 
HETATM   11  C   UNL     1     -10.505  10.147  67.453  1.00  0.00    -0.310 A  
HETATM   12  C   UNL     1      -9.981   8.912  67.890  1.00  0.00    -0.179 A  
HETATM   13  O   UNL     1      -9.490   7.984  67.001  1.00  0.00    -0.153 OA 
HETATM   14  C   UNL     1      -9.946   8.557  69.254  1.00  0.00    -0.195 A  
HETATM   15  H   UNL     1      -9.138   7.153  67.294  1.00  0.00     0.000 HD 
HETATM   16  C   UNL     1     -10.436   9.479  70.208  1.00  0.00    -0.319 A  
HETATM   17  C   UNL     1     -11.004  10.691  69.758  1.00  0.00    -0.280 A  
HETATM   18  C   UNL     1     -10.395   9.164  71.696  1.00  0.00    -0.388 C  
HETATM   19  C   UNL     1      -9.476   7.991  72.055  1.00  0.00    -0.197 C  
HETATM   20  C   UNL     1     -11.028  11.036  68.390  1.00  0.00    -0.281 A  
HETATM   21  O   UNL     1     -11.552  11.562  70.661  1.00  0.00    -0.448 OA 
HETATM   22  O   UNL     1     -12.042  13.169  68.694  1.00  0.00    -0.315 OA 
HETATM   23  C   UNL     1     -11.606  12.323  67.923  1.00  0.00    -0.354 C  
HETATM   24  C   UNL     1      -9.788   6.838  71.100  1.00  0.00    -0.188 C  
HETATM   25  O   UNL     1      -8.117   8.432  71.985  1.00  0.00    -0.131 OA 
HETATM   26  H   UNL     1     -11.934  12.378  70.358  1.00  0.00     0.000 HD 
HETATM   27  C   UNL     1      -9.373   7.200  69.670  1.00  0.00    -0.149 C  
HETATM   28  H   UNL     1      -7.548   7.705  72.208  1.00  0.00     0.000 HD 
BRANCH  19  29
HETATM   29  C   UNL     1      -9.725   7.519  73.497  1.00  0.00    -0.303 C  
HETATM   30  O   UNL     1     -10.847   7.183  73.889  1.00  0.00    -0.258 OA 
HETATM   31  C   UNL     1      -8.521   7.378  74.400  1.00  0.00    -0.249 C  
ENDBRANCH  19  29
BRANCH  27  32
HETATM   32  O   UNL     1      -7.941   7.271  69.538  1.00  0.00    -0.122 OA 
BRANCH  32  33
HETATM   33  C   UNL     1      -7.372   6.570  68.426  1.00  0.00    -0.087 C  
HETATM   34  C   UNL     1      -6.115   5.766  68.756  1.00  0.00    -0.025 C  
HETATM   35  C   UNL     1      -6.470   4.577  69.649  1.00  0.00    -0.032 C  
HETATM   36  N   UNL     1      -5.256   3.791  69.953  1.00  0.00    -0.007 NA 
HETATM   37  C   UNL     1      -7.532   3.713  68.945  1.00  0.00    -0.053 C  
HETATM   38  H1  UNL     1      -5.493   2.997  70.548  1.00  0.00     0.000 HD 
HETATM   39  H2  UNL     1      -4.520   4.367  70.360  1.00  0.00     0.000 HD 
HETATM   40  O   UNL     1      -6.942   3.104  67.785  1.00  0.00    -0.048 OA 
HETATM   41  C   UNL     1      -8.740   4.592  68.559  1.00  0.00    -0.099 C  
HETATM   42  H   UNL     1      -7.598   2.571  67.351  1.00  0.00     0.000 HD 
HETATM   43  C   UNL     1      -9.743   3.817  67.711  1.00  0.00    -0.132 C  
HETATM   44  O   UNL     1      -8.358   5.747  67.803  1.00  0.00    -0.105 OA 
ENDBRANCH  32  33
ENDBRANCH  27  32
ENDBRANCH   2   3
TORSDOF 4
ENDMDL
MODEL       40
REMARK 921   NORMALIZED FREE ENERGY PREDICTED BY IDOCK:   -6.72 KCAL/MOL
REMARK 922        TOTAL FREE ENERGY PREDICTED BY IDOCK:   -8.88 KCAL/MOL
REMARK 923 INTER-LIGAND FREE ENERGY PREDICTED BY IDOCK:   -9.49 KCAL/MOL
REMARK 924 INTRA-LIGAND FREE ENERGY PREDICTED BY IDOCK:    0.61 KCAL/MOL
REMARK 927      BINDING AFFINITY PREDICTED BY RF-SCORE:    0.00 PKD
ROOT
HETATM    1  C   UNL     1      -6.174   8.305  73.795  1.00  0.00    -0.113 C  
HETATM    2  O   UNL     1      -6.908   7.846  72.663  1.00  0.00    -0.066 OA 
ENDROOT
BRANCH   2   3
HETATM    3  C   UNL     1      -8.273   7.805  72.787  1.00  0.00    -0.126 A  
HETATM    4  C   UNL     1      -8.899   7.025  73.775  1.00  0.00    -0.197 A  
HETATM    5  C   UNL     1     -10.284   7.001  73.892  1.00  0.00    -0.388 A  
HETATM    6  C   UNL     1     -11.057   7.755  73.020  1.00  0.00    -0.419 A  
HETATM    7  C   UNL     1     -10.449   8.518  72.010  1.00  0.00    -0.407 A  
HETATM    8  C   UNL     1      -9.061   8.538  71.873  1.00  0.00    -0.314 A  
HETATM    9  C   UNL     1      -8.478   9.337  70.763  1.00  0.00    -0.195 C  
HETATM   10  O   UNL     1      -7.277   9.318  70.503  1.00  0.00    -0.082 OA 
HETATM   11  C   UNL     1      -9.346  10.189  69.909  1.00  0.00    -0.134 A  
HETATM   12  C   UNL     1      -8.775  11.036  68.935  1.00  0.00    -0.117 A  
HETATM   13  O   UNL     1      -7.412  11.126  68.769  1.00  0.00    -0.102 OA 
HETATM   14  C   UNL     1      -9.566  11.843  68.092  1.00  0.00    -0.195 A  
HETATM   15  H   UNL     1      -7.028  11.696  68.114  1.00  0.00     0.000 HD 
HETATM   16  C   UNL     1     -10.974  11.784  68.222  1.00  0.00    -0.274 A  
HETATM   17  C   UNL     1     -11.534  10.971  69.232  1.00  0.00    -0.300 A  
HETATM   18  C   UNL     1     -11.880  12.609  67.320  1.00  0.00    -0.395 C  
HETATM   19  C   UNL     1     -11.172  13.175  66.084  1.00  0.00    -0.295 C  
HETATM   20  C   UNL     1     -10.730  10.164  70.065  1.00  0.00    -0.356 A  
HETATM   21  O   UNL     1     -12.889  10.960  69.422  1.00  0.00    -0.507 OA 
HETATM   22  O   UNL     1     -12.534   9.190  71.275  1.00  0.00    -0.308 OA 
HETATM   23  C   UNL     1     -11.325   9.293  71.112  1.00  0.00    -0.342 C  
HETATM   24  C   UNL     1      -9.862  13.818  66.543  1.00  0.00    -0.294 C  
HETATM   25  O   UNL     1     -10.983  12.120  65.137  1.00  0.00    -0.293 OA 
HETATM   26  H   UNL     1     -13.266  10.413  70.102  1.00  0.00     0.000 HD 
HETATM   27  C   UNL     1      -8.893  12.749  67.058  1.00  0.00    -0.213 C  
HETATM   28  H   UNL     1     -10.544  12.472  64.371  1.00  0.00     0.000 HD 
BRANCH  19  29
HETATM   29  C   UNL     1     -12.036  14.249  65.400  1.00  0.00    -0.383 C  
HETATM   30  O   UNL     1     -13.269  14.207  65.426  1.00  0.00    -0.741 OA 
HETATM   31  C   UNL     1     -11.318  15.425  64.778  1.00  0.00    -0.381 C  
ENDBRANCH  19  29
BRANCH  27  32
HETATM   32  O   UNL     1      -8.415  11.912  65.990  1.00  0.00     0.010 OA 
BRANCH  32  33
HETATM   33  C   UNL     1      -8.566  10.499  66.176  1.00  0.00    -0.150 C  
HETATM   34  C   UNL     1      -9.318   9.785  65.053  1.00  0.00    -0.325 C  
HETATM   35  C   UNL     1      -8.477   9.782  63.776  1.00  0.00    -0.184 C  
HETATM   36  N   UNL     1      -9.197   9.077  62.696  1.00  0.00    -0.513 NA 
HETATM   37  C   UNL     1      -7.118   9.120  64.066  1.00  0.00    -0.096 C  
HETATM   38  H1  UNL     1      -8.636   9.074  61.844  1.00  0.00     0.000 HD 
HETATM   39  H2  UNL     1     -10.127   9.466  62.540  1.00  0.00     0.000 HD 
HETATM   40  O   UNL     1      -7.329   7.725  64.338  1.00  0.00    -0.076 OA 
HETATM   41  C   UNL     1      -6.443   9.824  65.261  1.00  0.00    -0.089 C  
HETATM   42  H   UNL     1      -6.490   7.316  64.516  1.00  0.00     0.000 HD 
HETATM   43  C   UNL     1      -5.174   9.096  65.692  1.00  0.00    -0.036 C  
HETATM   44  O   UNL     1      -7.296   9.891  66.410  1.00  0.00    -0.096 OA 
ENDBRANCH  32  33
ENDBRANCH  27  32
ENDBRANCH   2   3
TORSDOF 4
ENDMDL
MODEL       41
REMARK 921   NORMALIZED FREE ENERGY PREDICTED BY IDOCK:   -6.71 KCAL/MOL
REMARK 922        TOTAL FREE ENERGY PREDICTED BY IDOCK:   -8.88 KCAL/MOL
REMARK 923 INTER-LIGAND FREE ENERGY PREDICTED BY IDOCK:   -8.00 KCAL/MOL
REMARK 924 INTRA-LIGAND FREE ENERGY PREDICTED BY IDOCK:   -0.88 KCAL/MOL
REMARK 927      BINDING AFFINITY PREDICTED BY RF-SCORE:    0.00 PKD
ROOT
HETATM    1  C   UNL     1      -5.181   9.809  64.301  1.00  0.00    -0.066 C  
HETATM    2  O   UNL     1      -6.181  10.412  65.118  1.00  0.00    -0.122 OA 
ENDROOT
BRANCH   2   3
HETATM    3  C   UNL     1      -7.280   9.647  65.414  1.00  0.00    -0.104 A  
HETATM    4  C   UNL     1      -7.422   8.340  64.919  1.00  0.00    -0.092 A  
HETATM    5  C   UNL     1      -8.540   7.575  65.235  1.00  0.00    -0.023 A  
HETATM    6  C   UNL     1      -9.527   8.112  66.049  1.00  0.00    -0.158 A  
HETATM    7  C   UNL     1      -9.414   9.426  66.531  1.00  0.00    -0.246 A  
HETATM    8  C   UNL     1      -8.306  10.208  66.208  1.00  0.00    -0.130 A  
HETATM    9  C   UNL     1      -8.259  11.604  66.718  1.00  0.00    -0.161 C  
HETATM   10  O   UNL     1      -7.377  12.393  66.388  1.00  0.00     0.402 OA 
HETATM   11  C   UNL     1      -9.303  12.101  67.652  1.00  0.00    -0.187 A  
HETATM   12  C   UNL     1      -9.191  13.385  68.227  1.00  0.00    -0.198 A  
HETATM   13  O   UNL     1      -8.108  14.194  67.974  1.00  0.00    -0.127 OA 
HETATM   14  C   UNL     1     -10.171  13.899  69.101  1.00  0.00     0.019 A  
HETATM   15  H   UNL     1      -8.032  15.058  68.362  1.00  0.00     0.000 HD 
HETATM   16  C   UNL     1     -11.306  13.105  69.389  1.00  0.00    -0.276 A  
HETATM   17  C   UNL     1     -11.385  11.803  68.849  1.00  0.00    -0.267 A  
HETATM   18  C   UNL     1     -12.411  13.620  70.300  1.00  0.00    -0.392 C  
HETATM   19  C   UNL     1     -12.358  15.132  70.544  1.00  0.00    -0.358 C  
HETATM   20  C   UNL     1     -10.399  11.303  67.972  1.00  0.00    -0.204 A  
HETATM   21  O   UNL     1     -12.438  10.993  69.178  1.00  0.00    -0.602 OA 
HETATM   22  O   UNL     1     -11.455   9.203  67.590  1.00  0.00     0.524 OA 
HETATM   23  C   UNL     1     -10.499   9.941  67.387  1.00  0.00    -0.267 C  
HETATM   24  C   UNL     1     -10.918  15.502  70.906  1.00  0.00    -0.333 C  
HETATM   25  O   UNL     1     -12.838  15.804  69.376  1.00  0.00    -0.414 OA 
HETATM   26  H   UNL     1     -12.492  10.117  68.814  1.00  0.00     0.000 HD 
HETATM   27  C   UNL     1      -9.994  15.295  69.702  1.00  0.00    -0.228 C  
HETATM   28  H   UNL     1     -12.805  16.742  69.527  1.00  0.00     0.000 HD 
BRANCH  19  29
HETATM   29  C   UNL     1     -13.279  15.534  71.708  1.00  0.00    -0.481 C  
HETATM   30  O   UNL     1     -14.409  15.056  71.840  1.00  0.00    -0.482 OA 
HETATM   31  C   UNL     1     -12.709  16.464  72.755  1.00  0.00    -0.174 C  
ENDBRANCH  19  29
BRANCH  27  32
HETATM   32  O   UNL     1     -10.259  16.255  68.663  1.00  0.00    -0.232 OA 
BRANCH  32  33
HETATM   33  C   UNL     1      -9.545  17.494  68.749  1.00  0.00    -0.277 C  
HETATM   34  C   UNL     1      -8.062  17.402  68.392  1.00  0.00    -0.264 C  
HETATM   35  C   UNL     1      -7.897  17.121  66.898  1.00  0.00    -0.215 C  
HETATM   36  N   UNL     1      -6.463  17.049  66.551  1.00  0.00    -0.221 NA 
HETATM   37  C   UNL     1      -8.611  18.221  66.093  1.00  0.00    -0.101 C  
HETATM   38  H1  UNL     1      -6.353  16.861  65.554  1.00  0.00     0.000 HD 
HETATM   39  H2  UNL     1      -5.965  16.368  67.125  1.00  0.00     0.000 HD 
HETATM   40  O   UNL     1      -7.915  19.463  66.285  1.00  0.00    -0.294 OA 
HETATM   41  C   UNL     1     -10.079  18.329  66.554  1.00  0.00    -0.385 C  
HETATM   42  H   UNL     1      -8.356  20.142  65.788  1.00  0.00     0.000 HD 
HETATM   43  C   UNL     1     -10.781  19.518  65.905  1.00  0.00    -0.518 C  
HETATM   44  O   UNL     1     -10.198  18.498  67.972  1.00  0.00    -0.349 OA 
ENDBRANCH  32  33
ENDBRANCH  27  32
ENDBRANCH   2   3
TORSDOF 4
ENDMDL
MODEL       42
REMARK 921   NORMALIZED FREE ENERGY PREDICTED BY IDOCK:   -6.65 KCAL/MOL
REMARK 922        TOTAL FREE ENERGY PREDICTED BY IDOCK:   -8.80 KCAL/MOL
REMARK 923 INTER-LIGAND FREE ENERGY PREDICTED BY IDOCK:   -8.51 KCAL/MOL
REMARK 924 INTRA-LIGAND FREE ENERGY PREDICTED BY IDOCK:   -0.29 KCAL/MOL
REMARK 927      BINDING AFFINITY PREDICTED BY RF-SCORE:    0.00 PKD
ROOT
HETATM    1  C   UNL     1     -10.558  14.036  64.732  1.00  0.00    -0.421 C  
HETATM    2  O   UNL     1      -9.930  13.821  65.993  1.00  0.00    -0.297 OA 
ENDROOT
BRANCH   2   3
HETATM    3  C   UNL     1     -10.631  14.208  67.106  1.00  0.00    -0.278 A  
HETATM    4  C   UNL     1     -11.038  15.539  67.295  1.00  0.00    -0.271 A  
HETATM    5  C   UNL     1     -11.756  15.912  68.426  1.00  0.00    -0.246 A  
HETATM    6  C   UNL     1     -12.072  14.956  69.381  1.00  0.00    -0.297 A  
HETATM    7  C   UNL     1     -11.650  13.626  69.221  1.00  0.00    -0.363 A  
HETATM    8  C   UNL     1     -10.916  13.243  68.099  1.00  0.00    -0.278 A  
HETATM    9  C   UNL     1     -10.467  11.829  68.003  1.00  0.00    -0.199 C  
HETATM   10  O   UNL     1      -9.723  11.437  67.107  1.00  0.00    -0.180 OA 
HETATM   11  C   UNL     1     -10.902  10.829  69.013  1.00  0.00    -0.278 A  
HETATM   12  C   UNL     1     -10.573   9.466  68.853  1.00  0.00    -0.208 A  
HETATM   13  O   UNL     1      -9.878   9.019  67.754  1.00  0.00    -0.154 OA 
HETATM   14  C   UNL     1     -10.950   8.492  69.800  1.00  0.00    -0.131 A  
HETATM   15  H   UNL     1      -9.657   8.101  67.646  1.00  0.00     0.000 HD 
HETATM   16  C   UNL     1     -11.663   8.904  70.950  1.00  0.00    -0.312 A  
HETATM   17  C   UNL     1     -12.031  10.261  71.077  1.00  0.00    -0.385 A  
HETATM   18  C   UNL     1     -12.069   7.902  72.021  1.00  0.00    -0.363 C  
HETATM   19  C   UNL     1     -11.338   6.559  71.921  1.00  0.00    -0.285 C  
HETATM   20  C   UNL     1     -11.643  11.227  70.124  1.00  0.00    -0.393 A  
HETATM   21  O   UNL     1     -12.787  10.664  72.144  1.00  0.00    -0.371 OA 
HETATM   22  O   UNL     1     -12.624  13.084  71.245  1.00  0.00    -0.360 OA 
HETATM   23  C   UNL     1     -12.013  12.658  70.273  1.00  0.00    -0.284 C  
HETATM   24  C   UNL     1     -11.399   6.095  70.465  1.00  0.00    -0.381 C  
HETATM   25  O   UNL     1     -10.003   6.724  72.407  1.00  0.00    -0.169 OA 
HETATM   26  H   UNL     1     -13.035  11.578  72.230  1.00  0.00     0.000 HD 
HETATM   27  C   UNL     1     -10.572   7.027  69.572  1.00  0.00    -0.234 C  
HETATM   28  H   UNL     1      -9.550   5.891  72.345  1.00  0.00     0.000 HD 
BRANCH  19  29
HETATM   29  C   UNL     1     -12.014   5.498  72.806  1.00  0.00    -0.024 C  
HETATM   30  O   UNL     1     -13.242   5.405  72.891  1.00  0.00     0.318 OA 
HETATM   31  C   UNL     1     -11.117   4.494  73.494  1.00  0.00    -0.398 C  
ENDBRANCH  19  29
BRANCH  27  32
HETATM   32  O   UNL     1      -9.163   6.893  69.832  1.00  0.00    -0.148 OA 
BRANCH  32  33
HETATM   33  C   UNL     1      -8.341   6.556  68.708  1.00  0.00    -0.122 C  
HETATM   34  C   UNL     1      -7.371   5.401  68.951  1.00  0.00    -0.070 C  
HETATM   35  C   UNL     1      -8.142   4.089  69.101  1.00  0.00    -0.062 C  
HETATM   36  N   UNL     1      -7.201   2.970  69.319  1.00  0.00    -0.045 NA 
HETATM   37  C   UNL     1      -9.001   3.859  67.845  1.00  0.00    -0.125 C  
HETATM   38  H1  UNL     1      -7.715   2.095  69.419  1.00  0.00     0.000 HD 
HETATM   39  H2  UNL     1      -6.582   3.141  70.111  1.00  0.00     0.000 HD 
HETATM   40  O   UNL     1      -8.132   3.617  66.726  1.00  0.00    -0.094 OA 
HETATM   41  C   UNL     1      -9.897   5.090  67.599  1.00  0.00    -0.161 C  
HETATM   42  H   UNL     1      -8.663   3.475  65.950  1.00  0.00     0.000 HD 
HETATM   43  C   UNL     1     -10.642   4.980  66.272  1.00  0.00    -0.332 C  
HETATM   44  O   UNL     1      -9.151   6.312  67.557  1.00  0.00    -0.113 OA 
ENDBRANCH  32  33
ENDBRANCH  27  32
ENDBRANCH   2   3
TORSDOF 4
ENDMDL
MODEL       43
REMARK 921   NORMALIZED FREE ENERGY PREDICTED BY IDOCK:   -6.65 KCAL/MOL
REMARK 922        TOTAL FREE ENERGY PREDICTED BY IDOCK:   -8.80 KCAL/MOL
REMARK 923 INTER-LIGAND FREE ENERGY PREDICTED BY IDOCK:   -9.30 KCAL/MOL
REMARK 924 INTRA-LIGAND FREE ENERGY PREDICTED BY IDOCK:    0.50 KCAL/MOL
REMARK 927      BINDING AFFINITY PREDICTED BY RF-SCORE:    0.00 PKD
ROOT
HETATM    1  C   UNL     1     -10.384   5.978  71.323  1.00  0.00    -0.215 C  
HETATM    2  O   UNL     1     -11.206   6.774  70.473  1.00  0.00    -0.277 OA 
ENDROOT
BRANCH   2   3
HETATM    3  C   UNL     1     -12.027   7.686  71.085  1.00  0.00    -0.297 A  
HETATM    4  C   UNL     1     -12.976   7.294  72.044  1.00  0.00    -0.196 A  
HETATM    5  C   UNL     1     -13.796   8.233  72.662  1.00  0.00    -0.018 A  
HETATM    6  C   UNL     1     -13.676   9.572  72.322  1.00  0.00    -0.444 A  
HETATM    7  C   UNL     1     -12.752   9.978  71.345  1.00  0.00    -0.518 A  
HETATM    8  C   UNL     1     -11.935   9.044  70.708  1.00  0.00    -0.214 A  
HETATM    9  C   UNL     1     -11.002   9.529  69.658  1.00  0.00    -0.212 C  
HETATM   10  O   UNL     1     -10.331   8.762  68.972  1.00  0.00    -0.207 OA 
HETATM   11  C   UNL     1     -10.856  10.984  69.391  1.00  0.00    -0.278 A  
HETATM   12  C   UNL     1      -9.884  11.447  68.478  1.00  0.00    -0.198 A  
HETATM   13  O   UNL     1      -9.027  10.581  67.840  1.00  0.00    -0.134 OA 
HETATM   14  C   UNL     1      -9.730  12.817  68.183  1.00  0.00    -0.223 A  
HETATM   15  H   UNL     1      -8.372  10.892  67.226  1.00  0.00     0.000 HD 
HETATM   16  C   UNL     1     -10.591  13.747  68.813  1.00  0.00    -0.253 A  
HETATM   17  C   UNL     1     -11.527  13.280  69.761  1.00  0.00    -0.158 A  
HETATM   18  C   UNL     1     -10.492  15.235  68.510  1.00  0.00    -0.235 C  
HETATM   19  C   UNL     1      -9.681  15.558  67.250  1.00  0.00    -0.218 C  
HETATM   20  C   UNL     1     -11.674  11.905  70.043  1.00  0.00    -0.366 A  
HETATM   21  O   UNL     1     -12.315  14.173  70.435  1.00  0.00    -0.319 OA 
HETATM   22  O   UNL     1     -13.456  12.164  71.601  1.00  0.00    -0.242 OA 
HETATM   23  C   UNL     1     -12.676  11.416  71.025  1.00  0.00    -0.349 C  
HETATM   24  C   UNL     1      -8.375  14.765  67.314  1.00  0.00    -0.234 C  
HETATM   25  O   UNL     1     -10.474  15.251  66.100  1.00  0.00    -0.285 OA 
HETATM   26  H   UNL     1     -12.946  13.858  71.073  1.00  0.00     0.000 HD 
HETATM   27  C   UNL     1      -8.654  13.263  67.191  1.00  0.00    -0.193 C  
HETATM   28  H   UNL     1      -9.971  15.452  65.319  1.00  0.00     0.000 HD 
BRANCH  19  29
HETATM   29  C   UNL     1      -9.345  17.057  67.182  1.00  0.00    -0.236 C  
HETATM   30  O   UNL     1      -8.207  17.482  67.401  1.00  0.00    -0.203 OA 
HETATM   31  C   UNL     1     -10.443  17.995  66.732  1.00  0.00    -0.335 C  
ENDBRANCH  19  29
BRANCH  27  32
HETATM   32  O   UNL     1      -9.108  12.918  65.870  1.00  0.00     0.044 OA 
BRANCH  32  33
HETATM   33  C   UNL     1      -9.489  11.551  65.669  1.00  0.00    -0.222 C  
HETATM   34  C   UNL     1     -10.837  11.361  64.974  1.00  0.00    -0.311 C  
HETATM   35  C   UNL     1     -10.746  11.814  63.516  1.00  0.00    -0.436 C  
HETATM   36  N   UNL     1     -12.045  11.614  62.841  1.00  0.00    -0.796 NA 
HETATM   37  C   UNL     1      -9.624  11.032  62.811  1.00  0.00    -0.306 C  
HETATM   38  H1  UNL     1     -11.984  11.916  61.869  1.00  0.00     0.000 HD 
HETATM   39  H2  UNL     1     -12.808  12.075  63.337  1.00  0.00     0.000 HD 
HETATM   40  O   UNL     1     -10.010   9.651  62.715  1.00  0.00    -0.341 OA 
HETATM   41  C   UNL     1      -8.308  11.188  63.601  1.00  0.00     0.378 C  
HETATM   42  H   UNL     1      -9.318   9.168  62.280  1.00  0.00     0.000 HD 
HETATM   43  C   UNL     1      -7.209  10.294  63.035  1.00  0.00    -0.125 C  
HETATM   44  O   UNL     1      -8.455  10.844  64.984  1.00  0.00    -0.127 OA 
ENDBRANCH  32  33
ENDBRANCH  27  32
ENDBRANCH   2   3
TORSDOF 4
ENDMDL
MODEL       44
REMARK 921   NORMALIZED FREE ENERGY PREDICTED BY IDOCK:   -6.59 KCAL/MOL
REMARK 922        TOTAL FREE ENERGY PREDICTED BY IDOCK:   -8.73 KCAL/MOL
REMARK 923 INTER-LIGAND FREE ENERGY PREDICTED BY IDOCK:   -9.17 KCAL/MOL
REMARK 924 INTRA-LIGAND FREE ENERGY PREDICTED BY IDOCK:    0.44 KCAL/MOL
REMARK 927      BINDING AFFINITY PREDICTED BY RF-SCORE:    0.00 PKD
ROOT
HETATM    1  C   UNL     1      -5.340  18.545  70.625  1.00  0.00    -0.257 C  
HETATM    2  O   UNL     1      -5.328  18.318  69.218  1.00  0.00    -0.186 OA 
ENDROOT
BRANCH   2   3
HETATM    3  C   UNL     1      -6.226  19.034  68.469  1.00  0.00    -0.225 A  
HETATM    4  C   UNL     1      -6.168  20.436  68.394  1.00  0.00    -0.343 A  
HETATM    5  C   UNL     1      -7.082  21.147  67.623  1.00  0.00    -0.216 A  
HETATM    6  C   UNL     1      -8.064  20.461  66.922  1.00  0.00    -0.318 A  
HETATM    7  C   UNL     1      -8.152  19.062  67.007  1.00  0.00    -0.279 A  
HETATM    8  C   UNL     1      -7.252  18.340  67.789  1.00  0.00    -0.215 A  
HETATM    9  C   UNL     1      -7.417  16.864  67.869  1.00  0.00    -0.169 C  
HETATM   10  O   UNL     1      -6.740  16.168  68.621  1.00  0.00    -0.120 OA 
HETATM   11  C   UNL     1      -8.435  16.173  67.034  1.00  0.00    -0.238 A  
HETATM   12  C   UNL     1      -8.509  14.764  67.023  1.00  0.00    -0.222 A  
HETATM   13  O   UNL     1      -7.630  13.992  67.748  1.00  0.00    -0.136 OA 
HETATM   14  C   UNL     1      -9.473  14.074  66.261  1.00  0.00    -0.249 A  
HETATM   15  H   UNL     1      -7.680  13.044  67.740  1.00  0.00     0.000 HD 
HETATM   16  C   UNL     1     -10.401  14.824  65.501  1.00  0.00    -0.387 A  
HETATM   17  C   UNL     1     -10.288  16.231  65.479  1.00  0.00    -0.338 A  
HETATM   18  C   UNL     1     -11.484  14.134  64.684  1.00  0.00    -0.392 C  
HETATM   19  C   UNL     1     -11.693  12.661  65.051  1.00  0.00    -0.359 C  
HETATM   20  C   UNL     1      -9.321  16.910  66.251  1.00  0.00    -0.292 A  
HETATM   21  O   UNL     1     -11.129  16.969  64.691  1.00  0.00    -0.997 OA 
HETATM   22  O   UNL     1      -9.995  19.103  65.613  1.00  0.00    -0.418 OA 
HETATM   23  C   UNL     1      -9.221  18.392  66.243  1.00  0.00    -0.207 C  
HETATM   24  C   UNL     1     -10.320  11.990  65.109  1.00  0.00    -0.313 C  
HETATM   25  O   UNL     1     -12.410  12.592  66.288  1.00  0.00    -0.550 OA 
HETATM   26  H   UNL     1     -11.053  17.916  64.676  1.00  0.00     0.000 HD 
HETATM   27  C   UNL     1      -9.503  12.544  66.280  1.00  0.00    -0.210 C  
HETATM   28  H   UNL     1     -12.539  11.679  66.515  1.00  0.00     0.000 HD 
BRANCH  19  29
HETATM   29  C   UNL     1     -12.549  11.947  63.992  1.00  0.00    -0.282 C  
HETATM   30  O   UNL     1     -13.781  11.926  64.054  1.00  0.00    -0.274 OA 
HETATM   31  C   UNL     1     -11.828  11.353  62.803  1.00  0.00     0.829 C  
ENDBRANCH  19  29
BRANCH  27  32
HETATM   32  O   UNL     1     -10.050  12.133  67.547  1.00  0.00    -0.194 OA 
BRANCH  32  33
HETATM   33  C   UNL     1      -9.364  11.070  68.218  1.00  0.00    -0.172 C  
HETATM   34  C   UNL     1     -10.017   9.696  68.069  1.00  0.00    -0.190 C  
HETATM   35  C   UNL     1      -9.890   9.207  66.626  1.00  0.00    -0.240 C  
HETATM   36  N   UNL     1     -10.506   7.871  66.487  1.00  0.00    -0.450 NA 
HETATM   37  C   UNL     1      -8.403   9.179  66.229  1.00  0.00    -0.119 C  
HETATM   38  H1  UNL     1     -10.421   7.545  65.524  1.00  0.00     0.000 HD 
HETATM   39  H2  UNL     1     -11.474   7.862  66.809  1.00  0.00     0.000 HD 
HETATM   40  O   UNL     1      -7.737   8.161  66.994  1.00  0.00    -0.094 OA 
HETATM   41  C   UNL     1      -7.774  10.565  66.480  1.00  0.00    -0.131 C  
HETATM   42  H   UNL     1      -6.819   8.143  66.749  1.00  0.00     0.000 HD 
HETATM   43  C   UNL     1      -6.264  10.539  66.262  1.00  0.00    -0.105 C  
HETATM   44  O   UNL     1      -7.994  11.032  67.817  1.00  0.00    -0.111 OA 
ENDBRANCH  32  33
ENDBRANCH  27  32
ENDBRANCH   2   3
TORSDOF 4
ENDMDL
MODEL       45
REMARK 921   NORMALIZED FREE ENERGY PREDICTED BY IDOCK:   -6.59 KCAL/MOL
REMARK 922        TOTAL FREE ENERGY PREDICTED BY IDOCK:   -8.72 KCAL/MOL
REMARK 923 INTER-LIGAND FREE ENERGY PREDICTED BY IDOCK:   -7.75 KCAL/MOL
REMARK 924 INTRA-LIGAND FREE ENERGY PREDICTED BY IDOCK:   -0.97 KCAL/MOL
REMARK 927      BINDING AFFINITY PREDICTED BY RF-SCORE:    0.00 PKD
ROOT
HETATM    1  C   UNL     1      -5.798   8.565  72.805  1.00  0.00    -0.073 C  
HETATM    2  O   UNL     1      -5.607   9.065  71.484  1.00  0.00    -0.043 OA 
ENDROOT
BRANCH   2   3
HETATM    3  C   UNL     1      -5.971   8.238  70.453  1.00  0.00    -0.028 A  
HETATM    4  C   UNL     1      -5.558   6.896  70.404  1.00  0.00    -0.023 A  
HETATM    5  C   UNL     1      -5.944   6.069  69.355  1.00  0.00    -0.028 A  
HETATM    6  C   UNL     1      -6.744   6.579  68.342  1.00  0.00    -0.068 A  
HETATM    7  C   UNL     1      -7.144   7.924  68.361  1.00  0.00    -0.081 A  
HETATM    8  C   UNL     1      -6.751   8.768  69.400  1.00  0.00    -0.049 A  
HETATM    9  C   UNL     1      -7.175  10.192  69.347  1.00  0.00    -0.096 C  
HETATM   10  O   UNL     1      -6.780  11.024  70.159  1.00  0.00    -0.164 OA 
HETATM   11  C   UNL     1      -8.099  10.664  68.282  1.00  0.00    -0.118 A  
HETATM   12  C   UNL     1      -8.593  11.986  68.304  1.00  0.00    -0.174 A  
HETATM   13  O   UNL     1      -8.269  12.858  69.317  1.00  0.00    -0.134 OA 
HETATM   14  C   UNL     1      -9.454  12.477  67.301  1.00  0.00    -0.193 A  
HETATM   15  H   UNL     1      -8.602  13.748  69.332  1.00  0.00     0.000 HD 
HETATM   16  C   UNL     1      -9.813  11.618  66.236  1.00  0.00    -0.245 A  
HETATM   17  C   UNL     1      -9.354  10.283  66.249  1.00  0.00    -0.167 A  
HETATM   18  C   UNL     1     -10.714  12.102  65.109  1.00  0.00    -0.333 C  
HETATM   19  C   UNL     1     -10.865  13.626  65.049  1.00  0.00    -0.352 C  
HETATM   20  C   UNL     1      -8.489   9.806  67.256  1.00  0.00    -0.125 A  
HETATM   21  O   UNL     1      -9.754   9.417  65.267  1.00  0.00    -0.424 OA 
HETATM   22  O   UNL     1      -8.256   7.613  66.360  1.00  0.00    -0.114 OA 
HETATM   23  C   UNL     1      -7.989   8.407  67.253  1.00  0.00    -0.105 C  
HETATM   24  C   UNL     1     -11.175  14.126  66.461  1.00  0.00    -0.333 C  
HETATM   25  O   UNL     1      -9.669  14.186  64.499  1.00  0.00    -0.562 OA 
HETATM   26  H   UNL     1      -9.444   8.518  65.276  1.00  0.00     0.000 HD 
HETATM   27  C   UNL     1      -9.966  13.917  67.379  1.00  0.00    -0.240 C  
HETATM   28  H   UNL     1      -9.763  15.131  64.462  1.00  0.00     0.000 HD 
BRANCH  19  29
HETATM   29  C   UNL     1     -12.022  14.028  64.118  1.00  0.00    -0.408 C  
HETATM   30  O   UNL     1     -12.605  13.203  63.409  1.00  0.00    -0.722 OA 
HETATM   31  C   UNL     1     -12.496  15.462  64.179  1.00  0.00     0.110 C  
ENDBRANCH  19  29
BRANCH  27  32
HETATM   32  O   UNL     1      -8.877  14.788  67.024  1.00  0.00    -0.211 OA 
BRANCH  32  33
HETATM   33  C   UNL     1      -8.586  15.846  67.946  1.00  0.00    -0.163 C  
HETATM   34  C   UNL     1      -7.182  16.436  67.817  1.00  0.00    -0.155 C  
HETATM   35  C   UNL     1      -7.054  17.206  66.502  1.00  0.00    -0.268 C  
HETATM   36  N   UNL     1      -5.703  17.791  66.386  1.00  0.00    -0.175 NA 
HETATM   37  C   UNL     1      -8.140  18.295  66.445  1.00  0.00    -0.258 C  
HETATM   38  H1  UNL     1      -5.617  18.304  65.509  1.00  0.00     0.000 HD 
HETATM   39  H2  UNL     1      -4.972  17.086  66.488  1.00  0.00     0.000 HD 
HETATM   40  O   UNL     1      -7.859  19.285  67.448  1.00  0.00    -0.250 OA 
HETATM   41  C   UNL     1      -9.527  17.656  66.666  1.00  0.00    -0.279 C  
HETATM   42  H   UNL     1      -8.529  19.957  67.412  1.00  0.00     0.000 HD 
HETATM   43  C   UNL     1     -10.616  18.717  66.787  1.00  0.00    -0.458 C  
HETATM   44  O   UNL     1      -9.581  16.866  67.860  1.00  0.00    -0.237 OA 
ENDBRANCH  32  33
ENDBRANCH  27  32
ENDBRANCH   2   3
TORSDOF 4
ENDMDL
MODEL       46
REMARK 921   NORMALIZED FREE ENERGY PREDICTED BY IDOCK:   -6.54 KCAL/MOL
REMARK 922        TOTAL FREE ENERGY PREDICTED BY IDOCK:   -8.66 KCAL/MOL
REMARK 923 INTER-LIGAND FREE ENERGY PREDICTED BY IDOCK:   -7.88 KCAL/MOL
REMARK 924 INTRA-LIGAND FREE ENERGY PREDICTED BY IDOCK:   -0.79 KCAL/MOL
REMARK 927      BINDING AFFINITY PREDICTED BY RF-SCORE:    0.00 PKD
ROOT
HETATM    1  C   UNL     1      -7.821   2.803  71.513  1.00  0.00    -0.051 C  
HETATM    2  O   UNL     1      -8.338   4.096  71.211  1.00  0.00    -0.078 OA 
ENDROOT
BRANCH   2   3
HETATM    3  C   UNL     1      -9.509   4.453  71.829  1.00  0.00    -0.147 A  
HETATM    4  C   UNL     1     -10.137   3.609  72.760  1.00  0.00    -0.226 A  
HETATM    5  C   UNL     1     -11.319   3.991  73.384  1.00  0.00    -0.272 A  
HETATM    6  C   UNL     1     -11.887   5.220  73.080  1.00  0.00    -0.129 A  
HETATM    7  C   UNL     1     -11.287   6.064  72.132  1.00  0.00    -0.351 A  
HETATM    8  C   UNL     1     -10.109   5.686  71.488  1.00  0.00    -0.253 A  
HETATM    9  C   UNL     1      -9.540   6.606  70.468  1.00  0.00    -0.169 C  
HETATM   10  O   UNL     1      -8.572   6.300  69.776  1.00  0.00    -0.133 OA 
HETATM   11  C   UNL     1     -10.143   7.946  70.241  1.00  0.00    -0.196 A  
HETATM   12  C   UNL     1      -9.530   8.862  69.359  1.00  0.00    -0.161 A  
HETATM   13  O   UNL     1      -8.352   8.563  68.716  1.00  0.00    -0.120 OA 
HETATM   14  C   UNL     1     -10.083  10.133  69.101  1.00  0.00    -0.226 A  
HETATM   15  H   UNL     1      -7.939   9.179  68.123  1.00  0.00     0.000 HD 
HETATM   16  C   UNL     1     -11.297  10.486  69.736  1.00  0.00    -0.367 A  
HETATM   17  C   UNL     1     -11.876   9.583  70.654  1.00  0.00    -0.233 A  
HETATM   18  C   UNL     1     -11.957  11.831  69.473  1.00  0.00    -0.364 C  
HETATM   19  C   UNL     1     -11.412  12.557  68.238  1.00  0.00    -0.308 C  
HETATM   20  C   UNL     1     -11.315   8.312  70.899  1.00  0.00    -0.292 A  
HETATM   21  O   UNL     1     -13.010   9.938  71.335  1.00  0.00    -0.352 OA 
HETATM   22  O   UNL     1     -12.993   7.594  72.428  1.00  0.00    -0.065 OA 
HETATM   23  C   UNL     1     -11.941   7.356  71.849  1.00  0.00    -0.302 C  
HETATM   24  C   UNL     1      -9.884  12.524  68.307  1.00  0.00    -0.227 C  
HETATM   25  O   UNL     1     -11.939  11.930  67.065  1.00  0.00    -0.615 OA 
HETATM   26  H   UNL     1     -13.400   9.331  71.953  1.00  0.00     0.000 HD 
HETATM   27  C   UNL     1      -9.372  11.089  68.142  1.00  0.00    -0.173 C  
HETATM   28  H   UNL     1     -11.601  12.380  66.299  1.00  0.00     0.000 HD 
BRANCH  19  29
HETATM   29  C   UNL     1     -11.874  14.023  68.213  1.00  0.00    -0.371 C  
HETATM   30  O   UNL     1     -12.082  14.624  67.155  1.00  0.00    -0.362 OA 
HETATM   31  C   UNL     1     -12.168  14.681  69.542  1.00  0.00    -0.297 C  
ENDBRANCH  19  29
BRANCH  27  32
HETATM   32  O   UNL     1      -9.585  10.604  66.803  1.00  0.00    -0.164 OA 
BRANCH  32  33
HETATM   33  C   UNL     1      -8.954  11.346  65.753  1.00  0.00    -0.151 C  
HETATM   34  C   UNL     1      -7.495  11.714  66.020  1.00  0.00     0.432 C  
HETATM   35  C   UNL     1      -6.624  10.458  65.999  1.00  0.00    -0.120 C  
HETATM   36  N   UNL     1      -5.211  10.817  66.240  1.00  0.00    -0.074 NA 
HETATM   37  C   UNL     1      -6.795   9.745  64.646  1.00  0.00    -0.123 C  
HETATM   38  H1  UNL     1      -4.629   9.979  66.226  1.00  0.00     0.000 HD 
HETATM   39  H2  UNL     1      -5.094  11.348  67.103  1.00  0.00     0.000 HD 
HETATM   40  O   UNL     1      -6.231  10.568  63.612  1.00  0.00    -0.299 OA 
HETATM   41  C   UNL     1      -8.292   9.475  64.389  1.00  0.00    -0.171 C  
HETATM   42  H   UNL     1      -6.336  10.128  62.777  1.00  0.00     0.000 HD 
HETATM   43  C   UNL     1      -8.525   8.923  62.986  1.00  0.00    -0.170 C  
HETATM   44  O   UNL     1      -9.090  10.659  64.509  1.00  0.00    -0.198 OA 
ENDBRANCH  32  33
ENDBRANCH  27  32
ENDBRANCH   2   3
TORSDOF 4
ENDMDL
MODEL       47
REMARK 921   NORMALIZED FREE ENERGY PREDICTED BY IDOCK:   -6.48 KCAL/MOL
REMARK 922        TOTAL FREE ENERGY PREDICTED BY IDOCK:   -8.60 KCAL/MOL
REMARK 923 INTER-LIGAND FREE ENERGY PREDICTED BY IDOCK:   -8.45 KCAL/MOL
REMARK 924 INTRA-LIGAND FREE ENERGY PREDICTED BY IDOCK:   -0.15 KCAL/MOL
REMARK 927      BINDING AFFINITY PREDICTED BY RF-SCORE:    0.00 PKD
ROOT
HETATM    1  C   UNL     1      -6.414  18.500  65.756  1.00  0.00    -0.270 C  
HETATM    2  O   UNL     1      -7.707  17.900  65.725  1.00  0.00    -0.538 OA 
ENDROOT
BRANCH   2   3
HETATM    3  C   UNL     1      -8.549  18.194  66.768  1.00  0.00    -0.259 A  
HETATM    4  C   UNL     1      -8.832  19.521  67.133  1.00  0.00    -0.357 A  
HETATM    5  C   UNL     1      -9.694  19.802  68.187  1.00  0.00    -0.506 A  
HETATM    6  C   UNL     1     -10.278  18.756  68.888  1.00  0.00    -0.258 A  
HETATM    7  C   UNL     1      -9.986  17.425  68.554  1.00  0.00    -0.331 A  
HETATM    8  C   UNL     1      -9.110  17.131  67.508  1.00  0.00    -0.225 A  
HETATM    9  C   UNL     1      -8.811  15.702  67.224  1.00  0.00    -0.198 C  
HETATM   10  O   UNL     1      -7.968  15.361  66.399  1.00  0.00    -0.041 OA 
HETATM   11  C   UNL     1      -9.527  14.622  67.952  1.00  0.00    -0.210 A  
HETATM   12  C   UNL     1      -9.327  13.271  67.597  1.00  0.00    -0.212 A  
HETATM   13  O   UNL     1      -8.502  12.916  66.556  1.00  0.00    -0.420 OA 
HETATM   14  C   UNL     1      -9.972  12.218  68.277  1.00  0.00    -0.216 A  
HETATM   15  H   UNL     1      -8.368  12.006  66.316  1.00  0.00     0.000 HD 
HETATM   16  C   UNL     1     -10.829  12.533  69.358  1.00  0.00     0.037 A  
HETATM   17  C   UNL     1     -11.061  13.889  69.674  1.00  0.00    -0.072 A  
HETATM   18  C   UNL     1     -11.528  11.437  70.150  1.00  0.00    -0.302 C  
HETATM   19  C   UNL     1     -10.944  10.039  69.919  1.00  0.00    -0.293 C  
HETATM   20  C   UNL     1     -10.405  14.933  68.988  1.00  0.00    -0.245 A  
HETATM   21  O   UNL     1     -11.946  14.215  70.667  1.00  0.00    -0.309 OA 
HETATM   22  O   UNL     1     -11.358  16.702  70.266  1.00  0.00    -0.190 OA 
HETATM   23  C   UNL     1     -10.634  16.359  69.340  1.00  0.00    -0.317 C  
HETATM   24  C   UNL     1     -10.796   9.832  68.410  1.00  0.00    -0.244 C  
HETATM   25  O   UNL     1      -9.707   9.933  70.629  1.00  0.00    -0.351 OA 
HETATM   26  H   UNL     1     -12.102  15.128  70.880  1.00  0.00     0.000 HD 
HETATM   27  C   UNL     1      -9.725  10.771  67.845  1.00  0.00    -0.167 C  
HETATM   28  H   UNL     1      -9.345   9.066  70.485  1.00  0.00     0.000 HD 
BRANCH  19  29
HETATM   29  C   UNL     1     -11.880   8.953  70.476  1.00  0.00    -0.047 C  
HETATM   30  O   UNL     1     -11.670   7.751  70.287  1.00  0.00    -0.123 OA 
HETATM   31  C   UNL     1     -13.019   9.406  71.360  1.00  0.00    -0.421 C  
ENDBRANCH  19  29
BRANCH  27  32
HETATM   32  O   UNL     1      -8.408  10.400  68.292  1.00  0.00    -0.113 OA 
BRANCH  32  33
HETATM   33  C   UNL     1      -7.483  10.002  67.273  1.00  0.00    -0.091 C  
HETATM   34  C   UNL     1      -7.060   8.534  67.334  1.00  0.00    -0.080 C  
HETATM   35  C   UNL     1      -8.239   7.631  66.970  1.00  0.00    -0.117 C  
HETATM   36  N   UNL     1      -7.825   6.214  67.013  1.00  0.00    -0.101 NA 
HETATM   37  C   UNL     1      -8.762   8.018  65.575  1.00  0.00    -0.102 C  
HETATM   38  H1  UNL     1      -8.611   5.612  66.770  1.00  0.00     0.000 HD 
HETATM   39  H2  UNL     1      -7.416   5.963  67.914  1.00  0.00     0.000 HD 
HETATM   40  O   UNL     1      -7.764   7.685  64.596  1.00  0.00    -0.106 OA 
HETATM   41  C   UNL     1      -9.092   9.524  65.545  1.00  0.00    -0.212 C  
HETATM   42  H   UNL     1      -8.087   7.924  63.735  1.00  0.00     0.000 HD 
HETATM   43  C   UNL     1      -9.452   9.988  64.137  1.00  0.00    -0.314 C  
HETATM   44  O   UNL     1      -7.994  10.334  65.982  1.00  0.00    -0.126 OA 
ENDBRANCH  32  33
ENDBRANCH  27  32
ENDBRANCH   2   3
TORSDOF 4
ENDMDL
MODEL       48
REMARK 921   NORMALIZED FREE ENERGY PREDICTED BY IDOCK:   -6.47 KCAL/MOL
REMARK 922        TOTAL FREE ENERGY PREDICTED BY IDOCK:   -8.58 KCAL/MOL
REMARK 923 INTER-LIGAND FREE ENERGY PREDICTED BY IDOCK:   -9.23 KCAL/MOL
REMARK 924 INTRA-LIGAND FREE ENERGY PREDICTED BY IDOCK:    0.65 KCAL/MOL
REMARK 927      BINDING AFFINITY PREDICTED BY RF-SCORE:    0.00 PKD
ROOT
HETATM    1  C   UNL     1     -10.545   5.941  73.800  1.00  0.00    -0.254 C  
HETATM    2  O   UNL     1     -10.056   7.273  73.675  1.00  0.00    -0.299 OA 
ENDROOT
BRANCH   2   3
HETATM    3  C   UNL     1      -8.830   7.427  73.078  1.00  0.00    -0.142 A  
HETATM    4  C   UNL     1      -7.683   6.789  73.579  1.00  0.00    -0.092 A  
HETATM    5  C   UNL     1      -6.449   6.950  72.957  1.00  0.00    -0.062 A  
HETATM    6  C   UNL     1      -6.352   7.753  71.830  1.00  0.00    -0.039 A  
HETATM    7  C   UNL     1      -7.483   8.419  71.332  1.00  0.00    -0.102 A  
HETATM    8  C   UNL     1      -8.723   8.278  71.956  1.00  0.00    -0.243 A  
HETATM    9  C   UNL     1      -9.876   9.036  71.404  1.00  0.00    -0.311 C  
HETATM   10  O   UNL     1     -10.972   9.058  71.958  1.00  0.00    -0.358 OA 
HETATM   11  C   UNL     1      -9.734   9.817  70.147  1.00  0.00    -0.299 A  
HETATM   12  C   UNL     1     -10.860  10.437  69.563  1.00  0.00    -0.255 A  
HETATM   13  O   UNL     1     -12.115  10.311  70.111  1.00  0.00    -0.364 OA 
HETATM   14  C   UNL     1     -10.761  11.203  68.383  1.00  0.00    -0.234 A  
HETATM   15  H   UNL     1     -12.873  10.728  69.717  1.00  0.00     0.000 HD 
HETATM   16  C   UNL     1      -9.490  11.364  67.783  1.00  0.00    -0.167 A  
HETATM   17  C   UNL     1      -8.379  10.699  68.347  1.00  0.00    -0.127 A  
HETATM   18  C   UNL     1      -9.317  12.205  66.527  1.00  0.00    -0.229 C  
HETATM   19  C   UNL     1     -10.513  13.113  66.221  1.00  0.00    -0.285 C  
HETATM   20  C   UNL     1      -8.491   9.940  69.531  1.00  0.00    -0.184 A  
HETATM   21  O   UNL     1      -7.156  10.782  67.737  1.00  0.00    -0.083 OA 
HETATM   22  O   UNL     1      -6.185   9.363  69.670  1.00  0.00    -0.038 OA 
HETATM   23  C   UNL     1      -7.314   9.261  70.133  1.00  0.00    -0.096 C  
HETATM   24  C   UNL     1     -11.786  12.272  66.336  1.00  0.00    -0.431 C  
HETATM   25  O   UNL     1     -10.487  14.226  67.118  1.00  0.00    -0.264 OA 
HETATM   26  H   UNL     1      -6.408  10.335  68.116  1.00  0.00     0.000 HD 
HETATM   27  C   UNL     1     -12.016  11.846  67.789  1.00  0.00    -0.079 C  
HETATM   28  H   UNL     1     -11.228  14.790  66.928  1.00  0.00     0.000 HD 
BRANCH  19  29
HETATM   29  C   UNL     1     -10.422  13.679  64.794  1.00  0.00    -0.418 C  
HETATM   30  O   UNL     1     -10.067  12.984  63.838  1.00  0.00    -0.365 OA 
HETATM   31  C   UNL     1     -10.886  15.102  64.581  1.00  0.00    -0.285 C  
ENDBRANCH  19  29
BRANCH  27  32
HETATM   32  O   UNL     1     -12.366  12.969  68.619  1.00  0.00    -0.098 OA 
BRANCH  32  33
HETATM   33  C   UNL     1     -11.569  13.160  69.795  1.00  0.00    -0.221 C  
HETATM   34  C   UNL     1     -10.770  14.462  69.818  1.00  0.00    -0.022 C  
HETATM   35  C   UNL     1     -11.715  15.657  69.957  1.00  0.00    -0.357 C  
HETATM   36  N   UNL     1     -10.940  16.914  69.997  1.00  0.00    -0.343 NA 
HETATM   37  C   UNL     1     -12.565  15.485  71.228  1.00  0.00    -0.447 C  
HETATM   38  H1  UNL     1     -11.570  17.711  70.090  1.00  0.00     0.000 HD 
HETATM   39  H2  UNL     1     -10.322  17.007  69.190  1.00  0.00     0.000 HD 
HETATM   40  O   UNL     1     -11.710  15.591  72.378  1.00  0.00    -0.412 OA 
HETATM   41  C   UNL     1     -13.281  14.119  71.191  1.00  0.00    -0.301 C  
HETATM   42  H   UNL     1     -12.235  15.486  73.162  1.00  0.00     0.000 HD 
HETATM   43  C   UNL     1     -14.001  13.831  72.506  1.00  0.00    -0.572 C  
HETATM   44  O   UNL     1     -12.376  13.032  70.966  1.00  0.00    -0.355 OA 
ENDBRANCH  32  33
ENDBRANCH  27  32
ENDBRANCH   2   3
TORSDOF 4
ENDMDL
MODEL       49
REMARK 921   NORMALIZED FREE ENERGY PREDICTED BY IDOCK:   -6.41 KCAL/MOL
REMARK 922        TOTAL FREE ENERGY PREDICTED BY IDOCK:   -8.51 KCAL/MOL
REMARK 923 INTER-LIGAND FREE ENERGY PREDICTED BY IDOCK:   -8.10 KCAL/MOL
REMARK 924 INTRA-LIGAND FREE ENERGY PREDICTED BY IDOCK:   -0.41 KCAL/MOL
REMARK 927      BINDING AFFINITY PREDICTED BY RF-SCORE:    0.00 PKD
ROOT
HETATM    1  C   UNL     1     -11.909  14.493  67.635  1.00  0.00    -0.364 C  
HETATM    2  O   UNL     1     -11.273  13.529  68.471  1.00  0.00    -0.248 OA 
ENDROOT
BRANCH   2   3
HETATM    3  C   UNL     1     -11.944  13.160  69.608  1.00  0.00    -0.306 A  
HETATM    4  C   UNL     1     -12.734  14.073  70.326  1.00  0.00    -0.270 A  
HETATM    5  C   UNL     1     -13.415  13.679  71.474  1.00  0.00    -0.332 A  
HETATM    6  C   UNL     1     -13.308  12.368  71.915  1.00  0.00    -0.450 A  
HETATM    7  C   UNL     1     -12.502  11.449  71.225  1.00  0.00    -0.423 A  
HETATM    8  C   UNL     1     -11.802  11.836  70.082  1.00  0.00    -0.408 A  
HETATM    9  C   UNL     1     -10.937  10.828  69.414  1.00  0.00    -0.254 C  
HETATM   10  O   UNL     1     -10.202  11.116  68.473  1.00  0.00    -0.183 OA 
HETATM   11  C   UNL     1     -10.923   9.417  69.881  1.00  0.00    -0.251 A  
HETATM   12  C   UNL     1     -10.193   8.440  69.172  1.00  0.00    -0.211 A  
HETATM   13  O   UNL     1      -9.508   8.749  68.020  1.00  0.00    -0.141 OA 
HETATM   14  C   UNL     1     -10.139   7.096  69.595  1.00  0.00    -0.196 A  
HETATM   15  H   UNL     1      -9.016   8.091  67.543  1.00  0.00     0.000 HD 
HETATM   16  C   UNL     1     -10.826   6.729  70.776  1.00  0.00    -0.291 A  
HETATM   17  C   UNL     1     -11.594   7.702  71.451  1.00  0.00    -0.274 A  
HETATM   18  C   UNL     1     -10.779   5.300  71.299  1.00  0.00    -0.198 C  
HETATM   19  C   UNL     1      -9.670   4.448  70.671  1.00  0.00    -0.213 C  
HETATM   20  C   UNL     1     -11.635   9.045  71.019  1.00  0.00    -0.360 A  
HETATM   21  O   UNL     1     -12.327   7.348  72.552  1.00  0.00    -0.514 OA 
HETATM   22  O   UNL     1     -13.039   9.825  72.777  1.00  0.00    -0.081 OA 
HETATM   23  C   UNL     1     -12.426  10.072  71.746  1.00  0.00    -0.383 C  
HETATM   24  C   UNL     1      -9.728   4.641  69.155  1.00  0.00    -0.255 C  
HETATM   25  O   UNL     1      -8.416   4.830  71.243  1.00  0.00    -0.103 OA 
HETATM   26  H   UNL     1     -12.843   8.004  73.007  1.00  0.00     0.000 HD 
HETATM   27  C   UNL     1      -9.338   6.076  68.783  1.00  0.00    -0.122 C  
HETATM   28  H   UNL     1      -7.729   4.302  70.854  1.00  0.00     0.000 HD 
BRANCH  19  29
HETATM   29  C   UNL     1      -9.877   2.958  70.987  1.00  0.00     0.008 C  
HETATM   30  O   UNL     1      -9.643   2.076  70.156  1.00  0.00    -0.097 OA 
HETATM   31  C   UNL     1     -10.282   2.597  72.399  1.00  0.00    -0.215 C  
ENDBRANCH  19  29
BRANCH  27  32
HETATM   32  O   UNL     1      -7.942   6.323  69.027  1.00  0.00    -0.106 OA 
BRANCH  32  33
HETATM   33  C   UNL     1      -7.025   5.766  68.077  1.00  0.00    -0.065 C  
HETATM   34  C   UNL     1      -7.673   5.255  66.791  1.00  0.00    -0.096 C  
HETATM   35  C   UNL     1      -8.207   6.428  65.968  1.00  0.00    -0.126 C  
HETATM   36  N   UNL     1      -8.817   5.933  64.717  1.00  0.00    -0.366 NA 
HETATM   37  C   UNL     1      -7.057   7.409  65.678  1.00  0.00    -0.065 C  
HETATM   38  H1  UNL     1      -9.173   6.716  64.168  1.00  0.00     0.000 HD 
HETATM   39  H2  UNL     1      -9.537   5.233  64.894  1.00  0.00     0.000 HD 
HETATM   40  O   UNL     1      -6.116   6.774  64.796  1.00  0.00    -0.034 OA 
HETATM   41  C   UNL     1      -6.385   7.825  67.002  1.00  0.00    -0.054 C  
HETATM   42  H   UNL     1      -5.406   7.380  64.617  1.00  0.00     0.000 HD 
HETATM   43  C   UNL     1      -5.134   8.662  66.754  1.00  0.00    -0.031 C  
HETATM   44  O   UNL     1      -5.982   6.698  67.790  1.00  0.00    -0.021 OA 
ENDBRANCH  32  33
ENDBRANCH  27  32
ENDBRANCH   2   3
TORSDOF 4
ENDMDL
MODEL       50
REMARK 921   NORMALIZED FREE ENERGY PREDICTED BY IDOCK:   -6.38 KCAL/MOL
REMARK 922        TOTAL FREE ENERGY PREDICTED BY IDOCK:   -8.47 KCAL/MOL
REMARK 923 INTER-LIGAND FREE ENERGY PREDICTED BY IDOCK:   -8.06 KCAL/MOL
REMARK 924 INTRA-LIGAND FREE ENERGY PREDICTED BY IDOCK:   -0.41 KCAL/MOL
REMARK 927      BINDING AFFINITY PREDICTED BY RF-SCORE:    0.00 PKD
ROOT
HETATM    1  C   UNL     1      -9.625  17.351  68.282  1.00  0.00    -0.292 C  
HETATM    2  O   UNL     1      -9.784  15.947  68.097  1.00  0.00    -0.210 OA 
ENDROOT
BRANCH   2   3
HETATM    3  C   UNL     1     -10.227  15.533  66.867  1.00  0.00    -0.279 A  
HETATM    4  C   UNL     1     -10.772  16.436  65.939  1.00  0.00    -0.219 A  
HETATM    5  C   UNL     1     -11.208  16.001  64.692  1.00  0.00    -0.340 A  
HETATM    6  C   UNL     1     -11.107  14.656  64.364  1.00  0.00    -0.153 A  
HETATM    7  C   UNL     1     -10.590  13.736  65.289  1.00  0.00    -0.363 A  
HETATM    8  C   UNL     1     -10.163  14.158  66.548  1.00  0.00    -0.278 A  
HETATM    9  C   UNL     1      -9.658  13.132  67.498  1.00  0.00    -0.208 C  
HETATM   10  O   UNL     1      -9.370  13.401  68.662  1.00  0.00    -0.133 OA 
HETATM   11  C   UNL     1      -9.495  11.719  67.066  1.00  0.00    -0.191 A  
HETATM   12  C   UNL     1      -8.905  10.773  67.932  1.00  0.00    -0.132 A  
HETATM   13  O   UNL     1      -8.435  11.131  69.175  1.00  0.00    -0.345 OA 
HETATM   14  C   UNL     1      -8.751   9.420  67.567  1.00  0.00    -0.123 A  
HETATM   15  H   UNL     1      -8.037  10.495  69.757  1.00  0.00     0.000 HD 
HETATM   16  C   UNL     1      -9.222   9.003  66.299  1.00  0.00    -0.258 A  
HETATM   17  C   UNL     1      -9.766   9.965  65.421  1.00  0.00    -0.306 A  
HETATM   18  C   UNL     1      -9.112   7.549  65.863  1.00  0.00    -0.086 C  
HETATM   19  C   UNL     1      -8.814   6.579  67.011  1.00  0.00    -0.116 C  
HETATM   20  C   UNL     1      -9.918  11.315  65.802  1.00  0.00    -0.281 A  
HETATM   21  O   UNL     1     -10.156   9.594  64.163  1.00  0.00    -0.316 OA 
HETATM   22  O   UNL     1     -10.944  12.027  63.775  1.00  0.00    -0.348 OA 
HETATM   23  C   UNL     1     -10.512  12.320  64.883  1.00  0.00    -0.289 C  
HETATM   24  C   UNL     1      -7.658   7.157  67.829  1.00  0.00    -0.111 C  
HETATM   25  O   UNL     1     -10.008   6.388  67.774  1.00  0.00    -0.119 OA 
HETATM   26  H   UNL     1     -10.523  10.242  63.571  1.00  0.00     0.000 HD 
HETATM   27  C   UNL     1      -8.097   8.440  68.542  1.00  0.00    -0.123 C  
HETATM   28  H   UNL     1      -9.823   5.786  68.486  1.00  0.00     0.000 HD 
BRANCH  19  29
HETATM   29  C   UNL     1      -8.396   5.201  66.471  1.00  0.00    -0.108 C  
HETATM   30  O   UNL     1      -7.376   4.628  66.864  1.00  0.00    -0.078 OA 
HETATM   31  C   UNL     1      -9.341   4.517  65.509  1.00  0.00    -0.162 C  
ENDBRANCH  19  29
BRANCH  27  32
HETATM   32  O   UNL     1      -9.047   8.164  69.588  1.00  0.00    -0.150 OA 
BRANCH  32  33
HETATM   33  C   UNL     1      -8.860   8.876  70.817  1.00  0.00    -0.208 C  
HETATM   34  C   UNL     1     -10.015   8.747  71.810  1.00  0.00    -0.396 C  
HETATM   35  C   UNL     1     -10.085   7.319  72.353  1.00  0.00    -0.185 C  
HETATM   36  N   UNL     1     -11.191   7.200  73.326  1.00  0.00    -0.567 NA 
HETATM   37  C   UNL     1      -8.735   6.955  72.996  1.00  0.00    -0.118 C  
HETATM   38  H1  UNL     1     -11.237   6.248  73.688  1.00  0.00     0.000 HD 
HETATM   39  H2  UNL     1     -12.081   7.502  72.930  1.00  0.00     0.000 HD 
HETATM   40  O   UNL     1      -8.548   7.758  74.173  1.00  0.00    -0.237 OA 
HETATM   41  C   UNL     1      -7.598   7.185  71.979  1.00  0.00    -0.090 C  
HETATM   42  H   UNL     1      -7.715   7.533  74.570  1.00  0.00     0.000 HD 
HETATM   43  C   UNL     1      -6.228   7.000  72.624  1.00  0.00    -0.052 C  
HETATM   44  O   UNL     1      -7.621   8.504  71.421  1.00  0.00    -0.087 OA 
ENDBRANCH  32  33
ENDBRANCH  27  32
ENDBRANCH   2   3
TORSDOF 4
ENDMDL
MODEL       51
REMARK 921   NORMALIZED FREE ENERGY PREDICTED BY IDOCK:   -6.37 KCAL/MOL
REMARK 922        TOTAL FREE ENERGY PREDICTED BY IDOCK:   -8.46 KCAL/MOL
REMARK 923 INTER-LIGAND FREE ENERGY PREDICTED BY IDOCK:   -8.40 KCAL/MOL
REMARK 924 INTRA-LIGAND FREE ENERGY PREDICTED BY IDOCK:   -0.06 KCAL/MOL
REMARK 927      BINDING AFFINITY PREDICTED BY RF-SCORE:    0.00 PKD
ROOT
HETATM    1  C   UNL     1      -6.253   7.845  67.187  1.00  0.00    -0.054 C  
HETATM    2  O   UNL     1      -6.845   9.101  66.868  1.00  0.00    -0.078 OA 
ENDROOT
BRANCH   2   3
HETATM    3  C   UNL     1      -8.213   9.177  66.945  1.00  0.00    -0.116 A  
HETATM    4  C   UNL     1      -9.016   8.024  66.919  1.00  0.00    -0.160 A  
HETATM    5  C   UNL     1     -10.401   8.118  67.007  1.00  0.00    -0.403 A  
HETATM    6  C   UNL     1     -10.995   9.367  67.118  1.00  0.00     0.015 A  
HETATM    7  C   UNL     1     -10.209  10.531  67.119  1.00  0.00    -0.270 A  
HETATM    8  C   UNL     1      -8.820  10.450  67.016  1.00  0.00    -0.143 A  
HETATM    9  C   UNL     1      -8.044  11.718  66.987  1.00  0.00    -0.169 C  
HETATM   10  O   UNL     1      -6.832  11.740  66.785  1.00  0.00    -0.127 OA 
HETATM   11  C   UNL     1      -8.724  13.024  67.192  1.00  0.00    -0.204 A  
HETATM   12  C   UNL     1      -7.969  14.213  67.282  1.00  0.00    -0.150 A  
HETATM   13  O   UNL     1      -6.595  14.199  67.219  1.00  0.00    -0.387 OA 
HETATM   14  C   UNL     1      -8.578  15.472  67.455  1.00  0.00    -0.184 A  
HETATM   15  H   UNL     1      -6.086  14.999  67.280  1.00  0.00     0.000 HD 
HETATM   16  C   UNL     1      -9.990  15.539  67.522  1.00  0.00    -0.230 A  
HETATM   17  C   UNL     1     -10.734  14.340  67.481  1.00  0.00    -0.270 A  
HETATM   18  C   UNL     1     -10.705  16.873  67.677  1.00  0.00    -0.290 C  
HETATM   19  C   UNL     1      -9.819  18.088  67.383  1.00  0.00    -0.309 C  
HETATM   20  C   UNL     1     -10.111  13.086  67.302  1.00  0.00    -0.235 A  
HETATM   21  O   UNL     1     -12.095  14.378  67.620  1.00  0.00    -0.535 OA 
HETATM   22  O   UNL     1     -12.124  11.814  67.282  1.00  0.00    -0.595 OA 
HETATM   23  C   UNL     1     -10.900  11.829  67.236  1.00  0.00    -0.253 C  
HETATM   24  C   UNL     1      -8.500  17.904  68.137  1.00  0.00    -0.268 C  
HETATM   25  O   UNL     1      -9.649  18.203  65.967  1.00  0.00    -0.496 OA 
HETATM   26  H   UNL     1     -12.596  13.571  67.592  1.00  0.00     0.000 HD 
HETATM   27  C   UNL     1      -7.710  16.728  67.554  1.00  0.00    -0.168 C  
HETATM   28  H   UNL     1      -9.100  18.957  65.785  1.00  0.00     0.000 HD 
BRANCH  19  29
HETATM   29  C   UNL     1     -10.487  19.386  67.866  1.00  0.00    -0.421 C  
HETATM   30  O   UNL     1     -11.478  19.859  67.302  1.00  0.00     0.108 OA 
HETATM   31  C   UNL     1      -9.949  20.015  69.131  1.00  0.00    -0.262 C  
ENDBRANCH  19  29
BRANCH  27  32
HETATM   32  O   UNL     1      -7.219  17.025  66.234  1.00  0.00    -0.270 OA 
BRANCH  32  33
HETATM   33  C   UNL     1      -5.961  17.708  66.166  1.00  0.00    -0.213 C  
HETATM   34  C   UNL     1      -5.594  18.230  64.778  1.00  0.00    -0.048 C  
HETATM   35  C   UNL     1      -6.524  19.378  64.385  1.00  0.00     0.216 C  
HETATM   36  N   UNL     1      -6.158  19.894  63.050  1.00  0.00    -0.239 NA 
HETATM   37  C   UNL     1      -6.443  20.484  65.452  1.00  0.00    -0.258 C  
HETATM   38  H1  UNL     1      -6.778  20.660  62.787  1.00  0.00     0.000 HD 
HETATM   39  H2  UNL     1      -6.144  19.156  62.346  1.00  0.00     0.000 HD 
HETATM   40  O   UNL     1      -5.135  21.077  65.408  1.00  0.00    -0.188 OA 
HETATM   41  C   UNL     1      -6.738  19.885  66.842  1.00  0.00    -0.208 C  
HETATM   42  H   UNL     1      -5.085  21.760  66.067  1.00  0.00     0.000 HD 
HETATM   43  C   UNL     1      -6.503  20.907  67.950  1.00  0.00    -0.382 C  
HETATM   44  O   UNL     1      -5.910  18.753  67.137  1.00  0.00    -0.152 OA 
ENDBRANCH  32  33
ENDBRANCH  27  32
ENDBRANCH   2   3
TORSDOF 4
ENDMDL
MODEL       52
REMARK 921   NORMALIZED FREE ENERGY PREDICTED BY IDOCK:   -6.35 KCAL/MOL
REMARK 922        TOTAL FREE ENERGY PREDICTED BY IDOCK:   -8.43 KCAL/MOL
REMARK 923 INTER-LIGAND FREE ENERGY PREDICTED BY IDOCK:   -7.64 KCAL/MOL
REMARK 924 INTRA-LIGAND FREE ENERGY PREDICTED BY IDOCK:   -0.79 KCAL/MOL
REMARK 927      BINDING AFFINITY PREDICTED BY RF-SCORE:    0.00 PKD
ROOT
HETATM    1  C   UNL     1      -6.864  18.278  69.408  1.00  0.00    -0.125 C  
HETATM    2  O   UNL     1      -7.289  16.970  69.032  1.00  0.00    -0.237 OA 
ENDROOT
BRANCH   2   3
HETATM    3  C   UNL     1      -8.189  16.886  68.002  1.00  0.00    -0.203 A  
HETATM    4  C   UNL     1      -8.663  18.032  67.343  1.00  0.00    -0.248 A  
HETATM    5  C   UNL     1      -9.570  17.928  66.293  1.00  0.00    -0.252 A  
HETATM    6  C   UNL     1     -10.014  16.674  65.896  1.00  0.00    -0.320 A  
HETATM    7  C   UNL     1      -9.570  15.520  66.561  1.00  0.00    -0.295 A  
HETATM    8  C   UNL     1      -8.673  15.613  67.624  1.00  0.00    -0.182 A  
HETATM    9  C   UNL     1      -8.267  14.359  68.312  1.00  0.00    -0.149 C  
HETATM   10  O   UNL     1      -7.572  14.362  69.325  1.00  0.00    -0.112 OA 
HETATM   11  C   UNL     1      -8.709  13.037  67.794  1.00  0.00    -0.188 A  
HETATM   12  C   UNL     1      -8.226  11.846  68.378  1.00  0.00    -0.160 A  
HETATM   13  O   UNL     1      -7.315  11.869  69.408  1.00  0.00    -0.330 OA 
HETATM   14  C   UNL     1      -8.636  10.575  67.927  1.00  0.00    -0.123 A  
HETATM   15  H   UNL     1      -6.990  11.067  69.801  1.00  0.00     0.000 HD 
HETATM   16  C   UNL     1      -9.574  10.501  66.871  1.00  0.00    -0.206 A  
HETATM   17  C   UNL     1     -10.014  11.695  66.261  1.00  0.00    -0.217 A  
HETATM   18  C   UNL     1     -10.078   9.157  66.364  1.00  0.00    -0.345 C  
HETATM   19  C   UNL     1      -9.781   7.988  67.309  1.00  0.00    -0.177 C  
HETATM   20  C   UNL     1      -9.598  12.962  66.725  1.00  0.00    -0.246 A  
HETATM   21  O   UNL     1     -10.863  11.639  65.188  1.00  0.00    -0.290 OA 
HETATM   22  O   UNL     1     -10.897  14.226  65.181  1.00  0.00    -0.332 OA 
HETATM   23  C   UNL     1     -10.082  14.217  66.095  1.00  0.00    -0.313 C  
HETATM   24  C   UNL     1      -8.311   8.078  67.722  1.00  0.00    -0.129 C  
HETATM   25  O   UNL     1     -10.684   8.048  68.416  1.00  0.00    -0.382 OA 
HETATM   26  H   UNL     1     -11.159  12.444  64.777  1.00  0.00     0.000 HD 
HETATM   27  C   UNL     1      -8.074   9.317  68.592  1.00  0.00    -0.105 C  
HETATM   28  H   UNL     1     -10.500   7.323  69.001  1.00  0.00     0.000 HD 
BRANCH  19  29
HETATM   29  C   UNL     1     -10.015   6.640  66.606  1.00  0.00    -0.140 C  
HETATM   30  O   UNL     1     -10.903   5.862  66.966  1.00  0.00    -0.301 OA 
HETATM   31  C   UNL     1      -9.180   6.341  65.381  1.00  0.00     0.252 C  
ENDBRANCH  19  29
BRANCH  27  32
HETATM   32  O   UNL     1      -8.702   9.185  69.880  1.00  0.00    -0.137 OA 
BRANCH  32  33
HETATM   33  C   UNL     1      -8.560   7.914  70.526  1.00  0.00    -0.131 C  
HETATM   34  C   UNL     1      -7.581   7.902  71.700  1.00  0.00    -0.084 C  
HETATM   35  C   UNL     1      -8.147   8.715  72.865  1.00  0.00     0.083 C  
HETATM   36  N   UNL     1      -7.208   8.688  74.005  1.00  0.00    -0.376 NA 
HETATM   37  C   UNL     1      -9.521   8.146  73.260  1.00  0.00    -0.220 C  
HETATM   38  H1  UNL     1      -7.585   9.230  74.782  1.00  0.00     0.000 HD 
HETATM   39  H2  UNL     1      -6.275   9.002  73.738  1.00  0.00     0.000 HD 
HETATM   40  O   UNL     1      -9.338   6.834  73.818  1.00  0.00    -0.150 OA 
HETATM   41  C   UNL     1     -10.439   8.101  72.022  1.00  0.00    -0.263 C  
HETATM   42  H   UNL     1     -10.186   6.483  74.062  1.00  0.00     0.000 HD 
HETATM   43  C   UNL     1     -11.753   7.388  72.327  1.00  0.00    -0.326 C  
HETATM   44  O   UNL     1      -9.838   7.412  70.919  1.00  0.00    -0.178 OA 
ENDBRANCH  32  33
ENDBRANCH  27  32
ENDBRANCH   2   3
TORSDOF 4
ENDMDL
MODEL       53
REMARK 921   NORMALIZED FREE ENERGY PREDICTED BY IDOCK:   -6.32 KCAL/MOL
REMARK 922        TOTAL FREE ENERGY PREDICTED BY IDOCK:   -8.39 KCAL/MOL
REMARK 923 INTER-LIGAND FREE ENERGY PREDICTED BY IDOCK:   -8.32 KCAL/MOL
REMARK 924 INTRA-LIGAND FREE ENERGY PREDICTED BY IDOCK:   -0.08 KCAL/MOL
REMARK 927      BINDING AFFINITY PREDICTED BY RF-SCORE:    0.00 PKD
ROOT
HETATM    1  C   UNL     1      -9.759   4.472  68.097  1.00  0.00    -0.127 C  
HETATM    2  O   UNL     1     -10.172   5.429  69.069  1.00  0.00    -0.199 OA 
ENDROOT
BRANCH   2   3
HETATM    3  C   UNL     1      -9.213   5.875  69.943  1.00  0.00    -0.146 A  
HETATM    4  C   UNL     1      -8.620   5.017  70.884  1.00  0.00    -0.129 A  
HETATM    5  C   UNL     1      -7.643   5.484  71.757  1.00  0.00    -0.095 A  
HETATM    6  C   UNL     1      -7.253   6.814  71.698  1.00  0.00    -0.080 A  
HETATM    7  C   UNL     1      -7.854   7.691  70.781  1.00  0.00    -0.096 A  
HETATM    8  C   UNL     1      -8.846   7.239  69.911  1.00  0.00    -0.142 A  
HETATM    9  C   UNL     1      -9.471   8.222  68.987  1.00  0.00    -0.155 C  
HETATM   10  O   UNL     1     -10.426   7.933  68.271  1.00  0.00    -0.202 OA 
HETATM   11  C   UNL     1      -8.958   9.615  68.909  1.00  0.00    -0.144 A  
HETATM   12  C   UNL     1      -9.474  10.510  67.948  1.00  0.00    -0.147 A  
HETATM   13  O   UNL     1     -10.431  10.118  67.040  1.00  0.00    -0.232 OA 
HETATM   14  C   UNL     1      -9.029  11.844  67.856  1.00  0.00    -0.179 A  
HETATM   15  H   UNL     1     -10.778  10.721  66.393  1.00  0.00     0.000 HD 
HETATM   16  C   UNL     1      -8.047  12.296  68.770  1.00  0.00     0.054 A  
HETATM   17  C   UNL     1      -7.501  11.380  69.695  1.00  0.00     0.257 A  
HETATM   18  C   UNL     1      -7.550  13.734  68.739  1.00  0.00    -0.099 C  
HETATM   19  C   UNL     1      -8.442  14.679  67.927  1.00  0.00    -0.158 C  
HETATM   20  C   UNL     1      -7.961  10.048  69.779  1.00  0.00    -0.190 A  
HETATM   21  O   UNL     1      -6.497  11.779  70.536  1.00  0.00    -0.520 OA 
HETATM   22  O   UNL     1      -6.553   9.419  71.593  1.00  0.00    -0.278 OA 
HETATM   23  C   UNL     1      -7.399   9.094  70.770  1.00  0.00    -0.114 C  
HETATM   24  C   UNL     1      -8.741  14.009  66.584  1.00  0.00    -0.055 C  
HETATM   25  O   UNL     1      -9.617  14.972  68.687  1.00  0.00    -0.204 OA 
HETATM   26  H   UNL     1      -6.130  11.162  71.159  1.00  0.00     0.000 HD 
HETATM   27  C   UNL     1      -9.617  12.770  66.789  1.00  0.00    -0.244 C  
HETATM   28  H   UNL     1     -10.170  15.558  68.184  1.00  0.00     0.000 HD 
BRANCH  19  29
HETATM   29  C   UNL     1      -7.729  16.016  67.663  1.00  0.00    -0.145 C  
HETATM   30  O   UNL     1      -8.177  16.850  66.871  1.00  0.00    -0.182 OA 
HETATM   31  C   UNL     1      -6.503  16.325  68.493  1.00  0.00    -0.129 C  
ENDBRANCH  19  29
BRANCH  27  32
HETATM   32  O   UNL     1     -10.948  13.127  67.207  1.00  0.00    -0.260 OA 
BRANCH  32  33
HETATM   33  C   UNL     1     -12.002  12.829  66.284  1.00  0.00    -0.395 C  
HETATM   34  C   UNL     1     -12.643  14.053  65.631  1.00  0.00    -0.542 C  
HETATM   35  C   UNL     1     -11.652  14.718  64.674  1.00  0.00    -0.399 C  
HETATM   36  N   UNL     1     -12.278  15.891  64.030  1.00  0.00    -1.022 NA 
HETATM   37  C   UNL     1     -11.189  13.688  63.628  1.00  0.00     0.285 C  
HETATM   38  H1  UNL     1     -11.618  16.334  63.392  1.00  0.00     0.000 HD 
HETATM   39  H2  UNL     1     -12.648  16.550  64.715  1.00  0.00     0.000 HD 
HETATM   40  O   UNL     1     -12.302  13.350  62.784  1.00  0.00    -0.812 OA 
HETATM   41  C   UNL     1     -10.632  12.440  64.342  1.00  0.00    -0.337 C  
HETATM   42  H   UNL     1     -12.016  12.714  62.139  1.00  0.00     0.000 HD 
HETATM   43  C   UNL     1     -10.317  11.324  63.350  1.00  0.00    -0.449 C  
HETATM   44  O   UNL     1     -11.551  11.899  65.299  1.00  0.00    -0.306 OA 
ENDBRANCH  32  33
ENDBRANCH  27  32
ENDBRANCH   2   3
TORSDOF 4
ENDMDL
MODEL       54
REMARK 921   NORMALIZED FREE ENERGY PREDICTED BY IDOCK:   -6.31 KCAL/MOL
REMARK 922        TOTAL FREE ENERGY PREDICTED BY IDOCK:   -8.39 KCAL/MOL
REMARK 923 INTER-LIGAND FREE ENERGY PREDICTED BY IDOCK:   -8.84 KCAL/MOL
REMARK 924 INTRA-LIGAND FREE ENERGY PREDICTED BY IDOCK:    0.45 KCAL/MOL
REMARK 927      BINDING AFFINITY PREDICTED BY RF-SCORE:    0.00 PKD
ROOT
HETATM    1  C   UNL     1      -7.132   4.482  71.851  1.00  0.00    -0.056 C  
HETATM    2  O   UNL     1      -7.930   5.236  70.943  1.00  0.00    -0.094 OA 
ENDROOT
BRANCH   2   3
HETATM    3  C   UNL     1      -9.203   5.547  71.350  1.00  0.00    -0.146 A  
HETATM    4  C   UNL     1      -9.978   4.642  72.095  1.00  0.00    -0.241 A  
HETATM    5  C   UNL     1     -11.264   4.977  72.507  1.00  0.00    -0.183 A  
HETATM    6  C   UNL     1     -11.786   6.218  72.174  1.00  0.00    -0.365 A  
HETATM    7  C   UNL     1     -11.035   7.124  71.408  1.00  0.00    -0.258 A  
HETATM    8  C   UNL     1      -9.751   6.794  70.976  1.00  0.00    -0.182 A  
HETATM    9  C   UNL     1      -9.018   7.779  70.137  1.00  0.00    -0.146 C  
HETATM   10  O   UNL     1      -7.932   7.522  69.623  1.00  0.00    -0.119 OA 
HETATM   11  C   UNL     1      -9.592   9.125  69.880  1.00  0.00    -0.206 A  
HETATM   12  C   UNL     1      -8.842  10.098  69.184  1.00  0.00    -0.175 A  
HETATM   13  O   UNL     1      -7.558   9.847  68.758  1.00  0.00    -0.077 OA 
HETATM   14  C   UNL     1      -9.360  11.379  68.903  1.00  0.00    -0.044 A  
HETATM   15  H   UNL     1      -7.053  10.502  68.291  1.00  0.00     0.000 HD 
HETATM   16  C   UNL     1     -10.678  11.683  69.318  1.00  0.00    -0.144 A  
HETATM   17  C   UNL     1     -11.402  10.722  70.056  1.00  0.00    -0.319 A  
HETATM   18  C   UNL     1     -11.301  13.038  69.015  1.00  0.00    -0.340 C  
HETATM   19  C   UNL     1     -10.547  13.842  67.949  1.00  0.00    -0.252 C  
HETATM   20  C   UNL     1     -10.873   9.442  70.326  1.00  0.00    -0.303 A  
HETATM   21  O   UNL     1     -12.649  11.027  70.531  1.00  0.00    -0.323 OA 
HETATM   22  O   UNL     1     -12.794   8.620  71.467  1.00  0.00    -0.323 OA 
HETATM   23  C   UNL     1     -11.648   8.425  71.083  1.00  0.00    -0.279 C  
HETATM   24  C   UNL     1      -9.059  13.815  68.303  1.00  0.00    -0.195 C  
HETATM   25  O   UNL     1     -10.834  13.284  66.664  1.00  0.00    -0.278 OA 
HETATM   26  H   UNL     1     -13.136  10.380  71.028  1.00  0.00     0.000 HD 
HETATM   27  C   UNL     1      -8.499  12.397  68.152  1.00  0.00    -0.180 C  
HETATM   28  H   UNL     1     -10.367  13.783  66.003  1.00  0.00     0.000 HD 
BRANCH  19  29
HETATM   29  C   UNL     1     -11.023  15.304  67.925  1.00  0.00    -0.306 C  
HETATM   30  O   UNL     1     -11.676  15.793  68.851  1.00  0.00    -0.383 OA 
HETATM   31  C   UNL     1     -10.571  16.162  66.765  1.00  0.00    -0.277 C  
ENDBRANCH  19  29
BRANCH  27  32
HETATM   32  O   UNL     1      -8.449  11.993  66.771  1.00  0.00    -0.183 OA 
BRANCH  32  33
HETATM   33  C   UNL     1      -8.957  10.687  66.475  1.00  0.00    -0.156 C  
HETATM   34  C   UNL     1     -10.111  10.664  65.474  1.00  0.00    -0.343 C  
HETATM   35  C   UNL     1      -9.611  11.061  64.084  1.00  0.00    -0.266 C  
HETATM   36  N   UNL     1     -10.724  11.021  63.114  1.00  0.00    -0.789 NA 
HETATM   37  C   UNL     1      -8.472  10.113  63.666  1.00  0.00    -0.184 C  
HETATM   38  H1  UNL     1     -10.390  11.286  62.187  1.00  0.00     0.000 HD 
HETATM   39  H2  UNL     1     -11.512  11.595  63.414  1.00  0.00     0.000 HD 
HETATM   40  O   UNL     1      -9.012   8.796  63.470  1.00  0.00    -0.415 OA 
HETATM   41  C   UNL     1      -7.377  10.110  64.751  1.00  0.00    -0.134 C  
HETATM   42  H   UNL     1      -8.310   8.211  63.212  1.00  0.00     0.000 HD 
HETATM   43  C   UNL     1      -6.309   9.059  64.462  1.00  0.00    -0.071 C  
HETATM   44  O   UNL     1      -7.898   9.827  66.056  1.00  0.00    -0.104 OA 
ENDBRANCH  32  33
ENDBRANCH  27  32
ENDBRANCH   2   3
TORSDOF 4
ENDMDL
MODEL       55
REMARK 921   NORMALIZED FREE ENERGY PREDICTED BY IDOCK:   -6.30 KCAL/MOL
REMARK 922        TOTAL FREE ENERGY PREDICTED BY IDOCK:   -8.36 KCAL/MOL
REMARK 923 INTER-LIGAND FREE ENERGY PREDICTED BY IDOCK:   -7.33 KCAL/MOL
REMARK 924 INTRA-LIGAND FREE ENERGY PREDICTED BY IDOCK:   -1.04 KCAL/MOL
REMARK 927      BINDING AFFINITY PREDICTED BY RF-SCORE:    0.00 PKD
ROOT
HETATM    1  C   UNL     1     -10.042  16.753  68.807  1.00  0.00    -0.286 C  
HETATM    2  O   UNL     1      -9.747  15.474  68.251  1.00  0.00    -0.199 OA 
ENDROOT
BRANCH   2   3
HETATM    3  C   UNL     1     -10.152  15.254  66.960  1.00  0.00    -0.248 A  
HETATM    4  C   UNL     1     -10.728  16.274  66.185  1.00  0.00    -0.198 A  
HETATM    5  C   UNL     1     -11.126  16.036  64.873  1.00  0.00    -0.381 A  
HETATM    6  C   UNL     1     -10.952  14.773  64.326  1.00  0.00     0.135 A  
HETATM    7  C   UNL     1     -10.402  13.734  65.095  1.00  0.00    -0.391 A  
HETATM    8  C   UNL     1     -10.014  13.957  66.416  1.00  0.00    -0.303 A  
HETATM    9  C   UNL     1      -9.471  12.810  67.190  1.00  0.00    -0.223 C  
HETATM   10  O   UNL     1      -9.213  12.892  68.389  1.00  0.00    -0.198 OA 
HETATM   11  C   UNL     1      -9.231  11.500  66.531  1.00  0.00    -0.203 A  
HETATM   12  C   UNL     1      -8.606  10.451  67.238  1.00  0.00    -0.126 A  
HETATM   13  O   UNL     1      -8.171  10.615  68.532  1.00  0.00    -0.114 OA 
HETATM   14  C   UNL     1      -8.379   9.188  66.653  1.00  0.00    -0.122 A  
HETATM   15  H   UNL     1      -7.750   9.909  69.008  1.00  0.00     0.000 HD 
HETATM   16  C   UNL     1      -8.812   8.969  65.324  1.00  0.00    -0.234 A  
HETATM   17  C   UNL     1      -9.391  10.039  64.608  1.00  0.00    -0.279 A  
HETATM   18  C   UNL     1      -8.623   7.617  64.651  1.00  0.00     0.185 C  
HETATM   19  C   UNL     1      -8.291   6.482  65.625  1.00  0.00    -0.144 C  
HETATM   20  C   UNL     1      -9.616  11.297  65.207  1.00  0.00    -0.265 A  
HETATM   21  O   UNL     1      -9.745   9.868  63.297  1.00  0.00    -0.514 OA 
HETATM   22  O   UNL     1     -10.650  12.292  63.307  1.00  0.00    -0.421 OA 
HETATM   23  C   UNL     1     -10.248  12.413  64.457  1.00  0.00    -0.299 C  
HETATM   24  C   UNL     1      -7.177   6.967  66.554  1.00  0.00    -0.082 C  
HETATM   25  O   UNL     1      -9.485   6.108  66.320  1.00  0.00    -0.185 OA 
HETATM   26  H   UNL     1     -10.136  10.588  62.815  1.00  0.00     0.000 HD 
HETATM   27  C   UNL     1      -7.690   8.089  67.464  1.00  0.00    -0.106 C  
HETATM   28  H   UNL     1      -9.279   5.404  66.924  1.00  0.00     0.000 HD 
BRANCH  19  29
HETATM   29  C   UNL     1      -7.798   5.236  64.871  1.00  0.00    -0.095 C  
HETATM   30  O   UNL     1      -6.633   4.837  64.962  1.00  0.00    -0.041 OA 
HETATM   31  C   UNL     1      -8.822   4.448  64.087  1.00  0.00    -0.146 C  
ENDBRANCH  19  29
BRANCH  27  32
HETATM   32  O   UNL     1      -8.639   7.595  68.427  1.00  0.00    -0.125 OA 
BRANCH  32  33
HETATM   33  C   UNL     1      -8.117   7.275  69.722  1.00  0.00    -0.128 C  
HETATM   34  C   UNL     1      -8.649   8.150  70.857  1.00  0.00    -0.144 C  
HETATM   35  C   UNL     1     -10.129   7.853  71.101  1.00  0.00    -0.184 C  
HETATM   36  N   UNL     1     -10.638   8.687  72.209  1.00  0.00    -0.336 NA 
HETATM   37  C   UNL     1     -10.302   6.354  71.405  1.00  0.00    -0.206 C  
HETATM   38  H1  UNL     1     -11.625   8.489  72.372  1.00  0.00     0.000 HD 
HETATM   39  H2  UNL     1     -10.469   9.680  72.048  1.00  0.00     0.000 HD 
HETATM   40  O   UNL     1      -9.684   6.062  72.669  1.00  0.00    -0.156 OA 
HETATM   41  C   UNL     1      -9.673   5.520  70.271  1.00  0.00    -0.183 C  
HETATM   42  H   UNL     1      -9.791   5.137  72.857  1.00  0.00     0.000 HD 
HETATM   43  C   UNL     1      -9.670   4.032  70.610  1.00  0.00    -0.266 C  
HETATM   44  O   UNL     1      -8.314   5.890  70.007  1.00  0.00    -0.117 OA 
ENDBRANCH  32  33
ENDBRANCH  27  32
ENDBRANCH   2   3
TORSDOF 4
ENDMDL
MODEL       56
REMARK 921   NORMALIZED FREE ENERGY PREDICTED BY IDOCK:   -6.30 KCAL/MOL
REMARK 922        TOTAL FREE ENERGY PREDICTED BY IDOCK:   -8.36 KCAL/MOL
REMARK 923 INTER-LIGAND FREE ENERGY PREDICTED BY IDOCK:   -9.24 KCAL/MOL
REMARK 924 INTRA-LIGAND FREE ENERGY PREDICTED BY IDOCK:    0.87 KCAL/MOL
REMARK 927      BINDING AFFINITY PREDICTED BY RF-SCORE:    0.00 PKD
ROOT
HETATM    1  C   UNL     1     -10.042   5.472  70.847  1.00  0.00    -0.213 C  
HETATM    2  O   UNL     1     -10.057   6.653  70.050  1.00  0.00    -0.174 OA 
ENDROOT
BRANCH   2   3
HETATM    3  C   UNL     1      -8.847   7.099  69.584  1.00  0.00    -0.141 A  
HETATM    4  C   UNL     1      -7.688   6.310  69.674  1.00  0.00    -0.099 A  
HETATM    5  C   UNL     1      -6.469   6.775  69.189  1.00  0.00    -0.036 A  
HETATM    6  C   UNL     1      -6.399   8.035  68.613  1.00  0.00    -0.052 A  
HETATM    7  C   UNL     1      -7.542   8.848  68.540  1.00  0.00    -0.097 A  
HETATM    8  C   UNL     1      -8.766   8.399  69.037  1.00  0.00    -0.142 A  
HETATM    9  C   UNL     1      -9.932   9.318  68.963  1.00  0.00    -0.182 C  
HETATM   10  O   UNL     1     -11.014   9.046  69.478  1.00  0.00    -0.207 OA 
HETATM   11  C   UNL     1      -9.821  10.625  68.263  1.00  0.00    -0.174 A  
HETATM   12  C   UNL     1     -10.960  11.440  68.093  1.00  0.00    -0.232 A  
HETATM   13  O   UNL     1     -12.201  11.042  68.531  1.00  0.00    -0.757 OA 
HETATM   14  C   UNL     1     -10.890  12.695  67.453  1.00  0.00    -0.272 A  
HETATM   15  H   UNL     1     -12.968  11.591  68.416  1.00  0.00     0.000 HD 
HETATM   16  C   UNL     1      -9.633  13.149  66.987  1.00  0.00    -0.241 A  
HETATM   17  C   UNL     1      -8.509  12.305  67.118  1.00  0.00    -0.184 A  
HETATM   18  C   UNL     1      -9.491  14.508  66.317  1.00  0.00    -0.310 C  
HETATM   19  C   UNL     1     -10.694  15.433  66.533  1.00  0.00    -0.308 C  
HETATM   20  C   UNL     1      -8.593  11.054  67.765  1.00  0.00    -0.130 A  
HETATM   21  O   UNL     1      -7.302  12.696  66.605  1.00  0.00    -0.329 OA 
HETATM   22  O   UNL     1      -6.284  10.512  67.547  1.00  0.00    -0.055 OA 
HETATM   23  C   UNL     1      -7.402  10.179  67.921  1.00  0.00    -0.087 C  
HETATM   24  C   UNL     1     -11.964  14.633  66.239  1.00  0.00    -0.262 C  
HETATM   25  O   UNL     1     -10.645  15.948  67.866  1.00  0.00    -0.282 OA 
HETATM   26  H   UNL     1      -6.545  12.128  66.694  1.00  0.00     0.000 HD 
HETATM   27  C   UNL     1     -12.158  13.534  67.288  1.00  0.00    -0.323 C  
HETATM   28  H   UNL     1     -11.391  16.522  68.000  1.00  0.00     0.000 HD 
BRANCH  19  29
HETATM   29  C   UNL     1     -10.637  16.639  65.579  1.00  0.00    -0.258 C  
HETATM   30  O   UNL     1     -11.058  16.575  64.421  1.00  0.00    -0.894 OA 
HETATM   31  C   UNL     1     -10.140  17.949  66.146  1.00  0.00    -0.322 C  
ENDBRANCH  19  29
BRANCH  27  32
HETATM   32  O   UNL     1     -12.487  14.086  68.576  1.00  0.00    -0.134 OA 
BRANCH  32  33
HETATM   33  C   UNL     1     -11.568  13.806  69.639  1.00  0.00    -0.281 C  
HETATM   34  C   UNL     1     -11.070  15.038  70.392  1.00  0.00    -0.263 C  
HETATM   35  C   UNL     1     -12.210  15.656  71.202  1.00  0.00    -0.413 C  
HETATM   36  N   UNL     1     -11.723  16.837  71.944  1.00  0.00    -0.495 NA 
HETATM   37  C   UNL     1     -12.786  14.596  72.158  1.00  0.00    -0.333 C  
HETATM   38  H1  UNL     1     -12.483  17.250  72.485  1.00  0.00     0.000 HD 
HETATM   39  H2  UNL     1     -11.279  17.519  71.328  1.00  0.00     0.000 HD 
HETATM   40  O   UNL     1     -11.797  14.278  73.150  1.00  0.00     0.278 OA 
HETATM   41  C   UNL     1     -13.193  13.343  71.355  1.00  0.00    -0.250 C  
HETATM   42  H   UNL     1     -12.152  13.624  73.740  1.00  0.00     0.000 HD 
HETATM   43  C   UNL     1     -13.611  12.202  72.278  1.00  0.00    -0.226 C  
HETATM   44  O   UNL     1     -12.127  12.846  70.537  1.00  0.00    -0.356 OA 
ENDBRANCH  32  33
ENDBRANCH  27  32
ENDBRANCH   2   3
TORSDOF 4
ENDMDL
MODEL       57
REMARK 921   NORMALIZED FREE ENERGY PREDICTED BY IDOCK:   -6.24 KCAL/MOL
REMARK 922        TOTAL FREE ENERGY PREDICTED BY IDOCK:   -8.29 KCAL/MOL
REMARK 923 INTER-LIGAND FREE ENERGY PREDICTED BY IDOCK:   -7.48 KCAL/MOL
REMARK 924 INTRA-LIGAND FREE ENERGY PREDICTED BY IDOCK:   -0.81 KCAL/MOL
REMARK 927      BINDING AFFINITY PREDICTED BY RF-SCORE:    0.00 PKD
ROOT
HETATM    1  C   UNL     1     -11.165   7.617  73.074  1.00  0.00    -0.333 C  
HETATM    2  O   UNL     1     -12.224   7.876  72.155  1.00  0.00    -0.309 OA 
ENDROOT
BRANCH   2   3
HETATM    3  C   UNL     1     -12.292   9.142  71.634  1.00  0.00    -0.360 A  
HETATM    4  C   UNL     1     -13.007  10.166  72.278  1.00  0.00    -0.316 A  
HETATM    5  C   UNL     1     -13.060  11.447  71.740  1.00  0.00    -0.523 A  
HETATM    6  C   UNL     1     -12.400  11.715  70.549  1.00  0.00    -0.410 A  
HETATM    7  C   UNL     1     -11.703  10.698  69.878  1.00  0.00    -0.395 A  
HETATM    8  C   UNL     1     -11.656   9.405  70.400  1.00  0.00    -0.241 A  
HETATM    9  C   UNL     1     -10.932   8.362  69.627  1.00  0.00    -0.087 C  
HETATM   10  O   UNL     1     -10.939   7.178  69.957  1.00  0.00    -0.251 OA 
HETATM   11  C   UNL     1     -10.175   8.722  68.399  1.00  0.00    -0.228 A  
HETATM   12  C   UNL     1      -9.393   7.752  67.736  1.00  0.00    -0.143 A  
HETATM   13  O   UNL     1      -9.279   6.468  68.216  1.00  0.00    -0.119 OA 
HETATM   14  C   UNL     1      -8.677   8.050  66.558  1.00  0.00    -0.161 A  
HETATM   15  H   UNL     1      -8.753   5.815  67.769  1.00  0.00     0.000 HD 
HETATM   16  C   UNL     1      -8.765   9.357  66.023  1.00  0.00    -0.171 A  
HETATM   17  C   UNL     1      -9.509  10.333  66.721  1.00  0.00    -0.163 A  
HETATM   18  C   UNL     1      -8.039   9.727  64.738  1.00  0.00    -0.146 C  
HETATM   19  C   UNL     1      -7.554   8.519  63.930  1.00  0.00    -0.129 C  
HETATM   20  C   UNL     1     -10.225  10.020  67.896  1.00  0.00    -0.228 A  
HETATM   21  O   UNL     1      -9.543  11.621  66.259  1.00  0.00    -0.209 OA 
HETATM   22  O   UNL     1     -11.149  12.192  68.205  1.00  0.00    -0.217 OA 
HETATM   23  C   UNL     1     -11.026  11.044  68.614  1.00  0.00    -0.224 C  
HETATM   24  C   UNL     1      -6.841   7.565  64.891  1.00  0.00    -0.047 C  
HETATM   25  O   UNL     1      -8.675   7.924  63.271  1.00  0.00    -0.369 OA 
HETATM   26  H   UNL     1     -10.044  12.278  66.729  1.00  0.00     0.000 HD 
HETATM   27  C   UNL     1      -7.839   6.962  65.884  1.00  0.00    -0.106 C  
HETATM   28  H   UNL     1      -8.374   7.175  62.770  1.00  0.00     0.000 HD 
BRANCH  19  29
HETATM   29  C   UNL     1      -6.563   8.951  62.837  1.00  0.00    -0.090 C  
HETATM   30  O   UNL     1      -6.514  10.112  62.422  1.00  0.00    -0.109 OA 
HETATM   31  C   UNL     1      -5.568   7.920  62.355  1.00  0.00    -0.065 C  
ENDBRANCH  19  29
BRANCH  27  32
HETATM   32  O   UNL     1      -8.745   6.051  65.234  1.00  0.00    -0.134 OA 
BRANCH  32  33
HETATM   33  C   UNL     1      -8.478   4.655  65.414  1.00  0.00    -0.126 C  
HETATM   34  C   UNL     1      -9.664   3.737  65.125  1.00  0.00    -0.176 C  
HETATM   35  C   UNL     1      -9.980   3.741  63.628  1.00  0.00    -0.181 C  
HETATM   36  N   UNL     1     -11.116   2.840  63.347  1.00  0.00    -0.411 NA 
HETATM   37  C   UNL     1      -8.725   3.319  62.844  1.00  0.00    -0.089 C  
HETATM   38  H1  UNL     1     -11.326   2.843  62.349  1.00  0.00     0.000 HD 
HETATM   39  H2  UNL     1     -11.934   3.070  63.911  1.00  0.00     0.000 HD 
HETATM   40  O   UNL     1      -8.442   1.939  63.128  1.00  0.00    -0.072 OA 
HETATM   41  C   UNL     1      -7.539   4.223  63.239  1.00  0.00    -0.058 C  
HETATM   42  H   UNL     1      -7.667   1.679  62.644  1.00  0.00     0.000 HD 
HETATM   43  C   UNL     1      -6.235   3.736  62.615  1.00  0.00    -0.017 C  
HETATM   44  O   UNL     1      -7.332   4.268  64.656  1.00  0.00    -0.068 OA 
ENDBRANCH  32  33
ENDBRANCH  27  32
ENDBRANCH   2   3
TORSDOF 4
ENDMDL
MODEL       58
REMARK 921   NORMALIZED FREE ENERGY PREDICTED BY IDOCK:   -6.06 KCAL/MOL
REMARK 922        TOTAL FREE ENERGY PREDICTED BY IDOCK:   -8.07 KCAL/MOL
REMARK 923 INTER-LIGAND FREE ENERGY PREDICTED BY IDOCK:   -8.02 KCAL/MOL
REMARK 924 INTRA-LIGAND FREE ENERGY PREDICTED BY IDOCK:   -0.05 KCAL/MOL
REMARK 927      BINDING AFFINITY PREDICTED BY RF-SCORE:    0.00 PKD
ROOT
HETATM    1  C   UNL     1     -13.997  13.430  72.470  1.00  0.00    -0.413 C  
HETATM    2  O   UNL     1     -13.284  12.905  71.353  1.00  0.00    -0.297 OA 
ENDROOT
BRANCH   2   3
HETATM    3  C   UNL     1     -12.512  13.789  70.644  1.00  0.00    -0.359 A  
HETATM    4  C   UNL     1     -12.648  15.178  70.803  1.00  0.00    -0.452 A  
HETATM    5  C   UNL     1     -11.851  16.061  70.082  1.00  0.00    -0.253 A  
HETATM    6  C   UNL     1     -10.912  15.561  69.191  1.00  0.00    -0.259 A  
HETATM    7  C   UNL     1     -10.781  14.176  69.000  1.00  0.00    -0.249 A  
HETATM    8  C   UNL     1     -11.585  13.282  69.706  1.00  0.00    -0.297 A  
HETATM    9  C   UNL     1     -11.425  11.829  69.435  1.00  0.00    -0.307 C  
HETATM   10  O   UNL     1     -12.168  10.984  69.928  1.00  0.00    -0.325 OA 
HETATM   11  C   UNL     1     -10.348  11.344  68.531  1.00  0.00    -0.219 A  
HETATM   12  C   UNL     1     -10.124   9.960  68.370  1.00  0.00    -0.167 A  
HETATM   13  O   UNL     1     -10.861   9.027  69.061  1.00  0.00    -0.374 OA 
HETATM   14  C   UNL     1      -9.126   9.462  67.507  1.00  0.00    -0.136 A  
HETATM   15  H   UNL     1     -10.709   8.095  68.952  1.00  0.00     0.000 HD 
HETATM   16  C   UNL     1      -8.344  10.383  66.772  1.00  0.00    -0.126 A  
HETATM   17  C   UNL     1      -8.542  11.766  66.977  1.00  0.00    -0.173 A  
HETATM   18  C   UNL     1      -7.274   9.903  65.801  1.00  0.00    -0.110 C  
HETATM   19  C   UNL     1      -7.388   8.419  65.438  1.00  0.00    -0.084 C  
HETATM   20  C   UNL     1      -9.547  12.251  67.840  1.00  0.00    -0.203 A  
HETATM   21  O   UNL     1      -7.743  12.671  66.331  1.00  0.00    -0.160 OA 
HETATM   22  O   UNL     1      -9.131  14.558  67.428  1.00  0.00    -0.181 OA 
HETATM   23  C   UNL     1      -9.768  13.707  68.036  1.00  0.00    -0.226 C  
HETATM   24  C   UNL     1      -7.568   7.628  66.736  1.00  0.00    -0.098 C  
HETATM   25  O   UNL     1      -8.472   8.251  64.520  1.00  0.00    -0.321 OA 
HETATM   26  H   UNL     1      -7.877  13.602  66.469  1.00  0.00     0.000 HD 
HETATM   27  C   UNL     1      -8.921   7.951  67.376  1.00  0.00    -0.127 C  
HETATM   28  H   UNL     1      -8.542   7.331  64.294  1.00  0.00     0.000 HD 
BRANCH  19  29
HETATM   29  C   UNL     1      -6.115   7.926  64.732  1.00  0.00    -0.045 C  
HETATM   30  O   UNL     1      -5.562   6.868  65.047  1.00  0.00    -0.030 OA 
HETATM   31  C   UNL     1      -5.616   8.735  63.556  1.00  0.00    -0.068 C  
ENDBRANCH  19  29
BRANCH  27  32
HETATM   32  O   UNL     1     -10.012   7.428  66.596  1.00  0.00    -0.221 OA 
BRANCH  32  33
HETATM   33  C   UNL     1     -10.718   6.316  67.161  1.00  0.00    -0.359 C  
HETATM   34  C   UNL     1     -10.903   5.131  66.214  1.00  0.00    -0.180 C  
HETATM   35  C   UNL     1      -9.556   4.461  65.940  1.00  0.00    -0.188 C  
HETATM   36  N   UNL     1      -9.738   3.306  65.038  1.00  0.00    -0.305 NA 
HETATM   37  C   UNL     1      -8.922   4.033  67.276  1.00  0.00    -0.133 C  
HETATM   38  H1  UNL     1      -8.839   2.859  64.856  1.00  0.00     0.000 HD 
HETATM   39  H2  UNL     1     -10.217   3.566  64.176  1.00  0.00     0.000 HD 
HETATM   40  O   UNL     1      -9.715   2.980  67.850  1.00  0.00    -0.240 OA 
HETATM   41  C   UNL     1      -8.839   5.247  68.223  1.00  0.00    -0.104 C  
HETATM   42  H   UNL     1      -9.323   2.716  68.674  1.00  0.00     0.000 HD 
HETATM   43  C   UNL     1      -8.374   4.836  69.617  1.00  0.00    -0.082 C  
HETATM   44  O   UNL     1     -10.101   5.906  68.382  1.00  0.00    -0.143 OA 
ENDBRANCH  32  33
ENDBRANCH  27  32
ENDBRANCH   2   3
TORSDOF 4
ENDMDL
MODEL       59
REMARK 921   NORMALIZED FREE ENERGY PREDICTED BY IDOCK:   -6.05 KCAL/MOL
REMARK 922        TOTAL FREE ENERGY PREDICTED BY IDOCK:   -8.06 KCAL/MOL
REMARK 923 INTER-LIGAND FREE ENERGY PREDICTED BY IDOCK:   -7.55 KCAL/MOL
REMARK 924 INTRA-LIGAND FREE ENERGY PREDICTED BY IDOCK:   -0.50 KCAL/MOL
REMARK 927      BINDING AFFINITY PREDICTED BY RF-SCORE:    0.00 PKD
ROOT
HETATM    1  C   UNL     1     -12.226  12.410  64.096  1.00  0.00    -0.468 C  
HETATM    2  O   UNL     1     -11.127  12.419  65.004  1.00  0.00    -0.288 OA 
ENDROOT
BRANCH   2   3
HETATM    3  C   UNL     1     -11.416  12.680  66.319  1.00  0.00    -0.364 A  
HETATM    4  C   UNL     1     -11.872  13.942  66.736  1.00  0.00    -0.452 A  
HETATM    5  C   UNL     1     -12.168  14.188  68.073  1.00  0.00    -0.181 A  
HETATM    6  C   UNL     1     -12.007  13.174  69.005  1.00  0.00    -0.329 A  
HETATM    7  C   UNL     1     -11.527  11.915  68.611  1.00  0.00    -0.350 A  
HETATM    8  C   UNL     1     -11.212  11.661  67.276  1.00  0.00    -0.365 A  
HETATM    9  C   UNL     1     -10.674  10.320  66.924  1.00  0.00    -0.184 C  
HETATM   10  O   UNL     1     -10.267  10.052  65.796  1.00  0.00    -0.265 OA 
HETATM   11  C   UNL     1     -10.599   9.245  67.948  1.00  0.00    -0.288 A  
HETATM   12  C   UNL     1     -10.201   7.941  67.583  1.00  0.00    -0.226 A  
HETATM   13  O   UNL     1      -9.907   7.617  66.279  1.00  0.00    -0.421 OA 
HETATM   14  C   UNL     1     -10.097   6.901  68.529  1.00  0.00    -0.165 A  
HETATM   15  H   UNL     1      -9.639   6.740  66.034  1.00  0.00     0.000 HD 
HETATM   16  C   UNL     1     -10.386   7.185  69.884  1.00  0.00    -0.224 A  
HETATM   17  C   UNL     1     -10.832   8.479  70.232  1.00  0.00    -0.238 A  
HETATM   18  C   UNL     1     -10.262   6.110  70.955  1.00  0.00    -0.250 C  
HETATM   19  C   UNL     1      -9.472   4.877  70.504  1.00  0.00    -0.166 C  
HETATM   20  C   UNL     1     -10.926   9.513  69.276  1.00  0.00    -0.167 A  
HETATM   21  O   UNL     1     -11.189   8.752  71.525  1.00  0.00    -0.262 OA 
HETATM   22  O   UNL     1     -11.633  11.196  70.804  1.00  0.00    -0.239 OA 
HETATM   23  C   UNL     1     -11.373  10.879  69.650  1.00  0.00    -0.292 C  
HETATM   24  C   UNL     1     -10.005   4.449  69.135  1.00  0.00    -0.117 C  
HETATM   25  O   UNL     1      -8.079   5.201  70.492  1.00  0.00    -0.090 OA 
HETATM   26  H   UNL     1     -11.488   9.623  71.759  1.00  0.00     0.000 HD 
HETATM   27  C   UNL     1      -9.668   5.504  68.076  1.00  0.00    -0.131 C  
HETATM   28  H   UNL     1      -7.589   4.436  70.213  1.00  0.00     0.000 HD 
BRANCH  19  29
HETATM   29  C   UNL     1      -9.659   3.713  71.492  1.00  0.00    -0.164 C  
HETATM   30  O   UNL     1      -9.086   2.631  71.341  1.00  0.00    -0.085 OA 
HETATM   31  C   UNL     1     -10.494   3.977  72.725  1.00  0.00    -0.234 C  
ENDBRANCH  19  29
BRANCH  27  32
HETATM   32  O   UNL     1      -8.255   5.547  67.806  1.00  0.00    -0.101 OA 
BRANCH  32  33
HETATM   33  C   UNL     1      -7.872   5.506  66.426  1.00  0.00    -0.100 C  
HETATM   34  C   UNL     1      -6.483   4.924  66.167  1.00  0.00    -0.044 C  
HETATM   35  C   UNL     1      -6.474   3.427  66.474  1.00  0.00    -0.040 C  
HETATM   36  N   UNL     1      -5.136   2.862  66.207  1.00  0.00    -0.007 NA 
HETATM   37  C   UNL     1      -7.554   2.729  65.628  1.00  0.00    -0.076 C  
HETATM   38  H1  UNL     1      -5.129   1.863  66.412  1.00  0.00     0.000 HD 
HETATM   39  H2  UNL     1      -4.403   3.360  66.713  1.00  0.00     0.000 HD 
HETATM   40  O   UNL     1      -7.174   2.794  64.244  1.00  0.00    -0.055 OA 
HETATM   41  C   UNL     1      -8.917   3.410  65.864  1.00  0.00    -0.145 C  
HETATM   42  H   UNL     1      -7.840   2.363  63.722  1.00  0.00     0.000 HD 
HETATM   43  C   UNL     1      -9.984   2.863  64.920  1.00  0.00     0.147 C  
HETATM   44  O   UNL     1      -8.865   4.827  65.657  1.00  0.00    -0.126 OA 
ENDBRANCH  32  33
ENDBRANCH  27  32
ENDBRANCH   2   3
TORSDOF 4
ENDMDL
MODEL       60
REMARK 921   NORMALIZED FREE ENERGY PREDICTED BY IDOCK:   -6.00 KCAL/MOL
REMARK 922        TOTAL FREE ENERGY PREDICTED BY IDOCK:   -8.00 KCAL/MOL
REMARK 923 INTER-LIGAND FREE ENERGY PREDICTED BY IDOCK:   -7.31 KCAL/MOL
REMARK 924 INTRA-LIGAND FREE ENERGY PREDICTED BY IDOCK:   -0.69 KCAL/MOL
REMARK 927      BINDING AFFINITY PREDICTED BY RF-SCORE:    0.00 PKD
ROOT
HETATM    1  C   UNL     1     -12.173  12.987  70.287  1.00  0.00    -0.296 C  
HETATM    2  O   UNL     1     -12.201  11.704  69.668  1.00  0.00    -0.273 OA 
ENDROOT
BRANCH   2   3
HETATM    3  C   UNL     1     -12.302  10.619  70.500  1.00  0.00    -0.359 A  
HETATM    4  C   UNL     1     -12.958  10.701  71.740  1.00  0.00    -0.577 A  
HETATM    5  C   UNL     1     -13.058   9.588  72.568  1.00  0.00    -0.324 A  
HETATM    6  C   UNL     1     -12.499   8.383  72.165  1.00  0.00    -0.422 A  
HETATM    7  C   UNL     1     -11.817   8.291  70.941  1.00  0.00    -0.232 A  
HETATM    8  C   UNL     1     -11.697   9.403  70.109  1.00  0.00    -0.057 A  
HETATM    9  C   UNL     1     -10.932   9.253  68.843  1.00  0.00    -0.017 C  
HETATM   10  O   UNL     1     -10.683  10.208  68.110  1.00  0.00    -0.210 OA 
HETATM   11  C   UNL     1     -10.425   7.921  68.421  1.00  0.00    -0.207 A  
HETATM   12  C   UNL     1      -9.804   7.761  67.163  1.00  0.00    -0.206 A  
HETATM   13  O   UNL     1      -9.682   8.811  66.283  1.00  0.00    -0.247 OA 
HETATM   14  C   UNL     1      -9.293   6.519  66.737  1.00  0.00    -0.179 A  
HETATM   15  H   UNL     1      -9.265   8.703  65.436  1.00  0.00     0.000 HD 
HETATM   16  C   UNL     1      -9.392   5.409  67.609  1.00  0.00    -0.122 A  
HETATM   17  C   UNL     1     -10.058   5.567  68.844  1.00  0.00    -0.198 A  
HETATM   18  C   UNL     1      -8.830   4.051  67.216  1.00  0.00    -0.130 C  
HETATM   19  C   UNL     1      -7.867   4.101  66.024  1.00  0.00    -0.094 C  
HETATM   20  C   UNL     1     -10.562   6.818  69.260  1.00  0.00    -0.262 A  
HETATM   21  O   UNL     1     -10.231   4.487  69.666  1.00  0.00    -0.188 OA 
HETATM   22  O   UNL     1     -11.357   6.068  71.375  1.00  0.00    -0.285 OA 
HETATM   23  C   UNL     1     -11.242   6.985  70.571  1.00  0.00    -0.295 C  
HETATM   24  C   UNL     1      -8.522   4.937  64.923  1.00  0.00    -0.144 C  
HETATM   25  O   UNL     1      -6.614   4.629  66.466  1.00  0.00    -0.044 OA 
HETATM   26  H   UNL     1     -10.679   4.593  70.498  1.00  0.00     0.000 HD 
HETATM   27  C   UNL     1      -8.637   6.401  65.360  1.00  0.00    -0.081 C  
HETATM   28  H   UNL     1      -6.017   4.660  65.727  1.00  0.00     0.000 HD 
BRANCH  19  29
HETATM   29  C   UNL     1      -7.596   2.689  65.477  1.00  0.00    -0.076 C  
HETATM   30  O   UNL     1      -6.465   2.194  65.482  1.00  0.00    -0.023 OA 
HETATM   31  C   UNL     1      -8.789   1.879  65.024  1.00  0.00    -0.117 C  
ENDBRANCH  19  29
BRANCH  27  32
HETATM   32  O   UNL     1      -7.345   7.031  65.435  1.00  0.00    -0.073 OA 
BRANCH  32  33
HETATM   33  C   UNL     1      -6.786   7.480  64.195  1.00  0.00    -0.056 C  
HETATM   34  C   UNL     1      -7.814   7.941  63.162  1.00  0.00    -0.142 C  
HETATM   35  C   UNL     1      -8.478   9.239  63.624  1.00  0.00    -0.195 C  
HETATM   36  N   UNL     1      -9.460   9.693  62.617  1.00  0.00    -0.568 NA 
HETATM   37  C   UNL     1      -7.395  10.304  63.867  1.00  0.00    -0.061 C  
HETATM   38  H1  UNL     1      -9.903  10.558  62.925  1.00  0.00     0.000 HD 
HETATM   39  H2  UNL     1     -10.146   8.969  62.400  1.00  0.00     0.000 HD 
HETATM   40  O   UNL     1      -6.799  10.656  62.607  1.00  0.00    -0.245 OA 
HETATM   41  C   UNL     1      -6.339   9.755  64.848  1.00  0.00    -0.098 C  
HETATM   42  H   UNL     1      -6.130  11.314  62.757  1.00  0.00     0.000 HD 
HETATM   43  C   UNL     1      -5.157  10.710  64.987  1.00  0.00    -0.144 C  
HETATM   44  O   UNL     1      -5.807   8.492  64.430  1.00  0.00    -0.062 OA 
ENDBRANCH  32  33
ENDBRANCH  27  32
ENDBRANCH   2   3
TORSDOF 4
ENDMDL
MODEL       61
REMARK 921   NORMALIZED FREE ENERGY PREDICTED BY IDOCK:   -5.98 KCAL/MOL
REMARK 922        TOTAL FREE ENERGY PREDICTED BY IDOCK:   -7.97 KCAL/MOL
REMARK 923 INTER-LIGAND FREE ENERGY PREDICTED BY IDOCK:   -7.65 KCAL/MOL
REMARK 924 INTRA-LIGAND FREE ENERGY PREDICTED BY IDOCK:   -0.32 KCAL/MOL
REMARK 927      BINDING AFFINITY PREDICTED BY RF-SCORE:    0.00 PKD
ROOT
HETATM    1  C   UNL     1      -9.508   3.540  69.875  1.00  0.00    -0.184 C  
HETATM    2  O   UNL     1      -9.837   4.817  70.415  1.00  0.00    -0.201 OA 
ENDROOT
BRANCH   2   3
HETATM    3  C   UNL     1      -8.916   5.388  71.256  1.00  0.00    -0.141 A  
HETATM    4  C   UNL     1      -8.402   4.694  72.364  1.00  0.00    -0.115 A  
HETATM    5  C   UNL     1      -7.462   5.285  73.202  1.00  0.00    -0.092 A  
HETATM    6  C   UNL     1      -7.031   6.578  72.941  1.00  0.00    -0.073 A  
HETATM    7  C   UNL     1      -7.555   7.295  71.853  1.00  0.00    -0.085 A  
HETATM    8  C   UNL     1      -8.509   6.719  71.015  1.00  0.00    -0.132 A  
HETATM    9  C   UNL     1      -9.052   7.541  69.901  1.00  0.00    -0.144 C  
HETATM   10  O   UNL     1      -9.974   7.151  69.188  1.00  0.00    -0.162 OA 
HETATM   11  C   UNL     1      -8.496   8.890  69.618  1.00  0.00    -0.129 A  
HETATM   12  C   UNL     1      -8.931   9.617  68.489  1.00  0.00    -0.124 A  
HETATM   13  O   UNL     1      -9.846   9.093  67.606  1.00  0.00    -0.156 OA 
HETATM   14  C   UNL     1      -8.443  10.907  68.199  1.00  0.00    -0.131 A  
HETATM   15  H   UNL     1     -10.139   9.582  66.846  1.00  0.00     0.000 HD 
HETATM   16  C   UNL     1      -7.502  11.490  69.080  1.00  0.00    -0.073 A  
HETATM   17  C   UNL     1      -7.035  10.736  70.179  1.00  0.00     0.002 A  
HETATM   18  C   UNL     1      -6.962  12.892  68.835  1.00  0.00    -0.084 C  
HETATM   19  C   UNL     1      -7.779  13.700  67.821  1.00  0.00    -0.164 C  
HETATM   20  C   UNL     1      -7.537   9.447  70.460  1.00  0.00    -0.162 A  
HETATM   21  O   UNL     1      -6.069  11.254  70.998  1.00  0.00    -0.399 OA 
HETATM   22  O   UNL     1      -6.252   9.112  72.437  1.00  0.00    -0.250 OA 
HETATM   23  C   UNL     1      -7.060   8.667  71.631  1.00  0.00    -0.092 C  
HETATM   24  C   UNL     1      -8.022  12.816  66.597  1.00  0.00     0.297 C  
HETATM   25  O   UNL     1      -8.986  14.141  68.449  1.00  0.00    -0.183 OA 
HETATM   26  H   UNL     1      -5.755  10.747  71.738  1.00  0.00     0.000 HD 
HETATM   27  C   UNL     1      -8.944  11.646  66.956  1.00  0.00    -0.182 C  
HETATM   28  H   UNL     1      -9.493  14.643  67.820  1.00  0.00     0.000 HD 
BRANCH  19  29
HETATM   29  C   UNL     1      -7.014  14.959  67.377  1.00  0.00    -0.130 C  
HETATM   30  O   UNL     1      -7.561  15.864  66.741  1.00  0.00    -0.226 OA 
HETATM   31  C   UNL     1      -5.582  15.100  67.841  1.00  0.00    -0.140 C  
ENDBRANCH  19  29
BRANCH  27  32
HETATM   32  O   UNL     1     -10.284  12.095  67.226  1.00  0.00    -0.201 OA 
BRANCH  32  33
HETATM   33  C   UNL     1     -11.313  11.561  66.383  1.00  0.00    -0.176 C  
HETATM   34  C   UNL     1     -12.222  12.609  65.745  1.00  0.00    -0.427 C  
HETATM   35  C   UNL     1     -11.444  13.420  64.708  1.00  0.00    -0.336 C  
HETATM   36  N   UNL     1     -12.329  14.422  64.079  1.00  0.00    -0.931 NA 
HETATM   37  C   UNL     1     -10.849  12.464  63.659  1.00  0.00    -0.462 C  
HETATM   38  H1  UNL     1     -11.810  14.963  63.387  1.00  0.00     0.000 HD 
HETATM   39  H2  UNL     1     -12.780  15.020  64.771  1.00  0.00     0.000 HD 
HETATM   40  O   UNL     1     -11.921  11.881  62.900  1.00  0.00    -0.700 OA 
HETATM   41  C   UNL     1     -10.012  11.377  64.365  1.00  0.00    -0.274 C  
HETATM   42  H   UNL     1     -11.554  11.291  62.253  1.00  0.00     0.000 HD 
HETATM   43  C   UNL     1      -9.542  10.310  63.381  1.00  0.00    -0.316 C  
HETATM   44  O   UNL     1     -10.746  10.702  65.393  1.00  0.00    -0.171 OA 
ENDBRANCH  32  33
ENDBRANCH  27  32
ENDBRANCH   2   3
TORSDOF 4
ENDMDL
MODEL       62
REMARK 921   NORMALIZED FREE ENERGY PREDICTED BY IDOCK:   -5.85 KCAL/MOL
REMARK 922        TOTAL FREE ENERGY PREDICTED BY IDOCK:   -7.82 KCAL/MOL
REMARK 923 INTER-LIGAND FREE ENERGY PREDICTED BY IDOCK:   -6.74 KCAL/MOL
REMARK 924 INTRA-LIGAND FREE ENERGY PREDICTED BY IDOCK:   -1.08 KCAL/MOL
REMARK 927      BINDING AFFINITY PREDICTED BY RF-SCORE:    0.00 PKD
ROOT
HETATM    1  C   UNL     1      -6.382  16.483  69.734  1.00  0.00    -0.183 C  
HETATM    2  O   UNL     1      -6.424  15.339  68.885  1.00  0.00    -0.098 OA 
ENDROOT
BRANCH   2   3
HETATM    3  C   UNL     1      -7.412  15.311  67.935  1.00  0.00    -0.144 A  
HETATM    4  C   UNL     1      -7.838  16.480  67.282  1.00  0.00    -0.185 A  
HETATM    5  C   UNL     1      -8.836  16.433  66.314  1.00  0.00    -0.367 A  
HETATM    6  C   UNL     1      -9.419  15.215  65.993  1.00  0.00    -0.358 A  
HETATM    7  C   UNL     1      -9.025  14.042  66.655  1.00  0.00    -0.177 A  
HETATM    8  C   UNL     1      -8.036  14.078  67.638  1.00  0.00    -0.186 A  
HETATM    9  C   UNL     1      -7.686  12.810  68.329  1.00  0.00    -0.136 C  
HETATM   10  O   UNL     1      -6.910  12.774  69.282  1.00  0.00    -0.089 OA 
HETATM   11  C   UNL     1      -8.283  11.521  67.890  1.00  0.00    -0.134 A  
HETATM   12  C   UNL     1      -7.859  10.306  68.469  1.00  0.00    -0.097 A  
HETATM   13  O   UNL     1      -6.867  10.270  69.420  1.00  0.00    -0.059 OA 
HETATM   14  C   UNL     1      -8.417   9.067  68.094  1.00  0.00    -0.129 A  
HETATM   15  H   UNL     1      -6.581   9.452  69.810  1.00  0.00     0.000 HD 
HETATM   16  C   UNL     1      -9.444   9.052  67.120  1.00  0.00    -0.196 A  
HETATM   17  C   UNL     1      -9.827  10.267  66.511  1.00  0.00    -0.212 A  
HETATM   18  C   UNL     1     -10.105   7.748  66.698  1.00  0.00    -0.294 C  
HETATM   19  C   UNL     1      -9.832   6.579  67.651  1.00  0.00    -0.125 C  
HETATM   20  C   UNL     1      -9.264  11.501  66.900  1.00  0.00    -0.181 A  
HETATM   21  O   UNL     1     -10.764  10.262  65.514  1.00  0.00    -0.055 OA 
HETATM   22  O   UNL     1     -10.572  12.841  65.429  1.00  0.00    -0.276 OA 
HETATM   23  C   UNL     1      -9.686  12.780  66.273  1.00  0.00    -0.262 C  
HETATM   24  C   UNL     1      -8.331   6.546  67.940  1.00  0.00    -0.115 C  
HETATM   25  O   UNL     1     -10.631   6.747  68.826  1.00  0.00    -0.198 OA 
HETATM   26  H   UNL     1     -11.022  11.080  65.104  1.00  0.00     0.000 HD 
HETATM   27  C   UNL     1      -7.914   7.779  68.748  1.00  0.00    -0.125 C  
HETATM   28  H   UNL     1     -10.462   6.022  69.417  1.00  0.00     0.000 HD 
BRANCH  19  29
HETATM   29  C   UNL     1     -10.242   5.242  67.013  1.00  0.00    -0.234 C  
HETATM   30  O   UNL     1     -10.968   5.190  66.015  1.00  0.00    -0.214 OA 
HETATM   31  C   UNL     1      -9.637   3.982  67.590  1.00  0.00    -0.210 C  
ENDBRANCH  19  29
BRANCH  27  32
HETATM   32  O   UNL     1      -8.440   7.734  70.087  1.00  0.00    -0.130 OA 
BRANCH  32  33
HETATM   33  C   UNL     1      -7.743   6.893  71.014  1.00  0.00    -0.096 C  
HETATM   34  C   UNL     1      -7.304   7.590  72.302  1.00  0.00    -0.072 C  
HETATM   35  C   UNL     1      -8.526   7.942  73.151  1.00  0.00    -0.186 C  
HETATM   36  N   UNL     1      -8.100   8.600  74.404  1.00  0.00    -0.426 NA 
HETATM   37  C   UNL     1      -9.329   6.662  73.439  1.00  0.00    -0.137 C  
HETATM   38  H1  UNL     1      -8.915   8.835  74.971  1.00  0.00     0.000 HD 
HETATM   39  H2  UNL     1      -7.511   9.414  74.226  1.00  0.00     0.000 HD 
HETATM   40  O   UNL     1      -8.553   5.808  74.297  1.00  0.00    -0.112 OA 
HETATM   41  C   UNL     1      -9.670   5.955  72.111  1.00  0.00    -0.155 C  
HETATM   42  H   UNL     1      -9.049   5.018  74.474  1.00  0.00     0.000 HD 
HETATM   43  C   UNL     1     -10.319   4.595  72.354  1.00  0.00    -0.262 C  
HETATM   44  O   UNL     1      -8.512   5.725  71.300  1.00  0.00    -0.125 OA 
ENDBRANCH  32  33
ENDBRANCH  27  32
ENDBRANCH   2   3
TORSDOF 4
ENDMDL
MODEL       63
REMARK 921   NORMALIZED FREE ENERGY PREDICTED BY IDOCK:   -5.84 KCAL/MOL
REMARK 922        TOTAL FREE ENERGY PREDICTED BY IDOCK:   -7.81 KCAL/MOL
REMARK 923 INTER-LIGAND FREE ENERGY PREDICTED BY IDOCK:   -6.67 KCAL/MOL
REMARK 924 INTRA-LIGAND FREE ENERGY PREDICTED BY IDOCK:   -1.14 KCAL/MOL
REMARK 927      BINDING AFFINITY PREDICTED BY RF-SCORE:    0.00 PKD
ROOT
HETATM    1  C   UNL     1      -9.476   3.408  66.667  1.00  0.00    -0.127 C  
HETATM    2  O   UNL     1     -10.153   4.196  67.643  1.00  0.00    -0.051 OA 
ENDROOT
BRANCH   2   3
HETATM    3  C   UNL     1      -9.529   4.347  68.855  1.00  0.00    -0.165 A  
HETATM    4  C   UNL     1      -9.450   3.291  69.778  1.00  0.00    -0.212 A  
HETATM    5  C   UNL     1      -8.807   3.459  71.000  1.00  0.00    -0.140 A  
HETATM    6  C   UNL     1      -8.240   4.687  71.310  1.00  0.00    -0.100 A  
HETATM    7  C   UNL     1      -8.333   5.761  70.411  1.00  0.00    -0.121 A  
HETATM    8  C   UNL     1      -8.989   5.609  69.189  1.00  0.00    -0.120 A  
HETATM    9  C   UNL     1      -9.086   6.792  68.293  1.00  0.00    -0.124 C  
HETATM   10  O   UNL     1      -9.742   6.775  67.254  1.00  0.00    -0.129 OA 
HETATM   11  C   UNL     1      -8.391   8.059  68.639  1.00  0.00    -0.127 A  
HETATM   12  C   UNL     1      -8.387   9.140  67.730  1.00  0.00    -0.117 A  
HETATM   13  O   UNL     1      -8.988   9.044  66.497  1.00  0.00    -0.134 OA 
HETATM   14  C   UNL     1      -7.757  10.364  68.031  1.00  0.00    -0.092 A  
HETATM   15  H   UNL     1      -8.986   9.771  65.886  1.00  0.00     0.000 HD 
HETATM   16  C   UNL     1      -7.127  10.512  69.289  1.00  0.00    -0.097 A  
HETATM   17  C   UNL     1      -7.093   9.410  70.171  1.00  0.00    -0.083 A  
HETATM   18  C   UNL     1      -6.457  11.821  69.681  1.00  0.00    -0.113 C  
HETATM   19  C   UNL     1      -6.846  13.006  68.790  1.00  0.00    -0.102 C  
HETATM   20  C   UNL     1      -7.733   8.191  69.859  1.00  0.00    -0.098 A  
HETATM   21  O   UNL     1      -6.423   9.510  71.360  1.00  0.00    -0.237 OA 
HETATM   22  O   UNL     1      -7.193   7.102  71.907  1.00  0.00    -0.077 OA 
HETATM   23  C   UNL     1      -7.714   7.041  70.800  1.00  0.00    -0.095 C  
HETATM   24  C   UNL     1      -6.722  12.561  67.332  1.00  0.00    -0.147 C  
HETATM   25  O   UNL     1      -8.165  13.433  69.141  1.00  0.00    -0.324 OA 
HETATM   26  H   UNL     1      -6.400   8.769  71.954  1.00  0.00     0.000 HD 
HETATM   27  C   UNL     1      -7.777  11.500  67.005  1.00  0.00    -0.158 C  
HETATM   28  H   UNL     1      -8.406  14.168  68.589  1.00  0.00     0.000 HD 
BRANCH  19  29
HETATM   29  C   UNL     1      -5.906  14.201  69.024  1.00  0.00    -0.089 C  
HETATM   30  O   UNL     1      -5.824  15.133  68.219  1.00  0.00    -0.103 OA 
HETATM   31  C   UNL     1      -5.156  14.248  70.336  1.00  0.00    -0.096 C  
ENDBRANCH  19  29
BRANCH  27  32
HETATM   32  O   UNL     1      -9.103  12.058  66.998  1.00  0.00    -0.179 OA 
BRANCH  32  33
HETATM   33  C   UNL     1      -9.327  13.146  66.092  1.00  0.00    -0.072 C  
HETATM   34  C   UNL     1     -10.319  12.846  64.969  1.00  0.00    -0.334 C  
HETATM   35  C   UNL     1     -11.730  12.699  65.539  1.00  0.00    -0.402 C  
HETATM   36  N   UNL     1     -12.691  12.427  64.451  1.00  0.00    -0.667 NA 
HETATM   37  C   UNL     1     -12.103  13.981  66.305  1.00  0.00    -0.456 C  
HETATM   38  H1  UNL     1     -13.633  12.329  64.831  1.00  0.00     0.000 HD 
HETATM   39  H2  UNL     1     -12.418  11.616  63.895  1.00  0.00     0.000 HD 
HETATM   40  O   UNL     1     -12.226  15.064  65.368  1.00  0.00    -0.090 OA 
HETATM   41  C   UNL     1     -11.025  14.283  67.366  1.00  0.00    -0.295 C  
HETATM   42  H   UNL     1     -12.456  15.855  65.840  1.00  0.00     0.000 HD 
HETATM   43  C   UNL     1     -11.264  15.633  68.034  1.00  0.00    -0.339 C  
HETATM   44  O   UNL     1      -9.705  14.320  66.811  1.00  0.00    -0.256 OA 
ENDBRANCH  32  33
ENDBRANCH  27  32
ENDBRANCH   2   3
TORSDOF 4
ENDMDL
MODEL       64
REMARK 921   NORMALIZED FREE ENERGY PREDICTED BY IDOCK:   -5.82 KCAL/MOL
REMARK 922        TOTAL FREE ENERGY PREDICTED BY IDOCK:   -7.78 KCAL/MOL
REMARK 923 INTER-LIGAND FREE ENERGY PREDICTED BY IDOCK:   -8.30 KCAL/MOL
REMARK 924 INTRA-LIGAND FREE ENERGY PREDICTED BY IDOCK:    0.53 KCAL/MOL
REMARK 927      BINDING AFFINITY PREDICTED BY RF-SCORE:    0.00 PKD
ROOT
HETATM    1  C   UNL     1      -6.435   3.755  66.761  1.00  0.00    -0.041 C  
HETATM    2  O   UNL     1      -6.554   4.612  67.894  1.00  0.00    -0.044 OA 
ENDROOT
BRANCH   2   3
HETATM    3  C   UNL     1      -7.709   4.513  68.625  1.00  0.00    -0.071 A  
HETATM    4  C   UNL     1      -8.129   3.290  69.175  1.00  0.00    -0.072 A  
HETATM    5  C   UNL     1      -9.300   3.208  69.922  1.00  0.00    -0.228 A  
HETATM    6  C   UNL     1     -10.064   4.350  70.121  1.00  0.00    -0.155 A  
HETATM    7  C   UNL     1      -9.673   5.574  69.557  1.00  0.00    -0.218 A  
HETATM    8  C   UNL     1      -8.509   5.665  68.794  1.00  0.00    -0.102 A  
HETATM    9  C   UNL     1      -8.165   6.981  68.192  1.00  0.00    -0.120 C  
HETATM   10  O   UNL     1      -7.223   7.121  67.416  1.00  0.00    -0.085 OA 
HETATM   11  C   UNL     1      -8.974   8.188  68.505  1.00  0.00    -0.137 A  
HETATM   12  C   UNL     1      -8.576   9.455  68.028  1.00  0.00    -0.120 A  
HETATM   13  O   UNL     1      -7.422   9.618  67.297  1.00  0.00    -0.087 OA 
HETATM   14  C   UNL     1      -9.327  10.620  68.287  1.00  0.00    -0.156 A  
HETATM   15  H   UNL     1      -7.154  10.471  66.976  1.00  0.00     0.000 HD 
HETATM   16  C   UNL     1     -10.524  10.503  69.033  1.00  0.00    -0.238 A  
HETATM   17  C   UNL     1     -10.888   9.240  69.548  1.00  0.00    -0.195 A  
HETATM   18  C   UNL     1     -11.392  11.720  69.317  1.00  0.00    -0.348 C  
HETATM   19  C   UNL     1     -11.061  12.934  68.442  1.00  0.00    -0.262 C  
HETATM   20  C   UNL     1     -10.129   8.081  69.277  1.00  0.00    -0.198 A  
HETATM   21  O   UNL     1     -12.001   9.121  70.335  1.00  0.00    -0.465 OA 
HETATM   22  O   UNL     1     -11.554   6.576  70.448  1.00  0.00    -0.375 OA 
HETATM   23  C   UNL     1     -10.529   6.750  69.801  1.00  0.00    -0.210 C  
HETATM   24  C   UNL     1      -9.544  13.131  68.463  1.00  0.00    -0.118 C  
HETATM   25  O   UNL     1     -11.585  12.713  67.130  1.00  0.00    -0.327 OA 
HETATM   26  H   UNL     1     -12.247   8.271  70.681  1.00  0.00     0.000 HD 
HETATM   27  C   UNL     1      -8.844  11.969  67.752  1.00  0.00    -0.165 C  
HETATM   28  H   UNL     1     -11.380  13.466  66.587  1.00  0.00     0.000 HD 
BRANCH  19  29
HETATM   29  C   UNL     1     -11.732  14.205  68.989  1.00  0.00    -0.324 C  
HETATM   30  O   UNL     1     -12.344  14.210  70.061  1.00  0.00    -0.332 OA 
HETATM   31  C   UNL     1     -11.527  15.487  68.214  1.00  0.00    -0.359 C  
ENDBRANCH  19  29
BRANCH  27  32
HETATM   32  O   UNL     1      -9.092  11.991  66.334  1.00  0.00    -0.211 OA 
BRANCH  32  33
HETATM   33  C   UNL     1      -9.515  10.755  65.746  1.00  0.00    -0.204 C  
HETATM   34  C   UNL     1     -10.833  10.832  64.977  1.00  0.00    -0.055 C  
HETATM   35  C   UNL     1     -10.655  11.666  63.708  1.00  0.00    -0.416 C  
HETATM   36  N   UNL     1     -11.925  11.726  62.957  1.00  0.00    -0.862 NA 
HETATM   37  C   UNL     1      -9.530  11.055  62.854  1.00  0.00    -0.356 C  
HETATM   38  H1  UNL     1     -11.806  12.282  62.111  1.00  0.00     0.000 HD 
HETATM   39  H2  UNL     1     -12.694  12.069  63.534  1.00  0.00     0.000 HD 
HETATM   40  O   UNL     1      -9.963   9.776  62.362  1.00  0.00    -0.556 OA 
HETATM   41  C   UNL     1      -8.249  10.921  63.703  1.00  0.00     0.194 C  
HETATM   42  H   UNL     1      -9.269   9.398  61.835  1.00  0.00     0.000 HD 
HETATM   43  C   UNL     1      -7.158  10.165  62.951  1.00  0.00    -0.130 C  
HETATM   44  O   UNL     1      -8.476  10.214  64.929  1.00  0.00    -0.156 OA 
ENDBRANCH  32  33
ENDBRANCH  27  32
ENDBRANCH   2   3
TORSDOF 4
ENDMDL
MODEL       65
REMARK 921   NORMALIZED FREE ENERGY PREDICTED BY IDOCK:   -5.76 KCAL/MOL
REMARK 922        TOTAL FREE ENERGY PREDICTED BY IDOCK:   -7.70 KCAL/MOL
REMARK 923 INTER-LIGAND FREE ENERGY PREDICTED BY IDOCK:   -6.82 KCAL/MOL
REMARK 924 INTRA-LIGAND FREE ENERGY PREDICTED BY IDOCK:   -0.88 KCAL/MOL
REMARK 927      BINDING AFFINITY PREDICTED BY RF-SCORE:    0.00 PKD
ROOT
HETATM    1  C   UNL     1     -11.056   4.436  65.057  1.00  0.00     0.112 C  
HETATM    2  O   UNL     1     -10.576   5.043  66.254  1.00  0.00    -0.304 OA 
ENDROOT
BRANCH   2   3
HETATM    3  C   UNL     1      -9.216   5.107  66.411  1.00  0.00    -0.141 A  
HETATM    4  C   UNL     1      -8.414   3.955  66.360  1.00  0.00    -0.109 A  
HETATM    5  C   UNL     1      -7.034   4.038  66.513  1.00  0.00    -0.059 A  
HETATM    6  C   UNL     1      -6.444   5.277  66.722  1.00  0.00    -0.041 A  
HETATM    7  C   UNL     1      -7.233   6.435  66.803  1.00  0.00    -0.077 A  
HETATM    8  C   UNL     1      -8.619   6.362  66.666  1.00  0.00    -0.121 A  
HETATM    9  C   UNL     1      -9.404   7.618  66.796  1.00  0.00    -0.172 C  
HETATM   10  O   UNL     1     -10.633   7.625  66.803  1.00  0.00    -0.325 OA 
HETATM   11  C   UNL     1      -8.715   8.927  66.939  1.00  0.00    -0.128 A  
HETATM   12  C   UNL     1      -9.460  10.126  66.942  1.00  0.00    -0.169 A  
HETATM   13  O   UNL     1     -10.826  10.125  66.781  1.00  0.00    -0.168 OA 
HETATM   14  C   UNL     1      -8.845  11.386  67.096  1.00  0.00    -0.156 A  
HETATM   15  H   UNL     1     -11.327  10.933  66.783  1.00  0.00     0.000 HD 
HETATM   16  C   UNL     1      -7.441  11.438  67.268  1.00  0.00    -0.134 A  
HETATM   17  C   UNL     1      -6.700  10.238  67.214  1.00  0.00    -0.073 A  
HETATM   18  C   UNL     1      -6.726  12.766  67.470  1.00  0.00    -0.154 C  
HETATM   19  C   UNL     1      -7.662  13.925  67.830  1.00  0.00    -0.172 C  
HETATM   20  C   UNL     1      -7.329   8.984  67.065  1.00  0.00    -0.087 A  
HETATM   21  O   UNL     1      -5.334  10.277  67.303  1.00  0.00    -0.041 OA 
HETATM   22  O   UNL     1      -5.332   7.693  67.179  1.00  0.00    -0.028 OA 
HETATM   23  C   UNL     1      -6.547   7.721  67.031  1.00  0.00    -0.063 C  
HETATM   24  C   UNL     1      -8.840  13.901  66.854  1.00  0.00    -0.210 C  
HETATM   25  O   UNL     1      -8.057  13.790  69.198  1.00  0.00    -0.337 OA 
HETATM   26  H   UNL     1      -4.835   9.469  67.266  1.00  0.00     0.000 HD 
HETATM   27  C   UNL     1      -9.700  12.654  67.084  1.00  0.00    -0.211 C  
HETATM   28  H   UNL     1      -8.637  14.509  69.421  1.00  0.00     0.000 HD 
BRANCH  19  29
HETATM   29  C   UNL     1      -6.939  15.276  67.699  1.00  0.00    -0.185 C  
HETATM   30  O   UNL     1      -5.835  15.478  68.212  1.00  0.00    -0.099 OA 
HETATM   31  C   UNL     1      -7.585  16.327  66.824  1.00  0.00    -0.285 C  
ENDBRANCH  19  29
BRANCH  27  32
HETATM   32  O   UNL     1     -10.400  12.721  68.340  1.00  0.00    -0.236 OA 
BRANCH  32  33
HETATM   33  C   UNL     1     -11.709  13.303  68.305  1.00  0.00    -0.353 C  
HETATM   34  C   UNL     1     -12.500  13.170  69.606  1.00  0.00     0.017 C  
HETATM   35  C   UNL     1     -11.869  14.037  70.696  1.00  0.00    -0.239 C  
HETATM   36  N   UNL     1     -12.644  13.921  71.949  1.00  0.00    -0.268 NA 
HETATM   37  C   UNL     1     -11.806  15.496  70.211  1.00  0.00    -0.357 C  
HETATM   38  H1  UNL     1     -12.223  14.499  72.676  1.00  0.00     0.000 HD 
HETATM   39  H2  UNL     1     -12.748  12.951  72.245  1.00  0.00     0.000 HD 
HETATM   40  O   UNL     1     -13.144  16.007  70.103  1.00  0.00    -0.633 OA 
HETATM   41  C   UNL     1     -11.073  15.560  68.855  1.00  0.00    -0.282 C  
HETATM   42  H   UNL     1     -13.106  16.908  69.803  1.00  0.00     0.000 HD 
HETATM   43  C   UNL     1     -11.135  16.961  68.254  1.00  0.00    -0.213 C  
HETATM   44  O   UNL     1     -11.634  14.666  67.887  1.00  0.00    -0.319 OA 
ENDBRANCH  32  33
ENDBRANCH  27  32
ENDBRANCH   2   3
TORSDOF 4
ENDMDL
MODEL       66
REMARK 921   NORMALIZED FREE ENERGY PREDICTED BY IDOCK:   -5.74 KCAL/MOL
REMARK 922        TOTAL FREE ENERGY PREDICTED BY IDOCK:   -7.67 KCAL/MOL
REMARK 923 INTER-LIGAND FREE ENERGY PREDICTED BY IDOCK:   -6.67 KCAL/MOL
REMARK 924 INTRA-LIGAND FREE ENERGY PREDICTED BY IDOCK:   -1.00 KCAL/MOL
REMARK 927      BINDING AFFINITY PREDICTED BY RF-SCORE:    0.00 PKD
ROOT
HETATM    1  C   UNL     1     -12.618  13.832  63.882  1.00  0.00    -0.042 C  
HETATM    2  O   UNL     1     -11.476  13.063  64.248  1.00  0.00    -0.343 OA 
ENDROOT
BRANCH   2   3
HETATM    3  C   UNL     1     -10.600  13.640  65.131  1.00  0.00    -0.361 A  
HETATM    4  C   UNL     1     -10.326  15.018  65.102  1.00  0.00    -0.422 A  
HETATM    5  C   UNL     1      -9.442  15.588  66.011  1.00  0.00    -0.387 A  
HETATM    6  C   UNL     1      -8.820  14.784  66.956  1.00  0.00    -0.258 A  
HETATM    7  C   UNL     1      -9.062  13.401  66.982  1.00  0.00    -0.245 A  
HETATM    8  C   UNL     1      -9.935  12.815  66.066  1.00  0.00    -0.277 A  
HETATM    9  C   UNL     1     -10.124  11.342  66.120  1.00  0.00    -0.236 C  
HETATM   10  O   UNL     1     -10.784  10.734  65.281  1.00  0.00    -0.202 OA 
HETATM   11  C   UNL     1      -9.497  10.540  67.204  1.00  0.00    -0.182 A  
HETATM   12  C   UNL     1      -9.774   9.161  67.321  1.00  0.00    -0.173 A  
HETATM   13  O   UNL     1     -10.650   8.529  66.469  1.00  0.00    -0.292 OA 
HETATM   14  C   UNL     1      -9.183   8.364  68.322  1.00  0.00    -0.136 A  
HETATM   15  H   UNL     1     -10.837   7.601  66.548  1.00  0.00     0.000 HD 
HETATM   16  C   UNL     1      -8.272   8.968  69.220  1.00  0.00    -0.117 A  
HETATM   17  C   UNL     1      -8.039  10.357  69.127  1.00  0.00    -0.151 A  
HETATM   18  C   UNL     1      -7.580   8.151  70.302  1.00  0.00    -0.080 C  
HETATM   19  C   UNL     1      -7.668   6.636  70.085  1.00  0.00    -0.102 C  
HETATM   20  C   UNL     1      -8.634  11.143  68.116  1.00  0.00    -0.140 A  
HETATM   21  O   UNL     1      -7.220  10.972  70.035  1.00  0.00    -0.370 OA 
HETATM   22  O   UNL     1      -7.587  13.186  68.748  1.00  0.00    -0.110 OA 
HETATM   23  C   UNL     1      -8.367  12.600  68.007  1.00  0.00    -0.175 C  
HETATM   24  C   UNL     1      -9.123   6.290  69.765  1.00  0.00    -0.143 C  
HETATM   25  O   UNL     1      -6.756   6.265  69.048  1.00  0.00    -0.052 OA 
HETATM   26  H   UNL     1      -7.063  11.908  69.972  1.00  0.00     0.000 HD 
HETATM   27  C   UNL     1      -9.526   6.875  68.407  1.00  0.00    -0.128 C  
HETATM   28  H   UNL     1      -6.811   5.326  68.913  1.00  0.00     0.000 HD 
BRANCH  19  29
HETATM   29  C   UNL     1      -7.247   5.874  71.353  1.00  0.00    -0.079 C  
HETATM   30  O   UNL     1      -6.658   6.432  72.283  1.00  0.00    -0.057 OA 
HETATM   31  C   UNL     1      -7.673   4.428  71.467  1.00  0.00    -0.078 C  
ENDBRANCH  19  29
BRANCH  27  32
HETATM   32  O   UNL     1      -8.852   6.208  67.324  1.00  0.00    -0.109 OA 
BRANCH  32  33
HETATM   33  C   UNL     1      -9.647   5.309  66.542  1.00  0.00    -0.156 C  
HETATM   34  C   UNL     1      -9.023   4.903  65.207  1.00  0.00    -0.152 C  
HETATM   35  C   UNL     1      -7.801   4.016  65.446  1.00  0.00    -0.089 C  
HETATM   36  N   UNL     1      -7.208   3.610  64.155  1.00  0.00    -0.057 NA 
HETATM   37  C   UNL     1      -8.219   2.790  66.278  1.00  0.00    -0.086 C  
HETATM   38  H1  UNL     1      -6.393   3.018  64.315  1.00  0.00     0.000 HD 
HETATM   39  H2  UNL     1      -6.987   4.413  63.567  1.00  0.00     0.000 HD 
HETATM   40  O   UNL     1      -9.089   1.965  65.486  1.00  0.00    -0.142 OA 
HETATM   41  C   UNL     1      -8.919   3.257  67.571  1.00  0.00    -0.151 C  
HETATM   42  H   UNL     1      -9.347   1.209  65.999  1.00  0.00     0.000 HD 
HETATM   43  C   UNL     1      -9.502   2.078  68.346  1.00  0.00    -0.227 C  
HETATM   44  O   UNL     1     -10.000   4.161  67.313  1.00  0.00    -0.168 OA 
ENDBRANCH  32  33
ENDBRANCH  27  32
ENDBRANCH   2   3
TORSDOF 4
ENDMDL
MODEL       67
REMARK 921   NORMALIZED FREE ENERGY PREDICTED BY IDOCK:   -5.70 KCAL/MOL
REMARK 922        TOTAL FREE ENERGY PREDICTED BY IDOCK:   -7.62 KCAL/MOL
REMARK 923 INTER-LIGAND FREE ENERGY PREDICTED BY IDOCK:   -6.75 KCAL/MOL
REMARK 924 INTRA-LIGAND FREE ENERGY PREDICTED BY IDOCK:   -0.87 KCAL/MOL
REMARK 927      BINDING AFFINITY PREDICTED BY RF-SCORE:    0.00 PKD
ROOT
HETATM    1  C   UNL     1      -8.625  19.057  69.634  1.00  0.00     0.594 C  
HETATM    2  O   UNL     1      -9.850  18.397  69.325  1.00  0.00    -0.213 OA 
ENDROOT
BRANCH   2   3
HETATM    3  C   UNL     1     -10.206  18.344  68.001  1.00  0.00    -0.381 A  
HETATM    4  C   UNL     1     -10.621  19.491  67.305  1.00  0.00    -0.610 A  
HETATM    5  C   UNL     1     -10.971  19.422  65.960  1.00  0.00    -0.255 A  
HETATM    6  C   UNL     1     -10.912  18.202  65.302  1.00  0.00     0.589 A  
HETATM    7  C   UNL     1     -10.525  17.041  65.989  1.00  0.00    -0.280 A  
HETATM    8  C   UNL     1     -10.187  17.095  67.342  1.00  0.00    -0.321 A  
HETATM    9  C   UNL     1      -9.820  15.827  68.025  1.00  0.00    -0.217 C  
HETATM   10  O   UNL     1      -9.619  15.769  69.236  1.00  0.00    -0.236 OA 
HETATM   11  C   UNL     1      -9.693  14.563  67.253  1.00  0.00    -0.232 A  
HETATM   12  C   UNL     1      -9.230  13.388  67.882  1.00  0.00    -0.216 A  
HETATM   13  O   UNL     1      -8.850  13.382  69.204  1.00  0.00    -0.261 OA 
HETATM   14  C   UNL     1      -9.116  12.165  67.188  1.00  0.00    -0.189 A  
HETATM   15  H   UNL     1      -8.538  12.591  69.627  1.00  0.00     0.000 HD 
HETATM   16  C   UNL     1      -9.498  12.121  65.826  1.00  0.00    -0.156 A  
HETATM   17  C   UNL     1      -9.913  13.312  65.193  1.00  0.00    -0.153 A  
HETATM   18  C   UNL     1      -9.426  10.823  65.035  1.00  0.00    -0.286 C  
HETATM   19  C   UNL     1      -9.279   9.572  65.909  1.00  0.00    -0.206 C  
HETATM   20  C   UNL     1     -10.027  14.528  65.900  1.00  0.00    -0.352 A  
HETATM   21  O   UNL     1     -10.213  13.303  63.857  1.00  0.00    -0.707 OA 
HETATM   22  O   UNL     1     -10.837  15.805  64.062  1.00  0.00     0.058 OA 
HETATM   23  C   UNL     1     -10.487  15.774  65.235  1.00  0.00    -0.401 C  
HETATM   24  C   UNL     1      -8.169   9.837  66.928  1.00  0.00    -0.117 C  
HETATM   25  O   UNL     1     -10.542   9.280  66.512  1.00  0.00    -0.178 OA 
HETATM   26  H   UNL     1     -10.493  14.105  63.431  1.00  0.00     0.000 HD 
HETATM   27  C   UNL     1      -8.600  10.924  67.918  1.00  0.00    -0.130 C  
HETATM   28  H   UNL     1     -10.451   8.504  67.054  1.00  0.00     0.000 HD 
BRANCH  19  29
HETATM   29  C   UNL     1      -8.888   8.351  65.060  1.00  0.00     0.017 C  
HETATM   30  O   UNL     1      -9.231   7.206  65.368  1.00  0.00     0.202 OA 
HETATM   31  C   UNL     1      -8.152   8.612  63.766  1.00  0.00    -0.163 C  
ENDBRANCH  19  29
BRANCH  27  32
HETATM   32  O   UNL     1      -9.649  10.460  68.787  1.00  0.00    -0.161 OA 
BRANCH  32  33
HETATM   33  C   UNL     1      -9.234   9.900  70.039  1.00  0.00    -0.183 C  
HETATM   34  C   UNL     1     -10.368   9.640  71.029  1.00  0.00    -0.292 C  
HETATM   35  C   UNL     1     -11.255   8.501  70.526  1.00  0.00    -0.242 C  
HETATM   36  N   UNL     1     -12.342   8.239  71.492  1.00  0.00    -0.299 NA 
HETATM   37  C   UNL     1     -10.392   7.246  70.304  1.00  0.00    -0.210 C  
HETATM   38  H1  UNL     1     -12.933   7.479  71.157  1.00  0.00     0.000 HD 
HETATM   39  H2  UNL     1     -12.881   9.081  71.697  1.00  0.00     0.000 HD 
HETATM   40  O   UNL     1      -9.921   6.775  71.578  1.00  0.00    -0.179 OA 
HETATM   41  C   UNL     1      -9.215   7.587  69.367  1.00  0.00    -0.149 C  
HETATM   42  H   UNL     1      -9.388   6.000  71.441  1.00  0.00     0.000 HD 
HETATM   43  C   UNL     1      -8.238   6.421  69.253  1.00  0.00    -0.115 C  
HETATM   44  O   UNL     1      -8.462   8.718  69.822  1.00  0.00    -0.121 OA 
ENDBRANCH  32  33
ENDBRANCH  27  32
ENDBRANCH   2   3
TORSDOF 4
ENDMDL
MODEL       68
REMARK 921   NORMALIZED FREE ENERGY PREDICTED BY IDOCK:   -5.60 KCAL/MOL
REMARK 922        TOTAL FREE ENERGY PREDICTED BY IDOCK:   -7.51 KCAL/MOL
REMARK 923 INTER-LIGAND FREE ENERGY PREDICTED BY IDOCK:   -8.18 KCAL/MOL
REMARK 924 INTRA-LIGAND FREE ENERGY PREDICTED BY IDOCK:    0.67 KCAL/MOL
REMARK 927      BINDING AFFINITY PREDICTED BY RF-SCORE:    0.00 PKD
ROOT
HETATM    1  C   UNL     1     -10.656  19.600  66.532  1.00  0.00    -0.482 C  
HETATM    2  O   UNL     1     -10.497  18.592  67.527  1.00  0.00    -0.381 OA 
ENDROOT
BRANCH   2   3
HETATM    3  C   UNL     1      -9.231  18.401  68.017  1.00  0.00    -0.293 A  
HETATM    4  C   UNL     1      -8.368  19.482  68.265  1.00  0.00    -0.375 A  
HETATM    5  C   UNL     1      -7.089  19.271  68.770  1.00  0.00    -0.375 A  
HETATM    6  C   UNL     1      -6.661  17.977  69.028  1.00  0.00    -0.251 A  
HETATM    7  C   UNL     1      -7.500  16.884  68.760  1.00  0.00    -0.237 A  
HETATM    8  C   UNL     1      -8.779  17.081  68.239  1.00  0.00    -0.241 A  
HETATM    9  C   UNL     1      -9.609  15.884  67.943  1.00  0.00    -0.215 C  
HETATM   10  O   UNL     1     -10.698  15.964  67.380  1.00  0.00    -0.312 OA 
HETATM   11  C   UNL     1      -9.132  14.525  68.314  1.00  0.00    -0.196 A  
HETATM   12  C   UNL     1      -9.972  13.404  68.140  1.00  0.00    -0.237 A  
HETATM   13  O   UNL     1     -11.255  13.534  67.661  1.00  0.00    -0.261 OA 
HETATM   14  C   UNL     1      -9.549  12.098  68.461  1.00  0.00    -0.137 A  
HETATM   15  H   UNL     1     -11.820  12.780  67.544  1.00  0.00     0.000 HD 
HETATM   16  C   UNL     1      -8.236  11.913  68.954  1.00  0.00     0.089 A  
HETATM   17  C   UNL     1      -7.421  13.045  69.172  1.00  0.00     0.196 A  
HETATM   18  C   UNL     1      -7.713  10.523  69.288  1.00  0.00    -0.144 C  
HETATM   19  C   UNL     1      -8.562   9.387  68.707  1.00  0.00    -0.127 C  
HETATM   20  C   UNL     1      -7.855  14.346  68.842  1.00  0.00    -0.118 A  
HETATM   21  O   UNL     1      -6.176  12.892  69.720  1.00  0.00    -0.131 OA 
HETATM   22  O   UNL     1      -5.838  15.444  69.469  1.00  0.00    -0.108 OA 
HETATM   23  C   UNL     1      -6.986  15.533  69.051  1.00  0.00    -0.141 C  
HETATM   24  C   UNL     1     -10.028   9.683  69.027  1.00  0.00    -0.189 C  
HETATM   25  O   UNL     1      -8.297   9.285  67.306  1.00  0.00    -0.123 OA 
HETATM   26  H   UNL     1      -5.627  13.654  69.866  1.00  0.00     0.000 HD 
HETATM   27  C   UNL     1     -10.504  10.920  68.259  1.00  0.00    -0.179 C  
HETATM   28  H   UNL     1      -8.823   8.580  66.946  1.00  0.00     0.000 HD 
BRANCH  19  29
HETATM   29  C   UNL     1      -8.181   8.038  69.340  1.00  0.00    -0.122 C  
HETATM   30  O   UNL     1      -7.575   7.169  68.707  1.00  0.00    -0.102 OA 
HETATM   31  C   UNL     1      -8.483   7.850  70.809  1.00  0.00    -0.124 C  
ENDBRANCH  19  29
BRANCH  27  32
HETATM   32  O   UNL     1     -10.589  10.663  66.845  1.00  0.00    -0.246 OA 
BRANCH  32  33
HETATM   33  C   UNL     1      -9.827  11.532  65.997  1.00  0.00    -0.225 C  
HETATM   34  C   UNL     1      -8.781  10.825  65.137  1.00  0.00    -0.174 C  
HETATM   35  C   UNL     1      -9.466   9.970  64.071  1.00  0.00    -0.237 C  
HETATM   36  N   UNL     1      -8.454   9.301  63.228  1.00  0.00    -0.195 NA 
HETATM   37  C   UNL     1     -10.394  10.861  63.226  1.00  0.00    -0.179 C  
HETATM   38  H1  UNL     1      -8.911   8.731  62.517  1.00  0.00     0.000 HD 
HETATM   39  H2  UNL     1      -7.792   8.759  63.785  1.00  0.00     0.000 HD 
HETATM   40  O   UNL     1      -9.591  11.777  62.463  1.00  0.00    -0.407 OA 
HETATM   41  C   UNL     1     -11.372  11.615  64.151  1.00  0.00    -0.317 C  
HETATM   42  H   UNL     1     -10.164  12.327  61.941  1.00  0.00     0.000 HD 
HETATM   43  C   UNL     1     -12.197  12.637  63.375  1.00  0.00    -0.610 C  
HETATM   44  O   UNL     1     -10.698  12.329  65.194  1.00  0.00    -0.275 OA 
ENDBRANCH  32  33
ENDBRANCH  27  32
ENDBRANCH   2   3
TORSDOF 4
ENDMDL
MODEL       69
REMARK 921   NORMALIZED FREE ENERGY PREDICTED BY IDOCK:   -5.56 KCAL/MOL
REMARK 922        TOTAL FREE ENERGY PREDICTED BY IDOCK:   -7.45 KCAL/MOL
REMARK 923 INTER-LIGAND FREE ENERGY PREDICTED BY IDOCK:   -7.07 KCAL/MOL
REMARK 924 INTRA-LIGAND FREE ENERGY PREDICTED BY IDOCK:   -0.39 KCAL/MOL
REMARK 927      BINDING AFFINITY PREDICTED BY RF-SCORE:    0.00 PKD
ROOT
HETATM    1  C   UNL     1      -7.147   8.001  64.642  1.00  0.00    -0.076 C  
HETATM    2  O   UNL     1      -8.237   8.668  65.272  1.00  0.00    -0.129 OA 
ENDROOT
BRANCH   2   3
HETATM    3  C   UNL     1      -8.925   7.962  66.225  1.00  0.00    -0.171 A  
HETATM    4  C   UNL     1      -8.968   6.558  66.213  1.00  0.00    -0.168 A  
HETATM    5  C   UNL     1      -9.664   5.857  67.192  1.00  0.00    -0.145 A  
HETATM    6  C   UNL     1     -10.328   6.555  68.190  1.00  0.00    -0.223 A  
HETATM    7  C   UNL     1     -10.318   7.959  68.203  1.00  0.00    -0.249 A  
HETATM    8  C   UNL     1      -9.636   8.674  67.218  1.00  0.00    -0.216 A  
HETATM    9  C   UNL     1      -9.691  10.159  67.263  1.00  0.00    -0.167 C  
HETATM   10  O   UNL     1      -9.215  10.860  66.373  1.00  0.00    -0.166 OA 
HETATM   11  C   UNL     1     -10.347  10.855  68.400  1.00  0.00    -0.196 A  
HETATM   12  C   UNL     1     -10.293  12.262  68.500  1.00  0.00    -0.223 A  
HETATM   13  O   UNL     1      -9.611  13.023  67.579  1.00  0.00    -0.194 OA 
HETATM   14  C   UNL     1     -10.920  12.960  69.553  1.00  0.00     0.048 A  
HETATM   15  H   UNL     1      -9.574  13.970  67.647  1.00  0.00     0.000 HD 
HETATM   16  C   UNL     1     -11.637  12.221  70.523  1.00  0.00     0.218 A  
HETATM   17  C   UNL     1     -11.644  10.812  70.443  1.00  0.00    -0.339 A  
HETATM   18  C   UNL     1     -12.361  12.922  71.664  1.00  0.00     0.130 C  
HETATM   19  C   UNL     1     -12.544  14.428  71.448  1.00  0.00    -0.354 C  
HETATM   20  C   UNL     1     -11.016  10.126  69.381  1.00  0.00    -0.285 A  
HETATM   21  O   UNL     1     -12.268  10.078  71.415  1.00  0.00    -0.362 OA 
HETATM   22  O   UNL     1     -11.651   7.944  70.090  1.00  0.00    -0.111 OA 
HETATM   23  C   UNL     1     -11.045   8.644  69.288  1.00  0.00     0.138 C  
HETATM   24  C   UNL     1     -11.200  15.008  71.005  1.00  0.00    -0.268 C  
HETATM   25  O   UNL     1     -13.590  14.633  70.495  1.00  0.00    -0.520 OA 
HETATM   26  H   UNL     1     -12.273   9.129  71.361  1.00  0.00     0.000 HD 
HETATM   27  C   UNL     1     -10.823  14.485  69.616  1.00  0.00    -0.151 C  
HETATM   28  H   UNL     1     -13.704  15.567  70.362  1.00  0.00     0.000 HD 
BRANCH  19  29
HETATM   29  C   UNL     1     -12.976  15.121  72.751  1.00  0.00    -0.427 C  
HETATM   30  O   UNL     1     -13.896  14.684  73.449  1.00  0.00    -0.152 OA 
HETATM   31  C   UNL     1     -12.161  16.309  73.209  1.00  0.00    -0.587 C  
ENDBRANCH  19  29
BRANCH  27  32
HETATM   32  O   UNL     1     -11.689  15.021  68.598  1.00  0.00    -0.329 OA 
BRANCH  32  33
HETATM   33  C   UNL     1     -11.508  16.405  68.277  1.00  0.00    -0.143 C  
HETATM   34  C   UNL     1     -10.219  17.022  68.819  1.00  0.00    -0.317 C  
HETATM   35  C   UNL     1      -9.008  16.434  68.093  1.00  0.00    -0.197 C  
HETATM   36  N   UNL     1      -7.764  17.043  68.606  1.00  0.00    -0.241 NA 
HETATM   37  C   UNL     1      -9.162  16.669  66.579  1.00  0.00    -0.270 C  
HETATM   38  H1  UNL     1      -6.956  16.651  68.121  1.00  0.00     0.000 HD 
HETATM   39  H2  UNL     1      -7.683  16.951  69.618  1.00  0.00     0.000 HD 
HETATM   40  O   UNL     1      -9.066  18.079  66.316  1.00  0.00    -0.404 OA 
HETATM   41  C   UNL     1     -10.516  16.104  66.103  1.00  0.00    -0.325 C  
HETATM   42  H   UNL     1      -9.161  18.223  65.382  1.00  0.00     0.000 HD 
HETATM   43  C   UNL     1     -10.787  16.464  64.645  1.00  0.00    -0.068 C  
HETATM   44  O   UNL     1     -11.619  16.606  66.868  1.00  0.00     0.568 OA 
ENDBRANCH  32  33
ENDBRANCH  27  32
ENDBRANCH   2   3
TORSDOF 4
ENDMDL
MODEL       70
REMARK 921   NORMALIZED FREE ENERGY PREDICTED BY IDOCK:   -5.51 KCAL/MOL
REMARK 922        TOTAL FREE ENERGY PREDICTED BY IDOCK:   -7.40 KCAL/MOL
REMARK 923 INTER-LIGAND FREE ENERGY PREDICTED BY IDOCK:   -7.22 KCAL/MOL
REMARK 924 INTRA-LIGAND FREE ENERGY PREDICTED BY IDOCK:   -0.18 KCAL/MOL
REMARK 927      BINDING AFFINITY PREDICTED BY RF-SCORE:    0.00 PKD
ROOT
HETATM    1  C   UNL     1     -11.613  15.146  68.679  1.00  0.00    -0.338 C  
HETATM    2  O   UNL     1     -12.399  14.200  67.959  1.00  0.00    -0.233 OA 
ENDROOT
BRANCH   2   3
HETATM    3  C   UNL     1     -12.147  14.083  66.616  1.00  0.00    -0.456 A  
HETATM    4  C   UNL     1     -12.524  15.086  65.707  1.00  0.00     0.369 A  
HETATM    5  C   UNL     1     -12.254  14.955  64.349  1.00  0.00    -0.399 A  
HETATM    6  C   UNL     1     -11.608  13.816  63.888  1.00  0.00    -0.229 A  
HETATM    7  C   UNL     1     -11.249  12.792  64.779  1.00  0.00    -0.339 A  
HETATM    8  C   UNL     1     -11.528  12.906  66.141  1.00  0.00    -0.393 A  
HETATM    9  C   UNL     1     -11.156  11.773  67.029  1.00  0.00    -0.304 C  
HETATM   10  O   UNL     1     -11.467  11.743  68.218  1.00  0.00    -0.257 OA 
HETATM   11  C   UNL     1     -10.393  10.614  66.496  1.00  0.00    -0.299 A  
HETATM   12  C   UNL     1      -9.940   9.600  67.366  1.00  0.00    -0.187 A  
HETATM   13  O   UNL     1     -10.155   9.667  68.723  1.00  0.00    -0.167 OA 
HETATM   14  C   UNL     1      -9.231   8.475  66.895  1.00  0.00    -0.197 A  
HETATM   15  H   UNL     1      -9.849   8.984  69.308  1.00  0.00     0.000 HD 
HETATM   16  C   UNL     1      -8.988   8.360  65.506  1.00  0.00    -0.149 A  
HETATM   17  C   UNL     1      -9.402   9.403  64.650  1.00  0.00    -0.044 A  
HETATM   18  C   UNL     1      -8.256   7.153  64.936  1.00  0.00    -0.073 C  
HETATM   19  C   UNL     1      -8.160   5.972  65.909  1.00  0.00    -0.119 C  
HETATM   20  C   UNL     1     -10.115  10.521  65.134  1.00  0.00    -0.383 A  
HETATM   21  O   UNL     1      -9.109   9.345  63.315  1.00  0.00    -0.401 OA 
HETATM   22  O   UNL     1     -10.397  11.568  63.014  1.00  0.00    -0.322 OA 
HETATM   23  C   UNL     1     -10.569  11.606  64.226  1.00  0.00    -0.340 C  
HETATM   24  C   UNL     1      -7.684   6.511  67.259  1.00  0.00    -0.101 C  
HETATM   25  O   UNL     1      -9.433   5.324  65.974  1.00  0.00    -0.155 OA 
HETATM   26  H   UNL     1      -9.388  10.047  62.738  1.00  0.00     0.000 HD 
HETATM   27  C   UNL     1      -8.756   7.409  67.884  1.00  0.00    -0.123 C  
HETATM   28  H   UNL     1      -9.373   4.592  66.577  1.00  0.00     0.000 HD 
BRANCH  19  29
HETATM   29  C   UNL     1      -7.146   4.930  65.408  1.00  0.00    -0.063 C  
HETATM   30  O   UNL     1      -6.730   4.023  66.134  1.00  0.00    -0.047 OA 
HETATM   31  C   UNL     1      -6.751   4.990  63.950  1.00  0.00    -0.042 C  
ENDBRANCH  19  29
BRANCH  27  32
HETATM   32  O   UNL     1      -9.908   6.649  68.295  1.00  0.00    -0.134 OA 
BRANCH  32  33
HETATM   33  C   UNL     1     -10.137   6.561  69.706  1.00  0.00    -0.178 C  
HETATM   34  C   UNL     1     -10.448   5.153  70.214  1.00  0.00    -0.296 C  
HETATM   35  C   UNL     1      -9.205   4.269  70.105  1.00  0.00    -0.135 C  
HETATM   36  N   UNL     1      -9.501   2.913  70.613  1.00  0.00    -0.154 NA 
HETATM   37  C   UNL     1      -8.050   4.918  70.889  1.00  0.00    -0.095 C  
HETATM   38  H1  UNL     1      -8.672   2.323  70.541  1.00  0.00     0.000 HD 
HETATM   39  H2  UNL     1     -10.307   2.498  70.145  1.00  0.00     0.000 HD 
HETATM   40  O   UNL     1      -8.367   4.890  72.291  1.00  0.00    -0.116 OA 
HETATM   41  C   UNL     1      -7.838   6.364  70.395  1.00  0.00    -0.107 C  
HETATM   42  H   UNL     1      -7.654   5.291  72.775  1.00  0.00     0.000 HD 
HETATM   43  C   UNL     1      -6.819   7.103  71.257  1.00  0.00    -0.059 C  
HETATM   44  O   UNL     1      -9.045   7.135  70.423  1.00  0.00    -0.154 OA 
ENDBRANCH  32  33
ENDBRANCH  27  32
ENDBRANCH   2   3
TORSDOF 4
ENDMDL
MODEL       71
REMARK 921   NORMALIZED FREE ENERGY PREDICTED BY IDOCK:   -5.46 KCAL/MOL
REMARK 922        TOTAL FREE ENERGY PREDICTED BY IDOCK:   -7.33 KCAL/MOL
REMARK 923 INTER-LIGAND FREE ENERGY PREDICTED BY IDOCK:   -7.26 KCAL/MOL
REMARK 924 INTRA-LIGAND FREE ENERGY PREDICTED BY IDOCK:   -0.07 KCAL/MOL
REMARK 927      BINDING AFFINITY PREDICTED BY RF-SCORE:    0.00 PKD
ROOT
HETATM    1  C   UNL     1      -8.088   1.478  67.809  1.00  0.00    -0.059 C  
HETATM    2  O   UNL     1      -6.930   2.303  67.700  1.00  0.00    -0.042 OA 
ENDROOT
BRANCH   2   3
HETATM    3  C   UNL     1      -6.681   2.858  66.471  1.00  0.00    -0.044 A  
HETATM    4  C   UNL     1      -5.947   2.171  65.489  1.00  0.00    -0.018 A  
HETATM    5  C   UNL     1      -5.710   2.745  64.245  1.00  0.00    -0.010 A  
HETATM    6  C   UNL     1      -6.202   4.013  63.973  1.00  0.00    -0.022 A  
HETATM    7  C   UNL     1      -6.914   4.725  64.952  1.00  0.00    -0.061 A  
HETATM    8  C   UNL     1      -7.145   4.166  66.209  1.00  0.00    -0.067 A  
HETATM    9  C   UNL     1      -7.874   4.981  67.216  1.00  0.00    -0.096 C  
HETATM   10  O   UNL     1      -8.019   4.610  68.378  1.00  0.00    -0.080 OA 
HETATM   11  C   UNL     1      -8.449   6.301  66.845  1.00  0.00    -0.109 A  
HETATM   12  C   UNL     1      -9.241   7.017  67.768  1.00  0.00    -0.124 A  
HETATM   13  O   UNL     1      -9.532   6.508  69.012  1.00  0.00    -0.132 OA 
HETATM   14  C   UNL     1      -9.786   8.280  67.461  1.00  0.00    -0.231 A  
HETATM   15  H   UNL     1     -10.066   6.989  69.634  1.00  0.00     0.000 HD 
HETATM   16  C   UNL     1      -9.512   8.847  66.194  1.00  0.00    -0.318 A  
HETATM   17  C   UNL     1      -8.760   8.102  65.259  1.00  0.00    -0.059 A  
HETATM   18  C   UNL     1     -10.048  10.221  65.818  1.00  0.00    -0.325 C  
HETATM   19  C   UNL     1     -10.554  11.036  67.013  1.00  0.00    -0.256 C  
HETATM   20  C   UNL     1      -8.216   6.841  65.582  1.00  0.00    -0.134 A  
HETATM   21  O   UNL     1      -8.550   8.602  64.003  1.00  0.00    -0.369 OA 
HETATM   22  O   UNL     1      -7.126   6.503  63.492  1.00  0.00    -0.048 OA 
HETATM   23  C   UNL     1      -7.406   6.070  64.603  1.00  0.00    -0.071 C  
HETATM   24  C   UNL     1     -11.460  10.133  67.851  1.00  0.00     0.067 C  
HETATM   25  O   UNL     1      -9.428  11.537  67.739  1.00  0.00    -0.161 OA 
HETATM   26  H   UNL     1      -8.044   8.101  63.374  1.00  0.00     0.000 HD 
HETATM   27  C   UNL     1     -10.645   9.008  68.497  1.00  0.00    -0.155 C  
HETATM   28  H   UNL     1      -9.742  12.043  68.479  1.00  0.00     0.000 HD 
BRANCH  19  29
HETATM   29  C   UNL     1     -11.368  12.253  66.543  1.00  0.00    -0.351 C  
HETATM   30  O   UNL     1     -12.379  12.131  65.845  1.00  0.00    -0.561 OA 
HETATM   31  C   UNL     1     -10.945  13.611  67.055  1.00  0.00    -0.298 C  
ENDBRANCH  19  29
BRANCH  27  32
HETATM   32  O   UNL     1      -9.763   9.515  69.516  1.00  0.00    -0.170 OA 
BRANCH  32  33
HETATM   33  C   UNL     1     -10.359   9.784  70.792  1.00  0.00    -0.228 C  
HETATM   34  C   UNL     1     -11.796   9.288  70.941  1.00  0.00    -0.346 C  
HETATM   35  C   UNL     1     -11.826   7.759  70.967  1.00  0.00    -0.272 C  
HETATM   36  N   UNL     1     -13.215   7.281  71.128  1.00  0.00    -0.574 NA 
HETATM   37  C   UNL     1     -10.926   7.254  72.108  1.00  0.00    -0.239 C  
HETATM   38  H1  UNL     1     -13.234   6.262  71.146  1.00  0.00     0.000 HD 
HETATM   39  H2  UNL     1     -13.835   7.663  70.414  1.00  0.00     0.000 HD 
HETATM   40  O   UNL     1     -11.515   7.627  73.365  1.00  0.00    -0.643 OA 
HETATM   41  C   UNL     1      -9.512   7.853  71.956  1.00  0.00    -0.174 C  
HETATM   42  H   UNL     1     -10.959   7.315  74.069  1.00  0.00     0.000 HD 
HETATM   43  C   UNL     1      -8.633   7.516  73.156  1.00  0.00    -0.195 C  
HETATM   44  O   UNL     1      -9.531   9.280  71.841  1.00  0.00    -0.291 OA 
ENDBRANCH  32  33
ENDBRANCH  27  32
ENDBRANCH   2   3
TORSDOF 4
ENDMDL
MODEL       72
REMARK 921   NORMALIZED FREE ENERGY PREDICTED BY IDOCK:   -5.45 KCAL/MOL
REMARK 922        TOTAL FREE ENERGY PREDICTED BY IDOCK:   -7.31 KCAL/MOL
REMARK 923 INTER-LIGAND FREE ENERGY PREDICTED BY IDOCK:   -7.65 KCAL/MOL
REMARK 924 INTRA-LIGAND FREE ENERGY PREDICTED BY IDOCK:    0.34 KCAL/MOL
REMARK 927      BINDING AFFINITY PREDICTED BY RF-SCORE:    0.00 PKD
ROOT
HETATM    1  C   UNL     1     -11.340  16.581  69.381  1.00  0.00    -0.105 C  
HETATM    2  O   UNL     1     -12.310  15.573  69.110  1.00  0.00    -0.215 OA 
ENDROOT
BRANCH   2   3
HETATM    3  C   UNL     1     -12.856  14.935  70.194  1.00  0.00    -0.154 A  
HETATM    4  C   UNL     1     -13.635  15.625  71.139  1.00  0.00    -0.308 A  
HETATM    5  C   UNL     1     -14.189  14.960  72.228  1.00  0.00    -0.568 A  
HETATM    6  C   UNL     1     -13.964  13.600  72.385  1.00  0.00    -0.651 A  
HETATM    7  C   UNL     1     -13.166  12.901  71.465  1.00  0.00    -0.346 A  
HETATM    8  C   UNL     1     -12.593  13.559  70.377  1.00  0.00    -0.267 A  
HETATM    9  C   UNL     1     -11.729  12.773  69.457  1.00  0.00    -0.318 C  
HETATM   10  O   UNL     1     -11.097  13.298  68.543  1.00  0.00    -0.240 OA 
HETATM   11  C   UNL     1     -11.588  11.303  69.625  1.00  0.00    -0.401 A  
HETATM   12  C   UNL     1     -10.864  10.545  68.681  1.00  0.00    -0.237 A  
HETATM   13  O   UNL     1     -10.301  11.128  67.570  1.00  0.00    -0.184 OA 
HETATM   14  C   UNL     1     -10.691   9.152  68.817  1.00  0.00    -0.162 A  
HETATM   15  H   UNL     1      -9.813  10.617  66.934  1.00  0.00     0.000 HD 
HETATM   16  C   UNL     1     -11.250   8.507  69.946  1.00  0.00    -0.035 A  
HETATM   17  C   UNL     1     -12.014   9.265  70.859  1.00  0.00    -0.257 A  
HETATM   18  C   UNL     1     -11.069   7.011  70.162  1.00  0.00    -0.323 C  
HETATM   19  C   UNL     1      -9.969   6.389  69.295  1.00  0.00    -0.153 C  
HETATM   20  C   UNL     1     -12.175  10.659  70.713  1.00  0.00    -0.474 A  
HETATM   21  O   UNL     1     -12.625   8.644  71.915  1.00  0.00    -0.317 OA 
HETATM   22  O   UNL     1     -13.466  10.965  72.690  1.00  0.00     0.175 OA 
HETATM   23  C   UNL     1     -12.961  11.458  71.689  1.00  0.00    -0.418 C  
HETATM   24  C   UNL     1     -10.170   6.873  67.858  1.00  0.00    -0.212 C  
HETATM   25  O   UNL     1      -8.696   6.746  69.840  1.00  0.00    -0.139 OA 
HETATM   26  H   UNL     1     -13.140   9.155  72.530  1.00  0.00     0.000 HD 
HETATM   27  C   UNL     1      -9.903   8.378  67.759  1.00  0.00    -0.174 C  
HETATM   28  H   UNL     1      -8.014   6.359  69.303  1.00  0.00     0.000 HD 
BRANCH  19  29
HETATM   29  C   UNL     1     -10.056   4.853  69.316  1.00  0.00    -0.178 C  
HETATM   30  O   UNL     1     -10.075   4.187  68.277  1.00  0.00     0.008 OA 
HETATM   31  C   UNL     1     -10.012   4.174  70.666  1.00  0.00    -0.185 C  
ENDBRANCH  19  29
BRANCH  27  32
HETATM   32  O   UNL     1      -8.508   8.680  67.946  1.00  0.00    -0.127 OA 
BRANCH  32  33
HETATM   33  C   UNL     1      -8.211   9.909  68.620  1.00  0.00    -0.108 C  
HETATM   34  C   UNL     1      -7.469   9.745  69.946  1.00  0.00    -0.142 C  
HETATM   35  C   UNL     1      -6.046   9.245  69.695  1.00  0.00    -0.039 C  
HETATM   36  N   UNL     1      -5.324   9.104  70.976  1.00  0.00    -0.030 NA 
HETATM   37  C   UNL     1      -5.324  10.225  68.753  1.00  0.00    -0.038 C  
HETATM   38  H1  UNL     1      -4.375   8.771  70.808  1.00  0.00     0.000 HD 
HETATM   39  H2  UNL     1      -5.828   8.508  71.633  1.00  0.00     0.000 HD 
HETATM   40  O   UNL     1      -5.130  11.473  69.439  1.00  0.00    -0.045 OA 
HETATM   41  C   UNL     1      -6.157  10.419  67.470  1.00  0.00    -0.053 C  
HETATM   42  H   UNL     1      -4.684  12.077  68.858  1.00  0.00     0.000 HD 
HETATM   43  C   UNL     1      -5.567  11.510  66.581  1.00  0.00    -0.140 C  
HETATM   44  O   UNL     1      -7.511  10.796  67.747  1.00  0.00    -0.092 OA 
ENDBRANCH  32  33
ENDBRANCH  27  32
ENDBRANCH   2   3
TORSDOF 4
ENDMDL
MODEL       73
REMARK 921   NORMALIZED FREE ENERGY PREDICTED BY IDOCK:   -5.43 KCAL/MOL
REMARK 922        TOTAL FREE ENERGY PREDICTED BY IDOCK:   -7.29 KCAL/MOL
REMARK 923 INTER-LIGAND FREE ENERGY PREDICTED BY IDOCK:   -9.06 KCAL/MOL
REMARK 924 INTRA-LIGAND FREE ENERGY PREDICTED BY IDOCK:    1.77 KCAL/MOL
REMARK 927      BINDING AFFINITY PREDICTED BY RF-SCORE:    0.00 PKD
ROOT
HETATM    1  C   UNL     1     -11.281  16.330  68.305  1.00  0.00    -0.324 C  
HETATM    2  O   UNL     1     -10.482  15.170  68.088  1.00  0.00    -0.239 OA 
ENDROOT
BRANCH   2   3
HETATM    3  C   UNL     1     -10.573  14.580  66.854  1.00  0.00    -0.279 A  
HETATM    4  C   UNL     1     -10.942  15.312  65.713  1.00  0.00    -0.340 A  
HETATM    5  C   UNL     1     -11.022  14.699  64.467  1.00  0.00    -0.247 A  
HETATM    6  C   UNL     1     -10.735  13.346  64.352  1.00  0.00    -0.423 A  
HETATM    7  C   UNL     1     -10.390  12.593  65.486  1.00  0.00    -0.305 A  
HETATM    8  C   UNL     1     -10.322  13.194  66.744  1.00  0.00    -0.252 A  
HETATM    9  C   UNL     1      -9.987  12.338  67.912  1.00  0.00    -0.202 C  
HETATM   10  O   UNL     1     -10.017  12.762  69.065  1.00  0.00     0.039 OA 
HETATM   11  C   UNL     1      -9.609  10.913  67.721  1.00  0.00    -0.176 A  
HETATM   12  C   UNL     1      -9.176  10.138  68.818  1.00  0.00    -0.164 A  
HETATM   13  O   UNL     1      -9.058  10.678  70.078  1.00  0.00    -0.286 OA 
HETATM   14  C   UNL     1      -8.830   8.778  68.680  1.00  0.00    -0.138 A  
HETATM   15  H   UNL     1      -8.766  10.156  70.816  1.00  0.00     0.000 HD 
HETATM   16  C   UNL     1      -8.938   8.177  67.404  1.00  0.00    -0.145 A  
HETATM   17  C   UNL     1      -9.324   8.973  66.304  1.00  0.00    -0.225 A  
HETATM   18  C   UNL     1      -8.608   6.705  67.201  1.00  0.00    -0.112 C  
HETATM   19  C   UNL     1      -8.525   5.904  68.504  1.00  0.00    -0.111 C  
HETATM   20  C   UNL     1      -9.673  10.331  66.457  1.00  0.00    -0.243 A  
HETATM   21  O   UNL     1      -9.361   8.427  65.049  1.00  0.00    -0.361 OA 
HETATM   22  O   UNL     1     -10.222  10.702  64.170  1.00  0.00    -0.347 OA 
HETATM   23  C   UNL     1     -10.101  11.159  65.300  1.00  0.00    -0.276 C  
HETATM   24  C   UNL     1      -7.657   6.691  69.488  1.00  0.00    -0.095 C  
HETATM   25  O   UNL     1      -9.851   5.667  68.985  1.00  0.00    -0.138 OA 
HETATM   26  H   UNL     1      -9.621   8.962  64.308  1.00  0.00     0.000 HD 
HETATM   27  C   UNL     1      -8.360   7.987  69.903  1.00  0.00    -0.121 C  
HETATM   28  H   UNL     1      -9.800   5.170  69.793  1.00  0.00     0.000 HD 
BRANCH  19  29
HETATM   29  C   UNL     1      -7.878   4.530  68.264  1.00  0.00    -0.080 C  
HETATM   30  O   UNL     1      -7.320   3.904  69.170  1.00  0.00    -0.053 OA 
HETATM   31  C   UNL     1      -8.040   3.916  66.892  1.00  0.00    -0.096 C  
ENDBRANCH  19  29
BRANCH  27  32
HETATM   32  O   UNL     1      -9.513   7.724  70.722  1.00  0.00    -0.161 OA 
BRANCH  32  33
HETATM   33  C   UNL     1     -10.783   7.771  70.062  1.00  0.00    -0.244 C  
HETATM   34  C   UNL     1     -11.794   6.733  70.549  1.00  0.00    -0.418 C  
HETATM   35  C   UNL     1     -12.239   7.061  71.975  1.00  0.00    -0.282 C  
HETATM   36  N   UNL     1     -13.229   6.068  72.438  1.00  0.00    -0.197 NA 
HETATM   37  C   UNL     1     -12.821   8.486  72.009  1.00  0.00    -0.374 C  
HETATM   38  H1  UNL     1     -13.526   6.286  73.389  1.00  0.00     0.000 HD 
HETATM   39  H2  UNL     1     -12.878   5.113  72.358  1.00  0.00     0.000 HD 
HETATM   40  O   UNL     1     -14.045   8.507  71.257  1.00  0.00    -0.581 OA 
HETATM   41  C   UNL     1     -11.793   9.479  71.428  1.00  0.00    -0.389 C  
HETATM   42  H   UNL     1     -14.404   9.386  71.278  1.00  0.00     0.000 HD 
HETATM   43  C   UNL     1     -12.388  10.876  71.285  1.00  0.00    -0.448 C  
HETATM   44  O   UNL     1     -11.328   9.089  70.130  1.00  0.00    -0.222 OA 
ENDBRANCH  32  33
ENDBRANCH  27  32
ENDBRANCH   2   3
TORSDOF 4
ENDMDL
MODEL       74
REMARK 921   NORMALIZED FREE ENERGY PREDICTED BY IDOCK:   -5.32 KCAL/MOL
REMARK 922        TOTAL FREE ENERGY PREDICTED BY IDOCK:   -7.16 KCAL/MOL
REMARK 923 INTER-LIGAND FREE ENERGY PREDICTED BY IDOCK:   -6.93 KCAL/MOL
REMARK 924 INTRA-LIGAND FREE ENERGY PREDICTED BY IDOCK:   -0.23 KCAL/MOL
REMARK 927      BINDING AFFINITY PREDICTED BY RF-SCORE:    0.00 PKD
ROOT
HETATM    1  C   UNL     1     -11.034  19.598  67.066  1.00  0.00    -0.295 C  
HETATM    2  O   UNL     1      -9.997  18.710  66.656  1.00  0.00    -0.323 OA 
ENDROOT
BRANCH   2   3
HETATM    3  C   UNL     1      -8.796  18.820  67.310  1.00  0.00    -0.274 A  
HETATM    4  C   UNL     1      -8.163  20.062  67.482  1.00  0.00    -0.369 A  
HETATM    5  C   UNL     1      -6.950  20.156  68.156  1.00  0.00    -0.326 A  
HETATM    6  C   UNL     1      -6.357  19.007  68.660  1.00  0.00    -0.266 A  
HETATM    7  C   UNL     1      -6.963  17.755  68.473  1.00  0.00    -0.238 A  
HETATM    8  C   UNL     1      -8.172  17.645  67.787  1.00  0.00    -0.225 A  
HETATM    9  C   UNL     1      -8.747  16.289  67.589  1.00  0.00    -0.182 C  
HETATM   10  O   UNL     1      -9.746  16.094  66.901  1.00  0.00    -0.227 OA 
HETATM   11  C   UNL     1      -8.113  15.102  68.221  1.00  0.00    -0.138 A  
HETATM   12  C   UNL     1      -8.728  13.834  68.130  1.00  0.00    -0.183 A  
HETATM   13  O   UNL     1      -9.935  13.664  67.494  1.00  0.00    -0.225 OA 
HETATM   14  C   UNL     1      -8.147  12.681  68.698  1.00  0.00    -0.010 A  
HETATM   15  H   UNL     1     -10.349  12.811  67.433  1.00  0.00     0.000 HD 
HETATM   16  C   UNL     1      -6.903  12.805  69.360  1.00  0.00     0.039 A  
HETATM   17  C   UNL     1      -6.321  14.085  69.489  1.00  0.00    -0.121 A  
HETATM   18  C   UNL     1      -6.214  11.591  69.965  1.00  0.00    -0.142 C  
HETATM   19  C   UNL     1      -6.778  10.252  69.477  1.00  0.00    -0.073 C  
HETATM   20  C   UNL     1      -6.910  15.229  68.911  1.00  0.00    -0.122 A  
HETATM   21  O   UNL     1      -5.156  14.234  70.192  1.00  0.00    -0.089 OA 
HETATM   22  O   UNL     1      -5.204  16.748  69.583  1.00  0.00    -0.135 OA 
HETATM   23  C   UNL     1      -6.282  16.571  69.029  1.00  0.00    -0.162 C  
HETATM   24  C   UNL     1      -8.303  10.318  69.578  1.00  0.00    -0.162 C  
HETATM   25  O   UNL     1      -6.308  10.011  68.148  1.00  0.00    -0.053 OA 
HETATM   26  H   UNL     1      -4.763  15.096  70.278  1.00  0.00     0.000 HD 
HETATM   27  C   UNL     1      -8.861  11.334  68.576  1.00  0.00    -0.159 C  
HETATM   28  H   UNL     1      -6.658   9.180  67.846  1.00  0.00     0.000 HD 
BRANCH  19  29
HETATM   29  C   UNL     1      -6.275   9.092  70.353  1.00  0.00    -0.042 C  
HETATM   30  O   UNL     1      -5.185   9.136  70.930  1.00  0.00    -0.027 OA 
HETATM   31  C   UNL     1      -7.214   7.927  70.569  1.00  0.00    -0.053 C  
ENDBRANCH  19  29
BRANCH  27  32
HETATM   32  O   UNL     1      -8.707  10.878  67.220  1.00  0.00    -0.130 OA 
BRANCH  32  33
HETATM   33  C   UNL     1      -9.842  10.226  66.638  1.00  0.00    -0.204 C  
HETATM   34  C   UNL     1      -9.531   9.395  65.394  1.00  0.00    -0.322 C  
HETATM   35  C   UNL     1      -8.703   8.167  65.774  1.00  0.00    -0.154 C  
HETATM   36  N   UNL     1      -8.418   7.355  64.573  1.00  0.00    -0.368 NA 
HETATM   37  C   UNL     1      -9.466   7.349  66.832  1.00  0.00    -0.162 C  
HETATM   38  H1  UNL     1      -7.866   6.536  64.827  1.00  0.00     0.000 HD 
HETATM   39  H2  UNL     1      -7.970   7.904  63.839  1.00  0.00     0.000 HD 
HETATM   40  O   UNL     1     -10.644   6.791  66.227  1.00  0.00    -0.452 OA 
HETATM   41  C   UNL     1      -9.829   8.257  68.025  1.00  0.00    -0.169 C  
HETATM   42  H   UNL     1     -11.115   6.287  66.880  1.00  0.00     0.000 HD 
HETATM   43  C   UNL     1     -10.732   7.534  69.020  1.00  0.00    -0.148 C  
HETATM   44  O   UNL     1     -10.522   9.444  67.620  1.00  0.00    -0.238 OA 
ENDBRANCH  32  33
ENDBRANCH  27  32
ENDBRANCH   2   3
TORSDOF 4
ENDMDL
MODEL       75
REMARK 921   NORMALIZED FREE ENERGY PREDICTED BY IDOCK:   -5.32 KCAL/MOL
REMARK 922        TOTAL FREE ENERGY PREDICTED BY IDOCK:   -7.16 KCAL/MOL
REMARK 923 INTER-LIGAND FREE ENERGY PREDICTED BY IDOCK:   -7.37 KCAL/MOL
REMARK 924 INTRA-LIGAND FREE ENERGY PREDICTED BY IDOCK:    0.21 KCAL/MOL
REMARK 927      BINDING AFFINITY PREDICTED BY RF-SCORE:    0.00 PKD
ROOT
HETATM    1  C   UNL     1     -13.304  12.291  64.171  1.00  0.00     0.443 C  
HETATM    2  O   UNL     1     -12.946  12.816  65.446  1.00  0.00    -0.587 OA 
ENDROOT
BRANCH   2   3
HETATM    3  C   UNL     1     -11.764  13.507  65.520  1.00  0.00    -0.340 A  
HETATM    4  C   UNL     1     -11.537  14.662  64.753  1.00  0.00    -0.418 A  
HETATM    5  C   UNL     1     -10.335  15.355  64.846  1.00  0.00    -0.256 A  
HETATM    6  C   UNL     1      -9.347  14.897  65.705  1.00  0.00    -0.134 A  
HETATM    7  C   UNL     1      -9.546  13.729  66.459  1.00  0.00    -0.295 A  
HETATM    8  C   UNL     1     -10.741  13.017  66.363  1.00  0.00    -0.295 A  
HETATM    9  C   UNL     1     -10.880  11.768  67.159  1.00  0.00    -0.258 C  
HETATM   10  O   UNL     1     -11.851  11.024  67.046  1.00  0.00    -0.322 OA 
HETATM   11  C   UNL     1      -9.824  11.368  68.124  1.00  0.00    -0.195 A  
HETATM   12  C   UNL     1     -10.013  10.248  68.963  1.00  0.00    -0.213 A  
HETATM   13  O   UNL     1     -11.180   9.522  68.939  1.00  0.00    -0.446 OA 
HETATM   14  C   UNL     1      -9.026   9.825  69.876  1.00  0.00    -0.254 A  
HETATM   15  H   UNL     1     -11.308   8.768  69.504  1.00  0.00     0.000 HD 
HETATM   16  C   UNL     1      -7.806  10.539  69.935  1.00  0.00     0.033 A  
HETATM   17  C   UNL     1      -7.645  11.686  69.128  1.00  0.00     0.044 A  
HETATM   18  C   UNL     1      -6.692  10.110  70.879  1.00  0.00     0.129 C  
HETATM   19  C   UNL     1      -6.866   8.694  71.439  1.00  0.00    -0.082 C  
HETATM   20  C   UNL     1      -8.639  12.096  68.215  1.00  0.00    -0.175 A  
HETATM   21  O   UNL     1      -6.502  12.433  69.227  1.00  0.00    -0.098 OA 
HETATM   22  O   UNL     1      -7.424  13.950  67.347  1.00  0.00    -0.177 OA 
HETATM   23  C   UNL     1      -8.456  13.291  67.351  1.00  0.00    -0.206 C  
HETATM   24  C   UNL     1      -8.305   8.559  71.941  1.00  0.00    -0.218 C  
HETATM   25  O   UNL     1      -6.532   7.750  70.417  1.00  0.00    -0.037 OA 
HETATM   26  H   UNL     1      -6.393  13.205  68.684  1.00  0.00     0.000 HD 
HETATM   27  C   UNL     1      -9.288   8.609  70.767  1.00  0.00    -0.191 C  
HETATM   28  H   UNL     1      -6.640   6.872  70.765  1.00  0.00     0.000 HD 
BRANCH  19  29
HETATM   29  C   UNL     1      -5.907   8.446  72.615  1.00  0.00    -0.067 C  
HETATM   30  O   UNL     1      -5.465   9.371  73.302  1.00  0.00    -0.201 OA 
HETATM   31  C   UNL     1      -5.602   7.009  72.972  1.00  0.00    -0.041 C  
ENDBRANCH  19  29
BRANCH  27  32
HETATM   32  O   UNL     1      -9.185   7.433  69.942  1.00  0.00    -0.145 OA 
BRANCH  32  33
HETATM   33  C   UNL     1     -10.289   6.521  70.000  1.00  0.00    -0.198 C  
HETATM   34  C   UNL     1     -10.051   5.287  70.869  1.00  0.00    -0.295 C  
HETATM   35  C   UNL     1      -9.978   5.688  72.343  1.00  0.00    -0.170 C  
HETATM   36  N   UNL     1      -9.765   4.492  73.184  1.00  0.00    -0.133 NA 
HETATM   37  C   UNL     1     -11.273   6.421  72.734  1.00  0.00    -0.227 C  
HETATM   38  H1  UNL     1      -9.716   4.759  74.167  1.00  0.00     0.000 HD 
HETATM   39  H2  UNL     1      -8.944   3.961  72.892  1.00  0.00     0.000 HD 
HETATM   40  O   UNL     1     -12.367   5.489  72.688  1.00  0.00    -0.417 OA 
HETATM   41  C   UNL     1     -11.509   7.604  71.772  1.00  0.00    -0.264 C  
HETATM   42  H   UNL     1     -13.166   5.942  72.929  1.00  0.00     0.000 HD 
HETATM   43  C   UNL     1     -12.866   8.257  72.014  1.00  0.00    -0.369 C  
HETATM   44  O   UNL     1     -11.477   7.206  70.396  1.00  0.00    -0.291 OA 
ENDBRANCH  32  33
ENDBRANCH  27  32
ENDBRANCH   2   3
TORSDOF 4
ENDMDL
MODEL       76
REMARK 921   NORMALIZED FREE ENERGY PREDICTED BY IDOCK:   -5.15 KCAL/MOL
REMARK 922        TOTAL FREE ENERGY PREDICTED BY IDOCK:   -6.95 KCAL/MOL
REMARK 923 INTER-LIGAND FREE ENERGY PREDICTED BY IDOCK:   -7.40 KCAL/MOL
REMARK 924 INTRA-LIGAND FREE ENERGY PREDICTED BY IDOCK:    0.46 KCAL/MOL
REMARK 927      BINDING AFFINITY PREDICTED BY RF-SCORE:    0.00 PKD
ROOT
HETATM    1  C   UNL     1      -8.189  17.031  68.617  1.00  0.00    -0.261 C  
HETATM    2  O   UNL     1      -8.501  15.676  68.301  1.00  0.00    -0.151 OA 
ENDROOT
BRANCH   2   3
HETATM    3  C   UNL     1      -9.213  15.458  67.150  1.00  0.00    -0.213 A  
HETATM    4  C   UNL     1      -9.850  16.509  66.469  1.00  0.00    -0.292 A  
HETATM    5  C   UNL     1     -10.562  16.272  65.297  1.00  0.00    -0.357 A  
HETATM    6  C   UNL     1     -10.645  14.980  64.798  1.00  0.00    -0.319 A  
HETATM    7  C   UNL     1     -10.037  13.914  65.480  1.00  0.00    -0.319 A  
HETATM    8  C   UNL     1      -9.334  14.137  66.664  1.00  0.00    -0.299 A  
HETATM    9  C   UNL     1      -8.742  12.964  67.360  1.00  0.00    -0.197 C  
HETATM   10  O   UNL     1      -8.207  13.057  68.462  1.00  0.00    -0.140 OA 
HETATM   11  C   UNL     1      -8.792  11.614  66.740  1.00  0.00    -0.184 A  
HETATM   12  C   UNL     1      -8.126  10.527  67.346  1.00  0.00    -0.111 A  
HETATM   13  O   UNL     1      -7.390  10.686  68.497  1.00  0.00    -0.082 OA 
HETATM   14  C   UNL     1      -8.167   9.229  66.799  1.00  0.00    -0.115 A  
HETATM   15  H   UNL     1      -6.942   9.955  68.904  1.00  0.00     0.000 HD 
HETATM   16  C   UNL     1      -8.915   9.014  65.616  1.00  0.00    -0.249 A  
HETATM   17  C   UNL     1      -9.536  10.117  64.990  1.00  0.00    -0.271 A  
HETATM   18  C   UNL     1      -9.021   7.628  64.997  1.00  0.00     0.382 C  
HETATM   19  C   UNL     1      -8.587   6.496  65.935  1.00  0.00    -0.149 C  
HETATM   20  C   UNL     1      -9.491  11.411  65.552  1.00  0.00    -0.251 A  
HETATM   21  O   UNL     1     -10.199   9.942  63.806  1.00  0.00    -0.349 OA 
HETATM   22  O   UNL     1     -10.833  12.449  63.881  1.00  0.00    -0.350 OA 
HETATM   23  C   UNL     1     -10.165  12.564  64.902  1.00  0.00    -0.278 C  
HETATM   24  C   UNL     1      -7.245   6.888  66.558  1.00  0.00    -0.072 C  
HETATM   25  O   UNL     1      -9.617   6.278  66.902  1.00  0.00    -0.137 OA 
HETATM   26  H   UNL     1     -10.617  10.684  63.385  1.00  0.00     0.000 HD 
HETATM   27  C   UNL     1      -7.420   8.089  67.494  1.00  0.00    -0.097 C  
HETATM   28  H   UNL     1      -9.348   5.577  67.483  1.00  0.00     0.000 HD 
BRANCH  19  29
HETATM   29  C   UNL     1      -8.406   5.180  65.161  1.00  0.00    -0.141 C  
HETATM   30  O   UNL     1      -7.369   4.924  64.542  1.00  0.00    -0.061 OA 
HETATM   31  C   UNL     1      -9.511   4.154  65.270  1.00  0.00    -0.173 C  
ENDBRANCH  19  29
BRANCH  27  32
HETATM   32  O   UNL     1      -8.165   7.734  68.673  1.00  0.00    -0.125 OA 
BRANCH  32  33
HETATM   33  C   UNL     1      -8.855   8.803  69.331  1.00  0.00    -0.143 C  
HETATM   34  C   UNL     1     -10.376   8.654  69.364  1.00  0.00    -0.221 C  
HETATM   35  C   UNL     1     -10.772   7.496  70.282  1.00  0.00    -0.238 C  
HETATM   36  N   UNL     1     -12.243   7.365  70.326  1.00  0.00    -0.474 NA 
HETATM   37  C   UNL     1     -10.191   7.740  71.686  1.00  0.00    -0.186 C  
HETATM   38  H1  UNL     1     -12.507   6.592  70.938  1.00  0.00     0.000 HD 
HETATM   39  H2  UNL     1     -12.645   7.268  69.394  1.00  0.00     0.000 HD 
HETATM   40  O   UNL     1     -10.848   8.877  72.269  1.00  0.00    -0.332 OA 
HETATM   41  C   UNL     1      -8.669   7.969  71.583  1.00  0.00    -0.132 C  
HETATM   42  H   UNL     1     -10.489   9.028  73.136  1.00  0.00     0.000 HD 
HETATM   43  C   UNL     1      -8.076   8.382  72.927  1.00  0.00    -0.166 C  
HETATM   44  O   UNL     1      -8.331   8.997  70.645  1.00  0.00    -0.148 OA 
ENDBRANCH  32  33
ENDBRANCH  27  32
ENDBRANCH   2   3
TORSDOF 4
ENDMDL
MODEL       77
REMARK 921   NORMALIZED FREE ENERGY PREDICTED BY IDOCK:   -5.13 KCAL/MOL
REMARK 922        TOTAL FREE ENERGY PREDICTED BY IDOCK:   -6.93 KCAL/MOL
REMARK 923 INTER-LIGAND FREE ENERGY PREDICTED BY IDOCK:   -5.94 KCAL/MOL
REMARK 924 INTRA-LIGAND FREE ENERGY PREDICTED BY IDOCK:   -0.98 KCAL/MOL
REMARK 927      BINDING AFFINITY PREDICTED BY RF-SCORE:    0.00 PKD
ROOT
HETATM    1  C   UNL     1      -8.505   2.816  66.320  1.00  0.00    -0.103 C  
HETATM    2  O   UNL     1      -8.734   3.895  65.417  1.00  0.00    -0.112 OA 
ENDROOT
BRANCH   2   3
HETATM    3  C   UNL     1      -7.640   4.637  65.053  1.00  0.00    -0.077 A  
HETATM    4  C   UNL     1      -6.518   4.047  64.447  1.00  0.00    -0.042 A  
HETATM    5  C   UNL     1      -5.420   4.816  64.076  1.00  0.00    -0.013 A  
HETATM    6  C   UNL     1      -5.434   6.184  64.311  1.00  0.00    -0.018 A  
HETATM    7  C   UNL     1      -6.536   6.786  64.939  1.00  0.00    -0.042 A  
HETATM    8  C   UNL     1      -7.636   6.023  65.329  1.00  0.00    -0.088 A  
HETATM    9  C   UNL     1      -8.757   6.711  66.022  1.00  0.00    -0.147 C  
HETATM   10  O   UNL     1      -9.709   6.097  66.498  1.00  0.00    -0.159 OA 
HETATM   11  C   UNL     1      -8.756   8.190  66.175  1.00  0.00    -0.179 A  
HETATM   12  C   UNL     1      -9.876   8.849  66.726  1.00  0.00    -0.241 A  
HETATM   13  O   UNL     1     -11.004   8.159  67.102  1.00  0.00    -0.466 OA 
HETATM   14  C   UNL     1      -9.904  10.247  66.905  1.00  0.00    -0.244 A  
HETATM   15  H   UNL     1     -11.758   8.603  67.472  1.00  0.00     0.000 HD 
HETATM   16  C   UNL     1      -8.765  11.001  66.536  1.00  0.00    -0.169 A  
HETATM   17  C   UNL     1      -7.670  10.339  65.940  1.00  0.00    -0.137 A  
HETATM   18  C   UNL     1      -8.726  12.510  66.736  1.00  0.00    -0.147 C  
HETATM   19  C   UNL     1      -9.818  13.039  67.671  1.00  0.00    -0.212 C  
HETATM   20  C   UNL     1      -7.653   8.938  65.771  1.00  0.00    -0.090 A  
HETATM   21  O   UNL     1      -6.591  11.062  65.507  1.00  0.00    -0.362 OA 
HETATM   22  O   UNL     1      -5.469   8.833  64.828  1.00  0.00    -0.042 OA 
HETATM   23  C   UNL     1      -6.488   8.243  65.165  1.00  0.00    -0.052 C  
HETATM   24  C   UNL     1     -11.149  12.421  67.239  1.00  0.00    -0.329 C  
HETATM   25  O   UNL     1      -9.461  12.727  69.020  1.00  0.00    -0.378 OA 
HETATM   26  H   UNL     1      -5.853  10.616  65.106  1.00  0.00     0.000 HD 
HETATM   27  C   UNL     1     -11.147  10.911  67.500  1.00  0.00    -0.310 C  
HETATM   28  H   UNL     1     -10.138  13.055  69.600  1.00  0.00     0.000 HD 
BRANCH  19  29
HETATM   29  C   UNL     1      -9.930  14.570  67.574  1.00  0.00    -0.224 C  
HETATM   30  O   UNL     1     -10.017  15.282  68.579  1.00  0.00    -0.213 OA 
HETATM   31  C   UNL     1      -9.824  15.188  66.199  1.00  0.00    -0.325 C  
ENDBRANCH  19  29
BRANCH  27  32
HETATM   32  O   UNL     1     -11.167  10.619  68.909  1.00  0.00    -0.239 OA 
BRANCH  32  33
HETATM   33  C   UNL     1     -12.385  10.070  69.426  1.00  0.00     0.605 C  
HETATM   34  C   UNL     1     -12.205   8.826  70.295  1.00  0.00     0.447 C  
HETATM   35  C   UNL     1     -11.520   9.199  71.611  1.00  0.00    -0.381 C  
HETATM   36  N   UNL     1     -11.362   7.999  72.458  1.00  0.00    -0.382 NA 
HETATM   37  C   UNL     1     -12.349  10.282  72.325  1.00  0.00     0.443 C  
HETATM   38  H1  UNL     1     -10.905   8.247  73.336  1.00  0.00     0.000 HD 
HETATM   39  H2  UNL     1     -10.871   7.250  71.971  1.00  0.00     0.000 HD 
HETATM   40  O   UNL     1     -13.599   9.710  72.743  1.00  0.00    -0.666 OA 
HETATM   41  C   UNL     1     -12.572  11.474  71.373  1.00  0.00    -0.314 C  
HETATM   42  H   UNL     1     -14.110  10.378  73.184  1.00  0.00     0.000 HD 
HETATM   43  C   UNL     1     -13.530  12.497  71.977  1.00  0.00    -0.486 C  
HETATM   44  O   UNL     1     -13.129  11.075  70.115  1.00  0.00    -0.050 OA 
ENDBRANCH  32  33
ENDBRANCH  27  32
ENDBRANCH   2   3
TORSDOF 4
ENDMDL
MODEL       78
REMARK 921   NORMALIZED FREE ENERGY PREDICTED BY IDOCK:   -5.08 KCAL/MOL
REMARK 922        TOTAL FREE ENERGY PREDICTED BY IDOCK:   -6.86 KCAL/MOL
REMARK 923 INTER-LIGAND FREE ENERGY PREDICTED BY IDOCK:   -6.42 KCAL/MOL
REMARK 924 INTRA-LIGAND FREE ENERGY PREDICTED BY IDOCK:   -0.44 KCAL/MOL
REMARK 927      BINDING AFFINITY PREDICTED BY RF-SCORE:    0.00 PKD
ROOT
HETATM    1  C   UNL     1      -6.944   8.072  73.768  1.00  0.00    -0.124 C  
HETATM    2  O   UNL     1      -6.432   7.928  72.446  1.00  0.00    -0.055 OA 
ENDROOT
BRANCH   2   3
HETATM    3  C   UNL     1      -7.049   7.005  71.641  1.00  0.00    -0.070 A  
HETATM    4  C   UNL     1      -6.943   5.626  71.888  1.00  0.00    -0.076 A  
HETATM    5  C   UNL     1      -7.583   4.704  71.066  1.00  0.00    -0.072 A  
HETATM    6  C   UNL     1      -8.332   5.153  69.988  1.00  0.00    -0.089 A  
HETATM    7  C   UNL     1      -8.426   6.526  69.712  1.00  0.00    -0.131 A  
HETATM    8  C   UNL     1      -7.777   7.460  70.519  1.00  0.00    -0.096 A  
HETATM    9  C   UNL     1      -7.885   8.898  70.155  1.00  0.00    -0.097 C  
HETATM   10  O   UNL     1      -7.253   9.772  70.744  1.00  0.00    -0.270 OA 
HETATM   11  C   UNL     1      -8.766   9.329  69.039  1.00  0.00    -0.135 A  
HETATM   12  C   UNL     1      -8.958  10.702  68.774  1.00  0.00    -0.172 A  
HETATM   13  O   UNL     1      -8.372  11.674  69.551  1.00  0.00    -0.125 OA 
HETATM   14  C   UNL     1      -9.769  11.151  67.712  1.00  0.00    -0.183 A  
HETATM   15  H   UNL     1      -8.501  12.598  69.373  1.00  0.00     0.000 HD 
HETATM   16  C   UNL     1     -10.392  10.189  66.881  1.00  0.00    -0.298 A  
HETATM   17  C   UNL     1     -10.234   8.819  67.184  1.00  0.00    -0.276 A  
HETATM   18  C   UNL     1     -11.254  10.613  65.701  1.00  0.00     0.419 C  
HETATM   19  C   UNL     1     -11.074  12.081  65.299  1.00  0.00    -0.317 C  
HETATM   20  C   UNL     1      -9.415   8.384  68.248  1.00  0.00    -0.147 A  
HETATM   21  O   UNL     1     -10.890   7.877  66.438  1.00  0.00    -0.121 OA 
HETATM   22  O   UNL     1      -9.738   6.056  67.869  1.00  0.00    -0.115 OA 
HETATM   23  C   UNL     1      -9.233   6.941  68.549  1.00  0.00    -0.129 C  
HETATM   24  C   UNL     1     -11.153  12.931  66.569  1.00  0.00    -0.318 C  
HETATM   25  O   UNL     1      -9.833  12.219  64.602  1.00  0.00    -0.426 OA 
HETATM   26  H   UNL     1     -10.784   6.955  66.642  1.00  0.00     0.000 HD 
HETATM   27  C   UNL     1      -9.948  12.651  67.475  1.00  0.00    -0.205 C  
HETATM   28  H   UNL     1      -9.722  13.130  64.353  1.00  0.00     0.000 HD 
BRANCH  19  29
HETATM   29  C   UNL     1     -12.187  12.528  64.337  1.00  0.00    -0.449 C  
HETATM   30  O   UNL     1     -12.944  11.718  63.794  1.00  0.00    -0.540 OA 
HETATM   31  C   UNL     1     -12.394  14.014  64.157  1.00  0.00    -0.374 C  
ENDBRANCH  19  29
BRANCH  27  32
HETATM   32  O   UNL     1      -8.728  13.152  66.898  1.00  0.00    -0.209 OA 
BRANCH  32  33
HETATM   33  C   UNL     1      -8.652  14.570  66.709  1.00  0.00    -0.131 C  
HETATM   34  C   UNL     1      -9.534  15.387  67.653  1.00  0.00    -0.205 C  
HETATM   35  C   UNL     1      -9.001  15.294  69.083  1.00  0.00    -0.233 C  
HETATM   36  N   UNL     1      -9.844  16.098  69.992  1.00  0.00     0.073 NA 
HETATM   37  C   UNL     1      -7.538  15.772  69.111  1.00  0.00    -0.212 C  
HETATM   38  H1  UNL     1      -9.488  16.037  70.946  1.00  0.00     0.000 HD 
HETATM   39  H2  UNL     1     -10.827  15.834  69.933  1.00  0.00     0.000 HD 
HETATM   40  O   UNL     1      -7.503  17.180  68.825  1.00  0.00    -0.231 OA 
HETATM   41  C   UNL     1      -6.713  14.974  68.080  1.00  0.00    -0.128 C  
HETATM   42  H   UNL     1      -6.600  17.475  68.842  1.00  0.00     0.000 HD 
HETATM   43  C   UNL     1      -5.297  15.527  67.951  1.00  0.00    -0.139 C  
HETATM   44  O   UNL     1      -7.294  15.006  66.771  1.00  0.00    -0.016 OA 
ENDBRANCH  32  33
ENDBRANCH  27  32
ENDBRANCH   2   3
TORSDOF 4
ENDMDL
MODEL       79
REMARK 921   NORMALIZED FREE ENERGY PREDICTED BY IDOCK:   -5.08 KCAL/MOL
REMARK 922        TOTAL FREE ENERGY PREDICTED BY IDOCK:   -6.86 KCAL/MOL
REMARK 923 INTER-LIGAND FREE ENERGY PREDICTED BY IDOCK:   -8.32 KCAL/MOL
REMARK 924 INTRA-LIGAND FREE ENERGY PREDICTED BY IDOCK:    1.45 KCAL/MOL
REMARK 927      BINDING AFFINITY PREDICTED BY RF-SCORE:    0.00 PKD
ROOT
HETATM    1  C   UNL     1     -13.781  14.266  72.576  1.00  0.00    -0.505 C  
HETATM    2  O   UNL     1     -12.972  13.480  71.704  1.00  0.00    -0.350 OA 
ENDROOT
BRANCH   2   3
HETATM    3  C   UNL     1     -12.338  14.143  70.685  1.00  0.00    -0.365 A  
HETATM    4  C   UNL     1     -12.492  15.527  70.500  1.00  0.00    -0.472 A  
HETATM    5  C   UNL     1     -11.835  16.186  69.466  1.00  0.00    -0.140 A  
HETATM    6  C   UNL     1     -11.021  15.464  68.605  1.00  0.00    -0.273 A  
HETATM    7  C   UNL     1     -10.877  14.076  68.759  1.00  0.00    -0.279 A  
HETATM    8  C   UNL     1     -11.543  13.402  69.783  1.00  0.00    -0.305 A  
HETATM    9  C   UNL     1     -11.380  11.927  69.874  1.00  0.00    -0.096 C  
HETATM   10  O   UNL     1     -12.018  11.245  70.672  1.00  0.00    -0.345 OA 
HETATM   11  C   UNL     1     -10.432  11.216  68.977  1.00  0.00    -0.233 A  
HETATM   12  C   UNL     1     -10.193   9.835  69.145  1.00  0.00    -0.199 A  
HETATM   13  O   UNL     1     -10.793   9.119  70.154  1.00  0.00    -0.228 OA 
HETATM   14  C   UNL     1      -9.317   9.121  68.302  1.00  0.00    -0.141 A  
HETATM   15  H   UNL     1     -10.631   8.190  70.268  1.00  0.00     0.000 HD 
HETATM   16  C   UNL     1      -8.678   9.814  67.246  1.00  0.00    -0.135 A  
HETATM   17  C   UNL     1      -8.885  11.204  67.116  1.00  0.00    -0.143 A  
HETATM   18  C   UNL     1      -7.746   9.090  66.285  1.00  0.00    -0.095 C  
HETATM   19  C   UNL     1      -7.868   7.563  66.337  1.00  0.00    -0.098 C  
HETATM   20  C   UNL     1      -9.768  11.905  67.965  1.00  0.00    -0.191 A  
HETATM   21  O   UNL     1      -8.216  11.904  66.149  1.00  0.00    -0.383 OA 
HETATM   22  O   UNL     1      -9.485  14.024  66.915  1.00  0.00    -0.245 OA 
HETATM   23  C   UNL     1     -10.001  13.364  67.809  1.00  0.00    -0.233 C  
HETATM   24  C   UNL     1      -7.833   7.137  67.806  1.00  0.00    -0.114 C  
HETATM   25  O   UNL     1      -9.067   7.173  65.664  1.00  0.00    -0.371 OA 
HETATM   26  H   UNL     1      -8.356  12.840  66.061  1.00  0.00     0.000 HD 
HETATM   27  C   UNL     1      -9.088   7.627  68.535  1.00  0.00    -0.131 C  
HETATM   28  H   UNL     1      -9.143   6.226  65.696  1.00  0.00     0.000 HD 
BRANCH  19  29
HETATM   29  C   UNL     1      -6.696   6.893  65.601  1.00  0.00    -0.052 C  
HETATM   30  O   UNL     1      -6.104   5.917  66.069  1.00  0.00    -0.030 OA 
HETATM   31  C   UNL     1      -6.357   7.409  64.220  1.00  0.00    -0.044 C  
ENDBRANCH  19  29
BRANCH  27  32
HETATM   32  O   UNL     1     -10.264   6.929  68.087  1.00  0.00    -0.159 OA 
BRANCH  32  33
HETATM   33  C   UNL     1     -10.640   5.771  68.842  1.00  0.00    -0.267 C  
HETATM   34  C   UNL     1      -9.525   5.186  69.708  1.00  0.00    -0.210 C  
HETATM   35  C   UNL     1      -9.195   6.139  70.857  1.00  0.00    -0.154 C  
HETATM   36  N   UNL     1      -8.129   5.565  71.703  1.00  0.00    -0.116 NA 
HETATM   37  C   UNL     1     -10.472   6.409  71.674  1.00  0.00    -0.217 C  
HETATM   38  H1  UNL     1      -7.910   6.201  72.470  1.00  0.00     0.000 HD 
HETATM   39  H2  UNL     1      -7.301   5.321  71.160  1.00  0.00     0.000 HD 
HETATM   40  O   UNL     1     -10.862   5.196  72.339  1.00  0.00    -0.222 OA 
HETATM   41  C   UNL     1     -11.588   6.915  70.737  1.00  0.00    -0.349 C  
HETATM   42  H   UNL     1     -11.650   5.363  72.843  1.00  0.00     0.000 HD 
HETATM   43  C   UNL     1     -12.920   7.034  71.472  1.00  0.00    -0.411 C  
HETATM   44  O   UNL     1     -11.805   6.043  69.621  1.00  0.00    -0.015 OA 
ENDBRANCH  32  33
ENDBRANCH  27  32
ENDBRANCH   2   3
TORSDOF 4
ENDMDL
MODEL       80
REMARK 921   NORMALIZED FREE ENERGY PREDICTED BY IDOCK:   -5.02 KCAL/MOL
REMARK 922        TOTAL FREE ENERGY PREDICTED BY IDOCK:   -6.79 KCAL/MOL
REMARK 923 INTER-LIGAND FREE ENERGY PREDICTED BY IDOCK:   -7.95 KCAL/MOL
REMARK 924 INTRA-LIGAND FREE ENERGY PREDICTED BY IDOCK:    1.16 KCAL/MOL
REMARK 927      BINDING AFFINITY PREDICTED BY RF-SCORE:    0.00 PKD
ROOT
HETATM    1  C   UNL     1      -5.132  18.782  71.671  1.00  0.00    -0.205 C  
HETATM    2  O   UNL     1      -5.820  18.147  70.597  1.00  0.00    -0.138 OA 
ENDROOT
BRANCH   2   3
HETATM    3  C   UNL     1      -6.250  18.955  69.576  1.00  0.00    -0.267 A  
HETATM    4  C   UNL     1      -5.798  20.279  69.444  1.00  0.00    -0.360 A  
HETATM    5  C   UNL     1      -6.238  21.083  68.398  1.00  0.00    -0.264 A  
HETATM    6  C   UNL     1      -7.139  20.570  67.476  1.00  0.00    -0.370 A  
HETATM    7  C   UNL     1      -7.622  19.258  67.607  1.00  0.00    -0.275 A  
HETATM    8  C   UNL     1      -7.200  18.448  68.661  1.00  0.00    -0.301 A  
HETATM    9  C   UNL     1      -7.773  17.080  68.769  1.00  0.00    -0.249 C  
HETATM   10  O   UNL     1      -7.542  16.346  69.726  1.00  0.00     0.063 OA 
HETATM   11  C   UNL     1      -8.672  16.554  67.708  1.00  0.00    -0.197 A  
HETATM   12  C   UNL     1      -9.118  15.216  67.753  1.00  0.00    -0.179 A  
HETATM   13  O   UNL     1      -8.714  14.356  68.747  1.00  0.00    -0.214 OA 
HETATM   14  C   UNL     1      -9.987  14.686  66.777  1.00  0.00    -0.265 A  
HETATM   15  H   UNL     1      -9.014  13.455  68.778  1.00  0.00     0.000 HD 
HETATM   16  C   UNL     1     -10.434  15.533  65.735  1.00  0.00    -0.378 A  
HETATM   17  C   UNL     1      -9.943  16.855  65.671  1.00  0.00    -0.099 A  
HETATM   18  C   UNL     1     -11.397  15.025  64.672  1.00  0.00    -0.357 C  
HETATM   19  C   UNL     1     -12.089  13.709  65.041  1.00  0.00    -0.392 C  
HETATM   20  C   UNL     1      -9.077  17.374  66.657  1.00  0.00    -0.277 A  
HETATM   21  O   UNL     1     -10.304  17.664  64.628  1.00  0.00     0.566 OA 
HETATM   22  O   UNL     1      -8.932  19.561  65.728  1.00  0.00    -0.381 OA 
HETATM   23  C   UNL     1      -8.581  18.773  66.598  1.00  0.00    -0.302 C  
HETATM   24  C   UNL     1     -11.018  12.737  65.542  1.00  0.00    -0.310 C  
HETATM   25  O   UNL     1     -13.106  13.978  66.009  1.00  0.00    -0.453 OA 
HETATM   26  H   UNL     1      -9.974  18.555  64.585  1.00  0.00     0.000 HD 
HETATM   27  C   UNL     1     -10.433  13.225  66.871  1.00  0.00    -0.261 C  
HETATM   28  H   UNL     1     -13.535  13.162  66.238  1.00  0.00     0.000 HD 
BRANCH  19  29
HETATM   29  C   UNL     1     -12.782  13.090  63.815  1.00  0.00    -0.069 C  
HETATM   30  O   UNL     1     -12.958  13.729  62.774  1.00  0.00     0.004 OA 
HETATM   31  C   UNL     1     -13.153  11.626  63.893  1.00  0.00     0.178 C  
ENDBRANCH  19  29
BRANCH  27  32
HETATM   32  O   UNL     1     -11.395  13.130  67.937  1.00  0.00    -0.255 OA 
BRANCH  32  33
HETATM   33  C   UNL     1     -10.890  13.318  69.265  1.00  0.00    -0.023 C  
HETATM   34  C   UNL     1     -11.372  14.593  69.956  1.00  0.00    -0.288 C  
HETATM   35  C   UNL     1     -12.866  14.489  70.268  1.00  0.00    -0.199 C  
HETATM   36  N   UNL     1     -13.328  15.715  70.951  1.00  0.00    -0.734 NA 
HETATM   37  C   UNL     1     -13.118  13.240  71.131  1.00  0.00    -0.146 C  
HETATM   38  H1  UNL     1     -14.324  15.646  71.159  1.00  0.00     0.000 HD 
HETATM   39  H2  UNL     1     -13.107  16.556  70.417  1.00  0.00     0.000 HD 
HETATM   40  O   UNL     1     -12.514  13.437  72.420  1.00  0.00     0.062 OA 
HETATM   41  C   UNL     1     -12.535  11.998  70.427  1.00  0.00    -0.153 C  
HETATM   42  H   UNL     1     -12.669  12.666  72.953  1.00  0.00     0.000 HD 
HETATM   43  C   UNL     1     -12.610  10.764  71.321  1.00  0.00    -0.532 C  
HETATM   44  O   UNL     1     -11.159  12.167  70.066  1.00  0.00     0.069 OA 
ENDBRANCH  32  33
ENDBRANCH  27  32
ENDBRANCH   2   3
TORSDOF 4
ENDMDL
MODEL       81
REMARK 921   NORMALIZED FREE ENERGY PREDICTED BY IDOCK:   -5.01 KCAL/MOL
REMARK 922        TOTAL FREE ENERGY PREDICTED BY IDOCK:   -6.78 KCAL/MOL
REMARK 923 INTER-LIGAND FREE ENERGY PREDICTED BY IDOCK:   -6.12 KCAL/MOL
REMARK 924 INTRA-LIGAND FREE ENERGY PREDICTED BY IDOCK:   -0.65 KCAL/MOL
REMARK 927      BINDING AFFINITY PREDICTED BY RF-SCORE:    0.00 PKD
ROOT
HETATM    1  C   UNL     1      -8.196   3.668  66.388  1.00  0.00    -0.100 C  
HETATM    2  O   UNL     1      -8.258   4.836  67.203  1.00  0.00    -0.106 OA 
ENDROOT
BRANCH   2   3
HETATM    3  C   UNL     1      -8.922   4.721  68.397  1.00  0.00    -0.111 A  
HETATM    4  C   UNL     1      -9.046   3.486  69.055  1.00  0.00    -0.202 A  
HETATM    5  C   UNL     1      -9.716   3.389  70.270  1.00  0.00    -0.140 A  
HETATM    6  C   UNL     1     -10.272   4.527  70.836  1.00  0.00    -0.170 A  
HETATM    7  C   UNL     1     -10.181   5.765  70.179  1.00  0.00    -0.301 A  
HETATM    8  C   UNL     1      -9.525   5.872  68.953  1.00  0.00    -0.146 A  
HETATM    9  C   UNL     1      -9.493   7.201  68.288  1.00  0.00    -0.133 C  
HETATM   10  O   UNL     1      -9.036   7.358  67.158  1.00  0.00    -0.125 OA 
HETATM   11  C   UNL     1     -10.033   8.403  68.976  1.00  0.00    -0.194 A  
HETATM   12  C   UNL     1      -9.893   9.680  68.393  1.00  0.00    -0.153 A  
HETATM   13  O   UNL     1      -9.230   9.858  67.202  1.00  0.00    -0.137 OA 
HETATM   14  C   UNL     1     -10.410  10.840  69.006  1.00  0.00    -0.235 A  
HETATM   15  H   UNL     1      -9.136  10.719  66.809  1.00  0.00     0.000 HD 
HETATM   16  C   UNL     1     -11.104  10.708  70.232  1.00  0.00    -0.310 A  
HETATM   17  C   UNL     1     -11.195   9.433  70.832  1.00  0.00    -0.325 A  
HETATM   18  C   UNL     1     -11.710  11.920  70.924  1.00  0.00     0.415 C  
HETATM   19  C   UNL     1     -11.822  13.155  70.023  1.00  0.00    -0.290 C  
HETATM   20  C   UNL     1     -10.678   8.280  70.205  1.00  0.00    -0.237 A  
HETATM   21  O   UNL     1     -11.796   9.298  72.055  1.00  0.00    -0.363 OA 
HETATM   22  O   UNL     1     -11.388   6.750  71.885  1.00  0.00    -0.248 OA 
HETATM   23  C   UNL     1     -10.797   6.937  70.829  1.00  0.00    -0.245 C  
HETATM   24  C   UNL     1     -10.478  13.347  69.317  1.00  0.00     0.130 C  
HETATM   25  O   UNL     1     -12.914  12.970  69.119  1.00  0.00     0.838 OA 
HETATM   26  H   UNL     1     -11.858   8.440  72.458  1.00  0.00     0.000 HD 
HETATM   27  C   UNL     1     -10.223  12.201  68.333  1.00  0.00    -0.210 C  
HETATM   28  H   UNL     1     -12.983  13.736  68.561  1.00  0.00     0.000 HD 
BRANCH  19  29
HETATM   29  C   UNL     1     -12.128  14.414  70.852  1.00  0.00    -0.344 C  
HETATM   30  O   UNL     1     -13.005  14.425  71.721  1.00  0.00    -0.315 OA 
HETATM   31  C   UNL     1     -11.241  15.619  70.638  1.00  0.00    -0.382 C  
ENDBRANCH  19  29
BRANCH  27  32
HETATM   32  O   UNL     1     -11.121  12.261  67.210  1.00  0.00    -0.247 OA 
BRANCH  32  33
HETATM   33  C   UNL     1     -10.660  12.995  66.069  1.00  0.00    -0.279 C  
HETATM   34  C   UNL     1      -9.397  12.433  65.417  1.00  0.00     0.161 C  
HETATM   35  C   UNL     1      -9.703  11.092  64.748  1.00  0.00    -0.257 C  
HETATM   36  N   UNL     1      -8.485  10.558  64.103  1.00  0.00    -0.274 NA 
HETATM   37  C   UNL     1     -10.837  11.283  63.725  1.00  0.00    -0.350 C  
HETATM   38  H1  UNL     1      -8.689   9.664  63.657  1.00  0.00     0.000 HD 
HETATM   39  H2  UNL     1      -7.706  10.489  64.758  1.00  0.00     0.000 HD 
HETATM   40  O   UNL     1     -10.357  12.101  62.646  1.00  0.00    -0.216 OA 
HETATM   41  C   UNL     1     -12.054  11.932  64.417  1.00  0.00    -0.214 C  
HETATM   42  H   UNL     1     -11.057  12.219  62.015  1.00  0.00     0.000 HD 
HETATM   43  C   UNL     1     -13.139  12.295  63.409  1.00  0.00    -0.000 C  
HETATM   44  O   UNL     1     -11.711  13.136  65.113  1.00  0.00    -0.313 OA 
ENDBRANCH  32  33
ENDBRANCH  27  32
ENDBRANCH   2   3
TORSDOF 4
ENDMDL
MODEL       82
REMARK 921   NORMALIZED FREE ENERGY PREDICTED BY IDOCK:   -4.92 KCAL/MOL
REMARK 922        TOTAL FREE ENERGY PREDICTED BY IDOCK:   -6.66 KCAL/MOL
REMARK 923 INTER-LIGAND FREE ENERGY PREDICTED BY IDOCK:   -5.61 KCAL/MOL
REMARK 924 INTRA-LIGAND FREE ENERGY PREDICTED BY IDOCK:   -1.06 KCAL/MOL
REMARK 927      BINDING AFFINITY PREDICTED BY RF-SCORE:    0.00 PKD
ROOT
HETATM    1  C   UNL     1      -5.497  14.527  71.681  1.00  0.00    -0.123 C  
HETATM    2  O   UNL     1      -5.428  13.626  70.579  1.00  0.00    -0.115 OA 
ENDROOT
BRANCH   2   3
HETATM    3  C   UNL     1      -6.251  13.888  69.514  1.00  0.00    -0.115 A  
HETATM    4  C   UNL     1      -6.412  15.190  69.011  1.00  0.00    -0.106 A  
HETATM    5  C   UNL     1      -7.244  15.437  67.925  1.00  0.00    -0.160 A  
HETATM    6  C   UNL     1      -7.926  14.383  67.333  1.00  0.00    -0.220 A  
HETATM    7  C   UNL     1      -7.798  13.080  67.839  1.00  0.00    -0.149 A  
HETATM    8  C   UNL     1      -6.978  12.822  68.938  1.00  0.00    -0.084 A  
HETATM    9  C   UNL     1      -6.910  11.428  69.451  1.00  0.00    -0.112 C  
HETATM   10  O   UNL     1      -6.304  11.137  70.479  1.00  0.00    -0.303 OA 
HETATM   11  C   UNL     1      -7.597  10.325  68.730  1.00  0.00    -0.093 A  
HETATM   12  C   UNL     1      -7.432   8.988  69.152  1.00  0.00    -0.072 A  
HETATM   13  O   UNL     1      -6.614   8.663  70.208  1.00  0.00    -0.037 OA 
HETATM   14  C   UNL     1      -8.083   7.917  68.507  1.00  0.00    -0.123 A  
HETATM   15  H   UNL     1      -6.502   7.763  70.492  1.00  0.00     0.000 HD 
HETATM   16  C   UNL     1      -8.939   8.201  67.416  1.00  0.00    -0.145 A  
HETATM   17  C   UNL     1      -9.059   9.535  66.970  1.00  0.00    -0.134 A  
HETATM   18  C   UNL     1      -9.692   7.089  66.701  1.00  0.00    -0.226 C  
HETATM   19  C   UNL     1      -9.728   5.767  67.476  1.00  0.00    -0.119 C  
HETATM   20  C   UNL     1      -8.405  10.598  67.629  1.00  0.00    -0.114 A  
HETATM   21  O   UNL     1      -9.822   9.819  65.870  1.00  0.00    -0.248 OA 
HETATM   22  O   UNL     1      -9.280  12.321  66.237  1.00  0.00    -0.225 OA 
HETATM   23  C   UNL     1      -8.552  12.004  67.170  1.00  0.00    -0.182 C  
HETATM   24  C   UNL     1      -8.307   5.461  67.953  1.00  0.00    -0.099 C  
HETATM   25  O   UNL     1     -10.670   5.886  68.546  1.00  0.00    -0.242 OA 
HETATM   26  H   UNL     1      -9.903  10.717  65.570  1.00  0.00     0.000 HD 
HETATM   27  C   UNL     1      -7.862   6.486  69.001  1.00  0.00    -0.110 C  
HETATM   28  H   UNL     1     -10.693   5.067  69.026  1.00  0.00     0.000 HD 
BRANCH  19  29
HETATM   29  C   UNL     1     -10.207   4.615  66.577  1.00  0.00    -0.238 C  
HETATM   30  O   UNL     1     -11.046   4.787  65.688  1.00  0.00    -0.190 OA 
HETATM   31  C   UNL     1      -9.532   3.273  66.750  1.00  0.00    -0.132 C  
ENDBRANCH  19  29
BRANCH  27  32
HETATM   32  O   UNL     1      -8.592   6.331  70.232  1.00  0.00    -0.134 OA 
BRANCH  32  33
HETATM   33  C   UNL     1      -8.509   5.046  70.861  1.00  0.00    -0.120 C  
HETATM   34  C   UNL     1      -7.395   4.915  71.899  1.00  0.00    -0.080 C  
HETATM   35  C   UNL     1      -7.714   5.774  73.124  1.00  0.00    -0.099 C  
HETATM   36  N   UNL     1      -6.645   5.633  74.134  1.00  0.00    -0.077 NA 
HETATM   37  C   UNL     1      -9.081   5.355  73.695  1.00  0.00    -0.124 C  
HETATM   38  H1  UNL     1      -6.858   6.205  74.951  1.00  0.00     0.000 HD 
HETATM   39  H2  UNL     1      -5.725   5.845  73.748  1.00  0.00     0.000 HD 
HETATM   40  O   UNL     1      -8.973   4.025  74.230  1.00  0.00    -0.094 OA 
HETATM   41  C   UNL     1     -10.149   5.424  72.584  1.00  0.00    -0.176 C  
HETATM   42  H   UNL     1      -9.817   3.767  74.582  1.00  0.00     0.000 HD 
HETATM   43  C   UNL     1     -11.483   4.856  73.058  1.00  0.00    -0.327 C  
HETATM   44  O   UNL     1      -9.773   4.684  71.416  1.00  0.00    -0.159 OA 
ENDBRANCH  32  33
ENDBRANCH  27  32
ENDBRANCH   2   3
TORSDOF 4
ENDMDL
MODEL       83
REMARK 921   NORMALIZED FREE ENERGY PREDICTED BY IDOCK:   -4.89 KCAL/MOL
REMARK 922        TOTAL FREE ENERGY PREDICTED BY IDOCK:   -6.63 KCAL/MOL
REMARK 923 INTER-LIGAND FREE ENERGY PREDICTED BY IDOCK:   -8.01 KCAL/MOL
REMARK 924 INTRA-LIGAND FREE ENERGY PREDICTED BY IDOCK:    1.38 KCAL/MOL
REMARK 927      BINDING AFFINITY PREDICTED BY RF-SCORE:    0.00 PKD
ROOT
HETATM    1  C   UNL     1     -10.869   4.572  65.228  1.00  0.00    -0.057 C  
HETATM    2  O   UNL     1     -10.768   4.894  66.612  1.00  0.00    -0.223 OA 
ENDROOT
BRANCH   2   3
HETATM    3  C   UNL     1      -9.505   4.938  67.146  1.00  0.00    -0.142 A  
HETATM    4  C   UNL     1      -8.815   3.767  67.500  1.00  0.00    -0.140 A  
HETATM    5  C   UNL     1      -7.531   3.829  68.032  1.00  0.00    -0.062 A  
HETATM    6  C   UNL     1      -6.928   5.065  68.218  1.00  0.00    -0.061 A  
HETATM    7  C   UNL     1      -7.614   6.247  67.894  1.00  0.00    -0.102 A  
HETATM    8  C   UNL     1      -8.908   6.198  67.374  1.00  0.00    -0.106 A  
HETATM    9  C   UNL     1      -9.597   7.483  67.085  1.00  0.00    -0.161 C  
HETATM   10  O   UNL     1     -10.773   7.531  66.734  1.00  0.00    -0.319 OA 
HETATM   11  C   UNL     1      -8.874   8.775  67.226  1.00  0.00    -0.141 A  
HETATM   12  C   UNL     1      -9.493   9.982  66.837  1.00  0.00    -0.166 A  
HETATM   13  O   UNL     1     -10.754  10.000  66.288  1.00  0.00    -0.090 OA 
HETATM   14  C   UNL     1      -8.849  11.228  66.974  1.00  0.00    -0.153 A  
HETATM   15  H   UNL     1     -11.171  10.812  66.026  1.00  0.00     0.000 HD 
HETATM   16  C   UNL     1      -7.551  11.262  67.536  1.00  0.00    -0.110 A  
HETATM   17  C   UNL     1      -6.921  10.045  67.877  1.00  0.00    -0.084 A  
HETATM   18  C   UNL     1      -6.818  12.581  67.738  1.00  0.00    -0.120 C  
HETATM   19  C   UNL     1      -7.724  13.813  67.637  1.00  0.00    -0.179 C  
HETATM   20  C   UNL     1      -7.579   8.805  67.738  1.00  0.00    -0.097 A  
HETATM   21  O   UNL     1      -5.637  10.053  68.351  1.00  0.00    -0.042 OA 
HETATM   22  O   UNL     1      -5.802   7.486  68.616  1.00  0.00    -0.022 OA 
HETATM   23  C   UNL     1      -6.921   7.529  68.119  1.00  0.00    -0.072 C  
HETATM   24  C   UNL     1      -8.578  13.669  66.376  1.00  0.00     0.347 C  
HETATM   25  O   UNL     1      -8.497  13.917  68.836  1.00  0.00    -0.339 OA 
HETATM   26  H   UNL     1      -5.212   9.234  68.580  1.00  0.00     0.000 HD 
HETATM   27  C   UNL     1      -9.564  12.506  66.529  1.00  0.00    -0.242 C  
HETATM   28  H   UNL     1      -9.058  14.682  68.773  1.00  0.00     0.000 HD 
BRANCH  19  29
HETATM   29  C   UNL     1      -6.889  15.100  67.523  1.00  0.00    -0.174 C  
HETATM   30  O   UNL     1      -6.985  15.856  66.552  1.00  0.00    -0.135 OA 
HETATM   31  C   UNL     1      -6.015  15.467  68.700  1.00  0.00    -0.097 C  
ENDBRANCH  19  29
BRANCH  27  32
HETATM   32  O   UNL     1     -10.581  12.800  67.504  1.00  0.00    -0.225 OA 
BRANCH  32  33
HETATM   33  C   UNL     1     -11.799  13.360  66.998  1.00  0.00    -0.394 C  
HETATM   34  C   UNL     1     -11.713  14.839  66.623  1.00  0.00    -0.293 C  
HETATM   35  C   UNL     1     -10.824  15.019  65.392  1.00  0.00    -0.364 C  
HETATM   36  N   UNL     1     -10.756  16.447  65.021  1.00  0.00    -0.681 NA 
HETATM   37  C   UNL     1     -11.379  14.167  64.237  1.00  0.00    -0.226 C  
HETATM   38  H1  UNL     1     -10.163  16.568  64.200  1.00  0.00     0.000 HD 
HETATM   39  H2  UNL     1     -10.451  17.030  65.800  1.00  0.00     0.000 HD 
HETATM   40  O   UNL     1     -12.644  14.711  63.825  1.00  0.00    -0.992 OA 
HETATM   41  C   UNL     1     -11.525  12.703  64.697  1.00  0.00    -0.330 C  
HETATM   42  H   UNL     1     -12.986  14.185  63.112  1.00  0.00     0.000 HD 
HETATM   43  C   UNL     1     -12.229  11.855  63.642  1.00  0.00    -0.586 C  
HETATM   44  O   UNL     1     -12.286  12.581  65.905  1.00  0.00    -0.626 OA 
ENDBRANCH  32  33
ENDBRANCH  27  32
ENDBRANCH   2   3
TORSDOF 4
ENDMDL
MODEL       84
REMARK 921   NORMALIZED FREE ENERGY PREDICTED BY IDOCK:   -4.62 KCAL/MOL
REMARK 922        TOTAL FREE ENERGY PREDICTED BY IDOCK:   -6.30 KCAL/MOL
REMARK 923 INTER-LIGAND FREE ENERGY PREDICTED BY IDOCK:   -6.30 KCAL/MOL
REMARK 924 INTRA-LIGAND FREE ENERGY PREDICTED BY IDOCK:    0.00 KCAL/MOL
REMARK 927      BINDING AFFINITY PREDICTED BY RF-SCORE:    0.00 PKD
ROOT
HETATM    1  C   UNL     1     -10.920   7.727  73.388  1.00  0.00    -0.023 C  
HETATM    2  O   UNL     1     -11.837   7.796  72.299  1.00  0.00    -0.309 OA 
ENDROOT
BRANCH   2   3
HETATM    3  C   UNL     1     -12.088   9.041  71.781  1.00  0.00    -0.368 A  
HETATM    4  C   UNL     1     -12.922   9.959  72.441  1.00  0.00    -0.263 A  
HETATM    5  C   UNL     1     -13.159  11.220  71.906  1.00  0.00    -0.510 A  
HETATM    6  C   UNL     1     -12.565  11.574  70.703  1.00  0.00    -0.337 A  
HETATM    7  C   UNL     1     -11.750  10.660  70.016  1.00  0.00    -0.405 A  
HETATM    8  C   UNL     1     -11.517   9.386  70.536  1.00  0.00    -0.317 A  
HETATM    9  C   UNL     1     -10.674   8.450  69.746  1.00  0.00    -0.211 C  
HETATM   10  O   UNL     1     -10.514   7.277  70.075  1.00  0.00    -0.212 OA 
HETATM   11  C   UNL     1      -9.997   8.908  68.505  1.00  0.00    -0.195 A  
HETATM   12  C   UNL     1      -9.104   8.053  67.824  1.00  0.00    -0.131 A  
HETATM   13  O   UNL     1      -8.808   6.797  68.300  1.00  0.00    -0.126 OA 
HETATM   14  C   UNL     1      -8.458   8.443  66.633  1.00  0.00    -0.113 A  
HETATM   15  H   UNL     1      -8.206   6.221  67.842  1.00  0.00     0.000 HD 
HETATM   16  C   UNL     1      -8.734   9.726  66.103  1.00  0.00    -0.150 A  
HETATM   17  C   UNL     1      -9.589  10.592  66.816  1.00  0.00    -0.169 A  
HETATM   18  C   UNL     1      -8.091  10.190  64.804  1.00  0.00    -0.153 C  
HETATM   19  C   UNL     1      -7.461   9.058  63.985  1.00  0.00    -0.110 C  
HETATM   20  C   UNL     1     -10.233  10.186  68.005  1.00  0.00    -0.205 A  
HETATM   21  O   UNL     1      -9.807  11.864  66.357  1.00  0.00    -0.204 OA 
HETATM   22  O   UNL     1     -11.437  12.214  68.335  1.00  0.00    -0.256 OA 
HETATM   23  C   UNL     1     -11.151  11.094  68.741  1.00  0.00    -0.236 C  
HETATM   24  C   UNL     1      -6.607   8.211  64.930  1.00  0.00    -0.055 C  
HETATM   25  O   UNL     1      -8.505   8.316  63.347  1.00  0.00    -0.378 OA 
HETATM   26  H   UNL     1     -10.383  12.447  66.838  1.00  0.00     0.000 HD 
HETATM   27  C   UNL     1      -7.494   7.478  65.941  1.00  0.00    -0.082 C  
HETATM   28  H   UNL     1      -8.114   7.614  62.839  1.00  0.00     0.000 HD 
BRANCH  19  29
HETATM   29  C   UNL     1      -6.560   9.619  62.873  1.00  0.00    -0.105 C  
HETATM   30  O   UNL     1      -6.735  10.745  62.397  1.00  0.00    -0.132 OA 
HETATM   31  C   UNL     1      -5.376   8.780  62.449  1.00  0.00    -0.071 C  
ENDBRANCH  19  29
BRANCH  27  32
HETATM   32  O   UNL     1      -8.281   6.453  65.308  1.00  0.00    -0.132 OA 
BRANCH  32  33
HETATM   33  C   UNL     1      -8.116   5.124  65.817  1.00  0.00    -0.110 C  
HETATM   34  C   UNL     1      -7.594   4.111  64.797  1.00  0.00    -0.077 C  
HETATM   35  C   UNL     1      -6.141   4.426  64.439  1.00  0.00    -0.022 C  
HETATM   36  N   UNL     1      -5.633   3.437  63.467  1.00  0.00    -0.009 NA 
HETATM   37  C   UNL     1      -5.293   4.433  65.723  1.00  0.00    -0.009 C  
HETATM   38  H1  UNL     1      -4.664   3.646  63.228  1.00  0.00     0.000 HD 
HETATM   39  H2  UNL     1      -6.226   3.376  62.639  1.00  0.00     0.000 HD 
HETATM   40  O   UNL     1      -5.232   3.096  66.248  1.00  0.00    -0.008 OA 
HETATM   41  C   UNL     1      -5.912   5.406  66.747  1.00  0.00    -0.022 C  
HETATM   42  H   UNL     1      -4.709   3.101  67.040  1.00  0.00     0.000 HD 
HETATM   43  C   UNL     1      -5.204   5.320  68.096  1.00  0.00    -0.004 C  
HETATM   44  O   UNL     1      -7.299   5.139  66.988  1.00  0.00    -0.080 OA 
ENDBRANCH  32  33
ENDBRANCH  27  32
ENDBRANCH   2   3
TORSDOF 4
ENDMDL
MODEL       85
REMARK 921   NORMALIZED FREE ENERGY PREDICTED BY IDOCK:   -4.56 KCAL/MOL
REMARK 922        TOTAL FREE ENERGY PREDICTED BY IDOCK:   -6.22 KCAL/MOL
REMARK 923 INTER-LIGAND FREE ENERGY PREDICTED BY IDOCK:   -6.60 KCAL/MOL
REMARK 924 INTRA-LIGAND FREE ENERGY PREDICTED BY IDOCK:    0.38 KCAL/MOL
REMARK 927      BINDING AFFINITY PREDICTED BY RF-SCORE:    0.00 PKD
ROOT
HETATM    1  C   UNL     1     -12.111  15.112  67.190  1.00  0.00     0.250 C  
HETATM    2  O   UNL     1     -11.520  14.412  68.282  1.00  0.00    -0.274 OA 
ENDROOT
BRANCH   2   3
HETATM    3  C   UNL     1     -12.294  14.246  69.401  1.00  0.00    -0.199 A  
HETATM    4  C   UNL     1     -13.095  15.287  69.903  1.00  0.00     0.209 A  
HETATM    5  C   UNL     1     -13.881  15.100  71.035  1.00  0.00    -0.423 A  
HETATM    6  C   UNL     1     -13.870  13.870  71.678  1.00  0.00    -0.376 A  
HETATM    7  C   UNL     1     -13.056  12.828  71.206  1.00  0.00    -0.245 A  
HETATM    8  C   UNL     1     -12.252  13.008  70.081  1.00  0.00    -0.342 A  
HETATM    9  C   UNL     1     -11.385  11.881  69.650  1.00  0.00    -0.195 C  
HETATM   10  O   UNL     1     -10.566  11.993  68.741  1.00  0.00    -0.227 OA 
HETATM   11  C   UNL     1     -11.474  10.559  70.325  1.00  0.00    -0.416 A  
HETATM   12  C   UNL     1     -10.736   9.459  69.838  1.00  0.00    -0.234 A  
HETATM   13  O   UNL     1      -9.949   9.562  68.715  1.00  0.00    -0.164 OA 
HETATM   14  C   UNL     1     -10.779   8.196  70.463  1.00  0.00    -0.233 A  
HETATM   15  H   UNL     1      -9.453   8.822  68.386  1.00  0.00     0.000 HD 
HETATM   16  C   UNL     1     -11.572   8.041  71.624  1.00  0.00    -0.317 A  
HETATM   17  C   UNL     1     -12.345   9.133  72.076  1.00  0.00    -0.377 A  
HETATM   18  C   UNL     1     -11.632   6.711  72.360  1.00  0.00    -0.281 C  
HETATM   19  C   UNL     1     -10.519   5.734  71.965  1.00  0.00    -0.218 C  
HETATM   20  C   UNL     1     -12.289  10.393  71.443  1.00  0.00    -0.500 A  
HETATM   21  O   UNL     1     -13.176   8.980  73.152  1.00  0.00    -0.836 OA 
HETATM   22  O   UNL     1     -13.789  11.484  72.937  1.00  0.00     0.790 OA 
HETATM   23  C   UNL     1     -13.086  11.547  71.935  1.00  0.00    -0.387 C  
HETATM   24  C   UNL     1     -10.449   5.691  70.438  1.00  0.00    -0.355 C  
HETATM   25  O   UNL     1      -9.297   6.158  72.576  1.00  0.00    -0.142 OA 
HETATM   26  H   UNL     1     -13.696   9.715  73.456  1.00  0.00     0.000 HD 
HETATM   27  C   UNL     1      -9.965   7.036  69.887  1.00  0.00    -0.177 C  
HETATM   28  H   UNL     1      -8.607   5.552  72.332  1.00  0.00     0.000 HD 
BRANCH  19  29
HETATM   29  C   UNL     1     -10.819   4.319  72.486  1.00  0.00     0.011 C  
HETATM   30  O   UNL     1     -11.667   4.111  73.358  1.00  0.00    -0.184 OA 
HETATM   31  C   UNL     1     -10.108   3.166  71.814  1.00  0.00    -0.116 C  
ENDBRANCH  19  29
BRANCH  27  32
HETATM   32  O   UNL     1      -8.582   7.271  70.207  1.00  0.00    -0.139 OA 
BRANCH  32  33
HETATM   33  C   UNL     1      -8.242   8.604  70.607  1.00  0.00    -0.137 C  
HETATM   34  C   UNL     1      -7.736   8.729  72.043  1.00  0.00    -0.025 C  
HETATM   35  C   UNL     1      -6.363   8.069  72.177  1.00  0.00    -0.051 C  
HETATM   36  N   UNL     1      -5.867   8.205  73.562  1.00  0.00    -0.067 NA 
HETATM   37  C   UNL     1      -5.391   8.711  71.171  1.00  0.00    -0.033 C  
HETATM   38  H1  UNL     1      -4.951   7.765  73.651  1.00  0.00     0.000 HD 
HETATM   39  H2  UNL     1      -6.533   7.842  74.243  1.00  0.00     0.000 HD 
HETATM   40  O   UNL     1      -5.153  10.074  71.559  1.00  0.00    -0.066 OA 
HETATM   41  C   UNL     1      -5.991   8.633  69.751  1.00  0.00    -0.028 C  
HETATM   42  H   UNL     1      -4.553  10.470  70.938  1.00  0.00     0.000 HD 
HETATM   43  C   UNL     1      -5.143   9.406  68.746  1.00  0.00    -0.033 C  
HETATM   44  O   UNL     1      -7.314   9.177  69.685  1.00  0.00    -0.060 OA 
ENDBRANCH  32  33
ENDBRANCH  27  32
ENDBRANCH   2   3
TORSDOF 4
ENDMDL
MODEL       86
REMARK 921   NORMALIZED FREE ENERGY PREDICTED BY IDOCK:   -4.55 KCAL/MOL
REMARK 922        TOTAL FREE ENERGY PREDICTED BY IDOCK:   -6.20 KCAL/MOL
REMARK 923 INTER-LIGAND FREE ENERGY PREDICTED BY IDOCK:   -5.78 KCAL/MOL
REMARK 924 INTRA-LIGAND FREE ENERGY PREDICTED BY IDOCK:   -0.42 KCAL/MOL
REMARK 927      BINDING AFFINITY PREDICTED BY RF-SCORE:    0.00 PKD
ROOT
HETATM    1  C   UNL     1     -12.140  15.456  64.261  1.00  0.00    -0.166 C  
HETATM    2  O   UNL     1     -11.290  14.651  65.074  1.00  0.00    -0.355 OA 
ENDROOT
BRANCH   2   3
HETATM    3  C   UNL     1     -10.306  15.302  65.772  1.00  0.00    -0.344 A  
HETATM    4  C   UNL     1     -10.121  16.690  65.663  1.00  0.00    -0.244 A  
HETATM    5  C   UNL     1      -9.123  17.336  66.385  1.00  0.00    -0.281 A  
HETATM    6  C   UNL     1      -8.298  16.597  67.221  1.00  0.00    -0.198 A  
HETATM    7  C   UNL     1      -8.451  15.205  67.321  1.00  0.00    -0.220 A  
HETATM    8  C   UNL     1      -9.438  14.544  66.591  1.00  0.00    -0.301 A  
HETATM    9  C   UNL     1      -9.529  13.065  66.711  1.00  0.00    -0.250 C  
HETATM   10  O   UNL     1     -10.293  12.397  66.019  1.00  0.00    -0.241 OA 
HETATM   11  C   UNL     1      -8.674  12.333  67.683  1.00  0.00    -0.175 A  
HETATM   12  C   UNL     1      -8.847  10.946  67.879  1.00  0.00    -0.134 A  
HETATM   13  O   UNL     1      -9.822  10.242  67.213  1.00  0.00    -0.171 OA 
HETATM   14  C   UNL     1      -8.042  10.214  68.776  1.00  0.00    -0.111 A  
HETATM   15  H   UNL     1      -9.939   9.308  67.346  1.00  0.00     0.000 HD 
HETATM   16  C   UNL     1      -7.022  10.895  69.482  1.00  0.00    -0.131 A  
HETATM   17  C   UNL     1      -6.889  12.290  69.316  1.00  0.00    -0.039 A  
HETATM   18  C   UNL     1      -6.102  10.151  70.440  1.00  0.00    -0.102 C  
HETATM   19  C   UNL     1      -6.141   8.628  70.277  1.00  0.00    -0.033 C  
HETATM   20  C   UNL     1      -7.699  13.010  68.412  1.00  0.00    -0.137 A  
HETATM   21  O   UNL     1      -5.959  12.977  70.049  1.00  0.00    -0.132 OA 
HETATM   22  O   UNL     1      -6.675  15.125  68.798  1.00  0.00    -0.094 OA 
HETATM   23  C   UNL     1      -7.540  14.475  68.223  1.00  0.00    -0.121 C  
HETATM   24  C   UNL     1      -7.607   8.195  70.231  1.00  0.00    -0.080 C  
HETATM   25  O   UNL     1      -5.408   8.271  69.102  1.00  0.00    -0.030 OA 
HETATM   26  H   UNL     1      -5.869  13.917  69.937  1.00  0.00     0.000 HD 
HETATM   27  C   UNL     1      -8.278   8.713  68.955  1.00  0.00    -0.122 C  
HETATM   28  H   UNL     1      -5.432   7.327  69.001  1.00  0.00     0.000 HD 
BRANCH  19  29
HETATM   29  C   UNL     1      -5.457   7.931  71.466  1.00  0.00    -0.034 C  
HETATM   30  O   UNL     1      -5.195   8.532  72.512  1.00  0.00    -0.037 OA 
HETATM   31  C   UNL     1      -5.208   6.444  71.349  1.00  0.00    -0.022 C  
ENDBRANCH  19  29
BRANCH  27  32
HETATM   32  O   UNL     1      -7.771   8.048  67.785  1.00  0.00    -0.106 OA 
BRANCH  32  33
HETATM   33  C   UNL     1      -8.747   7.452  66.922  1.00  0.00    -0.126 C  
HETATM   34  C   UNL     1      -8.272   6.194  66.195  1.00  0.00    -0.119 C  
HETATM   35  C   UNL     1      -8.085   5.050  67.192  1.00  0.00    -0.107 C  
HETATM   36  N   UNL     1      -7.643   3.829  66.486  1.00  0.00    -0.083 NA 
HETATM   37  C   UNL     1      -9.407   4.811  67.944  1.00  0.00    -0.133 C  
HETATM   38  H1  UNL     1      -7.518   3.066  67.151  1.00  0.00     0.000 HD 
HETATM   39  H2  UNL     1      -6.803   3.993  65.931  1.00  0.00     0.000 HD 
HETATM   40  O   UNL     1     -10.382   4.301  67.020  1.00  0.00    -0.188 OA 
HETATM   41  C   UNL     1      -9.883   6.131  68.585  1.00  0.00    -0.138 C  
HETATM   42  H   UNL     1     -11.198   4.154  67.484  1.00  0.00     0.000 HD 
HETATM   43  C   UNL     1     -11.273   5.983  69.197  1.00  0.00    -0.337 C  
HETATM   44  O   UNL     1      -9.957   7.204  67.639  1.00  0.00    -0.143 OA 
ENDBRANCH  32  33
ENDBRANCH  27  32
ENDBRANCH   2   3
TORSDOF 4
ENDMDL
MODEL       87
REMARK 921   NORMALIZED FREE ENERGY PREDICTED BY IDOCK:   -4.54 KCAL/MOL
REMARK 922        TOTAL FREE ENERGY PREDICTED BY IDOCK:   -6.20 KCAL/MOL
REMARK 923 INTER-LIGAND FREE ENERGY PREDICTED BY IDOCK:   -8.58 KCAL/MOL
REMARK 924 INTRA-LIGAND FREE ENERGY PREDICTED BY IDOCK:    2.38 KCAL/MOL
REMARK 927      BINDING AFFINITY PREDICTED BY RF-SCORE:    0.00 PKD
ROOT
HETATM    1  C   UNL     1      -9.958  20.841  67.938  1.00  0.00    -0.007 C  
HETATM    2  O   UNL     1      -9.718  19.591  68.579  1.00  0.00    -0.370 OA 
ENDROOT
BRANCH   2   3
HETATM    3  C   UNL     1      -8.407  19.222  68.743  1.00  0.00    -0.351 A  
HETATM    4  C   UNL     1      -7.392  20.176  68.930  1.00  0.00    -0.097 A  
HETATM    5  C   UNL     1      -6.069  19.785  69.103  1.00  0.00    -0.317 A  
HETATM    6  C   UNL     1      -5.748  18.435  69.086  1.00  0.00    -0.215 A  
HETATM    7  C   UNL     1      -6.745  17.470  68.873  1.00  0.00    -0.239 A  
HETATM    8  C   UNL     1      -8.074  17.851  68.684  1.00  0.00    -0.283 A  
HETATM    9  C   UNL     1      -9.079  16.786  68.427  1.00  0.00    -0.233 C  
HETATM   10  O   UNL     1     -10.246  17.042  68.138  1.00  0.00    -0.288 OA 
HETATM   11  C   UNL     1      -8.695  15.352  68.501  1.00  0.00    -0.178 A  
HETATM   12  C   UNL     1      -9.676  14.345  68.375  1.00  0.00    -0.226 A  
HETATM   13  O   UNL     1     -11.007  14.653  68.217  1.00  0.00    -0.240 OA 
HETATM   14  C   UNL     1      -9.348  12.975  68.419  1.00  0.00    -0.149 A  
HETATM   15  H   UNL     1     -11.668  13.976  68.133  1.00  0.00     0.000 HD 
HETATM   16  C   UNL     1      -7.991  12.607  68.577  1.00  0.00    -0.093 A  
HETATM   17  C   UNL     1      -7.024  13.620  68.751  1.00  0.00    -0.106 A  
HETATM   18  C   UNL     1      -7.573  11.144  68.600  1.00  0.00    -0.127 C  
HETATM   19  C   UNL     1      -8.650  10.184  68.081  1.00  0.00    -0.118 C  
HETATM   20  C   UNL     1      -7.365  14.988  68.700  1.00  0.00    -0.118 A  
HETATM   21  O   UNL     1      -5.717  13.281  68.981  1.00  0.00    -0.072 OA 
HETATM   22  O   UNL     1      -5.148  15.805  68.996  1.00  0.00    -0.099 OA 
HETATM   23  C   UNL     1      -6.340  16.052  68.862  1.00  0.00    -0.129 C  
HETATM   24  C   UNL     1      -9.973  10.549  68.758  1.00  0.00    -0.200 C  
HETATM   25  O   UNL     1      -8.700  10.275  66.655  1.00  0.00    -0.126 OA 
HETATM   26  H   UNL     1      -5.066  13.964  69.099  1.00  0.00     0.000 HD 
HETATM   27  C   UNL     1     -10.453  11.925  68.285  1.00  0.00    -0.205 C  
HETATM   28  H   UNL     1      -9.368   9.680  66.333  1.00  0.00     0.000 HD 
BRANCH  19  29
HETATM   29  C   UNL     1      -8.302   8.728  68.430  1.00  0.00    -0.126 C  
HETATM   30  O   UNL     1      -8.151   7.866  67.559  1.00  0.00    -0.120 OA 
HETATM   31  C   UNL     1      -8.047   8.404  69.885  1.00  0.00    -0.119 C  
ENDBRANCH  19  29
BRANCH  27  32
HETATM   32  O   UNL     1     -10.863  11.895  66.905  1.00  0.00    -0.239 OA 
BRANCH  32  33
HETATM   33  C   UNL     1     -12.051  12.628  66.582  1.00  0.00    -0.197 C  
HETATM   34  C   UNL     1     -11.864  14.142  66.498  1.00  0.00    -0.439 C  
HETATM   35  C   UNL     1     -11.009  14.500  65.281  1.00  0.00    -0.360 C  
HETATM   36  N   UNL     1     -10.842  15.965  65.191  1.00  0.00    -0.431 NA 
HETATM   37  C   UNL     1     -11.671  13.934  64.012  1.00  0.00    -0.288 C  
HETATM   38  H1  UNL     1     -10.272  16.203  64.380  1.00  0.00     0.000 HD 
HETATM   39  H2  UNL     1     -10.465  16.359  66.053  1.00  0.00     0.000 HD 
HETATM   40  O   UNL     1     -12.904  14.635  63.780  1.00  0.00    -0.701 OA 
HETATM   41  C   UNL     1     -11.915  12.421  64.186  1.00  0.00    -0.435 C  
HETATM   42  H   UNL     1     -13.312  14.286  62.996  1.00  0.00     0.000 HD 
HETATM   43  C   UNL     1     -12.722  11.850  63.024  1.00  0.00    -0.056 C  
HETATM   44  O   UNL     1     -12.638  12.116  65.385  1.00  0.00    -0.480 OA 
ENDBRANCH  32  33
ENDBRANCH  27  32
ENDBRANCH   2   3
TORSDOF 4
ENDMDL
MODEL       88
REMARK 921   NORMALIZED FREE ENERGY PREDICTED BY IDOCK:   -4.41 KCAL/MOL
REMARK 922        TOTAL FREE ENERGY PREDICTED BY IDOCK:   -6.03 KCAL/MOL
REMARK 923 INTER-LIGAND FREE ENERGY PREDICTED BY IDOCK:   -5.32 KCAL/MOL
REMARK 924 INTRA-LIGAND FREE ENERGY PREDICTED BY IDOCK:   -0.71 KCAL/MOL
REMARK 927      BINDING AFFINITY PREDICTED BY RF-SCORE:    0.00 PKD
ROOT
HETATM    1  C   UNL     1      -9.704   8.133  73.547  1.00  0.00     0.090 C  
HETATM    2  O   UNL     1     -10.861   7.721  72.825  1.00  0.00    -0.317 OA 
ENDROOT
BRANCH   2   3
HETATM    3  C   UNL     1     -11.456   8.661  72.023  1.00  0.00    -0.367 A  
HETATM    4  C   UNL     1     -12.576   9.392  72.454  1.00  0.00    -0.307 A  
HETATM    5  C   UNL     1     -13.163  10.348  71.631  1.00  0.00    -0.502 A  
HETATM    6  C   UNL     1     -12.636  10.578  70.368  1.00  0.00    -0.364 A  
HETATM    7  C   UNL     1     -11.534   9.837  69.912  1.00  0.00    -0.190 A  
HETATM    8  C   UNL     1     -10.947   8.865  70.722  1.00  0.00    -0.305 A  
HETATM    9  C   UNL     1      -9.805   8.088  70.170  1.00  0.00    -0.184 C  
HETATM   10  O   UNL     1      -9.306   7.141  70.772  1.00  0.00    -0.160 OA 
HETATM   11  C   UNL     1      -9.230   8.432  68.843  1.00  0.00    -0.147 A  
HETATM   12  C   UNL     1      -8.073   7.771  68.376  1.00  0.00    -0.124 A  
HETATM   13  O   UNL     1      -7.428   6.826  69.139  1.00  0.00    -0.090 OA 
HETATM   14  C   UNL     1      -7.510   8.054  67.115  1.00  0.00    -0.092 A  
HETATM   15  H   UNL     1      -6.649   6.381  68.825  1.00  0.00     0.000 HD 
HETATM   16  C   UNL     1      -8.140   9.018  66.293  1.00  0.00    -0.110 A  
HETATM   17  C   UNL     1      -9.267   9.709  66.788  1.00  0.00    -0.149 A  
HETATM   18  C   UNL     1      -7.596   9.342  64.909  1.00  0.00    -0.110 C  
HETATM   19  C   UNL     1      -6.594   8.311  64.380  1.00  0.00    -0.066 C  
HETATM   20  C   UNL     1      -9.823   9.412  68.050  1.00  0.00    -0.191 A  
HETATM   21  O   UNL     1      -9.843  10.697  66.037  1.00  0.00    -0.208 OA 
HETATM   22  O   UNL     1     -11.621  10.965  67.897  1.00  0.00    -0.497 OA 
HETATM   23  C   UNL     1     -11.024  10.125  68.558  1.00  0.00    -0.232 C  
HETATM   24  C   UNL     1      -5.577   8.030  65.488  1.00  0.00    -0.036 C  
HETATM   25  O   UNL     1      -7.310   7.146  63.961  1.00  0.00    -0.068 OA 
HETATM   26  H   UNL     1     -10.603  11.162  66.370  1.00  0.00     0.000 HD 
HETATM   27  C   UNL     1      -6.250   7.313  66.663  1.00  0.00    -0.043 C  
HETATM   28  H   UNL     1      -6.688   6.506  63.633  1.00  0.00     0.000 HD 
BRANCH  19  29
HETATM   29  C   UNL     1      -5.846   8.851  63.149  1.00  0.00    -0.085 C  
HETATM   30  O   UNL     1      -5.274   8.101  62.353  1.00  0.00    -0.062 OA 
HETATM   31  C   UNL     1      -5.925  10.338  62.887  1.00  0.00    -0.142 C  
ENDBRANCH  19  29
BRANCH  27  32
HETATM   32  O   UNL     1      -6.635   5.971  66.312  1.00  0.00    -0.045 OA 
BRANCH  32  33
HETATM   33  C   UNL     1      -5.571   5.080  65.959  1.00  0.00    -0.017 C  
HETATM   34  C   UNL     1      -5.366   3.916  66.927  1.00  0.00    -0.013 C  
HETATM   35  C   UNL     1      -6.545   2.946  66.841  1.00  0.00    -0.037 C  
HETATM   36  N   UNL     1      -6.338   1.812  67.766  1.00  0.00    -0.024 NA 
HETATM   37  C   UNL     1      -6.698   2.461  65.389  1.00  0.00    -0.035 C  
HETATM   38  H1  UNL     1      -7.125   1.166  67.708  1.00  0.00     0.000 HD 
HETATM   39  H2  UNL     1      -6.171   2.125  68.722  1.00  0.00     0.000 HD 
HETATM   40  O   UNL     1      -5.563   1.648  65.049  1.00  0.00    -0.008 OA 
HETATM   41  C   UNL     1      -6.814   3.677  64.447  1.00  0.00    -0.045 C  
HETATM   42  H   UNL     1      -5.657   1.348  64.152  1.00  0.00     0.000 HD 
HETATM   43  C   UNL     1      -6.797   3.250  62.982  1.00  0.00    -0.031 C  
HETATM   44  O   UNL     1      -5.741   4.610  64.621  1.00  0.00    -0.013 OA 
ENDBRANCH  32  33
ENDBRANCH  27  32
ENDBRANCH   2   3
TORSDOF 4
ENDMDL
MODEL       89
REMARK 921   NORMALIZED FREE ENERGY PREDICTED BY IDOCK:   -4.33 KCAL/MOL
REMARK 922        TOTAL FREE ENERGY PREDICTED BY IDOCK:   -5.94 KCAL/MOL
REMARK 923 INTER-LIGAND FREE ENERGY PREDICTED BY IDOCK:   -7.72 KCAL/MOL
REMARK 924 INTRA-LIGAND FREE ENERGY PREDICTED BY IDOCK:    1.78 KCAL/MOL
REMARK 927      BINDING AFFINITY PREDICTED BY RF-SCORE:    0.00 PKD
ROOT
HETATM    1  C   UNL     1      -8.722   4.002  67.630  1.00  0.00    -0.105 C  
HETATM    2  O   UNL     1      -7.894   5.103  67.265  1.00  0.00    -0.095 OA 
ENDROOT
BRANCH   2   3
HETATM    3  C   UNL     1      -7.785   5.377  65.926  1.00  0.00    -0.091 A  
HETATM    4  C   UNL     1      -7.262   4.436  65.022  1.00  0.00    -0.071 A  
HETATM    5  C   UNL     1      -7.167   4.727  63.665  1.00  0.00    -0.049 A  
HETATM    6  C   UNL     1      -7.592   5.963  63.201  1.00  0.00    -0.086 A  
HETATM    7  C   UNL     1      -8.092   6.925  64.093  1.00  0.00    -0.026 A  
HETATM    8  C   UNL     1      -8.178   6.651  65.458  1.00  0.00    -0.138 A  
HETATM    9  C   UNL     1      -8.683   7.721  66.358  1.00  0.00    -0.150 C  
HETATM   10  O   UNL     1      -8.684   7.602  67.581  1.00  0.00    -0.122 OA 
HETATM   11  C   UNL     1      -9.200   8.997  65.798  1.00  0.00    -0.293 A  
HETATM   12  C   UNL     1      -9.787   9.960  66.646  1.00  0.00    -0.207 A  
HETATM   13  O   UNL     1      -9.930   9.739  67.996  1.00  0.00    -0.148 OA 
HETATM   14  C   UNL     1     -10.270  11.190  66.155  1.00  0.00    -0.293 A  
HETATM   15  H   UNL     1     -10.326  10.387  68.566  1.00  0.00     0.000 HD 
HETATM   16  C   UNL     1     -10.142  11.466  64.773  1.00  0.00    -0.326 A  
HETATM   17  C   UNL     1      -9.599  10.477  63.925  1.00  0.00    -0.309 A  
HETATM   18  C   UNL     1     -10.617  12.790  64.191  1.00  0.00    -0.441 C  
HETATM   19  C   UNL     1     -10.874  13.872  65.245  1.00  0.00    -0.333 C  
HETATM   20  C   UNL     1      -9.115   9.251  64.431  1.00  0.00    -0.111 A  
HETATM   21  O   UNL     1      -9.538  10.696  62.576  1.00  0.00    -0.456 OA 
HETATM   22  O   UNL     1      -8.377   8.397  62.335  1.00  0.00    -0.187 OA 
HETATM   23  C   UNL     1      -8.522   8.222  63.538  1.00  0.00     0.065 C  
HETATM   24  C   UNL     1     -11.715  13.253  66.362  1.00  0.00    -0.418 C  
HETATM   25  O   UNL     1      -9.617  14.382  65.698  1.00  0.00    -0.501 OA 
HETATM   26  H   UNL     1      -9.172  10.029  62.005  1.00  0.00     0.000 HD 
HETATM   27  C   UNL     1     -10.905  12.195  67.118  1.00  0.00    -0.244 C  
HETATM   28  H   UNL     1      -9.776  15.053  66.352  1.00  0.00     0.000 HD 
BRANCH  19  29
HETATM   29  C   UNL     1     -11.650  15.055  64.640  1.00  0.00    -0.386 C  
HETATM   30  O   UNL     1     -12.756  14.908  64.112  1.00  0.00    -0.750 OA 
HETATM   31  C   UNL     1     -11.054  16.434  64.807  1.00  0.00    -0.246 C  
ENDBRANCH  19  29
BRANCH  27  32
HETATM   32  O   UNL     1      -9.845  12.793  67.887  1.00  0.00    -0.209 OA 
BRANCH  32  33
HETATM   33  C   UNL     1      -8.542  12.773  67.292  1.00  0.00    -0.197 C  
HETATM   34  C   UNL     1      -7.719  14.041  67.516  1.00  0.00    -0.197 C  
HETATM   35  C   UNL     1      -7.321  14.156  68.988  1.00  0.00    -0.102 C  
HETATM   36  N   UNL     1      -6.511  15.373  69.200  1.00  0.00    -0.121 NA 
HETATM   37  C   UNL     1      -6.549  12.892  69.405  1.00  0.00    -0.062 C  
HETATM   38  H1  UNL     1      -6.245  15.451  70.182  1.00  0.00     0.000 HD 
HETATM   39  H2  UNL     1      -6.987  16.212  68.866  1.00  0.00     0.000 HD 
HETATM   40  O   UNL     1      -5.289  12.867  68.713  1.00  0.00    -0.068 OA 
HETATM   41  C   UNL     1      -7.389  11.641  69.078  1.00  0.00    -0.074 C  
HETATM   42  H   UNL     1      -4.813  12.087  68.971  1.00  0.00     0.000 HD 
HETATM   43  C   UNL     1      -6.596  10.359  69.317  1.00  0.00    -0.056 C  
HETATM   44  O   UNL     1      -7.822  11.613  67.713  1.00  0.00    -0.116 OA 
ENDBRANCH  32  33
ENDBRANCH  27  32
ENDBRANCH   2   3
TORSDOF 4
ENDMDL
MODEL       90
REMARK 921   NORMALIZED FREE ENERGY PREDICTED BY IDOCK:   -4.28 KCAL/MOL
REMARK 922        TOTAL FREE ENERGY PREDICTED BY IDOCK:   -5.87 KCAL/MOL
REMARK 923 INTER-LIGAND FREE ENERGY PREDICTED BY IDOCK:   -4.94 KCAL/MOL
REMARK 924 INTRA-LIGAND FREE ENERGY PREDICTED BY IDOCK:   -0.94 KCAL/MOL
REMARK 927      BINDING AFFINITY PREDICTED BY RF-SCORE:    0.00 PKD
ROOT
HETATM    1  C   UNL     1     -13.050  13.867  64.894  1.00  0.00     0.127 C  
HETATM    2  O   UNL     1     -11.671  13.599  64.656  1.00  0.00    -0.356 OA 
ENDROOT
BRANCH   2   3
HETATM    3  C   UNL     1     -10.769  14.223  65.481  1.00  0.00    -0.331 A  
HETATM    4  C   UNL     1     -10.676  15.623  65.544  1.00  0.00    -0.403 A  
HETATM    5  C   UNL     1      -9.761  16.239  66.392  1.00  0.00    -0.310 A  
HETATM    6  C   UNL     1      -8.930  15.459  67.182  1.00  0.00    -0.236 A  
HETATM    7  C   UNL     1      -8.992  14.058  67.113  1.00  0.00    -0.241 A  
HETATM    8  C   UNL     1      -9.894  13.429  66.255  1.00  0.00    -0.295 A  
HETATM    9  C   UNL     1      -9.888  11.943  66.198  1.00  0.00    -0.232 C  
HETATM   10  O   UNL     1     -10.568  11.315  65.390  1.00  0.00    -0.267 OA 
HETATM   11  C   UNL     1      -9.034  11.156  67.126  1.00  0.00    -0.145 A  
HETATM   12  C   UNL     1      -9.120   9.747  67.150  1.00  0.00    -0.135 A  
HETATM   13  O   UNL     1     -10.011   9.067  66.352  1.00  0.00    -0.273 OA 
HETATM   14  C   UNL     1      -8.313   8.965  68.001  1.00  0.00    -0.121 A  
HETATM   15  H   UNL     1     -10.069   8.119  66.369  1.00  0.00     0.000 HD 
HETATM   16  C   UNL     1      -7.379   9.619  68.839  1.00  0.00    -0.073 A  
HETATM   17  C   UNL     1      -7.334  11.030  68.843  1.00  0.00    -0.111 A  
HETATM   18  C   UNL     1      -6.458   8.825  69.755  1.00  0.00    -0.038 C  
HETATM   19  C   UNL     1      -6.384   7.333  69.415  1.00  0.00    -0.035 C  
HETATM   20  C   UNL     1      -8.145  11.800  67.983  1.00  0.00    -0.145 A  
HETATM   21  O   UNL     1      -6.491  11.681  69.702  1.00  0.00    -0.118 OA 
HETATM   22  O   UNL     1      -7.290  13.914  68.669  1.00  0.00    -0.108 OA 
HETATM   23  C   UNL     1      -8.079  13.285  67.975  1.00  0.00    -0.157 C  
HETATM   24  C   UNL     1      -7.813   6.817  69.235  1.00  0.00    -0.110 C  
HETATM   25  O   UNL     1      -5.571   7.166  68.250  1.00  0.00    -0.020 OA 
HETATM   26  H   UNL     1      -6.461  12.631  69.705  1.00  0.00     0.000 HD 
HETATM   27  C   UNL     1      -8.454   7.442  67.992  1.00  0.00    -0.123 C  
HETATM   28  H   UNL     1      -5.524   6.240  68.040  1.00  0.00     0.000 HD 
BRANCH  19  29
HETATM   29  C   UNL     1      -5.713   6.543  70.552  1.00  0.00    -0.023 C  
HETATM   30  O   UNL     1      -5.422   7.071  71.629  1.00  0.00    -0.034 OA 
HETATM   31  C   UNL     1      -5.515   5.059  70.344  1.00  0.00    -0.008 C  
ENDBRANCH  19  29
BRANCH  27  32
HETATM   32  O   UNL     1      -7.844   6.954  66.783  1.00  0.00    -0.103 OA 
BRANCH  32  33
HETATM   33  C   UNL     1      -7.800   5.530  66.626  1.00  0.00    -0.101 C  
HETATM   34  C   UNL     1      -9.068   4.914  66.038  1.00  0.00    -0.139 C  
HETATM   35  C   UNL     1      -9.222   5.324  64.572  1.00  0.00     0.223 C  
HETATM   36  N   UNL     1     -10.440   4.714  64.000  1.00  0.00    -0.219 NA 
HETATM   37  C   UNL     1      -7.965   4.898  63.793  1.00  0.00    -0.095 C  
HETATM   38  H1  UNL     1     -10.542   4.987  63.023  1.00  0.00     0.000 HD 
HETATM   39  H2  UNL     1     -11.271   4.936  64.547  1.00  0.00     0.000 HD 
HETATM   40  O   UNL     1      -7.914   3.463  63.741  1.00  0.00    -0.079 OA 
HETATM   41  C   UNL     1      -6.710   5.476  64.479  1.00  0.00    -0.043 C  
HETATM   42  H   UNL     1      -7.138   3.200  63.260  1.00  0.00     0.000 HD 
HETATM   43  C   UNL     1      -5.431   4.942  63.841  1.00  0.00    -0.013 C  
HETATM   44  O   UNL     1      -6.648   5.150  65.872  1.00  0.00    -0.045 OA 
ENDBRANCH  32  33
ENDBRANCH  27  32
ENDBRANCH   2   3
TORSDOF 4
ENDMDL
MODEL       91
REMARK 921   NORMALIZED FREE ENERGY PREDICTED BY IDOCK:   -4.25 KCAL/MOL
REMARK 922        TOTAL FREE ENERGY PREDICTED BY IDOCK:   -5.84 KCAL/MOL
REMARK 923 INTER-LIGAND FREE ENERGY PREDICTED BY IDOCK:   -6.38 KCAL/MOL
REMARK 924 INTRA-LIGAND FREE ENERGY PREDICTED BY IDOCK:    0.53 KCAL/MOL
REMARK 927      BINDING AFFINITY PREDICTED BY RF-SCORE:    0.00 PKD
ROOT
HETATM    1  C   UNL     1      -6.122  14.865  70.745  1.00  0.00    -0.022 C  
HETATM    2  O   UNL     1      -6.443  13.711  69.972  1.00  0.00    -0.100 OA 
ENDROOT
BRANCH   2   3
HETATM    3  C   UNL     1      -7.225  13.908  68.863  1.00  0.00    -0.103 A  
HETATM    4  C   UNL     1      -7.489  15.197  68.369  1.00  0.00    -0.115 A  
HETATM    5  C   UNL     1      -8.278  15.379  67.238  1.00  0.00    -0.222 A  
HETATM    6  C   UNL     1      -8.812  14.273  66.593  1.00  0.00    -0.167 A  
HETATM    7  C   UNL     1      -8.581  12.980  67.089  1.00  0.00    -0.195 A  
HETATM    8  C   UNL     1      -7.804  12.785  68.231  1.00  0.00    -0.141 A  
HETATM    9  C   UNL     1      -7.624  11.396  68.729  1.00  0.00    -0.132 C  
HETATM   10  O   UNL     1      -7.051  11.149  69.788  1.00  0.00    -0.111 OA 
HETATM   11  C   UNL     1      -8.150  10.243  67.954  1.00  0.00    -0.102 A  
HETATM   12  C   UNL     1      -7.874   8.922  68.368  1.00  0.00    -0.104 A  
HETATM   13  O   UNL     1      -7.089   8.662  69.467  1.00  0.00    -0.053 OA 
HETATM   14  C   UNL     1      -8.373   7.802  67.671  1.00  0.00    -0.121 A  
HETATM   15  H   UNL     1      -6.903   7.772  69.745  1.00  0.00     0.000 HD 
HETATM   16  C   UNL     1      -9.188   8.019  66.535  1.00  0.00    -0.236 A  
HETATM   17  C   UNL     1      -9.418   9.342  66.100  1.00  0.00    -0.236 A  
HETATM   18  C   UNL     1      -9.781   6.850  65.761  1.00  0.00     0.473 C  
HETATM   19  C   UNL     1      -9.726   5.517  66.516  1.00  0.00    -0.162 C  
HETATM   20  C   UNL     1      -8.917  10.454  66.810  1.00  0.00    -0.153 A  
HETATM   21  O   UNL     1     -10.141   9.568  64.959  1.00  0.00    -0.351 OA 
HETATM   22  O   UNL     1      -9.881  12.105  65.391  1.00  0.00    -0.248 OA 
HETATM   23  C   UNL     1      -9.180  11.845  66.362  1.00  0.00    -0.215 C  
HETATM   24  C   UNL     1      -8.311   5.348  67.073  1.00  0.00    -0.107 C  
HETATM   25  O   UNL     1     -10.736   5.519  67.528  1.00  0.00    -0.219 OA 
HETATM   26  H   UNL     1     -10.296  10.459  64.667  1.00  0.00     0.000 HD 
HETATM   27  C   UNL     1      -8.036   6.392  68.159  1.00  0.00    -0.109 C  
HETATM   28  H   UNL     1     -10.702   4.692  67.996  1.00  0.00     0.000 HD 
BRANCH  19  29
HETATM   29  C   UNL     1     -10.030   4.339  65.575  1.00  0.00    -0.225 C  
HETATM   30  O   UNL     1     -11.086   4.268  64.939  1.00  0.00    -0.238 OA 
HETATM   31  C   UNL     1      -8.939   3.313  65.371  1.00  0.00    -0.144 C  
ENDBRANCH  19  29
BRANCH  27  32
HETATM   32  O   UNL     1      -8.816   6.141  69.342  1.00  0.00    -0.125 OA 
BRANCH  32  33
HETATM   33  C   UNL     1      -9.147   7.286  70.137  1.00  0.00    -0.148 C  
HETATM   34  C   UNL     1     -10.617   7.700  70.077  1.00  0.00    -0.240 C  
HETATM   35  C   UNL     1     -11.487   6.651  70.772  1.00  0.00    -0.353 C  
HETATM   36  N   UNL     1     -12.906   7.060  70.729  1.00  0.00    -0.552 NA 
HETATM   37  C   UNL     1     -11.002   6.470  72.222  1.00  0.00    -0.249 C  
HETATM   38  H1  UNL     1     -13.486   6.361  71.193  1.00  0.00     0.000 HD 
HETATM   39  H2  UNL     1     -13.221   7.247  69.777  1.00  0.00     0.000 HD 
HETATM   40  O   UNL     1     -11.271   7.676  72.956  1.00  0.00    -0.455 OA 
HETATM   41  C   UNL     1      -9.496   6.140  72.226  1.00  0.00    -0.149 C  
HETATM   42  H   UNL     1     -10.972   7.564  73.850  1.00  0.00     0.000 HD 
HETATM   43  C   UNL     1      -8.934   6.118  73.644  1.00  0.00    -0.128 C  
HETATM   44  O   UNL     1      -8.723   7.093  71.486  1.00  0.00    -0.120 OA 
ENDBRANCH  32  33
ENDBRANCH  27  32
ENDBRANCH   2   3
TORSDOF 4
ENDMDL
MODEL       92
REMARK 921   NORMALIZED FREE ENERGY PREDICTED BY IDOCK:   -4.24 KCAL/MOL
REMARK 922        TOTAL FREE ENERGY PREDICTED BY IDOCK:   -5.83 KCAL/MOL
REMARK 923 INTER-LIGAND FREE ENERGY PREDICTED BY IDOCK:   -6.04 KCAL/MOL
REMARK 924 INTRA-LIGAND FREE ENERGY PREDICTED BY IDOCK:    0.21 KCAL/MOL
REMARK 927      BINDING AFFINITY PREDICTED BY RF-SCORE:    0.00 PKD
ROOT
HETATM    1  C   UNL     1      -9.342   1.831  65.730  1.00  0.00     0.105 C  
HETATM    2  O   UNL     1      -9.856   3.032  65.159  1.00  0.00    -0.048 OA 
ENDROOT
BRANCH   2   3
HETATM    3  C   UNL     1      -9.013   3.735  64.338  1.00  0.00    -0.124 A  
HETATM    4  C   UNL     1      -8.382   3.130  63.238  1.00  0.00    -0.085 A  
HETATM    5  C   UNL     1      -7.536   3.860  62.410  1.00  0.00    -0.052 A  
HETATM    6  C   UNL     1      -7.311   5.203  62.678  1.00  0.00    -0.043 A  
HETATM    7  C   UNL     1      -7.912   5.817  63.788  1.00  0.00    -0.120 A  
HETATM    8  C   UNL     1      -8.750   5.091  64.634  1.00  0.00    -0.141 A  
HETATM    9  C   UNL     1      -9.328   5.786  65.814  1.00  0.00    -0.026 C  
HETATM   10  O   UNL     1      -9.983   5.194  66.669  1.00  0.00    -0.165 OA 
HETATM   11  C   UNL     1      -9.120   7.246  66.008  1.00  0.00    -0.117 A  
HETATM   12  C   UNL     1      -9.768   7.924  67.062  1.00  0.00    -0.206 A  
HETATM   13  O   UNL     1     -10.631   7.273  67.912  1.00  0.00    -0.222 OA 
HETATM   14  C   UNL     1      -9.579   9.302  67.290  1.00  0.00    -0.200 A  
HETATM   15  H   UNL     1     -11.068   7.730  68.622  1.00  0.00     0.000 HD 
HETATM   16  C   UNL     1      -8.698  10.015  66.443  1.00  0.00    -0.140 A  
HETATM   17  C   UNL     1      -8.092   9.339  65.362  1.00  0.00    -0.122 A  
HETATM   18  C   UNL     1      -8.430  11.497  66.660  1.00  0.00    -0.172 C  
HETATM   19  C   UNL     1      -8.881  12.013  68.031  1.00  0.00    -0.179 C  
HETATM   20  C   UNL     1      -8.287   7.958  65.148  1.00  0.00    -0.128 A  
HETATM   21  O   UNL     1      -7.297  10.030  64.487  1.00  0.00    -0.137 OA 
HETATM   22  O   UNL     1      -6.851   7.799  63.255  1.00  0.00    -0.069 OA 
HETATM   23  C   UNL     1      -7.629   7.246  64.022  1.00  0.00    -0.110 C  
HETATM   24  C   UNL     1     -10.305  11.512  68.279  1.00  0.00    -0.211 C  
HETATM   25  O   UNL     1      -7.946  11.574  69.019  1.00  0.00    -0.304 OA 
HETATM   26  H   UNL     1      -6.889   9.575  63.759  1.00  0.00     0.000 HD 
HETATM   27  C   UNL     1     -10.314   9.988  68.443  1.00  0.00    -0.191 C  
HETATM   28  H   UNL     1      -8.226  11.894  69.869  1.00  0.00     0.000 HD 
BRANCH  19  29
HETATM   29  C   UNL     1      -8.887  13.551  68.065  1.00  0.00    -0.181 C  
HETATM   30  O   UNL     1      -9.727  14.214  67.449  1.00  0.00    -0.225 OA 
HETATM   31  C   UNL     1      -7.883  14.229  68.969  1.00  0.00    -0.045 C  
ENDBRANCH  19  29
BRANCH  27  32
HETATM   32  O   UNL     1      -9.676   9.586  69.669  1.00  0.00    -0.176 OA 
BRANCH  32  33
HETATM   33  C   UNL     1      -9.900   8.234  70.086  1.00  0.00    -0.184 C  
HETATM   34  C   UNL     1      -8.909   7.715  71.127  1.00  0.00    -0.140 C  
HETATM   35  C   UNL     1      -9.126   8.428  72.461  1.00  0.00    -0.256 C  
HETATM   36  N   UNL     1      -8.179   7.914  73.472  1.00  0.00    -0.177 NA 
HETATM   37  C   UNL     1     -10.584   8.230  72.912  1.00  0.00    -0.147 C  
HETATM   38  H1  UNL     1      -8.323   8.390  74.362  1.00  0.00     0.000 HD 
HETATM   39  H2  UNL     1      -7.211   7.980  73.156  1.00  0.00     0.000 HD 
HETATM   40  O   UNL     1     -10.788   6.844  73.230  1.00  0.00    -0.329 OA 
HETATM   41  C   UNL     1     -11.539   8.690  71.791  1.00  0.00    -0.332 C  
HETATM   42  H   UNL     1     -11.688   6.722  73.508  1.00  0.00     0.000 HD 
HETATM   43  C   UNL     1     -12.990   8.356  72.123  1.00  0.00    -0.370 C  
HETATM   44  O   UNL     1     -11.246   8.070  70.533  1.00  0.00    -0.265 OA 
ENDBRANCH  32  33
ENDBRANCH  27  32
ENDBRANCH   2   3
TORSDOF 4
ENDMDL
MODEL       93
REMARK 921   NORMALIZED FREE ENERGY PREDICTED BY IDOCK:   -4.24 KCAL/MOL
REMARK 922        TOTAL FREE ENERGY PREDICTED BY IDOCK:   -5.83 KCAL/MOL
REMARK 923 INTER-LIGAND FREE ENERGY PREDICTED BY IDOCK:   -4.76 KCAL/MOL
REMARK 924 INTRA-LIGAND FREE ENERGY PREDICTED BY IDOCK:   -1.07 KCAL/MOL
REMARK 927      BINDING AFFINITY PREDICTED BY RF-SCORE:    0.00 PKD
ROOT
HETATM    1  C   UNL     1     -10.416  19.770  64.899  1.00  0.00     1.282 C  
HETATM    2  O   UNL     1     -10.024  18.666  65.711  1.00  0.00    -0.504 OA 
ENDROOT
BRANCH   2   3
HETATM    3  C   UNL     1     -10.186  18.807  67.065  1.00  0.00    -0.381 A  
HETATM    4  C   UNL     1     -10.076  20.059  67.693  1.00  0.00    -0.562 A  
HETATM    5  C   UNL     1     -10.251  20.186  69.067  1.00  0.00    -0.214 A  
HETATM    6  C   UNL     1     -10.534  19.059  69.826  1.00  0.00     0.937 A  
HETATM    7  C   UNL     1     -10.620  17.796  69.219  1.00  0.00     0.170 A  
HETATM    8  C   UNL     1     -10.431  17.654  67.844  1.00  0.00    -0.392 A  
HETATM    9  C   UNL     1     -10.499  16.287  67.264  1.00  0.00    -0.300 C  
HETATM   10  O   UNL     1     -10.234  16.061  66.086  1.00  0.00    -0.288 OA 
HETATM   11  C   UNL     1     -10.886  15.127  68.109  1.00  0.00    -0.266 A  
HETATM   12  C   UNL     1     -11.065  13.853  67.530  1.00  0.00    -0.286 A  
HETATM   13  O   UNL     1     -10.924  13.652  66.176  1.00  0.00    -0.283 OA 
HETATM   14  C   UNL     1     -11.411  12.724  68.301  1.00  0.00    -0.335 A  
HETATM   15  H   UNL     1     -11.045  12.794  65.786  1.00  0.00     0.000 HD 
HETATM   16  C   UNL     1     -11.563  12.880  69.699  1.00  0.00    -0.318 A  
HETATM   17  C   UNL     1     -11.431  14.167  70.263  1.00  0.00    -0.130 A  
HETATM   18  C   UNL     1     -11.905  11.692  70.587  1.00  0.00    -0.238 C  
HETATM   19  C   UNL     1     -11.699  10.333  69.909  1.00  0.00    -0.225 C  
HETATM   20  C   UNL     1     -11.079  15.287  69.479  1.00  0.00    -0.286 A  
HETATM   21  O   UNL     1     -11.650  14.350  71.601  1.00  0.00    -0.420 OA 
HETATM   22  O   UNL     1     -11.031  16.841  71.282  1.00  0.00     0.255 OA 
HETATM   23  C   UNL     1     -10.918  16.637  70.080  1.00  0.00    -0.098 C  
HETATM   24  C   UNL     1     -12.353  10.390  68.528  1.00  0.00     1.188 C  
HETATM   25  O   UNL     1     -10.297  10.051  69.860  1.00  0.00    -0.243 OA 
HETATM   26  H   UNL     1     -11.560  15.217  71.981  1.00  0.00     0.000 HD 
HETATM   27  C   UNL     1     -11.600  11.368  67.619  1.00  0.00    -0.238 C  
HETATM   28  H   UNL     1     -10.169   9.208  69.440  1.00  0.00     0.000 HD 
BRANCH  19  29
HETATM   29  C   UNL     1     -12.359   9.207  70.722  1.00  0.00    -0.053 C  
HETATM   30  O   UNL     1     -11.955   8.042  70.671  1.00  0.00    -0.185 OA 
HETATM   31  C   UNL     1     -13.465   9.597  71.677  1.00  0.00    -0.455 C  
ENDBRANCH  19  29
BRANCH  27  32
HETATM   32  O   UNL     1     -10.296  10.867  67.272  1.00  0.00    -0.197 OA 
BRANCH  32  33
HETATM   33  C   UNL     1     -10.172  10.267  65.977  1.00  0.00    -0.228 C  
HETATM   34  C   UNL     1      -8.945  10.712  65.183  1.00  0.00    -0.217 C  
HETATM   35  C   UNL     1      -7.672  10.169  65.834  1.00  0.00    -0.127 C  
HETATM   36  N   UNL     1      -6.487  10.585  65.056  1.00  0.00    -0.307 NA 
HETATM   37  C   UNL     1      -7.766   8.636  65.931  1.00  0.00    -0.101 C  
HETATM   38  H1  UNL     1      -5.638  10.223  65.491  1.00  0.00     0.000 HD 
HETATM   39  H2  UNL     1      -6.449  11.596  64.930  1.00  0.00     0.000 HD 
HETATM   40  O   UNL     1      -7.732   8.083  64.604  1.00  0.00    -0.110 OA 
HETATM   41  C   UNL     1      -9.065   8.242  66.665  1.00  0.00    -0.166 C  
HETATM   42  H   UNL     1      -7.790   7.137  64.664  1.00  0.00     0.000 HD 
HETATM   43  C   UNL     1      -9.285   6.733  66.635  1.00  0.00    -0.184 C  
HETATM   44  O   UNL     1     -10.227   8.844  66.083  1.00  0.00    -0.259 OA 
ENDBRANCH  32  33
ENDBRANCH  27  32
ENDBRANCH   2   3
TORSDOF 4
ENDMDL
MODEL       94
REMARK 921   NORMALIZED FREE ENERGY PREDICTED BY IDOCK:   -4.21 KCAL/MOL
REMARK 922        TOTAL FREE ENERGY PREDICTED BY IDOCK:   -5.79 KCAL/MOL
REMARK 923 INTER-LIGAND FREE ENERGY PREDICTED BY IDOCK:   -4.84 KCAL/MOL
REMARK 924 INTRA-LIGAND FREE ENERGY PREDICTED BY IDOCK:   -0.95 KCAL/MOL
REMARK 927      BINDING AFFINITY PREDICTED BY RF-SCORE:    0.00 PKD
ROOT
HETATM    1  C   UNL     1      -8.853   5.300  62.594  1.00  0.00    -0.009 C  
HETATM    2  O   UNL     1      -7.501   5.720  62.756  1.00  0.00    -0.050 OA 
ENDROOT
BRANCH   2   3
HETATM    3  C   UNL     1      -6.873   5.344  63.916  1.00  0.00    -0.046 A  
HETATM    4  C   UNL     1      -6.419   4.029  64.113  1.00  0.00    -0.041 A  
HETATM    5  C   UNL     1      -5.776   3.666  65.292  1.00  0.00    -0.018 A  
HETATM    6  C   UNL     1      -5.585   4.616  66.286  1.00  0.00    -0.017 A  
HETATM    7  C   UNL     1      -6.056   5.928  66.116  1.00  0.00    -0.032 A  
HETATM    8  C   UNL     1      -6.715   6.299  64.945  1.00  0.00    -0.043 A  
HETATM    9  C   UNL     1      -7.223   7.693  64.837  1.00  0.00    -0.066 C  
HETATM   10  O   UNL     1      -7.911   8.068  63.891  1.00  0.00    -0.140 OA 
HETATM   11  C   UNL     1      -6.919   8.690  65.896  1.00  0.00    -0.075 A  
HETATM   12  C   UNL     1      -7.300  10.039  65.734  1.00  0.00    -0.117 A  
HETATM   13  O   UNL     1      -7.926  10.477  64.590  1.00  0.00    -0.280 OA 
HETATM   14  C   UNL     1      -7.048  11.010  66.725  1.00  0.00    -0.135 A  
HETATM   15  H   UNL     1      -8.182  11.386  64.480  1.00  0.00     0.000 HD 
HETATM   16  C   UNL     1      -6.410  10.608  67.921  1.00  0.00    -0.058 A  
HETATM   17  C   UNL     1      -5.988   9.267  68.054  1.00  0.00    -0.049 A  
HETATM   18  C   UNL     1      -6.140  11.605  69.039  1.00  0.00    -0.057 C  
HETATM   19  C   UNL     1      -6.925  12.914  68.904  1.00  0.00    -0.084 C  
HETATM   20  C   UNL     1      -6.251   8.304  67.056  1.00  0.00    -0.055 A  
HETATM   21  O   UNL     1      -5.301   8.877  69.172  1.00  0.00    -0.035 OA 
HETATM   22  O   UNL     1      -5.274   6.472  68.221  1.00  0.00    -0.007 OA 
HETATM   23  C   UNL     1      -5.826   6.889  67.210  1.00  0.00    -0.014 C  
HETATM   24  C   UNL     1      -6.770  13.410  67.465  1.00  0.00    -0.151 C  
HETATM   25  O   UNL     1      -8.285  12.676  69.277  1.00  0.00    -0.140 OA 
HETATM   26  H   UNL     1      -5.017   7.974  69.262  1.00  0.00     0.000 HD 
HETATM   27  C   UNL     1      -7.477  12.461  66.493  1.00  0.00     0.526 C  
HETATM   28  H   UNL     1      -8.772  13.488  69.193  1.00  0.00     0.000 HD 
BRANCH  19  29
HETATM   29  C   UNL     1      -6.374  13.986  69.858  1.00  0.00    -0.128 C  
HETATM   30  O   UNL     1      -6.782  15.151  69.836  1.00  0.00    -0.174 OA 
HETATM   31  C   UNL     1      -5.380  13.539  70.906  1.00  0.00    -0.165 C  
ENDBRANCH  19  29
BRANCH  27  32
HETATM   32  O   UNL     1      -8.907  12.523  66.640  1.00  0.00    -0.207 OA 
BRANCH  32  33
HETATM   33  C   UNL     1      -9.562  13.625  66.001  1.00  0.00    -0.166 C  
HETATM   34  C   UNL     1     -10.580  13.229  64.933  1.00  0.00    -0.381 C  
HETATM   35  C   UNL     1     -11.792  12.560  65.583  1.00  0.00    -0.438 C  
HETATM   36  N   UNL     1     -12.784  12.193  64.552  1.00  0.00    -0.560 NA 
HETATM   37  C   UNL     1     -12.399  13.515  66.626  1.00  0.00    -0.297 C  
HETATM   38  H1  UNL     1     -13.592  11.747  64.985  1.00  0.00     0.000 HD 
HETATM   39  H2  UNL     1     -12.375  11.613  63.819  1.00  0.00     0.000 HD 
HETATM   40  O   UNL     1     -12.961  14.650  65.946  1.00  0.00    -0.253 OA 
HETATM   41  C   UNL     1     -11.308  13.950  67.627  1.00  0.00    -0.309 C  
HETATM   42  H   UNL     1     -13.336  15.239  66.590  1.00  0.00     0.000 HD 
HETATM   43  C   UNL     1     -11.822  15.027  68.577  1.00  0.00    -0.319 C  
HETATM   44  O   UNL     1     -10.150  14.486  66.976  1.00  0.00    -0.250 OA 
ENDBRANCH  32  33
ENDBRANCH  27  32
ENDBRANCH   2   3
TORSDOF 4
ENDMDL
MODEL       95
REMARK 921   NORMALIZED FREE ENERGY PREDICTED BY IDOCK:   -4.20 KCAL/MOL
REMARK 922        TOTAL FREE ENERGY PREDICTED BY IDOCK:   -5.77 KCAL/MOL
REMARK 923 INTER-LIGAND FREE ENERGY PREDICTED BY IDOCK:   -6.02 KCAL/MOL
REMARK 924 INTRA-LIGAND FREE ENERGY PREDICTED BY IDOCK:    0.25 KCAL/MOL
REMARK 927      BINDING AFFINITY PREDICTED BY RF-SCORE:    0.00 PKD
ROOT
HETATM    1  C   UNL     1      -5.442  17.726  65.166  1.00  0.00     0.229 C  
HETATM    2  O   UNL     1      -6.054  16.828  66.088  1.00  0.00    -0.159 OA 
ENDROOT
BRANCH   2   3
HETATM    3  C   UNL     1      -7.361  17.079  66.420  1.00  0.00    -0.293 A  
HETATM    4  C   UNL     1      -7.938  18.345  66.227  1.00  0.00    -0.264 A  
HETATM    5  C   UNL     1      -9.268  18.581  66.562  1.00  0.00    -0.312 A  
HETATM    6  C   UNL     1     -10.030  17.552  67.096  1.00  0.00    -0.314 A  
HETATM    7  C   UNL     1      -9.461  16.288  67.320  1.00  0.00    -0.231 A  
HETATM    8  C   UNL     1      -8.125  16.044  67.003  1.00  0.00    -0.257 A  
HETATM    9  C   UNL     1      -7.569  14.697  67.296  1.00  0.00    -0.143 C  
HETATM   10  O   UNL     1      -6.377  14.434  67.154  1.00  0.00    -0.208 OA 
HETATM   11  C   UNL     1      -8.451  13.608  67.793  1.00  0.00    -0.183 A  
HETATM   12  C   UNL     1      -7.945  12.301  67.957  1.00  0.00    -0.150 A  
HETATM   13  O   UNL     1      -6.646  11.987  67.633  1.00  0.00    -0.083 OA 
HETATM   14  C   UNL     1      -8.745  11.247  68.444  1.00  0.00    -0.159 A  
HETATM   15  H   UNL     1      -6.305  11.107  67.742  1.00  0.00     0.000 HD 
HETATM   16  C   UNL     1     -10.088  11.522  68.794  1.00  0.00    -0.191 A  
HETATM   17  C   UNL     1     -10.599  12.820  68.581  1.00  0.00    -0.233 A  
HETATM   18  C   UNL     1     -10.990  10.431  69.355  1.00  0.00    -0.296 C  
HETATM   19  C   UNL     1     -10.233   9.187  69.833  1.00  0.00    -0.205 C  
HETATM   20  C   UNL     1      -9.786  13.867  68.096  1.00  0.00    -0.240 A  
HETATM   21  O   UNL     1     -11.917  13.084  68.842  1.00  0.00    -0.304 OA 
HETATM   22  O   UNL     1     -11.472  15.545  68.182  1.00  0.00    -0.336 OA 
HETATM   23  C   UNL     1     -10.322  15.238  67.895  1.00  0.00    -0.246 C  
HETATM   24  C   UNL     1      -9.243   8.787  68.737  1.00  0.00    -0.141 C  
HETATM   25  O   UNL     1      -9.604   9.482  71.083  1.00  0.00    -0.234 OA 
HETATM   26  H   UNL     1     -12.261  13.958  68.698  1.00  0.00     0.000 HD 
HETATM   27  C   UNL     1      -8.146   9.847  68.594  1.00  0.00    -0.099 C  
HETATM   28  H   UNL     1      -9.135   8.711  71.379  1.00  0.00     0.000 HD 
BRANCH  19  29
HETATM   29  C   UNL     1     -11.199   8.016  70.077  1.00  0.00    -0.090 C  
HETATM   30  O   UNL     1     -11.318   7.089  69.271  1.00  0.00    -0.120 OA 
HETATM   31  C   UNL     1     -11.930   7.983  71.400  1.00  0.00    -0.328 C  
ENDBRANCH  19  29
BRANCH  27  32
HETATM   32  O   UNL     1      -7.277   9.864  69.741  1.00  0.00    -0.085 OA 
BRANCH  32  33
HETATM   33  C   UNL     1      -6.008   9.216  69.583  1.00  0.00    -0.032 C  
HETATM   34  C   UNL     1      -5.658   8.223  70.691  1.00  0.00    -0.028 C  
HETATM   35  C   UNL     1      -6.576   7.002  70.612  1.00  0.00    -0.052 C  
HETATM   36  N   UNL     1      -6.225   6.035  71.672  1.00  0.00    -0.043 NA 
HETATM   37  C   UNL     1      -6.456   6.367  69.215  1.00  0.00    -0.043 C  
HETATM   38  H1  UNL     1      -6.837   5.221  71.620  1.00  0.00     0.000 HD 
HETATM   39  H2  UNL     1      -6.237   6.463  72.598  1.00  0.00     0.000 HD 
HETATM   40  O   UNL     1      -5.139   5.812  69.068  1.00  0.00    -0.003 OA 
HETATM   41  C   UNL     1      -6.735   7.433  68.136  1.00  0.00    -0.055 C  
HETATM   42  H   UNL     1      -5.065   5.420  68.206  1.00  0.00     0.000 HD 
HETATM   43  C   UNL     1      -6.463   6.893  66.736  1.00  0.00    -0.047 C  
HETATM   44  O   UNL     1      -5.922   8.602  68.297  1.00  0.00    -0.041 OA 
ENDBRANCH  32  33
ENDBRANCH  27  32
ENDBRANCH   2   3
TORSDOF 4
ENDMDL
MODEL       96
REMARK 921   NORMALIZED FREE ENERGY PREDICTED BY IDOCK:   -4.10 KCAL/MOL
REMARK 922        TOTAL FREE ENERGY PREDICTED BY IDOCK:   -5.65 KCAL/MOL
REMARK 923 INTER-LIGAND FREE ENERGY PREDICTED BY IDOCK:   -6.01 KCAL/MOL
REMARK 924 INTRA-LIGAND FREE ENERGY PREDICTED BY IDOCK:    0.36 KCAL/MOL
REMARK 927      BINDING AFFINITY PREDICTED BY RF-SCORE:    0.00 PKD
ROOT
HETATM    1  C   UNL     1      -6.804   5.322  74.115  1.00  0.00    -0.077 C  
HETATM    2  O   UNL     1      -7.527   5.306  72.887  1.00  0.00    -0.092 OA 
ENDROOT
BRANCH   2   3
HETATM    3  C   UNL     1      -8.691   6.029  72.846  1.00  0.00    -0.123 A  
HETATM    4  C   UNL     1      -9.574   6.064  73.939  1.00  0.00    -0.165 A  
HETATM    5  C   UNL     1     -10.747   6.809  73.884  1.00  0.00    -0.141 A  
HETATM    6  C   UNL     1     -11.050   7.524  72.734  1.00  0.00    -0.416 A  
HETATM    7  C   UNL     1     -10.192   7.479  71.623  1.00  0.00    -0.209 A  
HETATM    8  C   UNL     1      -9.020   6.723  71.660  1.00  0.00    -0.136 A  
HETATM    9  C   UNL     1      -8.170   6.686  70.441  1.00  0.00    -0.125 C  
HETATM   10  O   UNL     1      -7.185   5.958  70.351  1.00  0.00    -0.068 OA 
HETATM   11  C   UNL     1      -8.499   7.535  69.266  1.00  0.00    -0.136 A  
HETATM   12  C   UNL     1      -7.626   7.586  68.159  1.00  0.00    -0.114 A  
HETATM   13  O   UNL     1      -6.440   6.890  68.145  1.00  0.00    -0.045 OA 
HETATM   14  C   UNL     1      -7.913   8.363  67.018  1.00  0.00    -0.100 A  
HETATM   15  H   UNL     1      -5.852   6.925  67.400  1.00  0.00     0.000 HD 
HETATM   16  C   UNL     1      -9.123   9.096  66.983  1.00  0.00    -0.147 A  
HETATM   17  C   UNL     1      -9.966   9.077  68.115  1.00  0.00    -0.175 A  
HETATM   18  C   UNL     1      -9.501   9.927  65.766  1.00  0.00    -0.280 C  
HETATM   19  C   UNL     1      -8.678   9.602  64.514  1.00  0.00    -0.202 C  
HETATM   20  C   UNL     1      -9.669   8.291  69.249  1.00  0.00    -0.177 A  
HETATM   21  O   UNL     1     -11.103   9.840  68.129  1.00  0.00    -0.462 OA 
HETATM   22  O   UNL     1     -11.635   8.861  70.464  1.00  0.00    -0.249 OA 
HETATM   23  C   UNL     1     -10.571   8.256  70.429  1.00  0.00    -0.224 C  
HETATM   24  C   UNL     1      -7.202   9.571  64.914  1.00  0.00    -0.111 C  
HETATM   25  O   UNL     1      -9.142   8.364  63.967  1.00  0.00    -0.138 OA 
HETATM   26  H   UNL     1     -11.671   9.827  68.891  1.00  0.00     0.000 HD 
HETATM   27  C   UNL     1      -6.926   8.388  65.849  1.00  0.00    -0.068 C  
HETATM   28  H   UNL     1      -8.632   8.163  63.191  1.00  0.00     0.000 HD 
BRANCH  19  29
HETATM   29  C   UNL     1      -8.875  10.677  63.433  1.00  0.00    -0.190 C  
HETATM   30  O   UNL     1      -8.004  10.925  62.594  1.00  0.00    -0.132 OA 
HETATM   31  C   UNL     1     -10.224  11.355  63.365  1.00  0.00    -0.457 C  
ENDBRANCH  19  29
BRANCH  27  32
HETATM   32  O   UNL     1      -7.037   7.132  65.156  1.00  0.00    -0.057 OA 
BRANCH  32  33
HETATM   33  C   UNL     1      -7.528   6.027  65.924  1.00  0.00    -0.082 C  
HETATM   34  C   UNL     1      -8.894   5.501  65.484  1.00  0.00    -0.147 C  
HETATM   35  C   UNL     1      -8.782   4.826  64.116  1.00  0.00    -0.141 C  
HETATM   36  N   UNL     1     -10.099   4.303  63.699  1.00  0.00    -0.378 NA 
HETATM   37  C   UNL     1      -7.733   3.702  64.190  1.00  0.00    -0.080 C  
HETATM   38  H1  UNL     1     -10.024   3.853  62.786  1.00  0.00     0.000 HD 
HETATM   39  H2  UNL     1     -10.817   5.027  63.709  1.00  0.00     0.000 HD 
HETATM   40  O   UNL     1      -8.229   2.659  65.044  1.00  0.00    -0.085 OA 
HETATM   41  C   UNL     1      -6.401   4.271  64.721  1.00  0.00    -0.034 C  
HETATM   42  H   UNL     1      -7.582   1.965  65.089  1.00  0.00     0.000 HD 
HETATM   43  C   UNL     1      -5.383   3.163  64.971  1.00  0.00    -0.009 C  
HETATM   44  O   UNL     1      -6.561   4.977  65.957  1.00  0.00    -0.042 OA 
ENDBRANCH  32  33
ENDBRANCH  27  32
ENDBRANCH   2   3
TORSDOF 4
ENDMDL
MODEL       97
REMARK 921   NORMALIZED FREE ENERGY PREDICTED BY IDOCK:   -4.09 KCAL/MOL
REMARK 922        TOTAL FREE ENERGY PREDICTED BY IDOCK:   -5.64 KCAL/MOL
REMARK 923 INTER-LIGAND FREE ENERGY PREDICTED BY IDOCK:   -5.74 KCAL/MOL
REMARK 924 INTRA-LIGAND FREE ENERGY PREDICTED BY IDOCK:    0.10 KCAL/MOL
REMARK 927      BINDING AFFINITY PREDICTED BY RF-SCORE:    0.00 PKD
ROOT
HETATM    1  C   UNL     1     -10.050   3.618  72.215  1.00  0.00    -0.155 C  
HETATM    2  O   UNL     1      -9.042   4.226  71.412  1.00  0.00    -0.117 OA 
ENDROOT
BRANCH   2   3
HETATM    3  C   UNL     1      -8.793   3.650  70.193  1.00  0.00    -0.081 A  
HETATM    4  C   UNL     1      -8.604   2.265  70.058  1.00  0.00    -0.100 A  
HETATM    5  C   UNL     1      -8.361   1.696  68.812  1.00  0.00    -0.074 A  
HETATM    6  C   UNL     1      -8.301   2.510  67.690  1.00  0.00    -0.095 A  
HETATM    7  C   UNL     1      -8.461   3.900  67.810  1.00  0.00    -0.104 A  
HETATM    8  C   UNL     1      -8.690   4.483  69.056  1.00  0.00    -0.112 A  
HETATM    9  C   UNL     1      -8.816   5.963  69.126  1.00  0.00    -0.117 C  
HETATM   10  O   UNL     1      -8.905   6.564  70.193  1.00  0.00    -0.142 OA 
HETATM   11  C   UNL     1      -8.826   6.779  67.883  1.00  0.00    -0.118 A  
HETATM   12  C   UNL     1      -9.065   8.168  67.945  1.00  0.00    -0.132 A  
HETATM   13  O   UNL     1      -9.328   8.800  69.138  1.00  0.00    -0.148 OA 
HETATM   14  C   UNL     1      -9.061   8.978  66.791  1.00  0.00    -0.178 A  
HETATM   15  H   UNL     1      -9.490   9.735  69.180  1.00  0.00     0.000 HD 
HETATM   16  C   UNL     1      -8.792   8.375  65.540  1.00  0.00    -0.172 A  
HETATM   17  C   UNL     1      -8.604   6.977  65.481  1.00  0.00    -0.081 A  
HETATM   18  C   UNL     1      -8.744   9.204  64.265  1.00  0.00    -0.180 C  
HETATM   19  C   UNL     1      -8.641  10.713  64.511  1.00  0.00    -0.110 C  
HETATM   20  C   UNL     1      -8.605   6.179  66.645  1.00  0.00    -0.118 A  
HETATM   21  O   UNL     1      -8.418   6.366  64.270  1.00  0.00    -0.334 OA 
HETATM   22  O   UNL     1      -8.139   4.125  65.533  1.00  0.00    -0.100 OA 
HETATM   23  C   UNL     1      -8.383   4.711  66.581  1.00  0.00    -0.106 C  
HETATM   24  C   UNL     1      -9.688  11.093  65.558  1.00  0.00    -0.271 C  
HETATM   25  O   UNL     1      -7.303  11.023  64.909  1.00  0.00    -0.304 OA 
HETATM   26  H   UNL     1      -8.290   5.425  64.231  1.00  0.00     0.000 HD 
HETATM   27  C   UNL     1      -9.334  10.478  66.916  1.00  0.00    -0.159 C  
HETATM   28  H   UNL     1      -7.238  11.959  65.062  1.00  0.00     0.000 HD 
BRANCH  19  29
HETATM   29  C   UNL     1      -8.923  11.501  63.220  1.00  0.00     0.060 C  
HETATM   30  O   UNL     1      -8.052  11.688  62.366  1.00  0.00    -0.113 OA 
HETATM   31  C   UNL     1     -10.346  11.954  62.981  1.00  0.00    -0.175 C  
ENDBRANCH  19  29
BRANCH  27  32
HETATM   32  O   UNL     1      -8.161  11.090  67.483  1.00  0.00    -0.115 OA 
BRANCH  32  33
HETATM   33  C   UNL     1      -8.384  12.008  68.561  1.00  0.00    -0.104 C  
HETATM   34  C   UNL     1      -7.664  13.348  68.416  1.00  0.00    -0.138 C  
HETATM   35  C   UNL     1      -8.277  14.153  67.269  1.00  0.00    -0.181 C  
HETATM   36  N   UNL     1      -7.592  15.456  67.141  1.00  0.00    -0.211 NA 
HETATM   37  C   UNL     1      -9.783  14.338  67.528  1.00  0.00    -0.223 C  
HETATM   38  H1  UNL     1      -8.001  15.993  66.377  1.00  0.00     0.000 HD 
HETATM   39  H2  UNL     1      -6.583  15.347  67.035  1.00  0.00     0.000 HD 
HETATM   40  O   UNL     1      -9.957  15.189  68.673  1.00  0.00    -0.207 OA 
HETATM   41  C   UNL     1     -10.442  12.962  67.752  1.00  0.00    -0.220 C  
HETATM   42  H   UNL     1     -10.886  15.303  68.833  1.00  0.00     0.000 HD 
HETATM   43  C   UNL     1     -11.900  13.105  68.180  1.00  0.00    -0.386 C  
HETATM   44  O   UNL     1      -9.783  12.197  68.769  1.00  0.00    -0.123 OA 
ENDBRANCH  32  33
ENDBRANCH  27  32
ENDBRANCH   2   3
TORSDOF 4
ENDMDL
MODEL       98
REMARK 921   NORMALIZED FREE ENERGY PREDICTED BY IDOCK:   -3.69 KCAL/MOL
REMARK 922        TOTAL FREE ENERGY PREDICTED BY IDOCK:   -5.15 KCAL/MOL
REMARK 923 INTER-LIGAND FREE ENERGY PREDICTED BY IDOCK:   -7.36 KCAL/MOL
REMARK 924 INTRA-LIGAND FREE ENERGY PREDICTED BY IDOCK:    2.21 KCAL/MOL
REMARK 927      BINDING AFFINITY PREDICTED BY RF-SCORE:    0.00 PKD
ROOT
HETATM    1  C   UNL     1      -7.048   6.340  69.604  1.00  0.00    -0.073 C  
HETATM    2  O   UNL     1      -5.812   6.114  68.930  1.00  0.00    -0.018 OA 
ENDROOT
BRANCH   2   3
HETATM    3  C   UNL     1      -5.879   5.884  67.579  1.00  0.00    -0.017 A  
HETATM    4  C   UNL     1      -5.184   4.821  66.979  1.00  0.00    -0.008 A  
HETATM    5  C   UNL     1      -5.270   4.596  65.609  1.00  0.00    -0.009 A  
HETATM    6  C   UNL     1      -6.049   5.436  64.827  1.00  0.00    -0.022 A  
HETATM    7  C   UNL     1      -6.729   6.519  65.406  1.00  0.00    -0.047 A  
HETATM    8  C   UNL     1      -6.639   6.764  66.776  1.00  0.00    -0.044 A  
HETATM    9  C   UNL     1      -7.352   7.946  67.326  1.00  0.00    -0.092 C  
HETATM   10  O   UNL     1      -7.233   8.297  68.498  1.00  0.00    -0.084 OA 
HETATM   11  C   UNL     1      -8.238   8.765  66.457  1.00  0.00    -0.111 A  
HETATM   12  C   UNL     1      -9.005   9.813  67.009  1.00  0.00    -0.138 A  
HETATM   13  O   UNL     1      -8.985  10.086  68.357  1.00  0.00    -0.118 OA 
HETATM   14  C   UNL     1      -9.841  10.624  66.214  1.00  0.00    -0.263 A  
HETATM   15  H   UNL     1      -9.502  10.792  68.728  1.00  0.00     0.000 HD 
HETATM   16  C   UNL     1      -9.893  10.384  64.821  1.00  0.00    -0.406 A  
HETATM   17  C   UNL     1      -9.161   9.302  64.286  1.00  0.00    -0.021 A  
HETATM   18  C   UNL     1     -10.753  11.246  63.909  1.00  0.00    -0.451 C  
HETATM   19  C   UNL     1     -11.222  12.555  64.555  1.00  0.00    -0.325 C  
HETATM   20  C   UNL     1      -8.324   8.501  65.092  1.00  0.00    -0.178 A  
HETATM   21  O   UNL     1      -9.259   9.007  62.952  1.00  0.00    -0.481 OA 
HETATM   22  O   UNL     1      -7.532   7.118  63.324  1.00  0.00    -0.078 OA 
HETATM   23  C   UNL     1      -7.537   7.378  64.521  1.00  0.00    -0.110 C  
HETATM   24  C   UNL     1     -11.778  12.224  65.941  1.00  0.00    -0.451 C  
HETATM   25  O   UNL     1     -10.123  13.470  64.590  1.00  0.00    -0.591 OA 
HETATM   26  H   UNL     1      -8.766   8.279  62.592  1.00  0.00     0.000 HD 
HETATM   27  C   UNL     1     -10.657  11.742  66.867  1.00  0.00    -0.235 C  
HETATM   28  H   UNL     1     -10.414  14.281  64.991  1.00  0.00     0.000 HD 
BRANCH  19  29
HETATM   29  C   UNL     1     -12.333  13.213  63.720  1.00  0.00    -0.383 C  
HETATM   30  O   UNL     1     -12.498  14.436  63.702  1.00  0.00    -0.805 OA 
HETATM   31  C   UNL     1     -13.159  12.312  62.831  1.00  0.00     0.724 C  
ENDBRANCH  19  29
BRANCH  27  32
HETATM   32  O   UNL     1      -9.750  12.810  67.196  1.00  0.00    -0.207 OA 
BRANCH  32  33
HETATM   33  C   UNL     1      -9.673  13.172  68.580  1.00  0.00    -0.137 C  
HETATM   34  C   UNL     1     -10.203  14.568  68.904  1.00  0.00    -0.229 C  
HETATM   35  C   UNL     1     -11.719  14.613  68.715  1.00  0.00    -0.324 C  
HETATM   36  N   UNL     1     -12.232  15.959  69.045  1.00  0.00    -0.487 NA 
HETATM   37  C   UNL     1     -12.372  13.535  69.599  1.00  0.00    -0.165 C  
HETATM   38  H1  UNL     1     -13.244  15.989  68.919  1.00  0.00     0.000 HD 
HETATM   39  H2  UNL     1     -11.759  16.688  68.511  1.00  0.00     0.000 HD 
HETATM   40  O   UNL     1     -12.190  13.893  70.979  1.00  0.00    -0.344 OA 
HETATM   41  C   UNL     1     -11.741  12.162  69.291  1.00  0.00    -0.328 C  
HETATM   42  H   UNL     1     -12.593  13.227  71.524  1.00  0.00     0.000 HD 
HETATM   43  C   UNL     1     -12.235  11.092  70.260  1.00  0.00    -0.447 C  
HETATM   44  O   UNL     1     -10.312  12.182  69.387  1.00  0.00     0.138 OA 
ENDBRANCH  32  33
ENDBRANCH  27  32
ENDBRANCH   2   3
TORSDOF 4
ENDMDL
MODEL       99
REMARK 921   NORMALIZED FREE ENERGY PREDICTED BY IDOCK:   -3.65 KCAL/MOL
REMARK 922        TOTAL FREE ENERGY PREDICTED BY IDOCK:   -5.09 KCAL/MOL
REMARK 923 INTER-LIGAND FREE ENERGY PREDICTED BY IDOCK:   -5.91 KCAL/MOL
REMARK 924 INTRA-LIGAND FREE ENERGY PREDICTED BY IDOCK:    0.81 KCAL/MOL
REMARK 927      BINDING AFFINITY PREDICTED BY RF-SCORE:    0.00 PKD
ROOT
HETATM    1  C   UNL     1      -9.594  16.959  67.311  1.00  0.00    -0.246 C  
HETATM    2  O   UNL     1      -8.347  16.392  66.918  1.00  0.00    -0.187 OA 
ENDROOT
BRANCH   2   3
HETATM    3  C   UNL     1      -7.502  16.001  67.924  1.00  0.00    -0.129 A  
HETATM    4  C   UNL     1      -6.644  16.913  68.561  1.00  0.00    -0.165 A  
HETATM    5  C   UNL     1      -5.798  16.501  69.586  1.00  0.00    -0.191 A  
HETATM    6  C   UNL     1      -5.802  15.171  69.981  1.00  0.00    -0.136 A  
HETATM    7  C   UNL     1      -6.634  14.241  69.338  1.00  0.00    -0.132 A  
HETATM    8  C   UNL     1      -7.475  14.639  68.298  1.00  0.00    -0.117 A  
HETATM    9  C   UNL     1      -8.306  13.602  67.632  1.00  0.00    -0.182 C  
HETATM   10  O   UNL     1      -8.986  13.846  66.638  1.00  0.00    -0.219 OA 
HETATM   11  C   UNL     1      -8.332  12.208  68.148  1.00  0.00    -0.170 A  
HETATM   12  C   UNL     1      -9.211  11.258  67.588  1.00  0.00    -0.156 A  
HETATM   13  O   UNL     1     -10.087  11.593  66.582  1.00  0.00    -0.203 OA 
HETATM   14  C   UNL     1      -9.250   9.922  68.037  1.00  0.00    -0.129 A  
HETATM   15  H   UNL     1     -10.680  10.953  66.205  1.00  0.00     0.000 HD 
HETATM   16  C   UNL     1      -8.365   9.527  69.068  1.00  0.00    -0.126 A  
HETATM   17  C   UNL     1      -7.524  10.496  69.656  1.00  0.00    -0.141 A  
HETATM   18  C   UNL     1      -8.339   8.091  69.571  1.00  0.00    -0.127 C  
HETATM   19  C   UNL     1      -9.048   7.097  68.644  1.00  0.00    -0.133 C  
HETATM   20  C   UNL     1      -7.492  11.829  69.193  1.00  0.00     0.035 A  
HETATM   21  O   UNL     1      -6.716  10.150  70.705  1.00  0.00    -0.298 OA 
HETATM   22  O   UNL     1      -5.794  12.567  70.691  1.00  0.00    -0.188 OA 
HETATM   23  C   UNL     1      -6.589  12.841  69.800  1.00  0.00     0.071 C  
HETATM   24  C   UNL     1     -10.409   7.688  68.270  1.00  0.00    -0.238 C  
HETATM   25  O   UNL     1      -8.210   6.845  67.513  1.00  0.00    -0.114 OA 
HETATM   26  H   UNL     1      -6.150  10.803  71.101  1.00  0.00     0.000 HD 
HETATM   27  C   UNL     1     -10.229   8.935  67.398  1.00  0.00    -0.249 C  
HETATM   28  H   UNL     1      -8.649   6.229  66.938  1.00  0.00     0.000 HD 
BRANCH  19  29
HETATM   29  C   UNL     1      -9.272   5.750  69.351  1.00  0.00    -0.125 C  
HETATM   30  O   UNL     1      -8.642   4.736  69.036  1.00  0.00    -0.081 OA 
HETATM   31  C   UNL     1     -10.223   5.732  70.526  1.00  0.00    -0.284 C  
ENDBRANCH  19  29
BRANCH  27  32
HETATM   32  O   UNL     1      -9.721   8.597  66.094  1.00  0.00    -0.253 OA 
BRANCH  32  33
HETATM   33  C   UNL     1      -8.505   9.244  65.701  1.00  0.00    -0.139 C  
HETATM   34  C   UNL     1      -7.379   8.293  65.296  1.00  0.00    -0.081 C  
HETATM   35  C   UNL     1      -7.728   7.594  63.982  1.00  0.00    -0.126 C  
HETATM   36  N   UNL     1      -6.632   6.688  63.582  1.00  0.00    -0.043 NA 
HETATM   37  C   UNL     1      -7.998   8.656  62.900  1.00  0.00    -0.163 C  
HETATM   38  H1  UNL     1      -6.865   6.222  62.705  1.00  0.00     0.000 HD 
HETATM   39  H2  UNL     1      -6.401   6.022  64.319  1.00  0.00     0.000 HD 
HETATM   40  O   UNL     1      -6.769   9.341  62.605  1.00  0.00    -0.094 OA 
HETATM   41  C   UNL     1      -9.079   9.638  63.396  1.00  0.00    -0.178 C  
HETATM   42  H   UNL     1      -6.936   9.996  61.937  1.00  0.00     0.000 HD 
HETATM   43  C   UNL     1      -9.257  10.804  62.429  1.00  0.00    -0.307 C  
HETATM   44  O   UNL     1      -8.762  10.202  64.674  1.00  0.00    -0.163 OA 
ENDBRANCH  32  33
ENDBRANCH  27  32
ENDBRANCH   2   3
TORSDOF 4
ENDMDL
MODEL      100
REMARK 921   NORMALIZED FREE ENERGY PREDICTED BY IDOCK:   -3.63 KCAL/MOL
REMARK 922        TOTAL FREE ENERGY PREDICTED BY IDOCK:   -5.08 KCAL/MOL
REMARK 923 INTER-LIGAND FREE ENERGY PREDICTED BY IDOCK:   -4.99 KCAL/MOL
REMARK 924 INTRA-LIGAND FREE ENERGY PREDICTED BY IDOCK:   -0.08 KCAL/MOL
REMARK 927      BINDING AFFINITY PREDICTED BY RF-SCORE:    0.00 PKD
ROOT
HETATM    1  C   UNL     1      -9.751   5.962  74.462  1.00  0.00    -0.239 C  
HETATM    2  O   UNL     1     -10.157   5.939  73.096  1.00  0.00    -0.173 OA 
ENDROOT
BRANCH   2   3
HETATM    3  C   UNL     1      -9.583   4.982  72.297  1.00  0.00    -0.148 A  
HETATM    4  C   UNL     1      -9.364   3.673  72.759  1.00  0.00    -0.145 A  
HETATM    5  C   UNL     1      -8.789   2.713  71.933  1.00  0.00    -0.116 A  
HETATM    6  C   UNL     1      -8.424   3.055  70.639  1.00  0.00    -0.095 A  
HETATM    7  C   UNL     1      -8.611   4.365  70.170  1.00  0.00    -0.102 A  
HETATM    8  C   UNL     1      -9.173   5.341  70.994  1.00  0.00    -0.183 A  
HETATM    9  C   UNL     1      -9.314   6.719  70.454  1.00  0.00    -0.163 C  
HETATM   10  O   UNL     1      -9.692   7.659  71.148  1.00  0.00    -0.163 OA 
HETATM   11  C   UNL     1      -8.983   7.010  69.034  1.00  0.00    -0.133 A  
HETATM   12  C   UNL     1      -9.230   8.291  68.495  1.00  0.00    -0.136 A  
HETATM   13  O   UNL     1      -9.810   9.287  69.244  1.00  0.00    -0.164 OA 
HETATM   14  C   UNL     1      -8.910   8.612  67.159  1.00  0.00    -0.138 A  
HETATM   15  H   UNL     1      -9.977  10.149  68.880  1.00  0.00     0.000 HD 
HETATM   16  C   UNL     1      -8.309   7.620  66.349  1.00  0.00    -0.129 A  
HETATM   17  C   UNL     1      -8.111   6.328  66.883  1.00  0.00    -0.109 A  
HETATM   18  C   UNL     1      -7.913   7.918  64.910  1.00  0.00    -0.138 C  
HETATM   19  C   UNL     1      -7.881   9.413  64.574  1.00  0.00    -0.121 C  
HETATM   20  C   UNL     1      -8.430   6.022  68.223  1.00  0.00    -0.112 A  
HETATM   21  O   UNL     1      -7.600   5.335  66.090  1.00  0.00    -0.085 OA 
HETATM   22  O   UNL     1      -7.678   3.765  68.144  1.00  0.00    -0.065 OA 
HETATM   23  C   UNL     1      -8.199   4.667  68.787  1.00  0.00    -0.082 C  
HETATM   24  C   UNL     1      -9.176  10.041  65.092  1.00  0.00    -0.273 C  
HETATM   25  O   UNL     1      -6.704   9.988  65.146  1.00  0.00    -0.112 OA 
HETATM   26  H   UNL     1      -7.467   4.466  66.450  1.00  0.00     0.000 HD 
HETATM   27  C   UNL     1      -9.207  10.014  66.624  1.00  0.00    -0.149 C  
HETATM   28  H   UNL     1      -6.684  10.915  64.937  1.00  0.00     0.000 HD 
BRANCH  19  29
HETATM   29  C   UNL     1      -7.800   9.632  63.054  1.00  0.00    -0.127 C  
HETATM   30  O   UNL     1      -6.833   9.247  62.390  1.00  0.00    -0.093 OA 
HETATM   31  C   UNL     1      -9.002  10.249  62.376  1.00  0.00    -0.288 C  
ENDBRANCH  19  29
BRANCH  27  32
HETATM   32  O   UNL     1      -8.234  10.912  67.188  1.00  0.00    -0.121 OA 
BRANCH  32  33
HETATM   33  C   UNL     1      -7.928  12.079  66.415  1.00  0.00     0.201 C  
HETATM   34  C   UNL     1      -9.055  13.110  66.344  1.00  0.00    -0.069 C  
HETATM   35  C   UNL     1      -9.260  13.760  67.713  1.00  0.00    -0.206 C  
HETATM   36  N   UNL     1     -10.338  14.768  67.639  1.00  0.00    -0.237 NA 
HETATM   37  C   UNL     1      -7.936  14.392  68.178  1.00  0.00    -0.136 C  
HETATM   38  H1  UNL     1     -10.475  15.202  68.551  1.00  0.00     0.000 HD 
HETATM   39  H2  UNL     1     -11.204  14.375  67.269  1.00  0.00     0.000 HD 
HETATM   40  O   UNL     1      -7.623  15.500  67.318  1.00  0.00    -0.181 OA 
HETATM   41  C   UNL     1      -6.818  13.330  68.148  1.00  0.00    -0.114 C  
HETATM   42  H   UNL     1      -6.806  15.890  67.605  1.00  0.00     0.000 HD 
HETATM   43  C   UNL     1      -5.454  13.950  68.438  1.00  0.00    -0.101 C  
HETATM   44  O   UNL     1      -6.716  12.676  66.878  1.00  0.00    -0.047 OA 
ENDBRANCH  32  33
ENDBRANCH  27  32
ENDBRANCH   2   3
TORSDOF 4
ENDMDL
MODEL      101
REMARK 921   NORMALIZED FREE ENERGY PREDICTED BY IDOCK:   -3.57 KCAL/MOL
REMARK 922        TOTAL FREE ENERGY PREDICTED BY IDOCK:   -5.00 KCAL/MOL
REMARK 923 INTER-LIGAND FREE ENERGY PREDICTED BY IDOCK:   -8.06 KCAL/MOL
REMARK 924 INTRA-LIGAND FREE ENERGY PREDICTED BY IDOCK:    3.06 KCAL/MOL
REMARK 927      BINDING AFFINITY PREDICTED BY RF-SCORE:    0.00 PKD
ROOT
HETATM    1  C   UNL     1      -7.980  18.960  69.413  1.00  0.00     0.169 C  
HETATM    2  O   UNL     1      -9.350  18.576  69.324  1.00  0.00    -0.072 OA 
ENDROOT
BRANCH   2   3
HETATM    3  C   UNL     1      -9.904  18.551  68.070  1.00  0.00    -0.341 A  
HETATM    4  C   UNL     1     -10.474  19.699  67.494  1.00  0.00    -0.589 A  
HETATM    5  C   UNL     1     -11.024  19.658  66.218  1.00  0.00    -0.295 A  
HETATM    6  C   UNL     1     -11.013  18.467  65.507  1.00  0.00     0.329 A  
HETATM    7  C   UNL     1     -10.472  17.304  66.077  1.00  0.00    -0.285 A  
HETATM    8  C   UNL     1      -9.931  17.328  67.362  1.00  0.00    -0.278 A  
HETATM    9  C   UNL     1      -9.405  16.057  67.927  1.00  0.00    -0.208 C  
HETATM   10  O   UNL     1      -9.017  15.967  69.089  1.00  0.00    -0.237 OA 
HETATM   11  C   UNL     1      -9.343  14.829  67.092  1.00  0.00    -0.233 A  
HETATM   12  C   UNL     1      -8.735  13.658  67.592  1.00  0.00    -0.182 A  
HETATM   13  O   UNL     1      -8.156  13.625  68.839  1.00  0.00    -0.321 OA 
HETATM   14  C   UNL     1      -8.676  12.468  66.838  1.00  0.00    -0.182 A  
HETATM   15  H   UNL     1      -7.746  12.837  69.175  1.00  0.00     0.000 HD 
HETATM   16  C   UNL     1      -9.261  12.452  65.550  1.00  0.00     0.211 A  
HETATM   17  C   UNL     1      -9.823  13.641  65.038  1.00  0.00    -0.055 A  
HETATM   18  C   UNL     1      -9.255  11.187  64.703  1.00  0.00    -0.138 C  
HETATM   19  C   UNL     1      -8.917   9.916  65.490  1.00  0.00    -0.174 C  
HETATM   20  C   UNL     1      -9.880  14.824  65.806  1.00  0.00    -0.373 A  
HETATM   21  O   UNL     1     -10.325  13.664  63.765  1.00  0.00    -0.477 OA 
HETATM   22  O   UNL     1     -11.023  16.122  64.169  1.00  0.00    -0.552 OA 
HETATM   23  C   UNL     1     -10.494  16.068  65.273  1.00  0.00    -0.358 C  
HETATM   24  C   UNL     1      -7.676  10.202  66.337  1.00  0.00    -0.111 C  
HETATM   25  O   UNL     1     -10.057   9.539  66.266  1.00  0.00    -0.269 OA 
HETATM   26  H   UNL     1     -10.704  14.465  63.421  1.00  0.00     0.000 HD 
HETATM   27  C   UNL     1      -7.997  11.230  67.427  1.00  0.00    -0.132 C  
HETATM   28  H   UNL     1      -9.848   8.751  66.754  1.00  0.00     0.000 HD 
BRANCH  19  29
HETATM   29  C   UNL     1      -8.608   8.747  64.540  1.00  0.00    -0.099 C  
HETATM   30  O   UNL     1      -8.417   7.601  64.956  1.00  0.00    -0.113 OA 
HETATM   31  C   UNL     1      -8.650   9.029  63.055  1.00  0.00    -0.166 C  
ENDBRANCH  19  29
BRANCH  27  32
HETATM   32  O   UNL     1      -8.877  10.682  68.425  1.00  0.00    -0.132 OA 
BRANCH  32  33
HETATM   33  C   UNL     1     -10.243  10.500  68.034  1.00  0.00    -0.166 C  
HETATM   34  C   UNL     1     -10.909   9.249  68.606  1.00  0.00    -0.120 C  
HETATM   35  C   UNL     1     -11.097   9.397  70.116  1.00  0.00    -0.242 C  
HETATM   36  N   UNL     1     -11.756   8.195  70.666  1.00  0.00    -0.446 NA 
HETATM   37  C   UNL     1     -11.922  10.665  70.402  1.00  0.00    -0.346 C  
HETATM   38  H1  UNL     1     -11.882   8.293  71.673  1.00  0.00     0.000 HD 
HETATM   39  H2  UNL     1     -11.253   7.340  70.426  1.00  0.00     0.000 HD 
HETATM   40  O   UNL     1     -13.258  10.472  69.910  1.00  0.00    -0.470 OA 
HETATM   41  C   UNL     1     -11.251  11.881  69.731  1.00  0.00    -0.057 C  
HETATM   42  H   UNL     1     -13.766  11.254  70.086  1.00  0.00     0.000 HD 
HETATM   43  C   UNL     1     -12.121  13.130  69.843  1.00  0.00    -0.357 C  
HETATM   44  O   UNL     1     -11.005  11.670  68.335  1.00  0.00    -0.193 OA 
ENDBRANCH  32  33
ENDBRANCH  27  32
ENDBRANCH   2   3
TORSDOF 4
ENDMDL
MODEL      102
REMARK 921   NORMALIZED FREE ENERGY PREDICTED BY IDOCK:   -3.54 KCAL/MOL
REMARK 922        TOTAL FREE ENERGY PREDICTED BY IDOCK:   -4.96 KCAL/MOL
REMARK 923 INTER-LIGAND FREE ENERGY PREDICTED BY IDOCK:   -4.09 KCAL/MOL
REMARK 924 INTRA-LIGAND FREE ENERGY PREDICTED BY IDOCK:   -0.87 KCAL/MOL
REMARK 927      BINDING AFFINITY PREDICTED BY RF-SCORE:    0.00 PKD
ROOT
HETATM    1  C   UNL     1     -10.050   3.618  72.215  1.00  0.00    -0.155 C  
HETATM    2  O   UNL     1      -9.036   4.218  71.414  1.00  0.00    -0.112 OA 
ENDROOT
BRANCH   2   3
HETATM    3  C   UNL     1      -8.787   3.639  70.196  1.00  0.00    -0.081 A  
HETATM    4  C   UNL     1      -8.610   2.252  70.064  1.00  0.00    -0.100 A  
HETATM    5  C   UNL     1      -8.368   1.679  68.819  1.00  0.00    -0.074 A  
HETATM    6  C   UNL     1      -8.297   2.491  67.696  1.00  0.00    -0.095 A  
HETATM    7  C   UNL     1      -8.444   3.882  67.814  1.00  0.00    -0.104 A  
HETATM    8  C   UNL     1      -8.673   4.469  69.059  1.00  0.00    -0.112 A  
HETATM    9  C   UNL     1      -8.785   5.950  69.126  1.00  0.00    -0.118 C  
HETATM   10  O   UNL     1      -8.873   6.553  70.193  1.00  0.00    -0.142 OA 
HETATM   11  C   UNL     1      -8.783   6.764  67.882  1.00  0.00    -0.120 A  
HETATM   12  C   UNL     1      -9.009   8.156  67.942  1.00  0.00    -0.133 A  
HETATM   13  O   UNL     1      -9.271   8.792  69.133  1.00  0.00    -0.147 OA 
HETATM   14  C   UNL     1      -8.994   8.965  66.787  1.00  0.00    -0.155 A  
HETATM   15  H   UNL     1      -9.424   9.728  69.173  1.00  0.00     0.000 HD 
HETATM   16  C   UNL     1      -8.726   8.357  65.537  1.00  0.00    -0.196 A  
HETATM   17  C   UNL     1      -8.550   6.958  65.481  1.00  0.00    -0.077 A  
HETATM   18  C   UNL     1      -8.665   9.184  64.261  1.00  0.00    -0.180 C  
HETATM   19  C   UNL     1      -8.548  10.692  64.506  1.00  0.00    -0.110 C  
HETATM   20  C   UNL     1      -8.562   6.161  66.646  1.00  0.00    -0.118 A  
HETATM   21  O   UNL     1      -8.365   6.343  64.272  1.00  0.00    -0.303 OA 
HETATM   22  O   UNL     1      -8.112   4.102  65.538  1.00  0.00    -0.100 OA 
HETATM   23  C   UNL     1      -8.354   4.691  66.585  1.00  0.00    -0.106 C  
HETATM   24  C   UNL     1      -9.596  11.084  65.549  1.00  0.00    -0.263 C  
HETATM   25  O   UNL     1      -7.209  10.991  64.909  1.00  0.00    -0.293 OA 
HETATM   26  H   UNL     1      -8.246   5.401  64.234  1.00  0.00     0.000 HD 
HETATM   27  C   UNL     1      -9.253  10.467  66.909  1.00  0.00    -0.155 C  
HETATM   28  H   UNL     1      -7.137  11.927  65.060  1.00  0.00     0.000 HD 
BRANCH  19  29
HETATM   29  C   UNL     1      -8.819  11.481  63.214  1.00  0.00     0.164 C  
HETATM   30  O   UNL     1      -7.943  11.659  62.363  1.00  0.00    -0.064 OA 
HETATM   31  C   UNL     1     -10.236  11.947  62.968  1.00  0.00    -0.185 C  
ENDBRANCH  19  29
BRANCH  27  32
HETATM   32  O   UNL     1      -8.077  11.069  67.479  1.00  0.00    -0.114 OA 
BRANCH  32  33
HETATM   33  C   UNL     1      -8.295  11.990  68.555  1.00  0.00    -0.104 C  
HETATM   34  C   UNL     1      -7.906  11.461  69.935  1.00  0.00     1.026 C  
HETATM   35  C   UNL     1      -6.387  11.315  70.033  1.00  0.00    -0.140 C  
HETATM   36  N   UNL     1      -6.010  10.820  71.373  1.00  0.00    -0.321 NA 
HETATM   37  C   UNL     1      -5.726  12.672  69.734  1.00  0.00    -0.112 C  
HETATM   38  H1  UNL     1      -4.997  10.722  71.439  1.00  0.00     0.000 HD 
HETATM   39  H2  UNL     1      -6.493   9.953  71.610  1.00  0.00     0.000 HD 
HETATM   40  O   UNL     1      -6.049  13.590  70.792  1.00  0.00    -0.360 OA 
HETATM   41  C   UNL     1      -6.220  13.199  68.370  1.00  0.00    -0.083 C  
HETATM   42  H   UNL     1      -5.641  14.427  70.607  1.00  0.00     0.000 HD 
HETATM   43  C   UNL     1      -5.724  14.618  68.108  1.00  0.00    -0.130 C  
HETATM   44  O   UNL     1      -7.649  13.234  68.282  1.00  0.00    -0.119 OA 
ENDBRANCH  32  33
ENDBRANCH  27  32
ENDBRANCH   2   3
TORSDOF 4
ENDMDL
MODEL      103
REMARK 921   NORMALIZED FREE ENERGY PREDICTED BY IDOCK:   -3.37 KCAL/MOL
REMARK 922        TOTAL FREE ENERGY PREDICTED BY IDOCK:   -4.76 KCAL/MOL
REMARK 923 INTER-LIGAND FREE ENERGY PREDICTED BY IDOCK:   -4.94 KCAL/MOL
REMARK 924 INTRA-LIGAND FREE ENERGY PREDICTED BY IDOCK:    0.19 KCAL/MOL
REMARK 927      BINDING AFFINITY PREDICTED BY RF-SCORE:    0.00 PKD
ROOT
HETATM    1  C   UNL     1     -12.021  12.711  69.278  1.00  0.00    -0.246 C  
HETATM    2  O   UNL     1     -11.342  13.249  68.146  1.00  0.00    -0.255 OA 
ENDROOT
BRANCH   2   3
HETATM    3  C   UNL     1      -9.991  13.446  68.274  1.00  0.00    -0.240 A  
HETATM    4  C   UNL     1      -9.442  14.735  68.380  1.00  0.00    -0.213 A  
HETATM    5  C   UNL     1      -8.069  14.916  68.517  1.00  0.00    -0.147 A  
HETATM    6  C   UNL     1      -7.234  13.809  68.546  1.00  0.00    -0.108 A  
HETATM    7  C   UNL     1      -7.763  12.515  68.415  1.00  0.00    -0.136 A  
HETATM    8  C   UNL     1      -9.135  12.321  68.261  1.00  0.00    -0.187 A  
HETATM    9  C   UNL     1      -9.633  10.931  68.091  1.00  0.00    -0.164 C  
HETATM   10  O   UNL     1     -10.809  10.682  67.837  1.00  0.00    -0.232 OA 
HETATM   11  C   UNL     1      -8.703   9.777  68.211  1.00  0.00    -0.119 A  
HETATM   12  C   UNL     1      -9.199   8.456  68.168  1.00  0.00    -0.137 A  
HETATM   13  O   UNL     1     -10.544   8.196  68.049  1.00  0.00    -0.344 OA 
HETATM   14  C   UNL     1      -8.347   7.336  68.258  1.00  0.00    -0.125 A  
HETATM   15  H   UNL     1     -10.878   7.307  68.020  1.00  0.00     0.000 HD 
HETATM   16  C   UNL     1      -6.954   7.552  68.378  1.00  0.00    -0.079 A  
HETATM   17  C   UNL     1      -6.472   8.876  68.470  1.00  0.00    -0.055 A  
HETATM   18  C   UNL     1      -5.983   6.382  68.448  1.00  0.00    -0.020 C  
HETATM   19  C   UNL     1      -6.593   5.045  68.014  1.00  0.00    -0.050 C  
HETATM   20  C   UNL     1      -7.336   9.988  68.374  1.00  0.00    -0.077 A  
HETATM   21  O   UNL     1      -5.136   9.102  68.663  1.00  0.00    -0.034 OA 
HETATM   22  O   UNL     1      -5.629  11.639  68.546  1.00  0.00    -0.046 OA 
HETATM   23  C   UNL     1      -6.822  11.380  68.448  1.00  0.00    -0.068 C  
HETATM   24  C   UNL     1      -7.938   4.887  68.726  1.00  0.00    -0.080 C  
HETATM   25  O   UNL     1      -6.702   5.029  66.588  1.00  0.00    -0.054 OA 
HETATM   26  H   UNL     1      -4.812   9.993  68.725  1.00  0.00     0.000 HD 
HETATM   27  C   UNL     1      -8.940   5.926  68.213  1.00  0.00    -0.112 C  
HETATM   28  H   UNL     1      -7.080   4.200  66.319  1.00  0.00     0.000 HD 
BRANCH  19  29
HETATM   29  C   UNL     1      -5.683   3.871  68.412  1.00  0.00    -0.022 C  
HETATM   30  O   UNL     1      -5.290   3.041  67.586  1.00  0.00    -0.012 OA 
HETATM   31  C   UNL     1      -5.193   3.825  69.842  1.00  0.00    -0.008 C  
ENDBRANCH  19  29
BRANCH  27  32
HETATM   32  O   UNL     1      -9.328   5.659  66.853  1.00  0.00    -0.120 OA 
BRANCH  32  33
HETATM   33  C   UNL     1     -10.325   4.647  66.668  1.00  0.00    -0.160 C  
HETATM   34  C   UNL     1     -11.022   4.681  65.308  1.00  0.00     0.001 C  
HETATM   35  C   UNL     1     -10.044   4.275  64.205  1.00  0.00    -0.028 C  
HETATM   36  N   UNL     1     -10.723   4.292  62.893  1.00  0.00    -0.410 NA 
HETATM   37  C   UNL     1      -9.473   2.881  64.520  1.00  0.00    -0.146 C  
HETATM   38  H1  UNL     1     -10.070   4.022  62.157  1.00  0.00     0.000 HD 
HETATM   39  H2  UNL     1     -11.162   5.193  62.702  1.00  0.00     0.000 HD 
HETATM   40  O   UNL     1     -10.528   1.912  64.412  1.00  0.00    -0.329 OA 
HETATM   41  C   UNL     1      -8.860   2.881  65.936  1.00  0.00    -0.141 C  
HETATM   42  H   UNL     1     -10.176   1.051  64.607  1.00  0.00     0.000 HD 
HETATM   43  C   UNL     1      -8.434   1.478  66.358  1.00  0.00    -0.101 C  
HETATM   44  O   UNL     1      -9.776   3.355  66.930  1.00  0.00    -0.140 OA 
ENDBRANCH  32  33
ENDBRANCH  27  32
ENDBRANCH   2   3
TORSDOF 4
ENDMDL
MODEL      104
REMARK 921   NORMALIZED FREE ENERGY PREDICTED BY IDOCK:   -2.85 KCAL/MOL
REMARK 922        TOTAL FREE ENERGY PREDICTED BY IDOCK:   -4.11 KCAL/MOL
REMARK 923 INTER-LIGAND FREE ENERGY PREDICTED BY IDOCK:   -6.54 KCAL/MOL
REMARK 924 INTRA-LIGAND FREE ENERGY PREDICTED BY IDOCK:    2.44 KCAL/MOL
REMARK 927      BINDING AFFINITY PREDICTED BY RF-SCORE:    0.00 PKD
ROOT
HETATM    1  C   UNL     1      -6.408   9.069  69.801  1.00  0.00    -0.038 C  
HETATM    2  O   UNL     1      -6.361   8.571  68.467  1.00  0.00    -0.052 OA 
ENDROOT
BRANCH   2   3
HETATM    3  C   UNL     1      -7.551   8.518  67.786  1.00  0.00    -0.098 A  
HETATM    4  C   UNL     1      -8.150   7.293  67.447  1.00  0.00    -0.113 A  
HETATM    5  C   UNL     1      -9.361   7.257  66.763  1.00  0.00    -0.203 A  
HETATM    6  C   UNL     1      -9.981   8.447  66.410  1.00  0.00    -0.291 A  
HETATM    7  C   UNL     1      -9.383   9.679  66.717  1.00  0.00    -0.193 A  
HETATM    8  C   UNL     1      -8.162   9.728  67.388  1.00  0.00    -0.114 A  
HETATM    9  C   UNL     1      -7.560  11.061  67.655  1.00  0.00    -0.104 C  
HETATM   10  O   UNL     1      -6.438  11.189  68.138  1.00  0.00    -0.056 OA 
HETATM   11  C   UNL     1      -8.306  12.305  67.327  1.00  0.00    -0.182 A  
HETATM   12  C   UNL     1      -7.783  13.564  67.689  1.00  0.00    -0.176 A  
HETATM   13  O   UNL     1      -6.600  13.680  68.380  1.00  0.00    -0.078 OA 
HETATM   14  C   UNL     1      -8.451  14.767  67.378  1.00  0.00    -0.218 A  
HETATM   15  H   UNL     1      -6.248  14.528  68.624  1.00  0.00     0.000 HD 
HETATM   16  C   UNL     1      -9.671  14.699  66.665  1.00  0.00    -0.283 A  
HETATM   17  C   UNL     1     -10.211  13.433  66.350  1.00  0.00    -0.293 A  
HETATM   18  C   UNL     1     -10.421  15.965  66.274  1.00  0.00    -0.324 C  
HETATM   19  C   UNL     1      -9.580  17.241  66.384  1.00  0.00    -0.274 C  
HETATM   20  C   UNL     1      -9.529  12.238  66.664  1.00  0.00    -0.227 A  
HETATM   21  O   UNL     1     -11.427  13.347  65.729  1.00  0.00    -0.310 OA 
HETATM   22  O   UNL     1     -11.137  10.777  65.689  1.00  0.00     0.018 OA 
HETATM   23  C   UNL     1     -10.090  10.908  66.310  1.00  0.00    -0.233 C  
HETATM   24  C   UNL     1      -8.880  17.230  67.744  1.00  0.00    -0.234 C  
HETATM   25  O   UNL     1      -8.671  17.290  65.280  1.00  0.00     0.434 OA 
HETATM   26  H   UNL     1     -11.790  12.495  65.517  1.00  0.00     0.000 HD 
HETATM   27  C   UNL     1      -7.842  16.105  67.802  1.00  0.00    -0.143 C  
HETATM   28  H   UNL     1      -8.150  18.082  65.348  1.00  0.00     0.000 HD 
BRANCH  19  29
HETATM   29  C   UNL     1     -10.468  18.494  66.295  1.00  0.00    -0.406 C  
HETATM   30  O   UNL     1     -10.990  18.850  65.235  1.00  0.00    -0.521 OA 
HETATM   31  C   UNL     1     -10.769  19.223  67.585  1.00  0.00    -0.533 C  
ENDBRANCH  19  29
BRANCH  27  32
HETATM   32  O   UNL     1      -6.726  16.372  66.934  1.00  0.00    -0.198 OA 
BRANCH  32  33
HETATM   33  C   UNL     1      -5.605  17.036  67.531  1.00  0.00    -0.141 C  
HETATM   34  C   UNL     1      -5.824  18.521  67.819  1.00  0.00    -0.167 C  
HETATM   35  C   UNL     1      -6.846  18.694  68.942  1.00  0.00    -0.283 C  
HETATM   36  N   UNL     1      -7.044  20.129  69.232  1.00  0.00    -0.162 NA 
HETATM   37  C   UNL     1      -6.361  17.935  70.190  1.00  0.00     0.199 C  
HETATM   38  H1  UNL     1      -7.726  20.244  69.981  1.00  0.00     0.000 HD 
HETATM   39  H2  UNL     1      -7.303  20.654  68.396  1.00  0.00     0.000 HD 
HETATM   40  O   UNL     1      -5.183  18.582  70.699  1.00  0.00    -0.226 OA 
HETATM   41  C   UNL     1      -6.074  16.465  69.823  1.00  0.00    -0.212 C  
HETATM   42  H   UNL     1      -4.884  18.114  71.470  1.00  0.00     0.000 HD 
HETATM   43  C   UNL     1      -5.431  15.715  70.986  1.00  0.00    -0.001 C  
HETATM   44  O   UNL     1      -5.185  16.342  68.706  1.00  0.00    -0.110 OA 
ENDBRANCH  32  33
ENDBRANCH  27  32
ENDBRANCH   2   3
TORSDOF 4
ENDMDL
MODEL      105
REMARK 921   NORMALIZED FREE ENERGY PREDICTED BY IDOCK:   -2.84 KCAL/MOL
REMARK 922        TOTAL FREE ENERGY PREDICTED BY IDOCK:   -4.10 KCAL/MOL
REMARK 923 INTER-LIGAND FREE ENERGY PREDICTED BY IDOCK:   -3.99 KCAL/MOL
REMARK 924 INTRA-LIGAND FREE ENERGY PREDICTED BY IDOCK:   -0.11 KCAL/MOL
REMARK 927      BINDING AFFINITY PREDICTED BY RF-SCORE:    0.00 PKD
ROOT
HETATM    1  C   UNL     1      -8.408   7.770  62.334  1.00  0.00    -0.081 C  
HETATM    2  O   UNL     1      -7.278   7.841  63.199  1.00  0.00    -0.082 OA 
ENDROOT
BRANCH   2   3
HETATM    3  C   UNL     1      -7.373   7.176  64.395  1.00  0.00    -0.082 A  
HETATM    4  C   UNL     1      -7.643   5.799  64.452  1.00  0.00    -0.085 A  
HETATM    5  C   UNL     1      -7.728   5.138  65.673  1.00  0.00    -0.087 A  
HETATM    6  C   UNL     1      -7.548   5.852  66.849  1.00  0.00    -0.099 A  
HETATM    7  C   UNL     1      -7.305   7.234  66.812  1.00  0.00    -0.088 A  
HETATM    8  C   UNL     1      -7.233   7.910  65.594  1.00  0.00    -0.070 A  
HETATM    9  C   UNL     1      -7.008   9.380  65.619  1.00  0.00    -0.086 C  
HETATM   10  O   UNL     1      -7.044  10.066  64.601  1.00  0.00    -0.133 OA 
HETATM   11  C   UNL     1      -6.741  10.080  66.903  1.00  0.00    -0.079 A  
HETATM   12  C   UNL     1      -6.412  11.453  66.910  1.00  0.00    -0.138 A  
HETATM   13  O   UNL     1      -6.293  12.170  65.742  1.00  0.00     0.497 OA 
HETATM   14  C   UNL     1      -6.172  12.156  68.108  1.00  0.00    -0.055 A  
HETATM   15  H   UNL     1      -6.071  13.093  65.747  1.00  0.00     0.000 HD 
HETATM   16  C   UNL     1      -6.285  11.463  69.336  1.00  0.00    -0.091 A  
HETATM   17  C   UNL     1      -6.567  10.079  69.317  1.00  0.00    -0.051 A  
HETATM   18  C   UNL     1      -6.069  12.177  70.662  1.00  0.00     0.187 C  
HETATM   19  C   UNL     1      -6.097  13.705  70.554  1.00  0.00    -0.101 C  
HETATM   20  C   UNL     1      -6.809   9.389  68.110  1.00  0.00    -0.064 A  
HETATM   21  O   UNL     1      -6.605   9.376  70.491  1.00  0.00    -0.063 OA 
HETATM   22  O   UNL     1      -7.246   7.278  69.121  1.00  0.00    -0.080 OA 
HETATM   23  C   UNL     1      -7.128   7.937  68.096  1.00  0.00    -0.089 C  
HETATM   24  C   UNL     1      -5.202  14.112  69.381  1.00  0.00    -0.082 C  
HETATM   25  O   UNL     1      -7.454  14.132  70.404  1.00  0.00     0.031 OA 
HETATM   26  H   UNL     1      -6.794   8.445  70.478  1.00  0.00     0.000 HD 
HETATM   27  C   UNL     1      -5.811  13.642  68.056  1.00  0.00    -0.132 C  
HETATM   28  H   UNL     1      -7.471  15.080  70.337  1.00  0.00     0.000 HD 
BRANCH  19  29
HETATM   29  C   UNL     1      -5.556  14.358  71.837  1.00  0.00    -0.104 C  
HETATM   30  O   UNL     1      -5.381  13.711  72.874  1.00  0.00    -0.369 OA 
HETATM   31  C   UNL     1      -5.141  15.809  71.756  1.00  0.00     0.017 C  
ENDBRANCH  19  29
BRANCH  27  32
HETATM   32  O   UNL     1      -7.009  14.373  67.738  1.00  0.00    -0.145 OA 
BRANCH  32  33
HETATM   33  C   UNL     1      -7.114  15.690  68.293  1.00  0.00    -0.113 C  
HETATM   34  C   UNL     1      -6.516  16.796  67.424  1.00  0.00    -0.192 C  
HETATM   35  C   UNL     1      -7.358  16.987  66.162  1.00  0.00    -0.190 C  
HETATM   36  N   UNL     1      -6.790  18.069  65.332  1.00  0.00    -0.422 NA 
HETATM   37  C   UNL     1      -8.811  17.298  66.564  1.00  0.00    -0.261 C  
HETATM   38  H1  UNL     1      -7.351  18.196  64.490  1.00  0.00     0.000 HD 
HETATM   39  H2  UNL     1      -5.806  17.906  65.114  1.00  0.00     0.000 HD 
HETATM   40  O   UNL     1      -8.853  18.586  67.199  1.00  0.00    -0.262 OA 
HETATM   41  C   UNL     1      -9.334  16.195  67.507  1.00  0.00    -0.217 C  
HETATM   42  H   UNL     1      -9.749  18.778  67.447  1.00  0.00     0.000 HD 
HETATM   43  C   UNL     1     -10.709  16.546  68.067  1.00  0.00    -0.343 C  
HETATM   44  O   UNL     1      -8.470  15.979  68.630  1.00  0.00    -0.185 OA 
ENDBRANCH  32  33
ENDBRANCH  27  32
ENDBRANCH   2   3
TORSDOF 4
ENDMDL
MODEL      106
REMARK 921   NORMALIZED FREE ENERGY PREDICTED BY IDOCK:   -2.83 KCAL/MOL
REMARK 922        TOTAL FREE ENERGY PREDICTED BY IDOCK:   -4.08 KCAL/MOL
REMARK 923 INTER-LIGAND FREE ENERGY PREDICTED BY IDOCK:   -4.58 KCAL/MOL
REMARK 924 INTRA-LIGAND FREE ENERGY PREDICTED BY IDOCK:    0.50 KCAL/MOL
REMARK 927      BINDING AFFINITY PREDICTED BY RF-SCORE:    0.00 PKD
ROOT
HETATM    1  C   UNL     1     -13.399  14.241  70.140  1.00  0.00     0.586 C  
HETATM    2  O   UNL     1     -12.891  14.419  68.820  1.00  0.00     0.421 OA 
ENDROOT
BRANCH   2   3
HETATM    3  C   UNL     1     -11.593  14.849  68.711  1.00  0.00    -0.323 A  
HETATM    4  C   UNL     1     -11.272  16.216  68.663  1.00  0.00    -0.369 A  
HETATM    5  C   UNL     1      -9.949  16.634  68.561  1.00  0.00    -0.261 A  
HETATM    6  C   UNL     1      -8.936  15.688  68.501  1.00  0.00    -0.192 A  
HETATM    7  C   UNL     1      -9.241  14.318  68.520  1.00  0.00    -0.197 A  
HETATM    8  C   UNL     1     -10.564  13.886  68.608  1.00  0.00    -0.265 A  
HETATM    9  C   UNL     1     -10.828  12.423  68.588  1.00  0.00    -0.240 C  
HETATM   10  O   UNL     1     -11.966  11.962  68.546  1.00  0.00    -0.367 OA 
HETATM   11  C   UNL     1      -9.701  11.453  68.605  1.00  0.00    -0.182 A  
HETATM   12  C   UNL     1      -9.955  10.068  68.706  1.00  0.00    -0.172 A  
HETATM   13  O   UNL     1     -11.235   9.579  68.826  1.00  0.00    -0.455 OA 
HETATM   14  C   UNL     1      -8.915   9.117  68.704  1.00  0.00    -0.136 A  
HETATM   15  H   UNL     1     -11.406   8.647  68.895  1.00  0.00     0.000 HD 
HETATM   16  C   UNL     1      -7.581   9.571  68.580  1.00  0.00    -0.081 A  
HETATM   17  C   UNL     1      -7.333  10.960  68.529  1.00  0.00    -0.098 A  
HETATM   18  C   UNL     1      -6.419   8.589  68.541  1.00  0.00    -0.055 C  
HETATM   19  C   UNL     1      -6.842   7.140  68.278  1.00  0.00    -0.074 C  
HETATM   20  C   UNL     1      -8.385  11.901  68.526  1.00  0.00    -0.118 A  
HETATM   21  O   UNL     1      -6.045  11.420  68.485  1.00  0.00    -0.046 OA 
HETATM   22  O   UNL     1      -6.992  13.823  68.334  1.00  0.00    -0.085 OA 
HETATM   23  C   UNL     1      -8.121  13.361  68.449  1.00  0.00    -0.138 C  
HETATM   24  C   UNL     1      -8.010   6.812  69.210  1.00  0.00    -0.115 C  
HETATM   25  O   UNL     1      -7.169   6.999  66.892  1.00  0.00    -0.073 OA 
HETATM   26  H   UNL     1      -5.878  12.355  68.450  1.00  0.00     0.000 HD 
HETATM   27  C   UNL     1      -9.248   7.628  68.825  1.00  0.00    -0.142 C  
HETATM   28  H   UNL     1      -7.431   6.101  66.729  1.00  0.00     0.000 HD 
BRANCH  19  29
HETATM   29  C   UNL     1      -5.687   6.168  68.572  1.00  0.00    -0.012 C  
HETATM   30  O   UNL     1      -5.127   6.134  69.671  1.00  0.00    -0.011 OA 
HETATM   31  C   UNL     1      -5.326   5.172  67.493  1.00  0.00    -0.012 C  
ENDBRANCH  19  29
BRANCH  27  32
HETATM   32  O   UNL     1      -9.791   7.198  67.563  1.00  0.00    -0.138 OA 
BRANCH  32  33
HETATM   33  C   UNL     1     -10.651   6.054  67.601  1.00  0.00    -0.264 C  
HETATM   34  C   UNL     1     -10.988   5.463  66.232  1.00  0.00    -0.053 C  
HETATM   35  C   UNL     1      -9.744   4.822  65.616  1.00  0.00    -0.174 C  
HETATM   36  N   UNL     1     -10.074   4.237  64.300  1.00  0.00    -0.372 NA 
HETATM   37  C   UNL     1      -9.193   3.756  66.579  1.00  0.00    -0.167 C  
HETATM   38  H1  UNL     1      -9.245   3.809  63.889  1.00  0.00     0.000 HD 
HETATM   39  H2  UNL     1     -10.501   4.920  63.675  1.00  0.00     0.000 HD 
HETATM   40  O   UNL     1     -10.132   2.670  66.657  1.00  0.00     0.191 OA 
HETATM   41  C   UNL     1      -8.953   4.386  67.966  1.00  0.00    -0.119 C  
HETATM   42  H   UNL     1      -9.791   2.012  67.251  1.00  0.00     0.000 HD 
HETATM   43  C   UNL     1      -8.568   3.330  68.998  1.00  0.00    -0.115 C  
HETATM   44  O   UNL     1     -10.113   5.058  68.471  1.00  0.00    -0.162 OA 
ENDBRANCH  32  33
ENDBRANCH  27  32
ENDBRANCH   2   3
TORSDOF 4
ENDMDL
MODEL      107
REMARK 921   NORMALIZED FREE ENERGY PREDICTED BY IDOCK:   -2.80 KCAL/MOL
REMARK 922        TOTAL FREE ENERGY PREDICTED BY IDOCK:   -4.04 KCAL/MOL
REMARK 923 INTER-LIGAND FREE ENERGY PREDICTED BY IDOCK:   -6.64 KCAL/MOL
REMARK 924 INTRA-LIGAND FREE ENERGY PREDICTED BY IDOCK:    2.59 KCAL/MOL
REMARK 927      BINDING AFFINITY PREDICTED BY RF-SCORE:    0.00 PKD
ROOT
HETATM    1  C   UNL     1     -11.283  16.026  65.592  1.00  0.00     0.058 C  
HETATM    2  O   UNL     1      -9.955  16.453  65.299  1.00  0.00    -0.519 OA 
ENDROOT
BRANCH   2   3
HETATM    3  C   UNL     1      -9.066  16.467  66.344  1.00  0.00    -0.297 A  
HETATM    4  C   UNL     1      -8.476  17.661  66.791  1.00  0.00    -0.274 A  
HETATM    5  C   UNL     1      -7.583  17.659  67.858  1.00  0.00    -0.210 A  
HETATM    6  C   UNL     1      -7.270  16.461  68.484  1.00  0.00    -0.170 A  
HETATM    7  C   UNL     1      -7.831  15.255  68.033  1.00  0.00    -0.137 A  
HETATM    8  C   UNL     1      -8.715  15.243  66.955  1.00  0.00    -0.288 A  
HETATM    9  C   UNL     1      -9.248  13.932  66.499  1.00  0.00    -0.200 C  
HETATM   10  O   UNL     1      -9.941  13.820  65.491  1.00  0.00    -0.292 OA 
HETATM   11  C   UNL     1      -8.945  12.689  67.257  1.00  0.00    -0.194 A  
HETATM   12  C   UNL     1      -9.548  11.467  66.892  1.00  0.00    -0.185 A  
HETATM   13  O   UNL     1     -10.453  11.392  65.859  1.00  0.00    -0.245 OA 
HETATM   14  C   UNL     1      -9.270  10.264  67.573  1.00  0.00    -0.153 A  
HETATM   15  H   UNL     1     -10.860  10.569  65.613  1.00  0.00     0.000 HD 
HETATM   16  C   UNL     1      -8.343  10.290  68.642  1.00  0.00    -0.122 A  
HETATM   17  C   UNL     1      -7.782  11.525  69.032  1.00  0.00    -0.034 A  
HETATM   18  C   UNL     1      -7.979   9.018  69.394  1.00  0.00    -0.100 C  
HETATM   19  C   UNL     1      -8.396   7.731  68.672  1.00  0.00    -0.129 C  
HETATM   20  C   UNL     1      -8.066  12.721  68.338  1.00  0.00    -0.129 A  
HETATM   21  O   UNL     1      -6.942  11.581  70.112  1.00  0.00    -0.435 OA 
HETATM   22  O   UNL     1      -6.642  14.108  69.648  1.00  0.00    -0.129 OA 
HETATM   23  C   UNL     1      -7.455  14.015  68.737  1.00  0.00    -0.124 C  
HETATM   24  C   UNL     1      -9.850   7.893  68.224  1.00  0.00    -0.187 C  
HETATM   25  O   UNL     1      -7.493   7.497  67.589  1.00  0.00    -0.099 OA 
HETATM   26  H   UNL     1      -6.564  12.413  70.374  1.00  0.00     0.000 HD 
HETATM   27  C   UNL     1      -9.959   8.969  67.139  1.00  0.00    -0.224 C  
HETATM   28  H   UNL     1      -7.752   6.699  67.142  1.00  0.00     0.000 HD 
BRANCH  19  29
HETATM   29  C   UNL     1      -8.301   6.518  69.613  1.00  0.00    -0.131 C  
HETATM   30  O   UNL     1      -8.307   5.360  69.186  1.00  0.00    -0.095 OA 
HETATM   31  C   UNL     1      -8.093   6.795  71.084  1.00  0.00    -0.111 C  
ENDBRANCH  19  29
BRANCH  27  32
HETATM   32  O   UNL     1      -9.350   8.541  65.908  1.00  0.00    -0.209 OA 
BRANCH  32  33
HETATM   33  C   UNL     1      -8.134   9.204  65.539  1.00  0.00    -0.115 C  
HETATM   34  C   UNL     1      -7.015   8.271  65.077  1.00  0.00    -0.074 C  
HETATM   35  C   UNL     1      -7.377   7.643  63.730  1.00  0.00    -0.093 C  
HETATM   36  N   UNL     1      -6.287   6.755  63.275  1.00  0.00    -0.042 NA 
HETATM   37  C   UNL     1      -7.651   8.759  62.707  1.00  0.00    -0.112 C  
HETATM   38  H1  UNL     1      -6.529   6.336  62.377  1.00  0.00     0.000 HD 
HETATM   39  H2  UNL     1      -6.052   6.050  63.975  1.00  0.00     0.000 HD 
HETATM   40  O   UNL     1      -6.423   9.455  62.438  1.00  0.00    -0.097 OA 
HETATM   41  C   UNL     1      -8.724   9.718  63.262  1.00  0.00    -0.226 C  
HETATM   42  H   UNL     1      -6.592  10.144  61.807  1.00  0.00     0.000 HD 
HETATM   43  C   UNL     1      -8.907  10.933  62.358  1.00  0.00    -0.358 C  
HETATM   44  O   UNL     1      -8.395  10.214  64.565  1.00  0.00    -0.155 OA 
ENDBRANCH  32  33
ENDBRANCH  27  32
ENDBRANCH   2   3
TORSDOF 4
ENDMDL
MODEL      108
REMARK 921   NORMALIZED FREE ENERGY PREDICTED BY IDOCK:   -2.60 KCAL/MOL
REMARK 922        TOTAL FREE ENERGY PREDICTED BY IDOCK:   -3.81 KCAL/MOL
REMARK 923 INTER-LIGAND FREE ENERGY PREDICTED BY IDOCK:   -3.12 KCAL/MOL
REMARK 924 INTRA-LIGAND FREE ENERGY PREDICTED BY IDOCK:   -0.68 KCAL/MOL
REMARK 927      BINDING AFFINITY PREDICTED BY RF-SCORE:    0.00 PKD
ROOT
HETATM    1  C   UNL     1     -10.008   3.624  68.955  1.00  0.00     0.355 C  
HETATM    2  O   UNL     1     -10.045   4.489  70.087  1.00  0.00    -0.229 OA 
ENDROOT
BRANCH   2   3
HETATM    3  C   UNL     1      -8.858   4.707  70.737  1.00  0.00    -0.119 A  
HETATM    4  C   UNL     1      -8.213   3.684  71.452  1.00  0.00    -0.074 A  
HETATM    5  C   UNL     1      -7.004   3.919  72.100  1.00  0.00    -0.049 A  
HETATM    6  C   UNL     1      -6.432   5.181  72.040  1.00  0.00    -0.039 A  
HETATM    7  C   UNL     1      -7.076   6.222  71.352  1.00  0.00    -0.078 A  
HETATM    8  C   UNL     1      -8.296   6.003  70.712  1.00  0.00    -0.126 A  
HETATM    9  C   UNL     1      -8.948   7.152  70.031  1.00  0.00    -0.142 C  
HETATM   10  O   UNL     1     -10.072   7.073  69.542  1.00  0.00    -0.167 OA 
HETATM   11  C   UNL     1      -8.252   8.462  69.928  1.00  0.00    -0.122 A  
HETATM   12  C   UNL     1      -8.821   9.513  69.179  1.00  0.00    -0.147 A  
HETATM   13  O   UNL     1     -10.006   9.352  68.498  1.00  0.00    -0.163 OA 
HETATM   14  C   UNL     1      -8.202  10.776  69.075  1.00  0.00    -0.139 A  
HETATM   15  H   UNL     1     -10.389  10.060  67.993  1.00  0.00     0.000 HD 
HETATM   16  C   UNL     1      -6.983  10.991  69.760  1.00  0.00    -0.092 A  
HETATM   17  C   UNL     1      -6.396   9.919  70.466  1.00  0.00    -0.109 A  
HETATM   18  C   UNL     1      -6.284  12.342  69.710  1.00  0.00    -0.119 C  
HETATM   19  C   UNL     1      -7.173  13.480  69.196  1.00  0.00     0.020 C  
HETATM   20  C   UNL     1      -7.029   8.662  70.566  1.00  0.00    -0.043 A  
HETATM   21  O   UNL     1      -5.180  10.087  71.071  1.00  0.00    -0.053 OA 
HETATM   22  O   UNL     1      -5.370   7.661  71.949  1.00  0.00    -0.035 OA 
HETATM   23  C   UNL     1      -6.420   7.542  71.329  1.00  0.00    -0.038 C  
HETATM   24  C   UNL     1      -7.867  12.999  67.920  1.00  0.00    -0.149 C  
HETATM   25  O   UNL     1      -8.088  13.852  70.231  1.00  0.00     0.973 OA 
HETATM   26  H   UNL     1      -4.785   9.365  71.546  1.00  0.00     0.000 HD 
HETATM   27  C   UNL     1      -8.860  11.877  68.242  1.00  0.00    -0.174 C  
HETATM   28  H   UNL     1      -8.639  14.558  69.913  1.00  0.00     0.000 HD 
BRANCH  19  29
HETATM   29  C   UNL     1      -6.335  14.725  68.863  1.00  0.00    -0.087 C  
HETATM   30  O   UNL     1      -5.578  15.242  69.690  1.00  0.00    -0.099 OA 
HETATM   31  C   UNL     1      -6.390  15.240  67.443  1.00  0.00    -0.039 C  
ENDBRANCH  19  29
BRANCH  27  32
HETATM   32  O   UNL     1      -9.990  12.371  68.985  1.00  0.00     0.013 OA 
BRANCH  32  33
HETATM   33  C   UNL     1     -11.094  12.854  68.211  1.00  0.00    -0.264 C  
HETATM   34  C   UNL     1     -12.307  13.289  69.033  1.00  0.00     0.020 C  
HETATM   35  C   UNL     1     -11.980  14.556  69.823  1.00  0.00    -0.332 C  
HETATM   36  N   UNL     1     -13.159  14.985  70.604  1.00  0.00    -0.584 NA 
HETATM   37  C   UNL     1     -11.525  15.658  68.850  1.00  0.00    -0.361 C  
HETATM   38  H1  UNL     1     -12.941  15.830  71.132  1.00  0.00     0.000 HD 
HETATM   39  H2  UNL     1     -13.510  14.240  71.206  1.00  0.00     0.000 HD 
HETATM   40  O   UNL     1     -12.641  16.045  68.032  1.00  0.00     0.431 OA 
HETATM   41  C   UNL     1     -10.357  15.136  67.988  1.00  0.00    -0.240 C  
HETATM   42  H   UNL     1     -12.360  16.725  67.431  1.00  0.00     0.000 HD 
HETATM   43  C   UNL     1      -9.984  16.132  66.894  1.00  0.00    -0.258 C  
HETATM   44  O   UNL     1     -10.667  13.899  67.336  1.00  0.00    -0.268 OA 
ENDBRANCH  32  33
ENDBRANCH  27  32
ENDBRANCH   2   3
TORSDOF 4
ENDMDL
MODEL      109
REMARK 921   NORMALIZED FREE ENERGY PREDICTED BY IDOCK:   -2.39 KCAL/MOL
REMARK 922        TOTAL FREE ENERGY PREDICTED BY IDOCK:   -3.54 KCAL/MOL
REMARK 923 INTER-LIGAND FREE ENERGY PREDICTED BY IDOCK:   -3.93 KCAL/MOL
REMARK 924 INTRA-LIGAND FREE ENERGY PREDICTED BY IDOCK:    0.38 KCAL/MOL
REMARK 927      BINDING AFFINITY PREDICTED BY RF-SCORE:    0.00 PKD
ROOT
HETATM    1  C   UNL     1      -6.028  14.204  73.885  1.00  0.00     0.203 C  
HETATM    2  O   UNL     1      -5.139  13.779  72.856  1.00  0.00    -0.182 OA 
ENDROOT
BRANCH   2   3
HETATM    3  C   UNL     1      -5.381  14.259  71.594  1.00  0.00    -0.193 A  
HETATM    4  C   UNL     1      -5.252  15.624  71.289  1.00  0.00    -0.073 A  
HETATM    5  C   UNL     1      -5.493  16.093  70.001  1.00  0.00    -0.161 A  
HETATM    6  C   UNL     1      -5.869  15.200  69.009  1.00  0.00    -0.097 A  
HETATM    7  C   UNL     1      -6.028  13.836  69.302  1.00  0.00    -0.091 A  
HETATM    8  C   UNL     1      -5.804  13.357  70.593  1.00  0.00    -0.159 A  
HETATM    9  C   UNL     1      -6.024  11.909  70.852  1.00  0.00     0.253 C  
HETATM   10  O   UNL     1      -5.959  11.428  71.980  1.00  0.00     0.455 OA 
HETATM   11  C   UNL     1      -6.347  10.983  69.734  1.00  0.00    -0.124 A  
HETATM   12  C   UNL     1      -6.437   9.594  69.964  1.00  0.00    -0.067 A  
HETATM   13  O   UNL     1      -6.197   9.054  71.206  1.00  0.00    -0.054 OA 
HETATM   14  C   UNL     1      -6.762   8.687  68.935  1.00  0.00    -0.053 A  
HETATM   15  H   UNL     1      -6.258   8.118  71.361  1.00  0.00     0.000 HD 
HETATM   16  C   UNL     1      -7.020   9.195  67.640  1.00  0.00    -0.078 A  
HETATM   17  C   UNL     1      -6.879  10.580  67.408  1.00  0.00    -0.076 A  
HETATM   18  C   UNL     1      -7.406   8.267  66.497  1.00  0.00    -0.081 C  
HETATM   19  C   UNL     1      -7.834   6.868  66.953  1.00  0.00    -0.107 C  
HETATM   20  C   UNL     1      -6.559  11.478  68.449  1.00  0.00    -0.060 A  
HETATM   21  O   UNL     1      -7.051  11.080  66.145  1.00  0.00    -0.236 OA 
HETATM   22  O   UNL     1      -6.649  13.445  67.111  1.00  0.00    -0.195 OA 
HETATM   23  C   UNL     1      -6.434  12.938  68.205  1.00  0.00    -0.086 C  
HETATM   24  C   UNL     1      -6.794   6.359  67.953  1.00  0.00    -0.074 C  
HETATM   25  O   UNL     1      -9.154   6.946  67.499  1.00  0.00    -0.119 OA 
HETATM   26  H   UNL     1      -6.956  12.013  65.989  1.00  0.00     0.000 HD 
HETATM   27  C   UNL     1      -6.838   7.189  69.239  1.00  0.00    -0.057 C  
HETATM   28  H   UNL     1      -9.419   6.078  67.781  1.00  0.00     0.000 HD 
BRANCH  19  29
HETATM   29  C   UNL     1      -7.893   5.896  65.763  1.00  0.00    -0.103 C  
HETATM   30  O   UNL     1      -6.940   5.751  64.992  1.00  0.00    -0.056 OA 
HETATM   31  C   UNL     1      -9.130   5.038  65.627  1.00  0.00    -0.157 C  
ENDBRANCH  19  29
BRANCH  27  32
HETATM   32  O   UNL     1      -8.051   6.955  69.978  1.00  0.00    -0.120 OA 
BRANCH  32  33
HETATM   33  C   UNL     1      -8.620   8.092  70.638  1.00  0.00    -0.130 C  
HETATM   34  C   UNL     1     -10.060   8.407  70.237  1.00  0.00    -0.196 C  
HETATM   35  C   UNL     1     -11.001   7.318  70.755  1.00  0.00    -0.251 C  
HETATM   36  N   UNL     1     -12.395   7.632  70.381  1.00  0.00    -0.389 NA 
HETATM   37  C   UNL     1     -10.846   7.199  72.282  1.00  0.00    -0.232 C  
HETATM   38  H1  UNL     1     -13.023   6.906  70.727  1.00  0.00     0.000 HD 
HETATM   39  H2  UNL     1     -12.497   7.779  69.377  1.00  0.00     0.000 HD 
HETATM   40  O   UNL     1     -11.344   8.399  72.895  1.00  0.00    -0.278 OA 
HETATM   41  C   UNL     1      -9.362   6.968  72.635  1.00  0.00    -0.138 C  
HETATM   42  H   UNL     1     -11.248   8.326  73.837  1.00  0.00     0.000 HD 
HETATM   43  C   UNL     1      -9.135   7.012  74.143  1.00  0.00    -0.250 C  
HETATM   44  O   UNL     1      -8.501   7.954  72.054  1.00  0.00    -0.114 OA 
ENDBRANCH  32  33
ENDBRANCH  27  32
ENDBRANCH   2   3
TORSDOF 4
ENDMDL
MODEL      110
REMARK 921   NORMALIZED FREE ENERGY PREDICTED BY IDOCK:   -2.17 KCAL/MOL
REMARK 922        TOTAL FREE ENERGY PREDICTED BY IDOCK:   -3.27 KCAL/MOL
REMARK 923 INTER-LIGAND FREE ENERGY PREDICTED BY IDOCK:   -3.16 KCAL/MOL
REMARK 924 INTRA-LIGAND FREE ENERGY PREDICTED BY IDOCK:   -0.12 KCAL/MOL
REMARK 927      BINDING AFFINITY PREDICTED BY RF-SCORE:    0.00 PKD
ROOT
HETATM    1  C   UNL     1      -5.693  12.648  71.603  1.00  0.00     0.515 C  
HETATM    2  O   UNL     1      -5.271  12.286  70.291  1.00  0.00    -0.085 OA 
ENDROOT
BRANCH   2   3
HETATM    3  C   UNL     1      -6.110  12.619  69.259  1.00  0.00    -0.100 A  
HETATM    4  C   UNL     1      -6.407  13.958  68.954  1.00  0.00    -0.094 A  
HETATM    5  C   UNL     1      -7.254  14.279  67.898  1.00  0.00    -0.166 A  
HETATM    6  C   UNL     1      -7.814  13.261  67.140  1.00  0.00    -0.047 A  
HETATM    7  C   UNL     1      -7.550  11.917  67.447  1.00  0.00    -0.151 A  
HETATM    8  C   UNL     1      -6.714  11.583  68.512  1.00  0.00    -0.067 A  
HETATM    9  C   UNL     1      -6.500  10.142  68.811  1.00  0.00    -0.052 C  
HETATM   10  O   UNL     1      -5.873   9.763  69.798  1.00  0.00    -0.039 OA 
HETATM   11  C   UNL     1      -7.059   9.095  67.917  1.00  0.00    -0.079 A  
HETATM   12  C   UNL     1      -6.754   7.734  68.136  1.00  0.00    -0.067 A  
HETATM   13  O   UNL     1      -5.913   7.341  69.150  1.00  0.00    -0.025 OA 
HETATM   14  C   UNL     1      -7.281   6.711  67.322  1.00  0.00    -0.085 A  
HETATM   15  H   UNL     1      -5.707   6.425  69.298  1.00  0.00     0.000 HD 
HETATM   16  C   UNL     1      -8.155   7.066  66.267  1.00  0.00    -0.115 A  
HETATM   17  C   UNL     1      -8.415   8.432  66.025  1.00  0.00    -0.132 A  
HETATM   18  C   UNL     1      -8.779   6.003  65.376  1.00  0.00    -0.090 C  
HETATM   19  C   UNL     1      -8.678   4.582  65.942  1.00  0.00    -0.119 C  
HETATM   20  C   UNL     1      -7.884   9.446  66.851  1.00  0.00    -0.105 A  
HETATM   21  O   UNL     1      -9.196   8.798  64.962  1.00  0.00    -0.433 OA 
HETATM   22  O   UNL     1      -8.930  11.259  65.715  1.00  0.00    -0.205 OA 
HETATM   23  C   UNL     1      -8.179  10.882  66.606  1.00  0.00    -0.145 C  
HETATM   24  C   UNL     1      -7.236   4.359  66.400  1.00  0.00    -0.076 C  
HETATM   25  O   UNL     1      -9.635   4.437  66.995  1.00  0.00    -0.171 OA 
HETATM   26  H   UNL     1      -9.372   9.718  64.799  1.00  0.00     0.000 HD 
HETATM   27  C   UNL     1      -6.911   5.253  67.601  1.00  0.00    -0.060 C  
HETATM   28  H   UNL     1      -9.572   3.556  67.346  1.00  0.00     0.000 HD 
BRANCH  19  29
HETATM   29  C   UNL     1      -9.023   3.536  64.869  1.00  0.00    -0.131 C  
HETATM   30  O   UNL     1      -9.087   3.827  63.671  1.00  0.00    -0.104 OA 
HETATM   31  C   UNL     1      -9.182   2.103  65.322  1.00  0.00    -0.073 C  
ENDBRANCH  19  29
BRANCH  27  32
HETATM   32  O   UNL     1      -7.628   4.837  68.778  1.00  0.00    -0.067 OA 
BRANCH  32  33
HETATM   33  C   UNL     1      -6.946   5.003  70.026  1.00  0.00    -0.049 C  
HETATM   34  C   UNL     1      -7.831   5.477  71.178  1.00  0.00    -0.109 C  
HETATM   35  C   UNL     1      -8.815   4.374  71.574  1.00  0.00    -0.118 C  
HETATM   36  N   UNL     1      -9.659   4.827  72.699  1.00  0.00    -0.134 NA 
HETATM   37  C   UNL     1      -8.030   3.103  71.941  1.00  0.00    -0.058 C  
HETATM   38  H1  UNL     1     -10.315   4.092  72.962  1.00  0.00     0.000 HD 
HETATM   39  H2  UNL     1     -10.134   5.705  72.490  1.00  0.00     0.000 HD 
HETATM   40  O   UNL     1      -7.289   3.347  73.148  1.00  0.00    -0.052 OA 
HETATM   41  C   UNL     1      -7.091   2.720  70.779  1.00  0.00    -0.033 C  
HETATM   42  H   UNL     1      -6.804   2.562  73.375  1.00  0.00     0.000 HD 
HETATM   43  C   UNL     1      -6.170   1.566  71.164  1.00  0.00    -0.018 C  
HETATM   44  O   UNL     1      -6.249   3.806  70.374  1.00  0.00    -0.021 OA 
ENDBRANCH  32  33
ENDBRANCH  27  32
ENDBRANCH   2   3
TORSDOF 4
ENDMDL
MODEL      111
REMARK 921   NORMALIZED FREE ENERGY PREDICTED BY IDOCK:   -2.10 KCAL/MOL
REMARK 922        TOTAL FREE ENERGY PREDICTED BY IDOCK:   -3.19 KCAL/MOL
REMARK 923 INTER-LIGAND FREE ENERGY PREDICTED BY IDOCK:   -5.74 KCAL/MOL
REMARK 924 INTRA-LIGAND FREE ENERGY PREDICTED BY IDOCK:    2.55 KCAL/MOL
REMARK 927      BINDING AFFINITY PREDICTED BY RF-SCORE:    0.00 PKD
ROOT
HETATM    1  C   UNL     1      -9.272   5.502  69.895  1.00  0.00    -0.138 C  
HETATM    2  O   UNL     1      -9.019   6.857  69.533  1.00  0.00    -0.142 OA 
ENDROOT
BRANCH   2   3
HETATM    3  C   UNL     1      -7.866   7.420  70.017  1.00  0.00    -0.104 A  
HETATM    4  C   UNL     1      -6.902   6.655  70.695  1.00  0.00    -0.062 A  
HETATM    5  C   UNL     1      -5.734   7.241  71.172  1.00  0.00    -0.035 A  
HETATM    6  C   UNL     1      -5.522   8.598  70.978  1.00  0.00    -0.033 A  
HETATM    7  C   UNL     1      -6.487   9.382  70.326  1.00  0.00    -0.064 A  
HETATM    8  C   UNL     1      -7.669   8.810  69.857  1.00  0.00    -0.081 A  
HETATM    9  C   UNL     1      -8.669   9.697  69.206  1.00  0.00    -0.159 C  
HETATM   10  O   UNL     1      -9.780   9.296  68.868  1.00  0.00    -0.156 OA 
HETATM   11  C   UNL     1      -8.355  11.128  68.952  1.00  0.00    -0.101 A  
HETATM   12  C   UNL     1      -9.258  11.936  68.229  1.00  0.00    -0.187 A  
HETATM   13  O   UNL     1     -10.426  11.426  67.712  1.00  0.00    -0.177 OA 
HETATM   14  C   UNL     1      -9.006  13.302  67.985  1.00  0.00    -0.191 A  
HETATM   15  H   UNL     1     -11.034  11.970  67.225  1.00  0.00     0.000 HD 
HETATM   16  C   UNL     1      -7.818  13.874  68.499  1.00  0.00    -0.139 A  
HETATM   17  C   UNL     1      -6.898  13.047  69.178  1.00  0.00    -0.058 A  
HETATM   18  C   UNL     1      -7.508  15.350  68.295  1.00  0.00    -0.112 C  
HETATM   19  C   UNL     1      -8.714  16.180  67.842  1.00  0.00    -0.174 C  
HETATM   20  C   UNL     1      -7.166  11.682  69.420  1.00  0.00     0.038 A  
HETATM   21  O   UNL     1      -5.710  13.566  69.616  1.00  0.00    -0.092 OA 
HETATM   22  O   UNL     1      -5.163  11.251  70.632  1.00  0.00    -0.091 OA 
HETATM   23  C   UNL     1      -6.205  10.820  70.155  1.00  0.00    -0.136 C  
HETATM   24  C   UNL     1      -9.391  15.437  66.689  1.00  0.00    -0.288 C  
HETATM   25  O   UNL     1      -9.576  16.390  68.963  1.00  0.00    -0.249 OA 
HETATM   26  H   UNL     1      -5.091  13.009  70.074  1.00  0.00     0.000 HD 
HETATM   27  C   UNL     1     -10.016  14.130  67.188  1.00  0.00    -0.255 C  
HETATM   28  H   UNL     1     -10.324  16.904  68.682  1.00  0.00     0.000 HD 
BRANCH  19  29
HETATM   29  C   UNL     1      -8.272  17.566  67.344  1.00  0.00    -0.207 C  
HETATM   30  O   UNL     1      -8.488  18.592  67.995  1.00  0.00    -0.277 OA 
HETATM   31  C   UNL     1      -7.464  17.620  66.068  1.00  0.00    -0.282 C  
ENDBRANCH  19  29
BRANCH  27  32
HETATM   32  O   UNL     1     -11.148  14.379  68.042  1.00  0.00    -0.257 OA 
BRANCH  32  33
HETATM   33  C   UNL     1     -10.872  14.481  69.444  1.00  0.00    -0.226 C  
HETATM   34  C   UNL     1     -11.841  15.372  70.220  1.00  0.00    -0.368 C  
HETATM   35  C   UNL     1     -13.222  14.719  70.282  1.00  0.00     0.079 C  
HETATM   36  N   UNL     1     -14.153  15.573  71.048  1.00  0.00    -0.831 NA 
HETATM   37  C   UNL     1     -13.095  13.323  70.918  1.00  0.00    -0.004 C  
HETATM   38  H1  UNL     1     -15.075  15.138  71.089  1.00  0.00     0.000 HD 
HETATM   39  H2  UNL     1     -14.196  16.522  70.674  1.00  0.00     0.000 HD 
HETATM   40  O   UNL     1     -12.727  13.473  72.299  1.00  0.00    -0.200 OA 
HETATM   41  C   UNL     1     -12.044  12.498  70.148  1.00  0.00    -0.292 C  
HETATM   42  H   UNL     1     -12.649  12.612  72.691  1.00  0.00     0.000 HD 
HETATM   43  C   UNL     1     -11.760  11.169  70.843  1.00  0.00    -0.093 C  
HETATM   44  O   UNL     1     -10.790  13.181  70.029  1.00  0.00     0.401 OA 
ENDBRANCH  32  33
ENDBRANCH  27  32
ENDBRANCH   2   3
TORSDOF 4
ENDMDL
MODEL      112
REMARK 921   NORMALIZED FREE ENERGY PREDICTED BY IDOCK:   -1.93 KCAL/MOL
REMARK 922        TOTAL FREE ENERGY PREDICTED BY IDOCK:   -2.97 KCAL/MOL
REMARK 923 INTER-LIGAND FREE ENERGY PREDICTED BY IDOCK:   -3.79 KCAL/MOL
REMARK 924 INTRA-LIGAND FREE ENERGY PREDICTED BY IDOCK:    0.82 KCAL/MOL
REMARK 927      BINDING AFFINITY PREDICTED BY RF-SCORE:    0.00 PKD
ROOT
HETATM    1  C   UNL     1      -9.739  15.062  64.272  1.00  0.00     2.853 C  
HETATM    2  O   UNL     1     -10.827  15.953  64.507  1.00  0.00    -0.532 OA 
ENDROOT
BRANCH   2   3
HETATM    3  C   UNL     1     -10.888  16.540  65.745  1.00  0.00    -0.134 A  
HETATM    4  C   UNL     1     -10.779  17.932  65.905  1.00  0.00    -0.116 A  
HETATM    5  C   UNL     1     -10.852  18.511  67.168  1.00  0.00    -0.304 A  
HETATM    6  C   UNL     1     -11.031  17.703  68.281  1.00  0.00    -0.053 A  
HETATM    7  C   UNL     1     -11.115  16.309  68.141  1.00  0.00    -0.329 A  
HETATM    8  C   UNL     1     -11.028  15.714  66.882  1.00  0.00    -0.243 A  
HETATM    9  C   UNL     1     -11.088  14.231  66.801  1.00  0.00    -0.314 C  
HETATM   10  O   UNL     1     -10.907  13.625  65.748  1.00  0.00    -0.270 OA 
HETATM   11  C   UNL     1     -11.363  13.419  68.015  1.00  0.00    -0.320 A  
HETATM   12  C   UNL     1     -11.538  12.022  67.913  1.00  0.00    -0.337 A  
HETATM   13  O   UNL     1     -11.495  11.379  66.698  1.00  0.00    -0.408 OA 
HETATM   14  C   UNL     1     -11.779  11.216  69.044  1.00  0.00    -0.408 A  
HETATM   15  H   UNL     1     -11.612  10.439  66.629  1.00  0.00     0.000 HD 
HETATM   16  C   UNL     1     -11.829  11.832  70.317  1.00  0.00    -0.382 A  
HETATM   17  C   UNL     1     -11.703  13.235  70.404  1.00  0.00    -0.083 A  
HETATM   18  C   UNL     1     -12.055  11.008  71.577  1.00  0.00    -0.046 C  
HETATM   19  C   UNL     1     -11.850   9.503  71.378  1.00  0.00    -0.389 C  
HETATM   20  C   UNL     1     -11.456  14.029  69.264  1.00  0.00    -0.344 A  
HETATM   21  O   UNL     1     -11.824  13.855  71.618  1.00  0.00    -0.259 OA 
HETATM   22  O   UNL     1     -11.328  16.100  70.432  1.00  0.00    -0.359 OA 
HETATM   23  C   UNL     1     -11.301  15.504  69.363  1.00  0.00    -0.316 C  
HETATM   24  C   UNL     1     -12.611   9.085  70.118  1.00  0.00     0.885 C  
HETATM   25  O   UNL     1     -10.447   9.235  71.306  1.00  0.00    -0.299 OA 
HETATM   26  H   UNL     1     -11.739  14.800  71.677  1.00  0.00     0.000 HD 
HETATM   27  C   UNL     1     -11.968   9.708  68.874  1.00  0.00     1.038 C  
HETATM   28  H   UNL     1     -10.319   8.301  71.183  1.00  0.00     0.000 HD 
BRANCH  19  29
HETATM   29  C   UNL     1     -12.402   8.710  72.574  1.00  0.00    -0.309 C  
HETATM   30  O   UNL     1     -13.538   8.902  73.016  1.00  0.00    -0.283 OA 
HETATM   31  C   UNL     1     -11.537   7.602  73.131  1.00  0.00    -0.012 C  
ENDBRANCH  19  29
BRANCH  27  32
HETATM   32  O   UNL     1     -10.677   9.133  68.604  1.00  0.00    -0.197 OA 
BRANCH  32  33
HETATM   33  C   UNL     1     -10.627   8.148  67.564  1.00  0.00    -0.221 C  
HETATM   34  C   UNL     1      -9.415   8.257  66.641  1.00  0.00    -0.271 C  
HETATM   35  C   UNL     1      -8.140   7.886  67.399  1.00  0.00    -0.123 C  
HETATM   36  N   UNL     1      -6.971   7.975  66.501  1.00  0.00    -0.070 NA 
HETATM   37  C   UNL     1      -8.290   6.469  67.981  1.00  0.00    -0.116 C  
HETATM   38  H1  UNL     1      -6.120   7.728  67.007  1.00  0.00     0.000 HD 
HETATM   39  H2  UNL     1      -6.898   8.892  66.058  1.00  0.00     0.000 HD 
HETATM   40  O   UNL     1      -8.329   5.524  66.898  1.00  0.00    -0.108 OA 
HETATM   41  C   UNL     1      -9.574   6.393  68.833  1.00  0.00    -0.126 C  
HETATM   42  H   UNL     1      -8.422   4.650  67.257  1.00  0.00     0.000 HD 
HETATM   43  C   UNL     1      -9.854   4.964  69.290  1.00  0.00    -0.272 C  
HETATM   44  O   UNL     1     -10.733   6.836  68.118  1.00  0.00    -0.212 OA 
ENDBRANCH  32  33
ENDBRANCH  27  32
ENDBRANCH   2   3
TORSDOF 4
ENDMDL
MODEL      113
REMARK 921   NORMALIZED FREE ENERGY PREDICTED BY IDOCK:   -1.86 KCAL/MOL
REMARK 922        TOTAL FREE ENERGY PREDICTED BY IDOCK:   -2.89 KCAL/MOL
REMARK 923 INTER-LIGAND FREE ENERGY PREDICTED BY IDOCK:   -2.13 KCAL/MOL
REMARK 924 INTRA-LIGAND FREE ENERGY PREDICTED BY IDOCK:   -0.76 KCAL/MOL
REMARK 927      BINDING AFFINITY PREDICTED BY RF-SCORE:    0.00 PKD
ROOT
HETATM    1  C   UNL     1      -6.256  14.921  73.822  1.00  0.00     1.456 C  
HETATM    2  O   UNL     1      -5.229  14.499  72.929  1.00  0.00    -0.223 OA 
ENDROOT
BRANCH   2   3
HETATM    3  C   UNL     1      -5.321  14.934  71.632  1.00  0.00    -0.050 A  
HETATM    4  C   UNL     1      -5.258  16.300  71.308  1.00  0.00    -0.035 A  
HETATM    5  C   UNL     1      -5.344  16.724  69.986  1.00  0.00    -0.194 A  
HETATM    6  C   UNL     1      -5.498  15.785  68.976  1.00  0.00    -0.104 A  
HETATM    7  C   UNL     1      -5.590  14.418  69.284  1.00  0.00    -0.088 A  
HETATM    8  C   UNL     1      -5.520  13.982  70.607  1.00  0.00    -0.145 A  
HETATM    9  C   UNL     1      -5.659  12.526  70.875  1.00  0.00    -0.124 C  
HETATM   10  O   UNL     1      -5.722  12.072  72.014  1.00  0.00     0.022 OA 
HETATM   11  C   UNL     1      -5.740  11.557  69.750  1.00  0.00    -0.092 A  
HETATM   12  C   UNL     1      -5.752  10.169  70.006  1.00  0.00    -0.049 A  
HETATM   13  O   UNL     1      -5.654   9.673  71.285  1.00  0.00    -0.064 OA 
HETATM   14  C   UNL     1      -5.848   9.220  68.968  1.00  0.00    -0.039 A  
HETATM   15  H   UNL     1      -5.662   8.739  71.457  1.00  0.00     0.000 HD 
HETATM   16  C   UNL     1      -5.954   9.682  67.635  1.00  0.00    -0.051 A  
HETATM   17  C   UNL     1      -5.892  11.070  67.385  1.00  0.00    -0.049 A  
HETATM   18  C   UNL     1      -6.093   8.705  66.476  1.00  0.00    -0.057 C  
HETATM   19  C   UNL     1      -6.471   7.284  66.907  1.00  0.00    -0.055 C  
HETATM   20  C   UNL     1      -5.800  12.009  68.434  1.00  0.00    -0.049 A  
HETATM   21  O   UNL     1      -5.916  11.531  66.096  1.00  0.00    -0.386 OA 
HETATM   22  O   UNL     1      -5.850  13.939  67.039  1.00  0.00     0.020 OA 
HETATM   23  C   UNL     1      -5.757  13.470  68.167  1.00  0.00    -0.114 C  
HETATM   24  C   UNL     1      -5.551   6.880  68.061  1.00  0.00    -0.020 C  
HETATM   25  O   UNL     1      -7.858   7.261  67.253  1.00  0.00    -0.107 OA 
HETATM   26  H   UNL     1      -5.874  12.465  65.928  1.00  0.00     0.000 HD 
HETATM   27  C   UNL     1      -5.849   7.727  69.303  1.00  0.00    -0.030 C  
HETATM   28  H   UNL     1      -8.092   6.379  67.520  1.00  0.00     0.000 HD 
BRANCH  19  29
HETATM   29  C   UNL     1      -6.276   6.289  65.750  1.00  0.00    -0.037 C  
HETATM   30  O   UNL     1      -5.222   6.230  65.110  1.00  0.00    -0.013 OA 
HETATM   31  C   UNL     1      -7.393   5.304  65.486  1.00  0.00    -0.069 C  
ENDBRANCH  19  29
BRANCH  27  32
HETATM   32  O   UNL     1      -7.134   7.406  69.865  1.00  0.00    -0.062 OA 
BRANCH  32  33
HETATM   33  C   UNL     1      -7.444   6.011  69.979  1.00  0.00    -0.083 C  
HETATM   34  C   UNL     1      -7.503   5.487  71.414  1.00  0.00    -0.098 C  
HETATM   35  C   UNL     1      -8.713   6.075  72.140  1.00  0.00    -0.132 C  
HETATM   36  N   UNL     1      -8.779   5.554  73.521  1.00  0.00    -0.118 NA 
HETATM   37  C   UNL     1      -9.991   5.732  71.353  1.00  0.00    -0.185 C  
HETATM   38  H1  UNL     1      -9.586   5.945  74.005  1.00  0.00     0.000 HD 
HETATM   39  H2  UNL     1      -7.911   5.717  74.031  1.00  0.00     0.000 HD 
HETATM   40  O   UNL     1     -10.211   4.313  71.418  1.00  0.00    -0.152 OA 
HETATM   41  C   UNL     1      -9.843   6.207  69.893  1.00  0.00    -0.168 C  
HETATM   42  H   UNL     1     -11.000   4.102  70.933  1.00  0.00     0.000 HD 
HETATM   43  C   UNL     1     -11.014   5.739  69.034  1.00  0.00    -0.280 C  
HETATM   44  O   UNL     1      -8.649   5.712  69.275  1.00  0.00    -0.105 OA 
ENDBRANCH  32  33
ENDBRANCH  27  32
ENDBRANCH   2   3
TORSDOF 4
ENDMDL
MODEL      114
REMARK 921   NORMALIZED FREE ENERGY PREDICTED BY IDOCK:   -1.71 KCAL/MOL
REMARK 922        TOTAL FREE ENERGY PREDICTED BY IDOCK:   -2.71 KCAL/MOL
REMARK 923 INTER-LIGAND FREE ENERGY PREDICTED BY IDOCK:   -5.50 KCAL/MOL
REMARK 924 INTRA-LIGAND FREE ENERGY PREDICTED BY IDOCK:    2.79 KCAL/MOL
REMARK 927      BINDING AFFINITY PREDICTED BY RF-SCORE:    0.00 PKD
ROOT
HETATM    1  C   UNL     1      -5.338  13.619  72.491  1.00  0.00    -0.086 C  
HETATM    2  O   UNL     1      -5.325  12.602  71.492  1.00  0.00    -0.327 OA 
ENDROOT
BRANCH   2   3
HETATM    3  C   UNL     1      -6.004  12.869  70.330  1.00  0.00    -0.126 A  
HETATM    4  C   UNL     1      -6.138  14.180  69.841  1.00  0.00    -0.140 A  
HETATM    5  C   UNL     1      -6.823  14.432  68.657  1.00  0.00    -0.096 A  
HETATM    6  C   UNL     1      -7.382  13.375  67.953  1.00  0.00    -0.140 A  
HETATM    7  C   UNL     1      -7.279  12.063  68.440  1.00  0.00    -0.092 A  
HETATM    8  C   UNL     1      -6.609  11.799  69.635  1.00  0.00    -0.081 A  
HETATM    9  C   UNL     1      -6.564  10.394  70.119  1.00  0.00    -0.146 C  
HETATM   10  O   UNL     1      -6.095  10.092  71.213  1.00  0.00    -0.284 OA 
HETATM   11  C   UNL     1      -7.109   9.291  69.284  1.00  0.00    -0.057 A  
HETATM   12  C   UNL     1      -6.958   7.948  69.693  1.00  0.00    -0.053 A  
HETATM   13  O   UNL     1      -6.281   7.619  70.844  1.00  0.00    -0.035 OA 
HETATM   14  C   UNL     1      -7.478   6.876  68.939  1.00  0.00    -0.096 A  
HETATM   15  H   UNL     1      -6.179   6.715  71.119  1.00  0.00     0.000 HD 
HETATM   16  C   UNL     1      -8.186   7.165  67.749  1.00  0.00    -0.115 A  
HETATM   17  C   UNL     1      -8.289   8.507  67.323  1.00  0.00    -0.115 A  
HETATM   18  C   UNL     1      -8.797   6.051  66.911  1.00  0.00    -0.116 C  
HETATM   19  C   UNL     1      -8.894   4.708  67.642  1.00  0.00    -0.106 C  
HETATM   20  C   UNL     1      -7.768   9.571  68.090  1.00  0.00    -0.083 A  
HETATM   21  O   UNL     1      -8.904   8.798  66.135  1.00  0.00    -0.147 OA 
HETATM   22  O   UNL     1      -8.503  11.305  66.633  1.00  0.00    -0.158 OA 
HETATM   23  C   UNL     1      -7.898  10.984  67.649  1.00  0.00    -0.114 C  
HETATM   24  C   UNL     1      -7.541   4.432  68.302  1.00  0.00    -0.068 C  
HETATM   25  O   UNL     1      -9.977   4.768  68.575  1.00  0.00    -0.148 OA 
HETATM   26  H   UNL     1      -8.974   9.702  65.848  1.00  0.00     0.000 HD 
HETATM   27  C   UNL     1      -7.279   5.439  69.426  1.00  0.00    -0.065 C  
HETATM   28  H   UNL     1     -10.036   3.935  69.028  1.00  0.00     0.000 HD 
BRANCH  19  29
HETATM   29  C   UNL     1      -9.206   3.568  66.659  1.00  0.00    -0.177 C  
HETATM   30  O   UNL     1      -9.234   2.387  67.017  1.00  0.00    -0.142 OA 
HETATM   31  C   UNL     1      -9.583   3.953  65.246  1.00  0.00    -0.185 C  
ENDBRANCH  19  29
BRANCH  27  32
HETATM   32  O   UNL     1      -8.164   5.229  70.541  1.00  0.00    -0.103 OA 
BRANCH  32  33
HETATM   33  C   UNL     1      -9.520   5.652  70.362  1.00  0.00    -0.166 C  
HETATM   34  C   UNL     1     -10.558   4.786  71.073  1.00  0.00    -0.016 C  
HETATM   35  C   UNL     1     -10.439   4.959  72.588  1.00  0.00    -0.206 C  
HETATM   36  N   UNL     1     -11.454   4.134  73.274  1.00  0.00    -0.181 NA 
HETATM   37  C   UNL     1     -10.598   6.448  72.942  1.00  0.00    -0.235 C  
HETATM   38  H1  UNL     1     -11.375   4.249  74.285  1.00  0.00     0.000 HD 
HETATM   39  H2  UNL     1     -11.401   3.154  72.997  1.00  0.00     0.000 HD 
HETATM   40  O   UNL     1     -11.948   6.852  72.659  1.00  0.00    -0.491 OA 
HETATM   41  C   UNL     1      -9.586   7.284  72.132  1.00  0.00    -0.138 C  
HETATM   42  H   UNL     1     -12.046   7.771  72.877  1.00  0.00     0.000 HD 
HETATM   43  C   UNL     1      -9.819   8.779  72.323  1.00  0.00    -0.295 C  
HETATM   44  O   UNL     1      -9.663   7.026  70.725  1.00  0.00    -0.169 OA 
ENDBRANCH  32  33
ENDBRANCH  27  32
ENDBRANCH   2   3
TORSDOF 4
ENDMDL
MODEL      115
REMARK 921   NORMALIZED FREE ENERGY PREDICTED BY IDOCK:   -1.49 KCAL/MOL
REMARK 922        TOTAL FREE ENERGY PREDICTED BY IDOCK:   -2.43 KCAL/MOL
REMARK 923 INTER-LIGAND FREE ENERGY PREDICTED BY IDOCK:   -3.40 KCAL/MOL
REMARK 924 INTRA-LIGAND FREE ENERGY PREDICTED BY IDOCK:    0.97 KCAL/MOL
REMARK 927      BINDING AFFINITY PREDICTED BY RF-SCORE:    0.00 PKD
ROOT
HETATM    1  C   UNL     1      -7.333   2.826  73.494  1.00  0.00    -0.045 C  
HETATM    2  O   UNL     1      -7.722   3.718  72.452  1.00  0.00    -0.064 OA 
ENDROOT
BRANCH   2   3
HETATM    3  C   UNL     1      -7.697   5.057  72.745  1.00  0.00    -0.097 A  
HETATM    4  C   UNL     1      -7.680   5.521  74.071  1.00  0.00    -0.100 A  
HETATM    5  C   UNL     1      -7.646   6.883  74.350  1.00  0.00    -0.124 A  
HETATM    6  C   UNL     1      -7.633   7.794  73.304  1.00  0.00    -0.149 A  
HETATM    7  C   UNL     1      -7.676   7.349  71.973  1.00  0.00    -0.090 A  
HETATM    8  C   UNL     1      -7.726   5.986  71.681  1.00  0.00    -0.101 A  
HETATM    9  C   UNL     1      -7.807   5.577  70.254  1.00  0.00    -0.093 C  
HETATM   10  O   UNL     1      -7.967   4.407  69.916  1.00  0.00    -0.056 OA 
HETATM   11  C   UNL     1      -7.707   6.591  69.171  1.00  0.00    -0.102 A  
HETATM   12  C   UNL     1      -7.664   6.187  67.820  1.00  0.00    -0.098 A  
HETATM   13  O   UNL     1      -7.678   4.858  67.465  1.00  0.00    -0.089 OA 
HETATM   14  C   UNL     1      -7.590   7.119  66.765  1.00  0.00    -0.093 A  
HETATM   15  H   UNL     1      -7.649   4.586  66.556  1.00  0.00     0.000 HD 
HETATM   16  C   UNL     1      -7.577   8.499  67.079  1.00  0.00    -0.092 A  
HETATM   17  C   UNL     1      -7.570   8.892  68.434  1.00  0.00    -0.091 A  
HETATM   18  C   UNL     1      -7.530   9.552  65.981  1.00  0.00    -0.100 C  
HETATM   19  C   UNL     1      -7.867   9.009  64.588  1.00  0.00    -0.121 C  
HETATM   20  C   UNL     1      -7.649   7.948  69.481  1.00  0.00    -0.099 A  
HETATM   21  O   UNL     1      -7.480  10.219  68.758  1.00  0.00    -0.080 OA 
HETATM   22  O   UNL     1      -7.660   9.543  71.248  1.00  0.00    -0.327 OA 
HETATM   23  C   UNL     1      -7.664   8.367  70.906  1.00  0.00    -0.088 C  
HETATM   24  C   UNL     1      -7.058   7.729  64.371  1.00  0.00    -0.070 C  
HETATM   25  O   UNL     1      -9.280   8.806  64.503  1.00  0.00    -0.394 OA 
HETATM   26  H   UNL     1      -7.475  10.484  69.671  1.00  0.00     0.000 HD 
HETATM   27  C   UNL     1      -7.539   6.625  65.318  1.00  0.00    -0.088 C  
HETATM   28  H   UNL     1      -9.490   8.469  63.639  1.00  0.00     0.000 HD 
BRANCH  19  29
HETATM   29  C   UNL     1      -7.489  10.024  63.496  1.00  0.00    -0.140 C  
HETATM   30  O   UNL     1      -8.338  10.543  62.766  1.00  0.00    -0.162 OA 
HETATM   31  C   UNL     1      -6.040  10.448  63.414  1.00  0.00    -0.114 C  
ENDBRANCH  19  29
BRANCH  27  32
HETATM   32  O   UNL     1      -8.857   6.166  64.965  1.00  0.00    -0.011 OA 
BRANCH  32  33
HETATM   33  C   UNL     1      -9.283   4.940  65.573  1.00  0.00    -0.157 C  
HETATM   34  C   UNL     1     -10.642   4.430  65.094  1.00  0.00    -0.166 C  
HETATM   35  C   UNL     1     -10.547   3.970  63.639  1.00  0.00    -0.120 C  
HETATM   36  N   UNL     1     -11.857   3.461  63.182  1.00  0.00     0.878 NA 
HETATM   37  C   UNL     1      -9.457   2.891  63.518  1.00  0.00    -0.099 C  
HETATM   38  H1  UNL     1     -11.794   3.154  62.212  1.00  0.00     0.000 HD 
HETATM   39  H2  UNL     1     -12.601   4.145  63.319  1.00  0.00     0.000 HD 
HETATM   40  O   UNL     1      -9.888   1.713  64.221  1.00  0.00    -0.221 OA 
HETATM   41  C   UNL     1      -8.131   3.428  64.094  1.00  0.00    -0.086 C  
HETATM   42  H   UNL     1      -9.215   1.047  64.146  1.00  0.00     0.000 HD 
HETATM   43  C   UNL     1      -7.065   2.338  64.152  1.00  0.00    -0.048 C  
HETATM   44  O   UNL     1      -8.278   3.937  65.426  1.00  0.00    -0.100 OA 
ENDBRANCH  32  33
ENDBRANCH  27  32
ENDBRANCH   2   3
TORSDOF 4
ENDMDL
MODEL      116
REMARK 921   NORMALIZED FREE ENERGY PREDICTED BY IDOCK:   -1.33 KCAL/MOL
REMARK 922        TOTAL FREE ENERGY PREDICTED BY IDOCK:   -2.23 KCAL/MOL
REMARK 923 INTER-LIGAND FREE ENERGY PREDICTED BY IDOCK:   -3.84 KCAL/MOL
REMARK 924 INTRA-LIGAND FREE ENERGY PREDICTED BY IDOCK:    1.60 KCAL/MOL
REMARK 927      BINDING AFFINITY PREDICTED BY RF-SCORE:    0.00 PKD
ROOT
HETATM    1  C   UNL     1      -8.524  11.343  63.310  1.00  0.00     0.383 C  
HETATM    2  O   UNL     1      -9.945  11.409  63.221  1.00  0.00    -0.342 OA 
ENDROOT
BRANCH   2   3
HETATM    3  C   UNL     1     -10.585  12.202  64.139  1.00  0.00    -0.365 A  
HETATM    4  C   UNL     1     -10.933  13.532  63.848  1.00  0.00    -0.019 A  
HETATM    5  C   UNL     1     -11.589  14.319  64.789  1.00  0.00    -0.404 A  
HETATM    6  C   UNL     1     -11.900  13.784  66.030  1.00  0.00    -0.415 A  
HETATM    7  C   UNL     1     -11.537  12.465  66.347  1.00  0.00    -0.442 A  
HETATM    8  C   UNL     1     -10.865  11.671  65.418  1.00  0.00    -0.336 A  
HETATM    9  C   UNL     1     -10.474  10.295  65.824  1.00  0.00    -0.089 C  
HETATM   10  O   UNL     1      -9.783   9.572  65.110  1.00  0.00    -0.277 OA 
HETATM   11  C   UNL     1     -10.904   9.744  67.136  1.00  0.00    -0.207 A  
HETATM   12  C   UNL     1     -10.633   8.399  67.467  1.00  0.00    -0.215 A  
HETATM   13  O   UNL     1     -10.002   7.554  66.584  1.00  0.00    -0.286 OA 
HETATM   14  C   UNL     1     -11.007   7.847  68.709  1.00  0.00     0.127 A  
HETATM   15  H   UNL     1      -9.821   6.649  66.806  1.00  0.00     0.000 HD 
HETATM   16  C   UNL     1     -11.656   8.677  69.653  1.00  0.00     0.459 A  
HETATM   17  C   UNL     1     -11.967  10.007  69.294  1.00  0.00     0.280 A  
HETATM   18  C   UNL     1     -12.055   8.145  71.022  1.00  0.00    -0.223 C  
HETATM   19  C   UNL     1     -11.380   6.820  71.391  1.00  0.00    -0.279 C  
HETATM   20  C   UNL     1     -11.583  10.549  68.049  1.00  0.00    -0.107 A  
HETATM   21  O   UNL     1     -12.662  10.802  70.165  1.00  0.00    -0.349 OA 
HETATM   22  O   UNL     1     -12.445  12.730  68.455  1.00  0.00     0.130 OA 
HETATM   23  C   UNL     1     -11.892  11.956  67.685  1.00  0.00    -0.195 C  
HETATM   24  C   UNL     1     -11.519   5.871  70.199  1.00  0.00    -0.072 C  
HETATM   25  O   UNL     1     -10.021   7.080  71.752  1.00  0.00    -0.177 OA 
HETATM   26  H   UNL     1     -12.871  11.697  69.924  1.00  0.00     0.000 HD 
HETATM   27  C   UNL     1     -10.695   6.380  69.012  1.00  0.00    -0.286 C  
HETATM   28  H   UNL     1      -9.602   6.258  71.981  1.00  0.00     0.000 HD 
BRANCH  19  29
HETATM   29  C   UNL     1     -12.058   6.180  72.614  1.00  0.00     0.042 C  
HETATM   30  O   UNL     1     -13.226   6.436  72.921  1.00  0.00     0.895 OA 
HETATM   31  C   UNL     1     -11.273   5.136  73.376  1.00  0.00    -0.358 C  
ENDBRANCH  19  29
BRANCH  27  32
HETATM   32  O   UNL     1      -9.283   6.277  69.267  1.00  0.00    -0.133 OA 
BRANCH  32  33
HETATM   33  C   UNL     1      -8.489   7.412  68.900  1.00  0.00    -0.129 C  
HETATM   34  C   UNL     1      -8.082   8.310  70.068  1.00  0.00    -0.116 C  
HETATM   35  C   UNL     1      -7.082   7.583  70.967  1.00  0.00    -0.058 C  
HETATM   36  N   UNL     1      -6.676   8.458  72.086  1.00  0.00    -0.081 NA 
HETATM   37  C   UNL     1      -5.866   7.151  70.127  1.00  0.00    -0.024 C  
HETATM   38  H1  UNL     1      -6.009   7.973  72.686  1.00  0.00     0.000 HD 
HETATM   39  H2  UNL     1      -7.480   8.803  72.611  1.00  0.00     0.000 HD 
HETATM   40  O   UNL     1      -5.153   8.325  69.704  1.00  0.00    -0.028 OA 
HETATM   41  C   UNL     1      -6.341   6.322  68.917  1.00  0.00    -0.041 C  
HETATM   42  H   UNL     1      -4.403   8.059  69.186  1.00  0.00     0.000 HD 
HETATM   43  C   UNL     1      -5.189   6.015  67.965  1.00  0.00    -0.004 C  
HETATM   44  O   UNL     1      -7.346   6.996  68.151  1.00  0.00    -0.091 OA 
ENDBRANCH  32  33
ENDBRANCH  27  32
ENDBRANCH   2   3
TORSDOF 4
ENDMDL
MODEL      117
REMARK 921   NORMALIZED FREE ENERGY PREDICTED BY IDOCK:   -1.11 KCAL/MOL
REMARK 922        TOTAL FREE ENERGY PREDICTED BY IDOCK:   -1.97 KCAL/MOL
REMARK 923 INTER-LIGAND FREE ENERGY PREDICTED BY IDOCK:   -1.12 KCAL/MOL
REMARK 924 INTRA-LIGAND FREE ENERGY PREDICTED BY IDOCK:   -0.85 KCAL/MOL
REMARK 927      BINDING AFFINITY PREDICTED BY RF-SCORE:    0.00 PKD
ROOT
HETATM    1  C   UNL     1      -8.142  16.601  69.402  1.00  0.00     0.103 C  
HETATM    2  O   UNL     1      -7.327  15.476  69.086  1.00  0.00    -0.147 OA 
ENDROOT
BRANCH   2   3
HETATM    3  C   UNL     1      -6.615  14.920  70.119  1.00  0.00    -0.139 A  
HETATM    4  C   UNL     1      -5.908  15.714  71.037  1.00  0.00     0.266 A  
HETATM    5  C   UNL     1      -5.199  15.135  72.083  1.00  0.00    -0.001 A  
HETATM    6  C   UNL     1      -5.187  13.754  72.218  1.00  0.00    -0.189 A  
HETATM    7  C   UNL     1      -5.865  12.943  71.294  1.00  0.00     0.275 A  
HETATM    8  C   UNL     1      -6.568  13.512  70.232  1.00  0.00     0.234 A  
HETATM    9  C   UNL     1      -7.237  12.602  69.265  1.00  0.00     0.162 C  
HETATM   10  O   UNL     1      -7.779  13.015  68.243  1.00  0.00    -0.125 OA 
HETATM   11  C   UNL     1      -7.261  11.135  69.503  1.00  0.00    -0.058 A  
HETATM   12  C   UNL     1      -7.997  10.287  68.648  1.00  0.00    -0.111 A  
HETATM   13  O   UNL     1      -8.736  10.787  67.602  1.00  0.00    -0.125 OA 
HETATM   14  C   UNL     1      -8.028   8.889  68.829  1.00  0.00    -0.102 A  
HETATM   15  H   UNL     1      -9.233  10.217  67.027  1.00  0.00     0.000 HD 
HETATM   16  C   UNL     1      -7.280   8.327  69.891  1.00  0.00    -0.059 A  
HETATM   17  C   UNL     1      -6.587   9.186  70.770  1.00  0.00    -0.074 A  
HETATM   18  C   UNL     1      -7.250   6.822  70.116  1.00  0.00    -0.076 C  
HETATM   19  C   UNL     1      -7.762   6.007  68.923  1.00  0.00    -0.092 C  
HETATM   20  C   UNL     1      -6.561  10.583  70.574  1.00  0.00    -0.038 A  
HETATM   21  O   UNL     1      -5.922   8.665  71.847  1.00  0.00    -0.048 OA 
HETATM   22  O   UNL     1      -5.140  11.063  72.423  1.00  0.00    -0.318 OA 
HETATM   23  C   UNL     1      -5.811  11.483  71.489  1.00  0.00     0.716 C  
HETATM   24  C   UNL     1      -9.085   6.623  68.464  1.00  0.00    -0.128 C  
HETATM   25  O   UNL     1      -6.758   5.999  67.905  1.00  0.00    -0.057 OA 
HETATM   26  H   UNL     1      -5.454   9.244  72.439  1.00  0.00     0.000 HD 
HETATM   27  C   UNL     1      -8.850   8.018  67.877  1.00  0.00    -0.130 C  
HETATM   28  H   UNL     1      -7.075   5.494  67.166  1.00  0.00     0.000 HD 
BRANCH  19  29
HETATM   29  C   UNL     1      -8.012   4.543  69.324  1.00  0.00    -0.069 C  
HETATM   30  O   UNL     1      -7.113   3.828  69.776  1.00  0.00    -0.041 OA 
HETATM   31  C   UNL     1      -9.433   4.034  69.244  1.00  0.00    -0.260 C  
ENDBRANCH  19  29
BRANCH  27  32
HETATM   32  O   UNL     1      -8.142   7.951  66.625  1.00  0.00    -0.103 OA 
BRANCH  32  33
HETATM   33  C   UNL     1      -8.949   7.848  65.446  1.00  0.00     0.105 C  
HETATM   34  C   UNL     1      -8.184   8.009  64.133  1.00  0.00    -0.060 C  
HETATM   35  C   UNL     1      -7.261   6.810  63.912  1.00  0.00    -0.068 C  
HETATM   36  N   UNL     1      -6.534   6.958  62.635  1.00  0.00    -0.046 NA 
HETATM   37  C   UNL     1      -8.095   5.517  63.933  1.00  0.00    -0.122 C  
HETATM   38  H1  UNL     1      -5.918   6.159  62.487  1.00  0.00     0.000 HD 
HETATM   39  H2  UNL     1      -6.029   7.843  62.583  1.00  0.00     0.000 HD 
HETATM   40  O   UNL     1      -8.955   5.500  62.782  1.00  0.00    -0.341 OA 
HETATM   41  C   UNL     1      -8.911   5.448  65.240  1.00  0.00    -0.098 C  
HETATM   42  H   UNL     1      -9.470   4.702  62.795  1.00  0.00     0.000 HD 
HETATM   43  C   UNL     1      -9.881   4.270  65.230  1.00  0.00    -0.214 C  
HETATM   44  O   UNL     1      -9.693   6.629  65.460  1.00  0.00     0.463 OA 
ENDBRANCH  32  33
ENDBRANCH  27  32
ENDBRANCH   2   3
TORSDOF 4
ENDMDL
MODEL      118
REMARK 921   NORMALIZED FREE ENERGY PREDICTED BY IDOCK:   -1.04 KCAL/MOL
REMARK 922        TOTAL FREE ENERGY PREDICTED BY IDOCK:   -1.88 KCAL/MOL
REMARK 923 INTER-LIGAND FREE ENERGY PREDICTED BY IDOCK:   -4.87 KCAL/MOL
REMARK 924 INTRA-LIGAND FREE ENERGY PREDICTED BY IDOCK:    2.99 KCAL/MOL
REMARK 927      BINDING AFFINITY PREDICTED BY RF-SCORE:    0.00 PKD
ROOT
HETATM    1  C   UNL     1     -10.308   7.220  67.118  1.00  0.00    -0.297 C  
HETATM    2  O   UNL     1      -9.111   6.454  67.013  1.00  0.00    -0.122 OA 
ENDROOT
BRANCH   2   3
HETATM    3  C   UNL     1      -8.308   6.407  68.123  1.00  0.00    -0.116 A  
HETATM    4  C   UNL     1      -7.980   5.190  68.744  1.00  0.00    -0.082 A  
HETATM    5  C   UNL     1      -7.157   5.159  69.865  1.00  0.00    -0.058 A  
HETATM    6  C   UNL     1      -6.657   6.348  70.377  1.00  0.00    -0.048 A  
HETATM    7  C   UNL     1      -6.996   7.575  69.786  1.00  0.00    -0.055 A  
HETATM    8  C   UNL     1      -7.833   7.620  68.671  1.00  0.00    -0.121 A  
HETATM    9  C   UNL     1      -8.185   8.951  68.110  1.00  0.00    -0.114 C  
HETATM   10  O   UNL     1      -9.003   9.085  67.203  1.00  0.00    -0.128 OA 
HETATM   11  C   UNL     1      -7.557  10.186  68.648  1.00  0.00    -0.086 A  
HETATM   12  C   UNL     1      -7.802  11.434  68.036  1.00  0.00    -0.121 A  
HETATM   13  O   UNL     1      -8.592  11.542  66.915  1.00  0.00    -0.151 OA 
HETATM   14  C   UNL     1      -7.241  12.630  68.529  1.00  0.00    -0.113 A  
HETATM   15  H   UNL     1      -8.757  12.382  66.503  1.00  0.00     0.000 HD 
HETATM   16  C   UNL     1      -6.424  12.570  69.682  1.00  0.00    -0.057 A  
HETATM   17  C   UNL     1      -6.144  11.312  70.258  1.00  0.00    -0.146 A  
HETATM   18  C   UNL     1      -5.816  13.832  70.278  1.00  0.00    -0.152 C  
HETATM   19  C   UNL     1      -6.454  15.128  69.764  1.00  0.00    -0.166 C  
HETATM   20  C   UNL     1      -6.716  10.123  69.757  1.00  0.00    -0.096 A  
HETATM   21  O   UNL     1      -5.294  11.227  71.327  1.00  0.00    -0.243 OA 
HETATM   22  O   UNL     1      -5.743   8.680  71.382  1.00  0.00    -0.035 OA 
HETATM   23  C   UNL     1      -6.437   8.804  70.380  1.00  0.00    -0.041 C  
HETATM   24  C   UNL     1      -6.539  15.040  68.239  1.00  0.00    -0.115 C  
HETATM   25  O   UNL     1      -7.727  15.295  70.393  1.00  0.00     0.049 OA 
HETATM   26  H   UNL     1      -5.105  10.380  71.715  1.00  0.00     0.000 HD 
HETATM   27  C   UNL     1      -7.535  13.954  67.821  1.00  0.00    -0.167 C  
HETATM   28  H   UNL     1      -8.122  16.099  70.075  1.00  0.00     0.000 HD 
BRANCH  19  29
HETATM   29  C   UNL     1      -5.598  16.348  70.142  1.00  0.00    -0.189 C  
HETATM   30  O   UNL     1      -5.132  17.108  69.288  1.00  0.00    -0.134 OA 
HETATM   31  C   UNL     1      -5.430  16.650  71.614  1.00  0.00     0.490 C  
ENDBRANCH  19  29
BRANCH  27  32
HETATM   32  O   UNL     1      -8.888  14.329  68.138  1.00  0.00    -0.169 OA 
BRANCH  32  33
HETATM   33  C   UNL     1      -9.572  15.120  67.159  1.00  0.00    -0.218 C  
HETATM   34  C   UNL     1     -10.560  16.134  67.736  1.00  0.00    -0.309 C  
HETATM   35  C   UNL     1      -9.806  17.242  68.473  1.00  0.00    -0.307 C  
HETATM   36  N   UNL     1     -10.761  18.230  69.016  1.00  0.00    -0.197 NA 
HETATM   37  C   UNL     1      -8.806  17.903  67.509  1.00  0.00    -0.248 C  
HETATM   38  H1  UNL     1     -10.259  18.969  69.507  1.00  0.00     0.000 HD 
HETATM   39  H2  UNL     1     -11.469  17.793  69.605  1.00  0.00     0.000 HD 
HETATM   40  O   UNL     1      -9.537  18.607  66.491  1.00  0.00    -0.315 OA 
HETATM   41  C   UNL     1      -7.892  16.825  66.891  1.00  0.00    -0.218 C  
HETATM   42  H   UNL     1      -8.920  19.016  65.896  1.00  0.00     0.000 HD 
HETATM   43  C   UNL     1      -6.997  17.410  65.803  1.00  0.00     0.029 C  
HETATM   44  O   UNL     1      -8.633  15.756  66.292  1.00  0.00    -0.305 OA 
ENDBRANCH  32  33
ENDBRANCH  27  32
ENDBRANCH   2   3
TORSDOF 4
ENDMDL
MODEL      119
REMARK 921   NORMALIZED FREE ENERGY PREDICTED BY IDOCK:   -0.55 KCAL/MOL
REMARK 922        TOTAL FREE ENERGY PREDICTED BY IDOCK:   -1.28 KCAL/MOL
REMARK 923 INTER-LIGAND FREE ENERGY PREDICTED BY IDOCK:   -2.46 KCAL/MOL
REMARK 924 INTRA-LIGAND FREE ENERGY PREDICTED BY IDOCK:    1.18 KCAL/MOL
REMARK 927      BINDING AFFINITY PREDICTED BY RF-SCORE:    0.00 PKD
ROOT
HETATM    1  C   UNL     1      -9.747   9.942  63.497  1.00  0.00     0.250 C  
HETATM    2  O   UNL     1      -8.568   9.154  63.364  1.00  0.00    -0.201 OA 
ENDROOT
BRANCH   2   3
HETATM    3  C   UNL     1      -8.192   8.417  64.458  1.00  0.00    -0.146 A  
HETATM    4  C   UNL     1      -8.201   7.012  64.437  1.00  0.00     0.025 A  
HETATM    5  C   UNL     1      -7.808   6.280  65.553  1.00  0.00    -0.101 A  
HETATM    6  C   UNL     1      -7.406   6.947  66.701  1.00  0.00    -0.077 A  
HETATM    7  C   UNL     1      -7.416   8.351  66.748  1.00  0.00    -0.083 A  
HETATM    8  C   UNL     1      -7.822   9.095  65.641  1.00  0.00    -0.095 A  
HETATM    9  C   UNL     1      -7.846  10.577  65.762  1.00  0.00    -0.154 C  
HETATM   10  O   UNL     1      -8.297  11.300  64.877  1.00  0.00     0.181 OA 
HETATM   11  C   UNL     1      -7.328  11.242  66.986  1.00  0.00    -0.136 A  
HETATM   12  C   UNL     1      -7.242  12.649  67.050  1.00  0.00     0.074 A  
HETATM   13  O   UNL     1      -7.597  13.440  65.982  1.00  0.00     1.313 OA 
HETATM   14  C   UNL     1      -6.775  13.317  68.200  1.00  0.00    -0.114 A  
HETATM   15  H   UNL     1      -7.539  14.388  66.024  1.00  0.00     0.000 HD 
HETATM   16  C   UNL     1      -6.401  12.547  69.326  1.00  0.00    -0.110 A  
HETATM   17  C   UNL     1      -6.443  11.138  69.237  1.00  0.00    -0.088 A  
HETATM   18  C   UNL     1      -5.920  13.213  70.607  1.00  0.00    -0.070 C  
HETATM   19  C   UNL     1      -6.230  14.713  70.679  1.00  0.00    -0.115 C  
HETATM   20  C   UNL     1      -6.917  10.483  68.080  1.00  0.00    -0.073 A  
HETATM   21  O   UNL     1      -6.013  10.376  70.289  1.00  0.00    -0.070 OA 
HETATM   22  O   UNL     1      -6.679   8.274  68.936  1.00  0.00    -0.051 OA 
HETATM   23  C   UNL     1      -6.982   9.001  67.998  1.00  0.00    -0.077 C  
HETATM   24  C   UNL     1      -5.805  15.346  69.353  1.00  0.00    -0.109 C  
HETATM   25  O   UNL     1      -7.620  14.882  70.967  1.00  0.00     0.589 OA 
HETATM   26  H   UNL     1      -6.042   9.428  70.228  1.00  0.00     0.000 HD 
HETATM   27  C   UNL     1      -6.695  14.845  68.211  1.00  0.00    -0.112 C  
HETATM   28  H   UNL     1      -7.813  15.812  71.012  1.00  0.00     0.000 HD 
BRANCH  19  29
HETATM   29  C   UNL     1      -5.446  15.382  71.820  1.00  0.00     0.242 C  
HETATM   30  O   UNL     1      -5.153  16.581  71.794  1.00  0.00    -0.305 OA 
HETATM   31  C   UNL     1      -5.132  14.539  73.035  1.00  0.00    -0.291 C  
ENDBRANCH  19  29
BRANCH  27  32
HETATM   32  O   UNL     1      -8.037  15.352  68.327  1.00  0.00    -0.132 OA 
BRANCH  32  33
HETATM   33  C   UNL     1      -8.567  16.012  67.171  1.00  0.00    -0.194 C  
HETATM   34  C   UNL     1      -9.772  16.910  67.446  1.00  0.00    -0.247 C  
HETATM   35  C   UNL     1      -9.343  18.132  68.258  1.00  0.00    -0.303 C  
HETATM   36  N   UNL     1     -10.506  19.009  68.509  1.00  0.00    -0.429 NA 
HETATM   37  C   UNL     1      -8.233  18.881  67.499  1.00  0.00    -0.268 C  
HETATM   38  H1  UNL     1     -10.219  19.824  69.051  1.00  0.00     0.000 HD 
HETATM   39  H2  UNL     1     -11.274  18.506  68.953  1.00  0.00     0.000 HD 
HETATM   40  O   UNL     1      -8.789  19.447  66.301  1.00  0.00    -0.348 OA 
HETATM   41  C   UNL     1      -7.082  17.908  67.173  1.00  0.00    -0.184 C  
HETATM   42  H   UNL     1      -8.104  19.909  65.833  1.00  0.00     0.000 HD 
HETATM   43  C   UNL     1      -6.036  18.563  66.275  1.00  0.00    -0.208 C  
HETATM   44  O   UNL     1      -7.536  16.731  66.494  1.00  0.00    -0.243 OA 
ENDBRANCH  32  33
ENDBRANCH  27  32
ENDBRANCH   2   3
TORSDOF 4
ENDMDL
MODEL      120
REMARK 921   NORMALIZED FREE ENERGY PREDICTED BY IDOCK:   -0.42 KCAL/MOL
REMARK 922        TOTAL FREE ENERGY PREDICTED BY IDOCK:   -1.11 KCAL/MOL
REMARK 923 INTER-LIGAND FREE ENERGY PREDICTED BY IDOCK:   -2.90 KCAL/MOL
REMARK 924 INTRA-LIGAND FREE ENERGY PREDICTED BY IDOCK:    1.78 KCAL/MOL
REMARK 927      BINDING AFFINITY PREDICTED BY RF-SCORE:    0.00 PKD
ROOT
HETATM    1  C   UNL     1      -8.522   8.402  63.706  1.00  0.00     0.027 C  
HETATM    2  O   UNL     1      -7.162   8.045  63.940  1.00  0.00    -0.083 OA 
ENDROOT
BRANCH   2   3
HETATM    3  C   UNL     1      -6.889   7.394  65.116  1.00  0.00    -0.047 A  
HETATM    4  C   UNL     1      -6.818   5.992  65.182  1.00  0.00    -0.051 A  
HETATM    5  C   UNL     1      -6.531   5.348  66.381  1.00  0.00    -0.044 A  
HETATM    6  C   UNL     1      -6.317   6.101  67.526  1.00  0.00    -0.037 A  
HETATM    7  C   UNL     1      -6.411   7.501  67.484  1.00  0.00    -0.056 A  
HETATM    8  C   UNL     1      -6.712   8.158  66.291  1.00  0.00    -0.054 A  
HETATM    9  C   UNL     1      -6.834   9.639  66.316  1.00  0.00    -0.091 C  
HETATM   10  O   UNL     1      -7.206  10.283  65.338  1.00  0.00    -0.139 OA 
HETATM   11  C   UNL     1      -6.514  10.402  67.552  1.00  0.00    -0.058 A  
HETATM   12  C   UNL     1      -6.515  11.813  67.537  1.00  0.00    -0.095 A  
HETATM   13  O   UNL     1      -6.773  12.520  66.387  1.00  0.00    -0.122 OA 
HETATM   14  C   UNL     1      -6.237  12.571  68.694  1.00  0.00    -0.069 A  
HETATM   15  H   UNL     1      -6.774  13.470  66.377  1.00  0.00     0.000 HD 
HETATM   16  C   UNL     1      -5.968  11.888  69.903  1.00  0.00    -0.148 A  
HETATM   17  C   UNL     1      -5.920  10.477  69.896  1.00  0.00    -0.066 A  
HETATM   18  C   UNL     1      -5.692  12.652  71.190  1.00  0.00     0.082 C  
HETATM   19  C   UNL     1      -6.091  14.131  71.129  1.00  0.00    -0.091 C  
HETATM   20  C   UNL     1      -6.205   9.731  68.733  1.00  0.00    -0.042 A  
HETATM   21  O   UNL     1      -5.586   9.802  71.039  1.00  0.00    -0.059 OA 
HETATM   22  O   UNL     1      -5.957   7.591  69.748  1.00  0.00    -0.023 OA 
HETATM   23  C   UNL     1      -6.177   8.245  68.736  1.00  0.00    -0.045 C  
HETATM   24  C   UNL     1      -5.536  14.717  69.829  1.00  0.00    -0.099 C  
HETATM   25  O   UNL     1      -7.514  14.228  71.231  1.00  0.00     1.152 OA 
HETATM   26  H   UNL     1      -5.555   8.852  71.035  1.00  0.00     0.000 HD 
HETATM   27  C   UNL     1      -6.244  14.099  68.619  1.00  0.00    -0.088 C  
HETATM   28  H   UNL     1      -7.762  15.145  71.194  1.00  0.00     0.000 HD 
BRANCH  19  29
HETATM   29  C   UNL     1      -5.498  14.910  72.315  1.00  0.00     0.140 C  
HETATM   30  O   UNL     1      -5.202  16.105  72.228  1.00  0.00    -0.009 OA 
HETATM   31  C   UNL     1      -5.384  14.183  73.636  1.00  0.00    -0.353 C  
ENDBRANCH  19  29
BRANCH  27  32
HETATM   32  O   UNL     1      -7.616  14.526  68.536  1.00  0.00    -0.109 OA 
BRANCH  32  33
HETATM   33  C   UNL     1      -8.439  13.829  67.593  1.00  0.00    -0.183 C  
HETATM   34  C   UNL     1      -9.448  12.865  68.217  1.00  0.00    -0.206 C  
HETATM   35  C   UNL     1     -10.528  13.646  68.966  1.00  0.00    -0.078 C  
HETATM   36  N   UNL     1     -11.512  12.715  69.555  1.00  0.00    -0.422 NA 
HETATM   37  C   UNL     1     -11.204  14.633  67.997  1.00  0.00    -0.293 C  
HETATM   38  H1  UNL     1     -12.232  13.235  70.054  1.00  0.00     0.000 HD 
HETATM   39  H2  UNL     1     -11.066  12.014  70.148  1.00  0.00     0.000 HD 
HETATM   40  O   UNL     1     -11.942  13.887  67.015  1.00  0.00    -0.391 OA 
HETATM   41  C   UNL     1     -10.133  15.521  67.332  1.00  0.00    -0.246 C  
HETATM   42  H   UNL     1     -12.360  14.496  66.417  1.00  0.00     0.000 HD 
HETATM   43  C   UNL     1     -10.737  16.399  66.239  1.00  0.00    -0.161 C  
HETATM   44  O   UNL     1      -9.088  14.756  66.721  1.00  0.00    -0.239 OA 
ENDBRANCH  32  33
ENDBRANCH  27  32
ENDBRANCH   2   3
TORSDOF 4
ENDMDL
MODEL      121
REMARK 921   NORMALIZED FREE ENERGY PREDICTED BY IDOCK:   -0.17 KCAL/MOL
REMARK 922        TOTAL FREE ENERGY PREDICTED BY IDOCK:   -0.80 KCAL/MOL
REMARK 923 INTER-LIGAND FREE ENERGY PREDICTED BY IDOCK:   -3.24 KCAL/MOL
REMARK 924 INTRA-LIGAND FREE ENERGY PREDICTED BY IDOCK:    2.44 KCAL/MOL
REMARK 927      BINDING AFFINITY PREDICTED BY RF-SCORE:    0.00 PKD
ROOT
HETATM    1  C   UNL     1     -10.633  16.393  69.461  1.00  0.00    -0.320 C  
HETATM    2  O   UNL     1     -10.554  14.974  69.564  1.00  0.00    -0.247 OA 
ENDROOT
BRANCH   2   3
HETATM    3  C   UNL     1     -11.570  14.346  70.239  1.00  0.00    -0.248 A  
HETATM    4  C   UNL     1     -12.574  15.074  70.900  1.00  0.00    -0.419 A  
HETATM    5  C   UNL     1     -13.602  14.421  71.573  1.00  0.00    -0.445 A  
HETATM    6  C   UNL     1     -13.632  13.034  71.594  1.00  0.00    -0.171 A  
HETATM    7  C   UNL     1     -12.622  12.292  70.961  1.00  0.00    -0.352 A  
HETATM    8  C   UNL     1     -11.578  12.934  70.296  1.00  0.00    -0.051 A  
HETATM    9  C   UNL     1     -10.519  12.096  69.676  1.00  0.00     0.656 C  
HETATM   10  O   UNL     1      -9.509  12.581  69.172  1.00  0.00     0.312 OA 
HETATM   11  C   UNL     1     -10.643  10.614  69.658  1.00  0.00    -0.260 A  
HETATM   12  C   UNL     1      -9.697   9.829  68.966  1.00  0.00    -0.177 A  
HETATM   13  O   UNL     1      -8.662  10.402  68.264  1.00  0.00    -0.122 OA 
HETATM   14  C   UNL     1      -9.770   8.421  68.943  1.00  0.00    -0.168 A  
HETATM   15  H   UNL     1      -8.025   9.873  67.798  1.00  0.00     0.000 HD 
HETATM   16  C   UNL     1     -10.816   7.785  69.653  1.00  0.00    -0.185 A  
HETATM   17  C   UNL     1     -11.785   8.580  70.301  1.00  0.00     0.093 A  
HETATM   18  C   UNL     1     -10.927   6.267  69.690  1.00  0.00    -0.440 C  
HETATM   19  C   UNL     1      -9.656   5.542  69.235  1.00  0.00    -0.136 C  
HETATM   20  C   UNL     1     -11.697   9.988  70.320  1.00  0.00    -0.327 A  
HETATM   21  O   UNL     1     -12.846   7.983  70.928  1.00  0.00    -0.514 OA 
HETATM   22  O   UNL     1     -13.634  10.336  71.661  1.00  0.00    -0.269 OA 
HETATM   23  C   UNL     1     -12.707  10.821  71.023  1.00  0.00    -0.415 C  
HETATM   24  C   UNL     1      -9.191   6.181  67.925  1.00  0.00    -0.115 C  
HETATM   25  O   UNL     1      -8.682   5.619  70.279  1.00  0.00    -0.127 OA 
HETATM   26  H   UNL     1     -13.499   8.519  71.365  1.00  0.00     0.000 HD 
HETATM   27  C   UNL     1      -8.721   7.619  68.169  1.00  0.00    -0.122 C  
HETATM   28  H   UNL     1      -7.894   5.169  69.997  1.00  0.00     0.000 HD 
BRANCH  19  29
HETATM   29  C   UNL     1      -9.934   4.050  68.985  1.00  0.00     0.152 C  
HETATM   30  O   UNL     1     -10.724   3.671  68.116  1.00  0.00     1.796 OA 
HETATM   31  C   UNL     1      -9.121   3.050  69.775  1.00  0.00    -0.200 C  
ENDBRANCH  19  29
BRANCH  27  32
HETATM   32  O   UNL     1      -7.498   7.653  68.928  1.00  0.00    -0.091 OA 
BRANCH  32  33
HETATM   33  C   UNL     1      -6.301   7.324  68.212  1.00  0.00    -0.040 C  
HETATM   34  C   UNL     1      -5.384   6.333  68.927  1.00  0.00    -0.011 C  
HETATM   35  C   UNL     1      -6.037   4.951  68.974  1.00  0.00    -0.029 C  
HETATM   36  N   UNL     1      -5.141   3.990  69.650  1.00  0.00     0.000 NA 
HETATM   37  C   UNL     1      -6.363   4.496  67.540  1.00  0.00    -0.041 C  
HETATM   38  H1  UNL     1      -5.577   3.068  69.681  1.00  0.00     0.000 HD 
HETATM   39  H2  UNL     1      -4.865   4.313  70.577  1.00  0.00     0.000 HD 
HETATM   40  O   UNL     1      -5.133   4.268  66.833  1.00  0.00    -0.007 OA 
HETATM   41  C   UNL     1      -7.217   5.572  66.838  1.00  0.00    -0.078 C  
HETATM   42  H   UNL     1      -5.334   3.987  65.949  1.00  0.00     0.000 HD 
HETATM   43  C   UNL     1      -7.423   5.244  65.362  1.00  0.00    -0.077 C  
HETATM   44  O   UNL     1      -6.618   6.872  66.896  1.00  0.00    -0.044 OA 
ENDBRANCH  32  33
ENDBRANCH  27  32
ENDBRANCH   2   3
TORSDOF 4
ENDMDL
MODEL      122
REMARK 921   NORMALIZED FREE ENERGY PREDICTED BY IDOCK:   -0.16 KCAL/MOL
REMARK 922        TOTAL FREE ENERGY PREDICTED BY IDOCK:   -0.79 KCAL/MOL
REMARK 923 INTER-LIGAND FREE ENERGY PREDICTED BY IDOCK:    0.04 KCAL/MOL
REMARK 924 INTRA-LIGAND FREE ENERGY PREDICTED BY IDOCK:   -0.83 KCAL/MOL
REMARK 927      BINDING AFFINITY PREDICTED BY RF-SCORE:    0.00 PKD
ROOT
HETATM    1  C   UNL     1      -7.862  16.405  69.892  1.00  0.00     0.811 C  
HETATM    2  O   UNL     1      -7.068  15.267  69.567  1.00  0.00    -0.173 OA 
ENDROOT
BRANCH   2   3
HETATM    3  C   UNL     1      -6.432  14.640  70.607  1.00  0.00     0.014 A  
HETATM    4  C   UNL     1      -5.791  15.368  71.624  1.00  0.00     0.589 A  
HETATM    5  C   UNL     1      -5.158  14.716  72.677  1.00  0.00    -0.213 A  
HETATM    6  C   UNL     1      -5.157  13.329  72.720  1.00  0.00    -0.018 A  
HETATM    7  C   UNL     1      -5.769  12.586  71.698  1.00  0.00     0.560 A  
HETATM    8  C   UNL     1      -6.394  13.228  70.629  1.00  0.00     0.313 A  
HETATM    9  C   UNL     1      -6.994  12.388  69.559  1.00  0.00     0.161 C  
HETATM   10  O   UNL     1      -7.461  12.871  68.531  1.00  0.00    -0.119 OA 
HETATM   11  C   UNL     1      -7.036  10.908  69.696  1.00  0.00    -0.128 A  
HETATM   12  C   UNL     1      -7.710  10.123  68.736  1.00  0.00    -0.088 A  
HETATM   13  O   UNL     1      -8.373  10.696  67.676  1.00  0.00    -0.114 OA 
HETATM   14  C   UNL     1      -7.755   8.717  68.821  1.00  0.00    -0.097 A  
HETATM   15  H   UNL     1      -8.828  10.168  67.030  1.00  0.00     0.000 HD 
HETATM   16  C   UNL     1      -7.085   8.081  69.893  1.00  0.00    -0.057 A  
HETATM   17  C   UNL     1      -6.455   8.876  70.874  1.00  0.00    -0.058 A  
HETATM   18  C   UNL     1      -7.072   6.564  70.018  1.00  0.00    -0.074 C  
HETATM   19  C   UNL     1      -7.499   5.833  68.741  1.00  0.00    -0.085 C  
HETATM   20  C   UNL     1      -6.414  10.283  70.775  1.00  0.00     0.002 A  
HETATM   21  O   UNL     1      -5.868   8.281  71.958  1.00  0.00    -0.037 OA 
HETATM   22  O   UNL     1      -5.127  10.630  72.748  1.00  0.00    -0.319 OA 
HETATM   23  C   UNL     1      -5.730  11.115  71.798  1.00  0.00     0.630 C  
HETATM   24  C   UNL     1      -8.785   6.486  68.231  1.00  0.00    -0.117 C  
HETATM   25  O   UNL     1      -6.425   5.888  67.798  1.00  0.00    -0.043 OA 
HETATM   26  H   UNL     1      -5.444   8.816  72.619  1.00  0.00     0.000 HD 
HETATM   27  C   UNL     1      -8.508   7.916  67.757  1.00  0.00    -0.125 C  
HETATM   28  H   UNL     1      -6.690   5.434  67.006  1.00  0.00     0.000 HD 
BRANCH  19  29
HETATM   29  C   UNL     1      -7.778   4.348  69.024  1.00  0.00    -0.058 C  
HETATM   30  O   UNL     1      -7.640   3.861  70.150  1.00  0.00    -0.048 OA 
HETATM   31  C   UNL     1      -8.333   3.517  67.890  1.00  0.00    -0.095 C  
ENDBRANCH  19  29
BRANCH  27  32
HETATM   32  O   UNL     1      -7.713   7.929  66.557  1.00  0.00    -0.093 OA 
BRANCH  32  33
HETATM   33  C   UNL     1      -8.427   7.777  65.323  1.00  0.00    -0.084 C  
HETATM   34  C   UNL     1      -9.461   8.867  65.047  1.00  0.00     0.202 C  
HETATM   35  C   UNL     1      -8.761  10.199  64.771  1.00  0.00    -0.185 C  
HETATM   36  N   UNL     1      -9.761  11.248  64.487  1.00  0.00    -0.245 NA 
HETATM   37  C   UNL     1      -7.786  10.024  63.593  1.00  0.00    -0.151 C  
HETATM   38  H1  UNL     1      -9.295  12.136  64.303  1.00  0.00     0.000 HD 
HETATM   39  H2  UNL     1     -10.453  11.328  65.233  1.00  0.00     0.000 HD 
HETATM   40  O   UNL     1      -8.543   9.782  62.395  1.00  0.00    -0.153 OA 
HETATM   41  C   UNL     1      -6.822   8.857  63.888  1.00  0.00    -0.087 C  
HETATM   42  H   UNL     1      -7.941   9.675  61.668  1.00  0.00     0.000 HD 
HETATM   43  C   UNL     1      -5.948   8.536  62.679  1.00  0.00    -0.087 C  
HETATM   44  O   UNL     1      -7.512   7.650  64.234  1.00  0.00    -0.086 OA 
ENDBRANCH  32  33
ENDBRANCH  27  32
ENDBRANCH   2   3
TORSDOF 4
ENDMDL
MODEL      123
REMARK 921   NORMALIZED FREE ENERGY PREDICTED BY IDOCK:   -0.14 KCAL/MOL
REMARK 922        TOTAL FREE ENERGY PREDICTED BY IDOCK:   -0.77 KCAL/MOL
REMARK 923 INTER-LIGAND FREE ENERGY PREDICTED BY IDOCK:   -1.71 KCAL/MOL
REMARK 924 INTRA-LIGAND FREE ENERGY PREDICTED BY IDOCK:    0.93 KCAL/MOL
REMARK 927      BINDING AFFINITY PREDICTED BY RF-SCORE:    0.00 PKD
ROOT
HETATM    1  C   UNL     1      -8.357   5.512  68.154  1.00  0.00    -0.099 C  
HETATM    2  O   UNL     1      -7.288   5.270  67.244  1.00  0.00    -0.080 OA 
ENDROOT
BRANCH   2   3
HETATM    3  C   UNL     1      -7.529   5.542  65.922  1.00  0.00    -0.082 A  
HETATM    4  C   UNL     1      -7.359   4.565  64.927  1.00  0.00    -0.072 A  
HETATM    5  C   UNL     1      -7.616   4.855  63.591  1.00  0.00    -0.065 A  
HETATM    6  C   UNL     1      -8.042   6.128  63.238  1.00  0.00    -0.072 A  
HETATM    7  C   UNL     1      -8.192   7.124  64.216  1.00  0.00     0.036 A  
HETATM    8  C   UNL     1      -7.922   6.849  65.557  1.00  0.00    -0.126 A  
HETATM    9  C   UNL     1      -8.064   7.954  66.542  1.00  0.00    -0.107 C  
HETATM   10  O   UNL     1      -7.738   7.828  67.720  1.00  0.00    -0.116 OA 
HETATM   11  C   UNL     1      -8.602   9.275  66.122  1.00  0.00    -0.146 A  
HETATM   12  C   UNL     1      -8.847  10.281  67.081  1.00  0.00    -0.136 A  
HETATM   13  O   UNL     1      -8.632  10.064  68.422  1.00  0.00    -0.110 OA 
HETATM   14  C   UNL     1      -9.337  11.552  66.719  1.00  0.00    -0.191 A  
HETATM   15  H   UNL     1      -8.796  10.741  69.067  1.00  0.00     0.000 HD 
HETATM   16  C   UNL     1      -9.571  11.825  65.351  1.00  0.00    -0.210 A  
HETATM   17  C   UNL     1      -9.371  10.796  64.405  1.00  0.00    -0.242 A  
HETATM   18  C   UNL     1     -10.071  13.189  64.898  1.00  0.00    -0.236 C  
HETATM   19  C   UNL     1      -9.932  14.283  65.962  1.00  0.00    -0.319 C  
HETATM   20  C   UNL     1      -8.875   9.530  64.780  1.00  0.00    -0.244 A  
HETATM   21  O   UNL     1      -9.665  11.018  63.086  1.00  0.00    -0.303 OA 
HETATM   22  O   UNL     1      -8.820   8.626  62.577  1.00  0.00    -0.144 OA 
HETATM   23  C   UNL     1      -8.644   8.457  63.778  1.00  0.00     0.123 C  
HETATM   24  C   UNL     1     -10.484  13.734  67.279  1.00  0.00    -0.264 C  
HETATM   25  O   UNL     1      -8.559  14.676  66.043  1.00  0.00    -0.316 OA 
HETATM   26  H   UNL     1      -9.530  10.326  62.449  1.00  0.00     0.000 HD 
HETATM   27  C   UNL     1      -9.592  12.603  67.802  1.00  0.00    -0.197 C  
HETATM   28  H   UNL     1      -8.473  15.354  66.703  1.00  0.00     0.000 HD 
BRANCH  19  29
HETATM   29  C   UNL     1     -10.738  15.534  65.572  1.00  0.00    -0.381 C  
HETATM   30  O   UNL     1     -10.692  16.573  66.237  1.00  0.00    -0.259 OA 
HETATM   31  C   UNL     1     -11.516  15.483  64.277  1.00  0.00    -0.186 C  
ENDBRANCH  19  29
BRANCH  27  32
HETATM   32  O   UNL     1      -8.313  13.099  68.238  1.00  0.00    -0.152 OA 
BRANCH  32  33
HETATM   33  C   UNL     1      -8.135  13.230  69.654  1.00  0.00     1.367 C  
HETATM   34  C   UNL     1      -7.441  12.042  70.321  1.00  0.00     2.262 C  
HETATM   35  C   UNL     1      -5.976  11.977  69.888  1.00  0.00    -0.149 C  
HETATM   36  N   UNL     1      -5.303  10.839  70.547  1.00  0.00    -0.077 NA 
HETATM   37  C   UNL     1      -5.286  13.309  70.232  1.00  0.00    -0.115 C  
HETATM   38  H1  UNL     1      -4.325  10.796  70.258  1.00  0.00     0.000 HD 
HETATM   39  H2  UNL     1      -5.790   9.959  70.379  1.00  0.00     0.000 HD 
HETATM   40  O   UNL     1      -5.213  13.440  71.661  1.00  0.00    -0.167 OA 
HETATM   41  C   UNL     1      -6.075  14.478  69.606  1.00  0.00    -0.118 C  
HETATM   42  H   UNL     1      -4.787  14.262  71.873  1.00  0.00     0.000 HD 
HETATM   43  C   UNL     1      -5.527  15.827  70.060  1.00  0.00    -0.142 C  
HETATM   44  O   UNL     1      -7.464  14.453  69.959  1.00  0.00     0.128 OA 
ENDBRANCH  32  33
ENDBRANCH  27  32
ENDBRANCH   2   3
TORSDOF 4
ENDMDL
MODEL      124
REMARK 921   NORMALIZED FREE ENERGY PREDICTED BY IDOCK:    0.15 KCAL/MOL
REMARK 922        TOTAL FREE ENERGY PREDICTED BY IDOCK:   -0.41 KCAL/MOL
REMARK 923 INTER-LIGAND FREE ENERGY PREDICTED BY IDOCK:   -0.24 KCAL/MOL
REMARK 924 INTRA-LIGAND FREE ENERGY PREDICTED BY IDOCK:   -0.17 KCAL/MOL
REMARK 927      BINDING AFFINITY PREDICTED BY RF-SCORE:    0.00 PKD
ROOT
HETATM    1  C   UNL     1     -11.851  11.245  62.872  1.00  0.00     0.882 C  
HETATM    2  O   UNL     1     -10.431  11.304  62.761  1.00  0.00    -0.098 OA 
ENDROOT
BRANCH   2   3
HETATM    3  C   UNL     1      -9.714  10.432  63.539  1.00  0.00    -0.275 A  
HETATM    4  C   UNL     1      -9.614   9.069  63.215  1.00  0.00     1.566 A  
HETATM    5  C   UNL     1      -8.875   8.199  64.010  1.00  0.00     0.544 A  
HETATM    6  C   UNL     1      -8.232   8.686  65.140  1.00  0.00    -0.152 A  
HETATM    7  C   UNL     1      -8.343  10.040  65.492  1.00  0.00    -0.151 A  
HETATM    8  C   UNL     1      -9.094  10.919  64.711  1.00  0.00    -0.197 A  
HETATM    9  C   UNL     1      -9.204  12.333  65.155  1.00  0.00     0.373 C  
HETATM   10  O   UNL     1      -9.935  13.143  64.589  1.00  0.00    -0.245 OA 
HETATM   11  C   UNL     1      -8.428  12.819  66.327  1.00  0.00     0.427 A  
HETATM   12  C   UNL     1      -8.443  14.188  66.672  1.00  0.00     0.127 A  
HETATM   13  O   UNL     1      -9.137  15.110  65.925  1.00  0.00    -0.458 OA 
HETATM   14  C   UNL     1      -7.737  14.683  67.788  1.00  0.00    -0.169 A  
HETATM   15  H   UNL     1      -9.147  16.032  66.157  1.00  0.00     0.000 HD 
HETATM   16  C   UNL     1      -7.010  13.771  68.589  1.00  0.00    -0.102 A  
HETATM   17  C   UNL     1      -6.961  12.413  68.208  1.00  0.00    -0.091 A  
HETATM   18  C   UNL     1      -6.255  14.243  69.823  1.00  0.00    -0.139 C  
HETATM   19  C   UNL     1      -6.655  15.645  70.295  1.00  0.00     0.123 C  
HETATM   20  C   UNL     1      -7.676  11.930  67.091  1.00  0.00    -0.163 A  
HETATM   21  O   UNL     1      -6.201  11.531  68.927  1.00  0.00    -0.049 OA 
HETATM   22  O   UNL     1      -7.036   9.652  67.358  1.00  0.00    -0.084 OA 
HETATM   23  C   UNL     1      -7.640  10.495  66.706  1.00  0.00    -0.115 C  
HETATM   24  C   UNL     1      -6.659  16.570  69.077  1.00  0.00    -0.193 C  
HETATM   25  O   UNL     1      -7.924  15.567  70.950  1.00  0.00     1.333 OA 
HETATM   26  H   UNL     1      -6.168  10.617  68.671  1.00  0.00     0.000 HD 
HETATM   27  C   UNL     1      -7.782  16.177  68.111  1.00  0.00    -0.141 C  
HETATM   28  H   UNL     1      -8.172  16.436  71.243  1.00  0.00     0.000 HD 
BRANCH  19  29
HETATM   29  C   UNL     1      -5.648  16.187  71.323  1.00  0.00     0.315 C  
HETATM   30  O   UNL     1      -5.141  15.463  72.185  1.00  0.00    -0.150 OA 
HETATM   31  C   UNL     1      -5.214  17.628  71.177  1.00  0.00    -0.149 C  
ENDBRANCH  19  29
BRANCH  27  32
HETATM   32  O   UNL     1      -9.079  16.466  68.665  1.00  0.00    -0.213 OA 
BRANCH  32  33
HETATM   33  C   UNL     1      -9.966  17.227  67.836  1.00  0.00    -0.297 C  
HETATM   34  C   UNL     1     -10.765  18.300  68.574  1.00  0.00     0.049 C  
HETATM   35  C   UNL     1      -9.834  19.421  69.040  1.00  0.00    -0.419 C  
HETATM   36  N   UNL     1     -10.610  20.466  69.738  1.00  0.00    -0.403 NA 
HETATM   37  C   UNL     1      -9.087  19.998  67.825  1.00  0.00    -0.320 C  
HETATM   38  H1  UNL     1      -9.989  21.214  70.050  1.00  0.00     0.000 HD 
HETATM   39  H2  UNL     1     -11.161  20.084  70.507  1.00  0.00     0.000 HD 
HETATM   40  O   UNL     1     -10.031  20.671  66.976  1.00  0.00    -0.504 OA 
HETATM   41  C   UNL     1      -8.371  18.860  67.069  1.00  0.00    -0.276 C  
HETATM   42  H   UNL     1      -9.570  21.027  66.226  1.00  0.00     0.000 HD 
HETATM   43  C   UNL     1      -7.757  19.358  65.764  1.00  0.00    -0.170 C  
HETATM   44  O   UNL     1      -9.255  17.785  66.731  1.00  0.00    -0.257 OA 
ENDBRANCH  32  33
ENDBRANCH  27  32
ENDBRANCH   2   3
TORSDOF 4
ENDMDL
MODEL      125
REMARK 921   NORMALIZED FREE ENERGY PREDICTED BY IDOCK:    0.35 KCAL/MOL
REMARK 922        TOTAL FREE ENERGY PREDICTED BY IDOCK:   -0.16 KCAL/MOL
REMARK 923 INTER-LIGAND FREE ENERGY PREDICTED BY IDOCK:   -3.78 KCAL/MOL
REMARK 924 INTRA-LIGAND FREE ENERGY PREDICTED BY IDOCK:    3.62 KCAL/MOL
REMARK 927      BINDING AFFINITY PREDICTED BY RF-SCORE:    0.00 PKD
ROOT
HETATM    1  C   UNL     1     -11.441   7.121  66.928  1.00  0.00     0.921 C  
HETATM    2  O   UNL     1     -10.166   6.506  66.757  1.00  0.00    -0.192 OA 
ENDROOT
BRANCH   2   3
HETATM    3  C   UNL     1      -9.381   6.391  67.876  1.00  0.00    -0.114 A  
HETATM    4  C   UNL     1      -9.191   5.155  68.517  1.00  0.00    -0.145 A  
HETATM    5  C   UNL     1      -8.385   5.054  69.646  1.00  0.00    -0.088 A  
HETATM    6  C   UNL     1      -7.764   6.190  70.145  1.00  0.00    -0.097 A  
HETATM    7  C   UNL     1      -7.965   7.438  69.533  1.00  0.00    -0.127 A  
HETATM    8  C   UNL     1      -8.783   7.554  68.410  1.00  0.00    -0.123 A  
HETATM    9  C   UNL     1      -8.986   8.906  67.826  1.00  0.00    -0.135 C  
HETATM   10  O   UNL     1      -9.778   9.113  66.910  1.00  0.00    -0.166 OA 
HETATM   11  C   UNL     1      -8.233  10.075  68.351  1.00  0.00    -0.106 A  
HETATM   12  C   UNL     1      -8.339  11.333  67.719  1.00  0.00    -0.125 A  
HETATM   13  O   UNL     1      -9.104  11.507  66.589  1.00  0.00    -0.178 OA 
HETATM   14  C   UNL     1      -7.656  12.469  68.199  1.00  0.00    -0.127 A  
HETATM   15  H   UNL     1      -9.175  12.354  66.163  1.00  0.00     0.000 HD 
HETATM   16  C   UNL     1      -6.858  12.340  69.361  1.00  0.00     0.007 A  
HETATM   17  C   UNL     1      -6.720  11.068  69.958  1.00  0.00    -0.094 A  
HETATM   18  C   UNL     1      -6.124  13.539  69.944  1.00  0.00    -0.127 C  
HETATM   19  C   UNL     1      -6.614  14.887  69.405  1.00  0.00    -0.142 C  
HETATM   20  C   UNL     1      -7.412   9.940  69.469  1.00  0.00    -0.112 A  
HETATM   21  O   UNL     1      -5.892  10.910  71.036  1.00  0.00    -0.310 OA 
HETATM   22  O   UNL     1      -6.613   8.427  71.124  1.00  0.00    -0.042 OA 
HETATM   23  C   UNL     1      -7.281   8.608  70.114  1.00  0.00    -0.052 C  
HETATM   24  C   UNL     1      -6.697  14.785  67.881  1.00  0.00    -0.177 C  
HETATM   25  O   UNL     1      -7.867  15.200  70.020  1.00  0.00    -0.293 OA 
HETATM   26  H   UNL     1      -5.799  10.053  71.438  1.00  0.00     0.000 HD 
HETATM   27  C   UNL     1      -7.801  13.806  67.469  1.00  0.00    -0.179 C  
HETATM   28  H   UNL     1      -8.172  16.036  69.686  1.00  0.00     0.000 HD 
BRANCH  19  29
HETATM   29  C   UNL     1      -5.636  16.015  69.773  1.00  0.00    -0.144 C  
HETATM   30  O   UNL     1      -5.141  16.754  68.917  1.00  0.00    -0.121 OA 
HETATM   31  C   UNL     1      -5.376  16.257  71.242  1.00  0.00     0.059 C  
ENDBRANCH  19  29
BRANCH  27  32
HETATM   32  O   UNL     1      -9.108  14.328  67.769  1.00  0.00    -0.182 OA 
BRANCH  32  33
HETATM   33  C   UNL     1      -9.583  14.118  69.104  1.00  0.00     0.144 C  
HETATM   34  C   UNL     1     -10.371  15.287  69.692  1.00  0.00    -0.271 C  
HETATM   35  C   UNL     1     -11.710  15.436  68.969  1.00  0.00    -0.361 C  
HETATM   36  N   UNL     1     -12.479  16.556  69.550  1.00  0.00    -0.017 NA 
HETATM   37  C   UNL     1     -12.490  14.113  69.070  1.00  0.00     0.079 C  
HETATM   38  H1  UNL     1     -13.372  16.655  69.067  1.00  0.00     0.000 HD 
HETATM   39  H2  UNL     1     -11.946  17.426  69.548  1.00  0.00     0.000 HD 
HETATM   40  O   UNL     1     -12.866  13.898  70.440  1.00  0.00    -0.269 OA 
HETATM   41  C   UNL     1     -11.617  12.956  68.543  1.00  0.00    -0.323 C  
HETATM   42  H   UNL     1     -13.347  13.081  70.502  1.00  0.00     0.000 HD 
HETATM   43  C   UNL     1     -12.282  11.603  68.779  1.00  0.00    -0.048 C  
HETATM   44  O   UNL     1     -10.333  12.905  69.178  1.00  0.00    -0.007 OA 
ENDBRANCH  32  33
ENDBRANCH  27  32
ENDBRANCH   2   3
TORSDOF 4
ENDMDL
MODEL      126
REMARK 921   NORMALIZED FREE ENERGY PREDICTED BY IDOCK:    0.46 KCAL/MOL
REMARK 922        TOTAL FREE ENERGY PREDICTED BY IDOCK:   -0.03 KCAL/MOL
REMARK 923 INTER-LIGAND FREE ENERGY PREDICTED BY IDOCK:   -1.99 KCAL/MOL
REMARK 924 INTRA-LIGAND FREE ENERGY PREDICTED BY IDOCK:    1.97 KCAL/MOL
REMARK 927      BINDING AFFINITY PREDICTED BY RF-SCORE:    0.00 PKD
ROOT
HETATM    1  C   UNL     1     -10.737  16.646  71.236  1.00  0.00     1.183 C  
HETATM    2  O   UNL     1      -9.807  16.309  70.210  1.00  0.00     0.310 OA 
ENDROOT
BRANCH   2   3
HETATM    3  C   UNL     1     -10.229  16.476  68.915  1.00  0.00    -0.268 A  
HETATM    4  C   UNL     1     -10.865  17.656  68.495  1.00  0.00    -0.075 A  
HETATM    5  C   UNL     1     -11.279  17.812  67.177  1.00  0.00     0.440 A  
HETATM    6  C   UNL     1     -11.063  16.787  66.267  1.00  0.00     0.318 A  
HETATM    7  C   UNL     1     -10.452  15.591  66.676  1.00  0.00    -0.299 A  
HETATM    8  C   UNL     1     -10.047  15.416  67.999  1.00  0.00    -0.226 A  
HETATM    9  C   UNL     1      -9.438  14.114  68.380  1.00  0.00    -0.214 C  
HETATM   10  O   UNL     1      -9.159  13.837  69.544  1.00  0.00     0.659 OA 
HETATM   11  C   UNL     1      -9.156  13.082  67.348  1.00  0.00    -0.201 A  
HETATM   12  C   UNL     1      -8.471  11.898  67.695  1.00  0.00    -0.156 A  
HETATM   13  O   UNL     1      -8.017  11.678  68.975  1.00  0.00    -0.315 OA 
HETATM   14  C   UNL     1      -8.202  10.887  66.749  1.00  0.00    -0.140 A  
HETATM   15  H   UNL     1      -7.556  10.881  69.208  1.00  0.00     0.000 HD 
HETATM   16  C   UNL     1      -8.652  11.066  65.420  1.00  0.00    -0.070 A  
HETATM   17  C   UNL     1      -9.293  12.275  65.071  1.00  0.00     0.278 A  
HETATM   18  C   UNL     1      -8.419   9.996  64.363  1.00  0.00    -0.178 C  
HETATM   19  C   UNL     1      -8.019   8.634  64.940  1.00  0.00    -0.138 C  
HETATM   20  C   UNL     1      -9.559  13.277  66.029  1.00  0.00    -0.174 A  
HETATM   21  O   UNL     1      -9.666  12.497  63.773  1.00  0.00    -0.651 OA 
HETATM   22  O   UNL     1     -10.675  14.755  64.533  1.00  0.00    -0.316 OA 
HETATM   23  C   UNL     1     -10.254  14.538  65.663  1.00  0.00    -0.357 C  
HETATM   24  C   UNL     1      -6.908   8.864  65.965  1.00  0.00    -0.076 C  
HETATM   25  O   UNL     1      -9.180   8.009  65.494  1.00  0.00    -0.402 OA 
HETATM   26  H   UNL     1     -10.098  13.311  63.538  1.00  0.00     0.000 HD 
HETATM   27  C   UNL     1      -7.449   9.627  67.179  1.00  0.00    -0.088 C  
HETATM   28  H   UNL     1      -8.932   7.164  65.851  1.00  0.00     0.000 HD 
BRANCH  19  29
HETATM   29  C   UNL     1      -7.487   7.705  63.836  1.00  0.00    -0.107 C  
HETATM   30  O   UNL     1      -6.712   8.105  62.963  1.00  0.00    -0.084 OA 
HETATM   31  C   UNL     1      -7.867   6.243  63.916  1.00  0.00    -0.112 C  
ENDBRANCH  19  29
BRANCH  27  32
HETATM   32  O   UNL     1      -8.355   8.817  67.950  1.00  0.00    -0.117 OA 
BRANCH  32  33
HETATM   33  C   UNL     1      -9.753   9.050  67.733  1.00  0.00    -0.156 C  
HETATM   34  C   UNL     1     -10.632   7.806  67.857  1.00  0.00    -0.221 C  
HETATM   35  C   UNL     1     -10.678   7.337  69.311  1.00  0.00    -0.198 C  
HETATM   36  N   UNL     1     -11.542   6.145  69.432  1.00  0.00    -0.392 NA 
HETATM   37  C   UNL     1     -11.185   8.486  70.200  1.00  0.00    -0.136 C  
HETATM   38  H1  UNL     1     -11.573   5.831  70.402  1.00  0.00     0.000 HD 
HETATM   39  H2  UNL     1     -11.254   5.399  68.799  1.00  0.00     0.000 HD 
HETATM   40  O   UNL     1     -12.563   8.746  69.882  1.00  0.00     0.498 OA 
HETATM   41  C   UNL     1     -10.315   9.740  69.971  1.00  0.00    -0.263 C  
HETATM   42  H   UNL     1     -12.875   9.456  70.431  1.00  0.00     0.000 HD 
HETATM   43  C   UNL     1     -10.883  10.953  70.702  1.00  0.00     0.610 C  
HETATM   44  O   UNL     1     -10.219  10.095  68.587  1.00  0.00    -0.162 OA 
ENDBRANCH  32  33
ENDBRANCH  27  32
ENDBRANCH   2   3
TORSDOF 4
ENDMDL
MODEL      127
REMARK 921   NORMALIZED FREE ENERGY PREDICTED BY IDOCK:    0.65 KCAL/MOL
REMARK 922        TOTAL FREE ENERGY PREDICTED BY IDOCK:    0.21 KCAL/MOL
REMARK 923 INTER-LIGAND FREE ENERGY PREDICTED BY IDOCK:   -2.20 KCAL/MOL
REMARK 924 INTRA-LIGAND FREE ENERGY PREDICTED BY IDOCK:    2.41 KCAL/MOL
REMARK 927      BINDING AFFINITY PREDICTED BY RF-SCORE:    0.00 PKD
ROOT
HETATM    1  C   UNL     1      -7.215  14.533  69.574  1.00  0.00    -0.095 C  
HETATM    2  O   UNL     1      -6.553  13.364  69.100  1.00  0.00    -0.101 OA 
ENDROOT
BRANCH   2   3
HETATM    3  C   UNL     1      -6.109  12.478  70.048  1.00  0.00    -0.117 A  
HETATM    4  C   UNL     1      -5.686  12.908  71.316  1.00  0.00     0.093 A  
HETATM    5  C   UNL     1      -5.247  11.995  72.269  1.00  0.00     0.371 A  
HETATM    6  C   UNL     1      -5.223  10.643  71.959  1.00  0.00     0.125 A  
HETATM    7  C   UNL     1      -5.617  10.198  70.688  1.00  0.00    -0.078 A  
HETATM    8  C   UNL     1      -6.045  11.105  69.719  1.00  0.00    -0.107 A  
HETATM    9  C   UNL     1      -6.416  10.579  68.379  1.00  0.00    -0.055 C  
HETATM   10  O   UNL     1      -6.694  11.318  67.437  1.00  0.00    -0.072 OA 
HETATM   11  C   UNL     1      -6.450   9.114  68.127  1.00  0.00    -0.059 A  
HETATM   12  C   UNL     1      -6.917   8.615  66.892  1.00  0.00    -0.077 A  
HETATM   13  O   UNL     1      -7.382   9.454  65.906  1.00  0.00    -0.093 OA 
HETATM   14  C   UNL     1      -6.945   7.234  66.608  1.00  0.00    -0.073 A  
HETATM   15  H   UNL     1      -7.696   9.118  65.075  1.00  0.00     0.000 HD 
HETATM   16  C   UNL     1      -6.474   6.330  67.590  1.00  0.00    -0.046 A  
HETATM   17  C   UNL     1      -6.056   6.835  68.840  1.00  0.00    -0.026 A  
HETATM   18  C   UNL     1      -6.451   4.831  67.328  1.00  0.00    -0.045 C  
HETATM   19  C   UNL     1      -6.616   4.458  65.851  1.00  0.00    -0.044 C  
HETATM   20  C   UNL     1      -6.028   8.220  69.109  1.00  0.00    -0.038 A  
HETATM   21  O   UNL     1      -5.669   5.971  69.828  1.00  0.00    -0.015 OA 
HETATM   22  O   UNL     1      -5.140   8.025  71.309  1.00  0.00    -0.026 OA 
HETATM   23  C   UNL     1      -5.565   8.749  70.418  1.00  0.00    -0.027 C  
HETATM   24  C   UNL     1      -7.798   5.252  65.293  1.00  0.00    -0.095 C  
HETATM   25  O   UNL     1      -5.386   4.720  65.170  1.00  0.00    -0.012 OA 
HETATM   26  H   UNL     1      -5.387   6.311  70.670  1.00  0.00     0.000 HD 
HETATM   27  C   UNL     1      -7.468   6.748  65.255  1.00  0.00    -0.086 C  
HETATM   28  H   UNL     1      -5.488   4.489  64.254  1.00  0.00     0.000 HD 
BRANCH  19  29
HETATM   29  C   UNL     1      -6.910   2.957  65.693  1.00  0.00    -0.048 C  
HETATM   30  O   UNL     1      -8.039   2.491  65.869  1.00  0.00    -0.081 OA 
HETATM   31  C   UNL     1      -5.781   2.076  65.207  1.00  0.00    -0.017 C  
ENDBRANCH  19  29
BRANCH  27  32
HETATM   32  O   UNL     1      -6.464   7.042  64.267  1.00  0.00    -0.038 OA 
BRANCH  32  33
HETATM   33  C   UNL     1      -6.927   7.647  63.054  1.00  0.00    -0.072 C  
HETATM   34  C   UNL     1      -8.393   8.079  63.077  1.00  0.00    -0.005 C  
HETATM   35  C   UNL     1      -8.580   9.257  64.034  1.00  0.00    -0.186 C  
HETATM   36  N   UNL     1      -9.994   9.685  64.042  1.00  0.00    -0.273 NA 
HETATM   37  C   UNL     1      -7.651  10.408  63.608  1.00  0.00    -0.034 C  
HETATM   38  H1  UNL     1     -10.119  10.470  64.680  1.00  0.00     0.000 HD 
HETATM   39  H2  UNL     1     -10.625   8.913  64.259  1.00  0.00     0.000 HD 
HETATM   40  O   UNL     1      -8.099  10.923  62.343  1.00  0.00    -0.258 OA 
HETATM   41  C   UNL     1      -6.199   9.896  63.518  1.00  0.00    -0.123 C  
HETATM   42  H   UNL     1      -7.526  11.633  62.080  1.00  0.00     0.000 HD 
HETATM   43  C   UNL     1      -5.269  10.956  62.936  1.00  0.00    -0.175 C  
HETATM   44  O   UNL     1      -6.078   8.735  62.687  1.00  0.00    -0.090 OA 
ENDBRANCH  32  33
ENDBRANCH  27  32
ENDBRANCH   2   3
TORSDOF 4
ENDMDL
MODEL      128
REMARK 921   NORMALIZED FREE ENERGY PREDICTED BY IDOCK:    0.80 KCAL/MOL
REMARK 922        TOTAL FREE ENERGY PREDICTED BY IDOCK:    0.40 KCAL/MOL
REMARK 923 INTER-LIGAND FREE ENERGY PREDICTED BY IDOCK:   -0.91 KCAL/MOL
REMARK 924 INTRA-LIGAND FREE ENERGY PREDICTED BY IDOCK:    1.30 KCAL/MOL
REMARK 927      BINDING AFFINITY PREDICTED BY RF-SCORE:    0.00 PKD
ROOT
HETATM    1  C   UNL     1      -5.869   9.083  74.334  1.00  0.00    -0.107 C  
HETATM    2  O   UNL     1      -6.590   9.140  73.106  1.00  0.00    -0.316 OA 
ENDROOT
BRANCH   2   3
HETATM    3  C   UNL     1      -6.116  10.002  72.151  1.00  0.00     0.635 A  
HETATM    4  C   UNL     1      -5.639  11.281  72.484  1.00  0.00     1.104 A  
HETATM    5  C   UNL     1      -5.154  12.139  71.504  1.00  0.00    -0.063 A  
HETATM    6  C   UNL     1      -5.144  11.726  70.179  1.00  0.00    -0.081 A  
HETATM    7  C   UNL     1      -5.641  10.462  69.824  1.00  0.00    -0.040 A  
HETATM    8  C   UNL     1      -6.144   9.598  70.797  1.00  0.00    -0.086 A  
HETATM    9  C   UNL     1      -6.690   8.287  70.357  1.00  0.00    -0.036 C  
HETATM   10  O   UNL     1      -7.253   7.518  71.132  1.00  0.00    -0.061 OA 
HETATM   11  C   UNL     1      -6.580   7.863  68.936  1.00  0.00    -0.052 A  
HETATM   12  C   UNL     1      -6.991   6.570  68.546  1.00  0.00    -0.080 A  
HETATM   13  O   UNL     1      -7.467   5.660  69.460  1.00  0.00    -0.068 OA 
HETATM   14  C   UNL     1      -6.921   6.139  67.205  1.00  0.00    -0.069 A  
HETATM   15  H   UNL     1      -7.743   4.790  69.198  1.00  0.00     0.000 HD 
HETATM   16  C   UNL     1      -6.441   7.041  66.227  1.00  0.00    -0.051 A  
HETATM   17  C   UNL     1      -5.986   8.314  66.634  1.00  0.00    -0.052 A  
HETATM   18  C   UNL     1      -6.372   6.641  64.760  1.00  0.00    -0.038 C  
HETATM   19  C   UNL     1      -7.185   5.387  64.421  1.00  0.00    -0.055 C  
HETATM   20  C   UNL     1      -6.066   8.734  67.979  1.00  0.00    -0.051 A  
HETATM   21  O   UNL     1      -5.447   9.170  65.713  1.00  0.00    -0.040 OA 
HETATM   22  O   UNL     1      -5.186  10.915  67.605  1.00  0.00    -0.040 OA 
HETATM   23  C   UNL     1      -5.607  10.084  68.399  1.00  0.00    -0.042 C  
HETATM   24  C   UNL     1      -6.850   4.314  65.459  1.00  0.00    -0.057 C  
HETATM   25  O   UNL     1      -8.573   5.731  64.390  1.00  0.00    -0.310 OA 
HETATM   26  H   UNL     1      -5.141  10.028  65.987  1.00  0.00     0.000 HD 
HETATM   27  C   UNL     1      -7.373   4.723  66.840  1.00  0.00    -0.082 C  
HETATM   28  H   UNL     1      -9.076   4.953  64.180  1.00  0.00     0.000 HD 
BRANCH  19  29
HETATM   29  C   UNL     1      -6.819   4.855  63.025  1.00  0.00    -0.034 C  
HETATM   30  O   UNL     1      -5.746   5.133  62.482  1.00  0.00    -0.013 OA 
HETATM   31  C   UNL     1      -7.782   3.887  62.377  1.00  0.00    -0.060 C  
ENDBRANCH  19  29
BRANCH  27  32
HETATM   32  O   UNL     1      -8.811   4.698  66.888  1.00  0.00    -0.110 OA 
BRANCH  32  33
HETATM   33  C   UNL     1      -9.406   3.494  67.388  1.00  0.00    -0.206 C  
HETATM   34  C   UNL     1      -8.430   2.335  67.585  1.00  0.00    -0.098 C  
HETATM   35  C   UNL     1      -7.475   2.641  68.739  1.00  0.00    -0.047 C  
HETATM   36  N   UNL     1      -6.542   1.513  68.940  1.00  0.00    -0.029 NA 
HETATM   37  C   UNL     1      -8.292   2.923  70.012  1.00  0.00    -0.044 C  
HETATM   38  H1  UNL     1      -5.906   1.717  69.710  1.00  0.00     0.000 HD 
HETATM   39  H2  UNL     1      -6.042   1.275  68.084  1.00  0.00     0.000 HD 
HETATM   40  O   UNL     1      -8.945   1.710  70.423  1.00  0.00    -0.062 OA 
HETATM   41  C   UNL     1      -9.319   4.040  69.732  1.00  0.00    -0.172 C  
HETATM   42  H   UNL     1      -9.449   1.884  71.209  1.00  0.00     0.000 HD 
HETATM   43  C   UNL     1     -10.265   4.236  70.913  1.00  0.00    -0.052 C  
HETATM   44  O   UNL     1     -10.133   3.761  68.587  1.00  0.00     0.156 OA 
ENDBRANCH  32  33
ENDBRANCH  27  32
ENDBRANCH   2   3
TORSDOF 4
ENDMDL
MODEL      129
REMARK 921   NORMALIZED FREE ENERGY PREDICTED BY IDOCK:    0.86 KCAL/MOL
REMARK 922        TOTAL FREE ENERGY PREDICTED BY IDOCK:    0.46 KCAL/MOL
REMARK 923 INTER-LIGAND FREE ENERGY PREDICTED BY IDOCK:    0.58 KCAL/MOL
REMARK 924 INTRA-LIGAND FREE ENERGY PREDICTED BY IDOCK:   -0.12 KCAL/MOL
REMARK 927      BINDING AFFINITY PREDICTED BY RF-SCORE:    0.00 PKD
ROOT
HETATM    1  C   UNL     1      -9.880  17.644  68.063  1.00  0.00    -0.310 C  
HETATM    2  O   UNL     1      -8.672  17.071  67.570  1.00  0.00    -0.206 OA 
ENDROOT
BRANCH   2   3
HETATM    3  C   UNL     1      -7.704  16.779  68.497  1.00  0.00    -0.223 A  
HETATM    4  C   UNL     1      -6.884  17.779  69.045  1.00  0.00    -0.244 A  
HETATM    5  C   UNL     1      -5.912  17.467  69.990  1.00  0.00    -0.188 A  
HETATM    6  C   UNL     1      -5.750  16.149  70.392  1.00  0.00    -0.109 A  
HETATM    7  C   UNL     1      -6.542  15.133  69.835  1.00  0.00    -0.172 A  
HETATM    8  C   UNL     1      -7.510  15.432  68.876  1.00  0.00    -0.152 A  
HETATM    9  C   UNL     1      -8.293  14.309  68.296  1.00  0.00    -0.165 C  
HETATM   10  O   UNL     1      -9.082  14.470  67.368  1.00  0.00    -0.181 OA 
HETATM   11  C   UNL     1      -8.135  12.928  68.823  1.00  0.00     0.087 A  
HETATM   12  C   UNL     1      -8.965  11.888  68.352  1.00  0.00    -0.163 A  
HETATM   13  O   UNL     1      -9.958  12.121  67.430  1.00  0.00    -0.197 OA 
HETATM   14  C   UNL     1      -8.832  10.561  68.812  1.00  0.00    -0.158 A  
HETATM   15  H   UNL     1     -10.517  11.421  67.114  1.00  0.00     0.000 HD 
HETATM   16  C   UNL     1      -7.822  10.271  69.759  1.00  0.00    -0.151 A  
HETATM   17  C   UNL     1      -7.030  11.326  70.261  1.00  0.00     0.585 A  
HETATM   18  C   UNL     1      -7.611   8.852  70.268  1.00  0.00    -0.077 C  
HETATM   19  C   UNL     1      -8.301   7.780  69.418  1.00  0.00    -0.133 C  
HETATM   20  C   UNL     1      -7.171  12.648  69.788  1.00  0.00     0.682 A  
HETATM   21  O   UNL     1      -6.100  11.076  71.233  1.00  0.00    -0.334 OA 
HETATM   22  O   UNL     1      -5.423  13.570  71.117  1.00  0.00    -0.172 OA 
HETATM   23  C   UNL     1      -6.319  13.752  70.301  1.00  0.00    -0.035 C  
HETATM   24  C   UNL     1      -9.741   8.230  69.168  1.00  0.00    -0.171 C  
HETATM   25  O   UNL     1      -7.549   7.592  68.215  1.00  0.00    -0.108 OA 
HETATM   26  H   UNL     1      -5.566  11.786  71.570  1.00  0.00     0.000 HD 
HETATM   27  C   UNL     1      -9.765   9.474  68.274  1.00  0.00    -0.147 C  
HETATM   28  H   UNL     1      -7.977   6.927  67.688  1.00  0.00     0.000 HD 
BRANCH  19  29
HETATM   29  C   UNL     1      -8.326   6.428  70.151  1.00  0.00    -0.134 C  
HETATM   30  O   UNL     1      -9.382   5.904  70.516  1.00  0.00    -0.159 OA 
HETATM   31  C   UNL     1      -7.009   5.705  70.321  1.00  0.00    -0.058 C  
ENDBRANCH  19  29
BRANCH  27  32
HETATM   32  O   UNL     1      -9.348   9.167  66.931  1.00  0.00    -0.144 OA 
BRANCH  32  33
HETATM   33  C   UNL     1     -10.188   8.266  66.198  1.00  0.00     0.284 C  
HETATM   34  C   UNL     1     -10.146   8.447  64.681  1.00  0.00     3.400 C  
HETATM   35  C   UNL     1      -8.782   8.019  64.138  1.00  0.00     0.407 C  
HETATM   36  N   UNL     1      -8.749   8.178  62.669  1.00  0.00    -0.420 NA 
HETATM   37  C   UNL     1      -8.509   6.560  64.547  1.00  0.00     0.138 C  
HETATM   38  H1  UNL     1      -7.839   7.891  62.307  1.00  0.00     0.000 HD 
HETATM   39  H2  UNL     1      -8.993   9.126  62.383  1.00  0.00     0.000 HD 
HETATM   40  O   UNL     1      -9.435   5.703  63.859  1.00  0.00     0.135 OA 
HETATM   41  C   UNL     1      -8.649   6.418  66.077  1.00  0.00    -0.147 C  
HETATM   42  H   UNL     1      -9.266   4.803  64.112  1.00  0.00     0.000 HD 
HETATM   43  C   UNL     1      -8.554   4.958  66.511  1.00  0.00    -0.109 C  
HETATM   44  O   UNL     1      -9.902   6.916  66.561  1.00  0.00    -0.170 OA 
ENDBRANCH  32  33
ENDBRANCH  27  32
ENDBRANCH   2   3
TORSDOF 4
ENDMDL
MODEL      130
REMARK 921   NORMALIZED FREE ENERGY PREDICTED BY IDOCK:    1.01 KCAL/MOL
REMARK 922        TOTAL FREE ENERGY PREDICTED BY IDOCK:    0.65 KCAL/MOL
REMARK 923 INTER-LIGAND FREE ENERGY PREDICTED BY IDOCK:   -1.95 KCAL/MOL
REMARK 924 INTRA-LIGAND FREE ENERGY PREDICTED BY IDOCK:    2.60 KCAL/MOL
REMARK 927      BINDING AFFINITY PREDICTED BY RF-SCORE:    0.00 PKD
ROOT
HETATM    1  C   UNL     1      -5.356  11.776  70.734  1.00  0.00    -0.145 C  
HETATM    2  O   UNL     1      -5.222  12.904  69.873  1.00  0.00    -0.079 OA 
ENDROOT
BRANCH   2   3
HETATM    3  C   UNL     1      -6.348  13.306  69.202  1.00  0.00    -0.103 A  
HETATM    4  C   UNL     1      -6.746  14.653  69.174  1.00  0.00    -0.117 A  
HETATM    5  C   UNL     1      -7.887  15.045  68.481  1.00  0.00    -0.137 A  
HETATM    6  C   UNL     1      -8.642  14.092  67.814  1.00  0.00    -0.183 A  
HETATM    7  C   UNL     1      -8.274  12.738  67.854  1.00  0.00    -0.168 A  
HETATM    8  C   UNL     1      -7.141  12.330  68.558  1.00  0.00    -0.099 A  
HETATM    9  C   UNL     1      -6.822  10.879  68.595  1.00  0.00    -0.062 C  
HETATM   10  O   UNL     1      -5.910  10.425  69.282  1.00  0.00    -0.038 OA 
HETATM   11  C   UNL     1      -7.618   9.911  67.795  1.00  0.00    -0.090 A  
HETATM   12  C   UNL     1      -7.239   8.552  67.739  1.00  0.00    -0.084 A  
HETATM   13  O   UNL     1      -6.115   8.092  68.384  1.00  0.00    -0.042 OA 
HETATM   14  C   UNL     1      -7.980   7.601  67.009  1.00  0.00    -0.116 A  
HETATM   15  H   UNL     1      -5.859   7.178  68.346  1.00  0.00     0.000 HD 
HETATM   16  C   UNL     1      -9.146   8.026  66.330  1.00  0.00    -0.226 A  
HETATM   17  C   UNL     1      -9.490   9.395  66.352  1.00  0.00    -0.201 A  
HETATM   18  C   UNL     1     -10.003   7.038  65.552  1.00  0.00     1.360 C  
HETATM   19  C   UNL     1      -9.707   5.570  65.878  1.00  0.00    -0.030 C  
HETATM   20  C   UNL     1      -8.742  10.335  67.091  1.00  0.00    -0.131 A  
HETATM   21  O   UNL     1     -10.572   9.836  65.638  1.00  0.00     0.009 OA 
HETATM   22  O   UNL     1     -10.120  12.206  66.570  1.00  0.00    -0.204 OA 
HETATM   23  C   UNL     1      -9.120  11.772  67.129  1.00  0.00    -0.175 C  
HETATM   24  C   UNL     1      -8.191   5.373  65.834  1.00  0.00    -0.119 C  
HETATM   25  O   UNL     1     -10.282   5.256  67.150  1.00  0.00    -0.189 OA 
HETATM   26  H   UNL     1     -10.803  10.758  65.653  1.00  0.00     0.000 HD 
HETATM   27  C   UNL     1      -7.518   6.142  66.976  1.00  0.00    -0.087 C  
HETATM   28  H   UNL     1     -10.098   4.346  67.352  1.00  0.00     0.000 HD 
BRANCH  19  29
HETATM   29  C   UNL     1     -10.357   4.635  64.844  1.00  0.00     0.093 C  
HETATM   30  O   UNL     1     -11.582   4.551  64.720  1.00  0.00    -0.058 OA 
HETATM   31  C   UNL     1      -9.435   3.892  63.904  1.00  0.00    -0.155 C  
ENDBRANCH  19  29
BRANCH  27  32
HETATM   32  O   UNL     1      -7.822   5.559  68.256  1.00  0.00    -0.087 OA 
BRANCH  32  33
HETATM   33  C   UNL     1      -6.738   4.905  68.926  1.00  0.00    -0.050 C  
HETATM   34  C   UNL     1      -7.163   3.827  69.924  1.00  0.00    -0.042 C  
HETATM   35  C   UNL     1      -7.759   2.630  69.183  1.00  0.00    -0.046 C  
HETATM   36  N   UNL     1      -8.153   1.582  70.146  1.00  0.00    -0.041 NA 
HETATM   37  C   UNL     1      -6.731   2.097  68.169  1.00  0.00    -0.035 C  
HETATM   38  H1  UNL     1      -8.551   0.783  69.652  1.00  0.00     0.000 HD 
HETATM   39  H2  UNL     1      -8.785   1.941  70.863  1.00  0.00     0.000 HD 
HETATM   40  O   UNL     1      -5.620   1.535  68.886  1.00  0.00    -0.016 OA 
HETATM   41  C   UNL     1      -6.273   3.244  67.244  1.00  0.00    -0.032 C  
HETATM   42  H   UNL     1      -4.985   1.206  68.261  1.00  0.00     0.000 HD 
HETATM   43  C   UNL     1      -5.130   2.804  66.335  1.00  0.00    -0.005 C  
HETATM   44  O   UNL     1      -5.808   4.385  67.976  1.00  0.00    -0.021 OA 
ENDBRANCH  32  33
ENDBRANCH  27  32
ENDBRANCH   2   3
TORSDOF 4
ENDMDL
MODEL      131
REMARK 921   NORMALIZED FREE ENERGY PREDICTED BY IDOCK:    1.21 KCAL/MOL
REMARK 922        TOTAL FREE ENERGY PREDICTED BY IDOCK:    0.90 KCAL/MOL
REMARK 923 INTER-LIGAND FREE ENERGY PREDICTED BY IDOCK:   -1.51 KCAL/MOL
REMARK 924 INTRA-LIGAND FREE ENERGY PREDICTED BY IDOCK:    2.41 KCAL/MOL
REMARK 927      BINDING AFFINITY PREDICTED BY RF-SCORE:    0.00 PKD
ROOT
HETATM    1  C   UNL     1     -11.068  10.852  63.351  1.00  0.00     0.507 C  
HETATM    2  O   UNL     1      -9.692  10.695  63.015  1.00  0.00    -0.314 OA 
ENDROOT
BRANCH   2   3
HETATM    3  C   UNL     1      -8.965   9.822  63.783  1.00  0.00    -0.240 A  
HETATM    4  C   UNL     1      -8.784   8.482  63.402  1.00  0.00     0.164 A  
HETATM    5  C   UNL     1      -8.036   7.612  64.189  1.00  0.00    -0.058 A  
HETATM    6  C   UNL     1      -7.465   8.075  65.365  1.00  0.00    -0.079 A  
HETATM    7  C   UNL     1      -7.658   9.404  65.774  1.00  0.00    -0.099 A  
HETATM    8  C   UNL     1      -8.418  10.282  65.002  1.00  0.00    -0.177 A  
HETATM    9  C   UNL     1      -8.617  11.667  65.504  1.00  0.00     0.277 C  
HETATM   10  O   UNL     1      -9.364  12.466  64.944  1.00  0.00     0.153 OA 
HETATM   11  C   UNL     1      -7.915  12.133  66.729  1.00  0.00    -0.023 A  
HETATM   12  C   UNL     1      -8.012  13.481  67.135  1.00  0.00    -0.041 A  
HETATM   13  O   UNL     1      -8.721  14.404  66.401  1.00  0.00    -0.461 OA 
HETATM   14  C   UNL     1      -7.379  13.957  68.301  1.00  0.00    -0.117 A  
HETATM   15  H   UNL     1      -8.786  15.312  66.674  1.00  0.00     0.000 HD 
HETATM   16  C   UNL     1      -6.640  13.044  69.091  1.00  0.00    -0.104 A  
HETATM   17  C   UNL     1      -6.508  11.709  68.651  1.00  0.00    -0.059 A  
HETATM   18  C   UNL     1      -5.961  13.493  70.377  1.00  0.00    -0.140 C  
HETATM   19  C   UNL     1      -6.449  14.850  70.894  1.00  0.00     0.265 C  
HETATM   20  C   UNL     1      -7.152  11.246  67.484  1.00  0.00    -0.099 A  
HETATM   21  O   UNL     1      -5.735  10.832  69.362  1.00  0.00    -0.037 OA 
HETATM   22  O   UNL     1      -6.410   8.991  67.675  1.00  0.00    -0.055 OA 
HETATM   23  C   UNL     1      -7.029   9.835  67.037  1.00  0.00    -0.085 C  
HETATM   24  C   UNL     1      -6.449  15.830  69.720  1.00  0.00    -0.168 C  
HETATM   25  O   UNL     1      -7.738  14.680  71.489  1.00  0.00     1.737 OA 
HETATM   26  H   UNL     1      -5.646   9.933  69.066  1.00  0.00     0.000 HD 
HETATM   27  C   UNL     1      -7.511  15.431  68.690  1.00  0.00    -0.130 C  
HETATM   28  H   UNL     1      -8.041  15.522  71.810  1.00  0.00     0.000 HD 
BRANCH  19  29
HETATM   29  C   UNL     1      -5.513  15.391  71.988  1.00  0.00     0.331 C  
HETATM   30  O   UNL     1      -5.152  16.571  72.013  1.00  0.00    -0.236 OA 
HETATM   31  C   UNL     1      -5.129  14.444  73.103  1.00  0.00    -0.333 C  
ENDBRANCH  19  29
BRANCH  27  32
HETATM   32  O   UNL     1      -8.842  15.630  69.199  1.00  0.00    -0.216 OA 
BRANCH  32  33
HETATM   33  C   UNL     1      -9.497  16.841  68.802  1.00  0.00    -0.259 C  
HETATM   34  C   UNL     1      -8.605  17.832  68.054  1.00  0.00    -0.250 C  
HETATM   35  C   UNL     1      -8.244  17.278  66.676  1.00  0.00    -0.261 C  
HETATM   36  N   UNL     1      -7.397  18.244  65.947  1.00  0.00    -0.469 NA 
HETATM   37  C   UNL     1      -9.536  16.971  65.898  1.00  0.00    -0.112 C  
HETATM   38  H1  UNL     1      -7.155  17.874  65.027  1.00  0.00     0.000 HD 
HETATM   39  H2  UNL     1      -6.568  18.505  66.482  1.00  0.00     0.000 HD 
HETATM   40  O   UNL     1     -10.206  18.208  65.603  1.00  0.00    -0.578 OA 
HETATM   41  C   UNL     1     -10.435  16.038  66.735  1.00  0.00    -0.308 C  
HETATM   42  H   UNL     1     -11.003  18.019  65.123  1.00  0.00     0.000 HD 
HETATM   43  C   UNL     1     -11.799  15.842  66.079  1.00  0.00     0.882 C  
HETATM   44  O   UNL     1     -10.675  16.545  68.053  1.00  0.00    -0.321 OA 
ENDBRANCH  32  33
ENDBRANCH  27  32
ENDBRANCH   2   3
TORSDOF 4
ENDMDL
MODEL      132
REMARK 921   NORMALIZED FREE ENERGY PREDICTED BY IDOCK:    1.56 KCAL/MOL
REMARK 922        TOTAL FREE ENERGY PREDICTED BY IDOCK:    1.33 KCAL/MOL
REMARK 923 INTER-LIGAND FREE ENERGY PREDICTED BY IDOCK:   -3.86 KCAL/MOL
REMARK 924 INTRA-LIGAND FREE ENERGY PREDICTED BY IDOCK:    5.19 KCAL/MOL
REMARK 927      BINDING AFFINITY PREDICTED BY RF-SCORE:    0.00 PKD
ROOT
HETATM    1  C   UNL     1     -10.604   5.768  74.108  1.00  0.00    -0.168 C  
HETATM    2  O   UNL     1      -9.804   4.607  74.308  1.00  0.00    -0.138 OA 
ENDROOT
BRANCH   2   3
HETATM    3  C   UNL     1      -8.512   4.660  73.849  1.00  0.00    -0.104 A  
HETATM    4  C   UNL     1      -7.454   4.073  74.562  1.00  0.00    -0.074 A  
HETATM    5  C   UNL     1      -6.151   4.129  74.078  1.00  0.00    -0.028 A  
HETATM    6  C   UNL     1      -5.895   4.777  72.878  1.00  0.00    -0.016 A  
HETATM    7  C   UNL     1      -6.937   5.393  72.167  1.00  0.00    -0.080 A  
HETATM    8  C   UNL     1      -8.245   5.356  72.649  1.00  0.00    -0.114 A  
HETATM    9  C   UNL     1      -9.301   6.057  71.871  1.00  0.00    -0.150 C  
HETATM   10  O   UNL     1     -10.453   6.169  72.281  1.00  0.00    -0.190 OA 
HETATM   11  C   UNL     1      -8.986   6.665  70.551  1.00  0.00    -0.152 A  
HETATM   12  C   UNL     1     -10.014   7.224  69.762  1.00  0.00    -0.183 A  
HETATM   13  O   UNL     1     -11.328   7.192  70.166  1.00  0.00    -0.333 OA 
HETATM   14  C   UNL     1      -9.752   7.828  68.515  1.00  0.00    -0.165 A  
HETATM   15  H   UNL     1     -12.021   7.568  69.634  1.00  0.00     0.000 HD 
HETATM   16  C   UNL     1      -8.415   7.887  68.058  1.00  0.00    -0.123 A  
HETATM   17  C   UNL     1      -7.400   7.282  68.831  1.00  0.00    -0.095 A  
HETATM   18  C   UNL     1      -8.068   8.555  66.735  1.00  0.00    -0.098 C  
HETATM   19  C   UNL     1      -9.189   9.437  66.174  1.00  0.00    -0.190 C  
HETATM   20  C   UNL     1      -7.675   6.685  70.079  1.00  0.00    -0.102 A  
HETATM   21  O   UNL     1      -6.112   7.263  68.368  1.00  0.00    -0.029 OA 
HETATM   22  O   UNL     1      -5.422   6.090  70.568  1.00  0.00    -0.012 OA 
HETATM   23  C   UNL     1      -6.601   6.070  70.900  1.00  0.00    -0.045 C  
HETATM   24  C   UNL     1     -10.494   8.641  66.240  1.00  0.00     0.222 C  
HETATM   25  O   UNL     1      -9.232  10.656  66.920  1.00  0.00    -0.154 OA 
HETATM   26  H   UNL     1      -5.429   6.856  68.888  1.00  0.00     0.000 HD 
HETATM   27  C   UNL     1     -10.907   8.411  67.697  1.00  0.00    -0.008 C  
HETATM   28  H   UNL     1      -9.927  11.203  66.572  1.00  0.00     0.000 HD 
BRANCH  19  29
HETATM   29  C   UNL     1      -8.912   9.811  64.708  1.00  0.00    -0.225 C  
HETATM   30  O   UNL     1      -7.911   9.408  64.110  1.00  0.00    -0.120 OA 
HETATM   31  C   UNL     1      -9.971  10.613  63.985  1.00  0.00    -0.401 C  
ENDBRANCH  19  29
BRANCH  27  32
HETATM   32  O   UNL     1     -11.315   9.637  68.330  1.00  0.00    -0.033 OA 
BRANCH  32  33
HETATM   33  C   UNL     1     -10.840   9.850  69.665  1.00  0.00    -0.253 C  
HETATM   34  C   UNL     1     -10.506  11.303  69.999  1.00  0.00     0.573 C  
HETATM   35  C   UNL     1     -11.786  12.138  70.051  1.00  0.00    -0.252 C  
HETATM   36  N   UNL     1     -11.464  13.539  70.392  1.00  0.00    -0.502 NA 
HETATM   37  C   UNL     1     -12.752  11.522  71.079  1.00  0.00    -0.328 C  
HETATM   38  H1  UNL     1     -12.317  14.097  70.427  1.00  0.00     0.000 HD 
HETATM   39  H2  UNL     1     -10.774  13.938  69.755  1.00  0.00     0.000 HD 
HETATM   40  O   UNL     1     -12.191  11.676  72.394  1.00  0.00     1.150 OA 
HETATM   41  C   UNL     1     -12.985  10.035  70.744  1.00  0.00    -0.257 C  
HETATM   42  H   UNL     1     -12.787  11.296  73.028  1.00  0.00     0.000 HD 
HETATM   43  C   UNL     1     -13.800   9.340  71.830  1.00  0.00    -0.414 C  
HETATM   44  O   UNL     1     -11.760   9.304  70.611  1.00  0.00    -0.268 OA 
ENDBRANCH  32  33
ENDBRANCH  27  32
ENDBRANCH   2   3
TORSDOF 4
ENDMDL
MODEL      133
REMARK 921   NORMALIZED FREE ENERGY PREDICTED BY IDOCK:    2.05 KCAL/MOL
REMARK 922        TOTAL FREE ENERGY PREDICTED BY IDOCK:    1.93 KCAL/MOL
REMARK 923 INTER-LIGAND FREE ENERGY PREDICTED BY IDOCK:   -2.34 KCAL/MOL
REMARK 924 INTRA-LIGAND FREE ENERGY PREDICTED BY IDOCK:    4.27 KCAL/MOL
REMARK 927      BINDING AFFINITY PREDICTED BY RF-SCORE:    0.00 PKD
ROOT
HETATM    1  C   UNL     1      -8.018  19.054  65.509  1.00  0.00     0.501 C  
HETATM    2  O   UNL     1      -9.375  18.821  65.878  1.00  0.00    -0.466 OA 
ENDROOT
BRANCH   2   3
HETATM    3  C   UNL     1      -9.622  18.585  67.206  1.00  0.00    -0.294 A  
HETATM    4  C   UNL     1      -9.634  19.626  68.149  1.00  0.00    -0.474 A  
HETATM    5  C   UNL     1      -9.894  19.370  69.491  1.00  0.00    -0.096 A  
HETATM    6  C   UNL     1     -10.141  18.068  69.902  1.00  0.00     0.750 A  
HETATM    7  C   UNL     1     -10.107  17.012  68.978  1.00  0.00    -0.290 A  
HETATM    8  C   UNL     1      -9.832  17.254  67.632  1.00  0.00    -0.279 A  
HETATM    9  C   UNL     1      -9.773  16.092  66.707  1.00  0.00    -0.239 C  
HETATM   10  O   UNL     1      -9.427  16.204  65.534  1.00  0.00    -0.428 OA 
HETATM   11  C   UNL     1     -10.126  14.729  67.185  1.00  0.00    -0.240 A  
HETATM   12  C   UNL     1     -10.185  13.650  66.277  1.00  0.00    -0.296 A  
HETATM   13  O   UNL     1      -9.955  13.827  64.933  1.00  0.00    -0.591 OA 
HETATM   14  C   UNL     1     -10.496  12.340  66.696  1.00  0.00    -0.247 A  
HETATM   15  H   UNL     1      -9.995  13.101  64.322  1.00  0.00     0.000 HD 
HETATM   16  C   UNL     1     -10.737  12.106  68.070  1.00  0.00    -0.242 A  
HETATM   17  C   UNL     1     -10.725  13.200  68.962  1.00  0.00    -0.107 A  
HETATM   18  C   UNL     1     -11.047  10.708  68.585  1.00  0.00    -0.315 C  
HETATM   19  C   UNL     1     -10.710   9.593  67.588  1.00  0.00    -0.262 C  
HETATM   20  C   UNL     1     -10.407  14.506  68.531  1.00  0.00    -0.242 A  
HETATM   21  O   UNL     1     -11.031  13.005  70.282  1.00  0.00    -0.017 OA 
HETATM   22  O   UNL     1     -10.566  15.518  70.680  1.00  0.00    -0.308 OA 
HETATM   23  C   UNL     1     -10.373  15.650  69.478  1.00  0.00    -0.277 C  
HETATM   24  C   UNL     1     -11.288   9.986  66.227  1.00  0.00     1.106 C  
HETATM   25  O   UNL     1      -9.292   9.406  67.568  1.00  0.00    -0.126 OA 
HETATM   26  H   UNL     1     -11.023  13.741  70.883  1.00  0.00     0.000 HD 
HETATM   27  C   UNL     1     -10.554  11.208  65.667  1.00  0.00    -0.223 C  
HETATM   28  H   UNL     1      -9.084   8.714  66.950  1.00  0.00     0.000 HD 
BRANCH  19  29
HETATM   29  C   UNL     1     -11.337   8.258  68.024  1.00  0.00     0.957 C  
HETATM   30  O   UNL     1     -11.997   8.156  69.062  1.00  0.00     1.469 OA 
HETATM   31  C   UNL     1     -11.206   7.087  67.077  1.00  0.00    -0.058 C  
ENDBRANCH  19  29
BRANCH  27  32
HETATM   32  O   UNL     1      -9.201  10.886  65.296  1.00  0.00    -0.199 OA 
BRANCH  32  33
HETATM   33  C   UNL     1      -8.539   9.905  66.103  1.00  0.00    -0.128 C  
HETATM   34  C   UNL     1      -8.005   8.700  65.331  1.00  0.00    -0.111 C  
HETATM   35  C   UNL     1      -6.836   9.121  64.440  1.00  0.00    -0.087 C  
HETATM   36  N   UNL     1      -6.309   7.952  63.707  1.00  0.00    -0.062 NA 
HETATM   37  C   UNL     1      -5.745   9.774  65.308  1.00  0.00    -0.069 C  
HETATM   38  H1  UNL     1      -5.530   8.233  63.112  1.00  0.00     0.000 HD 
HETATM   39  H2  UNL     1      -7.038   7.472  63.179  1.00  0.00     0.000 HD 
HETATM   40  O   UNL     1      -5.174   8.772  66.166  1.00  0.00    -0.030 OA 
HETATM   41  C   UNL     1      -6.358  10.927  66.129  1.00  0.00    -0.123 C  
HETATM   42  H   UNL     1      -4.501   9.175  66.702  1.00  0.00     0.000 HD 
HETATM   43  C   UNL     1      -5.355  11.493  67.129  1.00  0.00    -0.090 C  
HETATM   44  O   UNL     1      -7.507  10.516  66.879  1.00  0.00    -0.102 OA 
ENDBRANCH  32  33
ENDBRANCH  27  32
ENDBRANCH   2   3
TORSDOF 4
ENDMDL
MODEL      134
REMARK 921   NORMALIZED FREE ENERGY PREDICTED BY IDOCK:    2.83 KCAL/MOL
REMARK 922        TOTAL FREE ENERGY PREDICTED BY IDOCK:    2.89 KCAL/MOL
REMARK 923 INTER-LIGAND FREE ENERGY PREDICTED BY IDOCK:   -0.46 KCAL/MOL
REMARK 924 INTRA-LIGAND FREE ENERGY PREDICTED BY IDOCK:    3.35 KCAL/MOL
REMARK 927      BINDING AFFINITY PREDICTED BY RF-SCORE:    0.00 PKD
ROOT
HETATM    1  C   UNL     1     -11.978   7.950  69.688  1.00  0.00     1.006 C  
HETATM    2  O   UNL     1     -11.072   7.582  68.651  1.00  0.00     0.026 OA 
ENDROOT
BRANCH   2   3
HETATM    3  C   UNL     1      -9.738   7.583  68.968  1.00  0.00    -0.162 A  
HETATM    4  C   UNL     1      -9.104   6.443  69.489  1.00  0.00    -0.138 A  
HETATM    5  C   UNL     1      -7.748   6.458  69.797  1.00  0.00    -0.109 A  
HETATM    6  C   UNL     1      -7.014   7.617  69.589  1.00  0.00    -0.052 A  
HETATM    7  C   UNL     1      -7.637   8.774  69.094  1.00  0.00    -0.088 A  
HETATM    8  C   UNL     1      -8.999   8.775  68.796  1.00  0.00    -0.138 A  
HETATM    9  C   UNL     1      -9.610  10.040  68.309  1.00  0.00    -0.140 C  
HETATM   10  O   UNL     1     -10.820  10.158  68.132  1.00  0.00    -0.233 OA 
HETATM   11  C   UNL     1      -8.762  11.228  68.028  1.00  0.00    -0.144 A  
HETATM   12  C   UNL     1      -9.328  12.387  67.454  1.00  0.00    -0.181 A  
HETATM   13  O   UNL     1     -10.657  12.442  67.108  1.00  0.00    -0.221 OA 
HETATM   14  C   UNL     1      -8.560  13.540  67.191  1.00  0.00    -0.203 A  
HETATM   15  H   UNL     1     -11.038  13.222  66.721  1.00  0.00     0.000 HD 
HETATM   16  C   UNL     1      -7.187  13.533  67.533  1.00  0.00    -0.165 A  
HETATM   17  C   UNL     1      -6.619  12.353  68.060  1.00  0.00    -0.081 A  
HETATM   18  C   UNL     1      -6.316  14.759  67.302  1.00  0.00     0.282 C  
HETATM   19  C   UNL     1      -7.111  16.043  67.039  1.00  0.00    -0.198 C  
HETATM   20  C   UNL     1      -7.400  11.207  68.323  1.00  0.00    -0.090 A  
HETATM   21  O   UNL     1      -5.277  12.303  68.326  1.00  0.00    -0.051 OA 
HETATM   22  O   UNL     1      -5.624   9.902  69.224  1.00  0.00    -0.035 OA 
HETATM   23  C   UNL     1      -6.803   9.975  68.900  1.00  0.00    -0.054 C  
HETATM   24  C   UNL     1      -8.179  15.730  65.989  1.00  0.00     0.408 C  
HETATM   25  O   UNL     1      -7.655  16.509  68.277  1.00  0.00    -0.159 OA 
HETATM   26  H   UNL     1      -4.895  11.509  68.681  1.00  0.00     0.000 HD 
HETATM   27  C   UNL     1      -9.224  14.766  66.560  1.00  0.00    -0.276 C  
HETATM   28  H   UNL     1      -8.147  17.305  68.115  1.00  0.00     0.000 HD 
BRANCH  19  29
HETATM   29  C   UNL     1      -6.197  17.155  66.498  1.00  0.00    -0.213 C  
HETATM   30  O   UNL     1      -5.722  17.113  65.359  1.00  0.00     0.298 OA 
HETATM   31  C   UNL     1      -5.981  18.365  67.377  1.00  0.00    -0.170 C  
ENDBRANCH  19  29
BRANCH  27  32
HETATM   32  O   UNL     1     -10.028  15.397  67.573  1.00  0.00    -0.224 OA 
BRANCH  32  33
HETATM   33  C   UNL     1      -9.520  15.340  68.911  1.00  0.00    -0.218 C  
HETATM   34  C   UNL     1      -9.335  16.700  69.582  1.00  0.00     0.337 C  
HETATM   35  C   UNL     1     -10.697  17.340  69.857  1.00  0.00     0.393 C  
HETATM   36  N   UNL     1     -10.518  18.648  70.521  1.00  0.00     1.011 NA 
HETATM   37  C   UNL     1     -11.540  16.386  70.721  1.00  0.00    -0.126 C  
HETATM   38  H1  UNL     1     -11.426  19.075  70.705  1.00  0.00     0.000 HD 
HETATM   39  H2  UNL     1      -9.906  19.266  69.988  1.00  0.00     0.000 HD 
HETATM   40  O   UNL     1     -10.941  16.287  72.024  1.00  0.00     0.414 OA 
HETATM   41  C   UNL     1     -11.621  15.005  70.039  1.00  0.00    -0.287 C  
HETATM   42  H   UNL     1     -11.462  15.699  72.558  1.00  0.00     0.000 HD 
HETATM   43  C   UNL     1     -12.304  13.979  70.939  1.00  0.00    -0.443 C  
HETATM   44  O   UNL     1     -10.330  14.479  69.712  1.00  0.00    -0.033 OA 
ENDBRANCH  32  33
ENDBRANCH  27  32
ENDBRANCH   2   3
TORSDOF 4
ENDMDL
MODEL      135
REMARK 921   NORMALIZED FREE ENERGY PREDICTED BY IDOCK:    3.14 KCAL/MOL
REMARK 922        TOTAL FREE ENERGY PREDICTED BY IDOCK:    3.28 KCAL/MOL
REMARK 923 INTER-LIGAND FREE ENERGY PREDICTED BY IDOCK:    0.44 KCAL/MOL
REMARK 924 INTRA-LIGAND FREE ENERGY PREDICTED BY IDOCK:    2.84 KCAL/MOL
REMARK 927      BINDING AFFINITY PREDICTED BY RF-SCORE:    0.00 PKD
ROOT
HETATM    1  C   UNL     1     -10.239   1.815  71.573  1.00  0.00     0.061 C  
HETATM    2  O   UNL     1      -9.395   2.815  71.009  1.00  0.00    -0.122 OA 
ENDROOT
BRANCH   2   3
HETATM    3  C   UNL     1      -9.168   2.741  69.658  1.00  0.00    -0.136 A  
HETATM    4  C   UNL     1      -8.759   1.544  69.046  1.00  0.00    -0.103 A  
HETATM    5  C   UNL     1      -8.541   1.484  67.673  1.00  0.00    -0.102 A  
HETATM    6  C   UNL     1      -8.727   2.622  66.902  1.00  0.00    -0.134 A  
HETATM    7  C   UNL     1      -9.110   3.833  67.501  1.00  0.00    -0.185 A  
HETATM    8  C   UNL     1      -9.317   3.909  68.878  1.00  0.00    -0.231 A  
HETATM    9  C   UNL     1      -9.686   5.226  69.460  1.00  0.00    -0.178 C  
HETATM   10  O   UNL     1      -9.775   5.406  70.673  1.00  0.00    -0.163 OA 
HETATM   11  C   UNL     1      -9.951   6.393  68.578  1.00  0.00    -0.155 A  
HETATM   12  C   UNL     1     -10.417   7.608  69.126  1.00  0.00    -0.214 A  
HETATM   13  O   UNL     1     -10.670   7.740  70.471  1.00  0.00    -0.227 OA 
HETATM   14  C   UNL     1     -10.660   8.742  68.325  1.00  0.00    -0.194 A  
HETATM   15  H   UNL     1     -10.984   8.558  70.840  1.00  0.00     0.000 HD 
HETATM   16  C   UNL     1     -10.411   8.657  66.935  1.00  0.00    -0.329 A  
HETATM   17  C   UNL     1      -9.993   7.424  66.389  1.00  0.00    -0.036 A  
HETATM   18  C   UNL     1     -10.626   9.858  66.025  1.00  0.00    -0.005 C  
HETATM   19  C   UNL     1     -10.758  11.187  66.776  1.00  0.00    -0.276 C  
HETATM   20  C   UNL     1      -9.749   6.297  67.203  1.00  0.00    -0.164 A  
HETATM   21  O   UNL     1      -9.821   7.301  65.037  1.00  0.00     1.115 OA 
HETATM   22  O   UNL     1      -9.047   4.866  65.435  1.00  0.00    -0.150 OA 
HETATM   23  C   UNL     1      -9.287   5.008  66.628  1.00  0.00    -0.138 C  
HETATM   24  C   UNL     1     -11.752  10.986  67.921  1.00  0.00    -0.216 C  
HETATM   25  O   UNL     1      -9.461  11.598  67.218  1.00  0.00    -0.166 OA 
HETATM   26  H   UNL     1      -9.539   6.471  64.670  1.00  0.00     0.000 HD 
HETATM   27  C   UNL     1     -11.172  10.032  68.971  1.00  0.00    -0.133 C  
HETATM   28  H   UNL     1      -9.543  12.422  67.683  1.00  0.00     0.000 HD 
BRANCH  19  29
HETATM   29  C   UNL     1     -11.291  12.292  65.848  1.00  0.00    -0.360 C  
HETATM   30  O   UNL     1     -12.468  12.663  65.885  1.00  0.00    -0.584 OA 
HETATM   31  C   UNL     1     -10.292  12.988  64.952  1.00  0.00    -0.343 C  
ENDBRANCH  19  29
BRANCH  27  32
HETATM   32  O   UNL     1     -10.072  10.632  69.679  1.00  0.00    -0.189 OA 
BRANCH  32  33
HETATM   33  C   UNL     1     -10.416  11.589  70.689  1.00  0.00     2.704 C  
HETATM   34  C   UNL     1     -10.960  12.913  70.153  1.00  0.00     0.819 C  
HETATM   35  C   UNL     1     -12.339  12.701  69.527  1.00  0.00     0.055 C  
HETATM   36  N   UNL     1     -12.871  13.984  69.025  1.00  0.00     0.071 NA 
HETATM   37  C   UNL     1     -13.280  12.077  70.573  1.00  0.00     0.710 C  
HETATM   38  H1  UNL     1     -13.790  13.843  68.608  1.00  0.00     0.000 HD 
HETATM   39  H2  UNL     1     -12.224  14.439  68.380  1.00  0.00     0.000 HD 
HETATM   40  O   UNL     1     -13.523  13.040  71.612  1.00  0.00    -0.338 OA 
HETATM   41  C   UNL     1     -12.644  10.792  71.141  1.00  0.00    -0.428 C  
HETATM   42  H   UNL     1     -14.104  12.655  72.258  1.00  0.00     0.000 HD 
HETATM   43  C   UNL     1     -13.461  10.232  72.301  1.00  0.00    -0.240 C  
HETATM   44  O   UNL     1     -11.316  11.010  71.634  1.00  0.00     1.148 OA 
ENDBRANCH  32  33
ENDBRANCH  27  32
ENDBRANCH   2   3
TORSDOF 4
ENDMDL
MODEL      136
REMARK 921   NORMALIZED FREE ENERGY PREDICTED BY IDOCK:    3.18 KCAL/MOL
REMARK 922        TOTAL FREE ENERGY PREDICTED BY IDOCK:    3.33 KCAL/MOL
REMARK 923 INTER-LIGAND FREE ENERGY PREDICTED BY IDOCK:    2.14 KCAL/MOL
REMARK 924 INTRA-LIGAND FREE ENERGY PREDICTED BY IDOCK:    1.19 KCAL/MOL
REMARK 927      BINDING AFFINITY PREDICTED BY RF-SCORE:    0.00 PKD
ROOT
HETATM    1  C   UNL     1      -8.493  11.450  70.886  1.00  0.00     6.334 C  
HETATM    2  O   UNL     1      -9.444  10.571  70.291  1.00  0.00     0.337 OA 
ENDROOT
BRANCH   2   3
HETATM    3  C   UNL     1      -9.594   9.338  70.874  1.00  0.00    -0.269 A  
HETATM    4  C   UNL     1      -9.965   9.202  72.222  1.00  0.00     0.297 A  
HETATM    5  C   UNL     1     -10.121   7.945  72.795  1.00  0.00    -0.365 A  
HETATM    6  C   UNL     1      -9.904   6.811  72.025  1.00  0.00    -0.166 A  
HETATM    7  C   UNL     1      -9.507   6.929  70.683  1.00  0.00    -0.165 A  
HETATM    8  C   UNL     1      -9.333   8.185  70.101  1.00  0.00    -0.159 A  
HETATM    9  C   UNL     1      -8.877   8.246  68.688  1.00  0.00    -0.133 C  
HETATM   10  O   UNL     1      -8.591   9.306  68.136  1.00  0.00    -0.124 OA 
HETATM   11  C   UNL     1      -8.739   7.002  67.885  1.00  0.00    -0.125 A  
HETATM   12  C   UNL     1      -8.421   7.073  66.512  1.00  0.00    -0.125 A  
HETATM   13  O   UNL     1      -8.267   8.280  65.871  1.00  0.00    -0.106 OA 
HETATM   14  C   UNL     1      -8.262   5.916  65.722  1.00  0.00    -0.130 A  
HETATM   15  H   UNL     1      -8.054   8.328  64.946  1.00  0.00     0.000 HD 
HETATM   16  C   UNL     1      -8.408   4.650  66.337  1.00  0.00    -0.106 A  
HETATM   17  C   UNL     1      -8.774   4.590  67.699  1.00  0.00    -0.104 A  
HETATM   18  C   UNL     1      -8.216   3.366  65.543  1.00  0.00    -0.097 C  
HETATM   19  C   UNL     1      -7.516   3.571  64.195  1.00  0.00    -0.074 C  
HETATM   20  C   UNL     1      -8.926   5.756  68.479  1.00  0.00    -0.112 A  
HETATM   21  O   UNL     1      -8.994   3.375  68.292  1.00  0.00    -0.110 OA 
HETATM   22  O   UNL     1      -9.424   4.626  70.515  1.00  0.00    -0.147 OA 
HETATM   23  C   UNL     1      -9.288   5.687  69.918  1.00  0.00    -0.147 C  
HETATM   24  C   UNL     1      -8.194   4.744  63.484  1.00  0.00    -0.107 C  
HETATM   25  O   UNL     1      -6.120   3.781  64.429  1.00  0.00    -0.021 OA 
HETATM   26  H   UNL     1      -9.240   3.335  69.209  1.00  0.00     0.000 HD 
HETATM   27  C   UNL     1      -7.926   6.052  64.236  1.00  0.00    -0.121 C  
HETATM   28  H   UNL     1      -5.686   3.907  63.593  1.00  0.00     0.000 HD 
BRANCH  19  29
HETATM   29  C   UNL     1      -7.644   2.318  63.313  1.00  0.00    -0.055 C  
HETATM   30  O   UNL     1      -6.672   1.606  63.046  1.00  0.00    -0.020 OA 
HETATM   31  C   UNL     1      -9.033   1.924  62.865  1.00  0.00    -0.083 C  
ENDBRANCH  19  29
BRANCH  27  32
HETATM   32  O   UNL     1      -6.545   6.445  64.134  1.00  0.00    -0.032 OA 
BRANCH  32  33
HETATM   33  C   UNL     1      -6.233   7.403  63.115  1.00  0.00    -0.054 C  
HETATM   34  C   UNL     1      -7.445   7.948  62.360  1.00  0.00    -0.104 C  
HETATM   35  C   UNL     1      -8.288   8.828  63.284  1.00  0.00    -0.161 C  
HETATM   36  N   UNL     1      -9.450   9.368  62.548  1.00  0.00    -0.556 NA 
HETATM   37  C   UNL     1      -7.410   9.959  63.847  1.00  0.00    -0.131 C  
HETATM   38  H1  UNL     1     -10.013   9.955  63.163  1.00  0.00     0.000 HD 
HETATM   39  H2  UNL     1     -10.004   8.629  62.114  1.00  0.00     0.000 HD 
HETATM   40  O   UNL     1      -7.045  10.843  62.774  1.00  0.00    -0.354 OA 
HETATM   41  C   UNL     1      -6.160   9.357  64.522  1.00  0.00    -0.077 C  
HETATM   42  H   UNL     1      -6.503  11.541  63.122  1.00  0.00     0.000 HD 
HETATM   43  C   UNL     1      -5.178  10.444  64.946  1.00  0.00    -0.130 C  
HETATM   44  O   UNL     1      -5.447   8.465  63.657  1.00  0.00    -0.056 OA 
ENDBRANCH  32  33
ENDBRANCH  27  32
ENDBRANCH   2   3
TORSDOF 4
ENDMDL
MODEL      137
REMARK 921   NORMALIZED FREE ENERGY PREDICTED BY IDOCK:    3.45 KCAL/MOL
REMARK 922        TOTAL FREE ENERGY PREDICTED BY IDOCK:    3.67 KCAL/MOL
REMARK 923 INTER-LIGAND FREE ENERGY PREDICTED BY IDOCK:    0.17 KCAL/MOL
REMARK 924 INTRA-LIGAND FREE ENERGY PREDICTED BY IDOCK:    3.49 KCAL/MOL
REMARK 927      BINDING AFFINITY PREDICTED BY RF-SCORE:    0.00 PKD
ROOT
HETATM    1  C   UNL     1     -10.785   8.415  67.452  1.00  0.00    -0.155 C  
HETATM    2  O   UNL     1      -9.580   7.656  67.504  1.00  0.00    -0.136 OA 
ENDROOT
BRANCH   2   3
HETATM    3  C   UNL     1      -8.851   7.732  68.663  1.00  0.00    -0.131 A  
HETATM    4  C   UNL     1      -8.631   6.603  69.470  1.00  0.00    -0.132 A  
HETATM    5  C   UNL     1      -7.882   6.697  70.638  1.00  0.00    -0.106 A  
HETATM    6  C   UNL     1      -7.350   7.922  71.012  1.00  0.00    -0.062 A  
HETATM    7  C   UNL     1      -7.582   9.066  70.232  1.00  0.00    -0.087 A  
HETATM    8  C   UNL     1      -8.344   8.988  69.066  1.00  0.00    -0.124 A  
HETATM    9  C   UNL     1      -8.587  10.240  68.301  1.00  0.00    -0.122 C  
HETATM   10  O   UNL     1      -9.338  10.279  67.330  1.00  0.00    -0.148 OA 
HETATM   11  C   UNL     1      -7.925  11.509  68.702  1.00  0.00    -0.135 A  
HETATM   12  C   UNL     1      -8.063  12.666  67.905  1.00  0.00    -0.165 A  
HETATM   13  O   UNL     1      -8.774  12.648  66.728  1.00  0.00    -0.289 OA 
HETATM   14  C   UNL     1      -7.468  13.893  68.263  1.00  0.00    -0.118 A  
HETATM   15  H   UNL     1      -8.867  13.427  66.192  1.00  0.00     0.000 HD 
HETATM   16  C   UNL     1      -6.728  13.962  69.467  1.00  0.00    -0.062 A  
HETATM   17  C   UNL     1      -6.555  12.789  70.232  1.00  0.00     0.482 A  
HETATM   18  C   UNL     1      -6.090  15.268  69.920  1.00  0.00    -0.151 C  
HETATM   19  C   UNL     1      -6.621  16.504  69.187  1.00  0.00    -0.200 C  
HETATM   20  C   UNL     1      -7.160  11.568  69.864  1.00  0.00     0.301 A  
HETATM   21  O   UNL     1      -5.779  12.820  71.359  1.00  0.00    -0.469 OA 
HETATM   22  O   UNL     1      -6.372  10.331  71.740  1.00  0.00    -0.087 OA 
HETATM   23  C   UNL     1      -6.994  10.340  70.685  1.00  0.00     0.142 C  
HETATM   24  C   UNL     1      -6.616  16.202  67.687  1.00  0.00    -0.180 C  
HETATM   25  O   UNL     1      -7.920  16.819  69.696  1.00  0.00     0.171 OA 
HETATM   26  H   UNL     1      -5.662  12.029  71.874  1.00  0.00     0.000 HD 
HETATM   27  C   UNL     1      -7.643  15.114  67.357  1.00  0.00    -0.203 C  
HETATM   28  H   UNL     1      -8.249  17.586  69.241  1.00  0.00     0.000 HD 
BRANCH  19  29
HETATM   29  C   UNL     1      -5.724  17.725  69.447  1.00  0.00    -0.221 C  
HETATM   30  O   UNL     1      -5.158  18.327  68.530  1.00  0.00    -0.161 OA 
HETATM   31  C   UNL     1      -5.641  18.235  70.868  1.00  0.00    -0.060 C  
ENDBRANCH  19  29
BRANCH  27  32
HETATM   32  O   UNL     1      -8.990  15.592  67.524  1.00  0.00    -0.187 OA 
BRANCH  32  33
HETATM   33  C   UNL     1     -10.002  14.591  67.686  1.00  0.00    -0.224 C  
HETATM   34  C   UNL     1     -11.235  15.050  68.464  1.00  0.00    -0.298 C  
HETATM   35  C   UNL     1     -12.022  16.074  67.645  1.00  0.00     0.595 C  
HETATM   36  N   UNL     1     -13.223  16.504  68.391  1.00  0.00     2.564 NA 
HETATM   37  C   UNL     1     -12.401  15.455  66.288  1.00  0.00     0.965 C  
HETATM   38  H1  UNL     1     -13.748  17.187  67.845  1.00  0.00     0.000 HD 
HETATM   39  H2  UNL     1     -12.989  16.856  69.320  1.00  0.00     0.000 HD 
HETATM   40  O   UNL     1     -13.346  14.395  66.508  1.00  0.00     0.277 OA 
HETATM   41  C   UNL     1     -11.131  14.932  65.586  1.00  0.00    -0.348 C  
HETATM   42  H   UNL     1     -13.580  14.014  65.670  1.00  0.00     0.000 HD 
HETATM   43  C   UNL     1     -11.475  14.160  64.316  1.00  0.00    -0.287 C  
HETATM   44  O   UNL     1     -10.369  14.048  66.417  1.00  0.00    -0.278 OA 
ENDBRANCH  32  33
ENDBRANCH  27  32
ENDBRANCH   2   3
TORSDOF 4
ENDMDL
MODEL      138
REMARK 921   NORMALIZED FREE ENERGY PREDICTED BY IDOCK:    3.66 KCAL/MOL
REMARK 922        TOTAL FREE ENERGY PREDICTED BY IDOCK:    3.93 KCAL/MOL
REMARK 923 INTER-LIGAND FREE ENERGY PREDICTED BY IDOCK:   -3.32 KCAL/MOL
REMARK 924 INTRA-LIGAND FREE ENERGY PREDICTED BY IDOCK:    7.25 KCAL/MOL
REMARK 927      BINDING AFFINITY PREDICTED BY RF-SCORE:    0.00 PKD
ROOT
HETATM    1  C   UNL     1      -8.937  15.934  67.708  1.00  0.00    -0.176 C  
HETATM    2  O   UNL     1      -9.110  16.246  69.088  1.00  0.00    -0.253 OA 
ENDROOT
BRANCH   2   3
HETATM    3  C   UNL     1     -10.235  15.751  69.696  1.00  0.00    -0.289 A  
HETATM    4  C   UNL     1     -11.070  16.569  70.476  1.00  0.00    -0.104 A  
HETATM    5  C   UNL     1     -12.212  16.054  71.079  1.00  0.00    -0.328 A  
HETATM    6  C   UNL     1     -12.528  14.713  70.910  1.00  0.00    -0.406 A  
HETATM    7  C   UNL     1     -11.691  13.875  70.156  1.00  0.00    -0.314 A  
HETATM    8  C   UNL     1     -10.535  14.377  69.559  1.00  0.00    -0.028 A  
HETATM    9  C   UNL     1      -9.669  13.434  68.803  1.00  0.00     0.010 C  
HETATM   10  O   UNL     1      -8.580  13.769  68.344  1.00  0.00    -0.166 OA 
HETATM   11  C   UNL     1     -10.097  12.028  68.584  1.00  0.00    -0.170 A  
HETATM   12  C   UNL     1      -9.331  11.170  67.766  1.00  0.00    -0.164 A  
HETATM   13  O   UNL     1      -8.198  11.611  67.124  1.00  0.00    -0.151 OA 
HETATM   14  C   UNL     1      -9.693   9.824  67.552  1.00  0.00    -0.192 A  
HETATM   15  H   UNL     1      -7.682  11.033  66.573  1.00  0.00     0.000 HD 
HETATM   16  C   UNL     1     -10.850   9.323  68.193  1.00  0.00    -0.145 A  
HETATM   17  C   UNL     1     -11.637  10.201  68.970  1.00  0.00    -0.011 A  
HETATM   18  C   UNL     1     -11.272   7.870  68.024  1.00  0.00     0.499 C  
HETATM   19  C   UNL     1     -10.177   6.971  67.441  1.00  0.00    -0.215 C  
HETATM   20  C   UNL     1     -11.260  11.544  69.180  1.00  0.00    -0.337 A  
HETATM   21  O   UNL     1     -12.799   9.752  69.536  1.00  0.00     0.183 OA 
HETATM   22  O   UNL     1     -13.087  12.090  70.605  1.00  0.00     0.088 OA 
HETATM   23  C   UNL     1     -12.079  12.459  70.017  1.00  0.00    -0.263 C  
HETATM   24  C   UNL     1      -9.585   7.678  66.221  1.00  0.00    -0.155 C  
HETATM   25  O   UNL     1      -9.211   6.700  68.461  1.00  0.00    -0.129 OA 
HETATM   26  H   UNL     1     -13.329  10.344  70.058  1.00  0.00     0.000 HD 
HETATM   27  C   UNL     1      -8.830   8.941  66.648  1.00  0.00    -0.129 C  
HETATM   28  H   UNL     1      -8.532   6.142  68.100  1.00  0.00     0.000 HD 
BRANCH  19  29
HETATM   29  C   UNL     1     -10.756   5.618  66.995  1.00  0.00    -0.250 C  
HETATM   30  O   UNL     1     -11.384   5.493  65.940  1.00  0.00     0.299 OA 
HETATM   31  C   UNL     1     -10.438   4.411  67.849  1.00  0.00     0.430 C  
ENDBRANCH  19  29
BRANCH  27  32
HETATM   32  O   UNL     1      -7.629   8.617  67.372  1.00  0.00    -0.092 OA 
BRANCH  32  33
HETATM   33  C   UNL     1      -7.776   7.705  68.467  1.00  0.00    -0.119 C  
HETATM   34  C   UNL     1      -7.214   6.307  68.213  1.00  0.00    -0.085 C  
HETATM   35  C   UNL     1      -5.688   6.360  68.134  1.00  0.00    -0.012 C  
HETATM   36  N   UNL     1      -5.144   5.006  67.905  1.00  0.00    -0.003 NA 
HETATM   37  C   UNL     1      -5.134   6.972  69.433  1.00  0.00    -0.014 C  
HETATM   38  H1  UNL     1      -4.126   5.041  67.852  1.00  0.00     0.000 HD 
HETATM   39  H2  UNL     1      -5.553   4.565  67.081  1.00  0.00     0.000 HD 
HETATM   40  O   UNL     1      -5.387   6.064  70.519  1.00  0.00    -0.012 OA 
HETATM   41  C   UNL     1      -5.798   8.341  69.685  1.00  0.00    -0.026 C  
HETATM   42  H   UNL     1      -5.045   6.442  71.320  1.00  0.00     0.000 HD 
HETATM   43  C   UNL     1      -5.407   8.907  71.047  1.00  0.00    -0.030 C  
HETATM   44  O   UNL     1      -7.229   8.269  69.659  1.00  0.00    -0.058 OA 
ENDBRANCH  32  33
ENDBRANCH  27  32
ENDBRANCH   2   3
TORSDOF 4
ENDMDL
MODEL      139
REMARK 921   NORMALIZED FREE ENERGY PREDICTED BY IDOCK:    3.81 KCAL/MOL
REMARK 922        TOTAL FREE ENERGY PREDICTED BY IDOCK:    4.11 KCAL/MOL
REMARK 923 INTER-LIGAND FREE ENERGY PREDICTED BY IDOCK:    0.98 KCAL/MOL
REMARK 924 INTRA-LIGAND FREE ENERGY PREDICTED BY IDOCK:    3.13 KCAL/MOL
REMARK 927      BINDING AFFINITY PREDICTED BY RF-SCORE:    0.00 PKD
ROOT
HETATM    1  C   UNL     1      -9.159  18.678  68.760  1.00  0.00    -0.266 C  
HETATM    2  O   UNL     1      -9.177  17.253  68.801  1.00  0.00    -0.270 OA 
ENDROOT
BRANCH   2   3
HETATM    3  C   UNL     1     -10.006  16.672  69.727  1.00  0.00     0.125 A  
HETATM    4  C   UNL     1     -10.723  17.443  70.658  1.00  0.00     1.263 A  
HETATM    5  C   UNL     1     -11.566  16.838  71.585  1.00  0.00     0.230 A  
HETATM    6  C   UNL     1     -11.697  15.457  71.590  1.00  0.00    -0.483 A  
HETATM    7  C   UNL     1     -10.968  14.670  70.684  1.00  0.00     0.072 A  
HETATM    8  C   UNL     1     -10.108  15.264  69.760  1.00  0.00    -0.230 A  
HETATM    9  C   UNL     1      -9.335  14.377  68.850  1.00  0.00    -0.096 C  
HETATM   10  O   UNL     1      -8.475  14.810  68.087  1.00  0.00    -0.139 OA 
HETATM   11  C   UNL     1      -9.575  12.910  68.843  1.00  0.00     0.215 A  
HETATM   12  C   UNL     1      -8.927  12.088  67.897  1.00  0.00    -0.182 A  
HETATM   13  O   UNL     1      -8.091  12.613  66.939  1.00  0.00    -0.346 OA 
HETATM   14  C   UNL     1      -9.113  10.690  67.872  1.00  0.00    -0.145 A  
HETATM   15  H   UNL     1      -7.656  12.060  66.302  1.00  0.00     0.000 HD 
HETATM   16  C   UNL     1      -9.962  10.102  68.839  1.00  0.00    -0.207 A  
HETATM   17  C   UNL     1     -10.644  10.937  69.750  1.00  0.00    -0.074 A  
HETATM   18  C   UNL     1     -10.176   8.595  68.881  1.00  0.00    -0.221 C  
HETATM   19  C   UNL     1      -9.146   7.801  68.070  1.00  0.00    -0.128 C  
HETATM   20  C   UNL     1     -10.444  12.334  69.767  1.00  0.00     0.896 A  
HETATM   21  O   UNL     1     -11.527  10.393  70.643  1.00  0.00    -0.317 OA 
HETATM   22  O   UNL     1     -11.890  12.765  71.609  1.00  0.00     0.902 OA 
HETATM   23  C   UNL     1     -11.147  13.208  70.742  1.00  0.00     1.934 C  
HETATM   24  C   UNL     1      -9.021   8.456  66.694  1.00  0.00    -0.181 C  
HETATM   25  O   UNL     1      -7.913   7.770  68.796  1.00  0.00    -0.120 OA 
HETATM   26  H   UNL     1     -11.986  10.955  71.256  1.00  0.00     0.000 HD 
HETATM   27  C   UNL     1      -8.391   9.847  66.818  1.00  0.00    -0.125 C  
HETATM   28  H   UNL     1      -7.275   7.278  68.293  1.00  0.00     0.000 HD 
BRANCH  19  29
HETATM   29  C   UNL     1      -9.598   6.343  67.885  1.00  0.00    -0.121 C  
HETATM   30  O   UNL     1     -10.409   5.810  68.647  1.00  0.00    -0.182 OA 
HETATM   31  C   UNL     1      -9.093   5.610  66.663  1.00  0.00    -0.129 C  
ENDBRANCH  19  29
BRANCH  27  32
HETATM   32  O   UNL     1      -7.005   9.767  67.197  1.00  0.00    -0.083 OA 
BRANCH  32  33
HETATM   33  C   UNL     1      -6.071   9.533  66.136  1.00  0.00    -0.063 C  
HETATM   34  C   UNL     1      -5.877   8.062  65.771  1.00  0.00    -0.037 C  
HETATM   35  C   UNL     1      -7.144   7.510  65.117  1.00  0.00    -0.063 C  
HETATM   36  N   UNL     1      -6.948   6.093  64.749  1.00  0.00    -0.053 NA 
HETATM   37  C   UNL     1      -7.492   8.364  63.885  1.00  0.00    -0.116 C  
HETATM   38  H1  UNL     1      -7.794   5.724  64.312  1.00  0.00     0.000 HD 
HETATM   39  H2  UNL     1      -6.653   5.529  65.546  1.00  0.00     0.000 HD 
HETATM   40  O   UNL     1      -6.479   8.169  62.883  1.00  0.00    -0.084 OA 
HETATM   41  C   UNL     1      -7.591   9.848  64.294  1.00  0.00    -0.139 C  
HETATM   42  H   UNL     1      -6.694   8.696  62.123  1.00  0.00     0.000 HD 
HETATM   43  C   UNL     1      -7.767  10.751  63.077  1.00  0.00     0.071 C  
HETATM   44  O   UNL     1      -6.423  10.304  64.987  1.00  0.00    -0.124 OA 
ENDBRANCH  32  33
ENDBRANCH  27  32
ENDBRANCH   2   3
TORSDOF 4
ENDMDL
MODEL      140
REMARK 921   NORMALIZED FREE ENERGY PREDICTED BY IDOCK:    4.37 KCAL/MOL
REMARK 922        TOTAL FREE ENERGY PREDICTED BY IDOCK:    4.80 KCAL/MOL
REMARK 923 INTER-LIGAND FREE ENERGY PREDICTED BY IDOCK:    1.58 KCAL/MOL
REMARK 924 INTRA-LIGAND FREE ENERGY PREDICTED BY IDOCK:    3.22 KCAL/MOL
REMARK 927      BINDING AFFINITY PREDICTED BY RF-SCORE:    0.00 PKD
ROOT
HETATM    1  C   UNL     1     -13.377  11.611  72.396  1.00  0.00     0.244 C  
HETATM    2  O   UNL     1     -13.398  11.437  70.982  1.00  0.00    -0.004 OA 
ENDROOT
BRANCH   2   3
HETATM    3  C   UNL     1     -12.353  10.742  70.430  1.00  0.00    -0.353 A  
HETATM    4  C   UNL     1     -12.249   9.347  70.555  1.00  0.00    -0.045 A  
HETATM    5  C   UNL     1     -11.186   8.656  69.982  1.00  0.00    -0.098 A  
HETATM    6  C   UNL     1     -10.216   9.357  69.280  1.00  0.00    -0.209 A  
HETATM    7  C   UNL     1     -10.290  10.755  69.167  1.00  0.00    -0.238 A  
HETATM    8  C   UNL     1     -11.342  11.460  69.751  1.00  0.00    -0.332 A  
HETATM    9  C   UNL     1     -11.348  12.941  69.629  1.00  0.00    -0.096 C  
HETATM   10  O   UNL     1     -12.173  13.644  70.208  1.00  0.00    -0.330 OA 
HETATM   11  C   UNL     1     -10.328  13.633  68.797  1.00  0.00    -0.182 A  
HETATM   12  C   UNL     1     -10.408  15.027  68.588  1.00  0.00    -0.236 A  
HETATM   13  O   UNL     1     -11.437  15.775  69.109  1.00  0.00    -0.330 OA 
HETATM   14  C   UNL     1      -9.449  15.722  67.822  1.00  0.00    -0.212 A  
HETATM   15  H   UNL     1     -11.491  16.713  68.967  1.00  0.00     0.000 HD 
HETATM   16  C   UNL     1      -8.368  14.996  67.267  1.00  0.00    -0.228 A  
HETATM   17  C   UNL     1      -8.324  13.595  67.441  1.00  0.00    -0.192 A  
HETATM   18  C   UNL     1      -7.286  15.697  66.459  1.00  0.00     0.456 C  
HETATM   19  C   UNL     1      -7.279  17.220  66.625  1.00  0.00    -0.243 C  
HETATM   20  C   UNL     1      -9.288  12.913  68.214  1.00  0.00    -0.194 A  
HETATM   21  O   UNL     1      -7.329  12.867  66.847  1.00  0.00    -0.372 OA 
HETATM   22  O   UNL     1      -8.316  10.754  67.966  1.00  0.00    -0.115 OA 
HETATM   23  C   UNL     1      -9.225  11.442  68.413  1.00  0.00    -0.183 C  
HETATM   24  C   UNL     1      -8.716  17.720  66.460  1.00  0.00    -0.281 C  
HETATM   25  O   UNL     1      -6.711  17.543  67.897  1.00  0.00    -0.172 OA 
HETATM   26  H   UNL     1      -7.299  11.924  66.965  1.00  0.00     0.000 HD 
HETATM   27  C   UNL     1      -9.588  17.232  67.621  1.00  0.00    -0.256 C  
HETATM   28  H   UNL     1      -6.706  18.488  67.999  1.00  0.00     0.000 HD 
BRANCH  19  29
HETATM   29  C   UNL     1      -6.399  17.886  65.553  1.00  0.00    -0.107 C  
HETATM   30  O   UNL     1      -5.498  17.271  64.976  1.00  0.00     0.483 OA 
HETATM   31  C   UNL     1      -6.745  19.302  65.152  1.00  0.00    -0.182 C  
ENDBRANCH  19  29
BRANCH  27  32
HETATM   32  O   UNL     1      -9.227  17.873  68.858  1.00  0.00    -0.245 OA 
BRANCH  32  33
HETATM   33  C   UNL     1      -8.669  19.188  68.749  1.00  0.00    -0.330 C  
HETATM   34  C   UNL     1      -9.219  20.199  69.754  1.00  0.00     0.765 C  
HETATM   35  C   UNL     1      -8.754  19.844  71.167  1.00  0.00     2.409 C  
HETATM   36  N   UNL     1      -9.272  20.831  72.136  1.00  0.00     0.851 NA 
HETATM   37  C   UNL     1      -7.216  19.789  71.195  1.00  0.00     1.141 C  
HETATM   38  H1  UNL     1      -8.962  20.595  73.078  1.00  0.00     0.000 HD 
HETATM   39  H2  UNL     1     -10.287  20.924  72.080  1.00  0.00     0.000 HD 
HETATM   40  O   UNL     1      -6.700  21.115  70.990  1.00  0.00     1.168 OA 
HETATM   41  C   UNL     1      -6.712  18.821  70.105  1.00  0.00     0.340 C  
HETATM   42  H   UNL     1      -5.751  21.081  71.007  1.00  0.00     0.000 HD 
HETATM   43  C   UNL     1      -5.192  18.862  69.982  1.00  0.00    -0.207 C  
HETATM   44  O   UNL     1      -7.244  19.129  68.811  1.00  0.00    -0.306 OA 
ENDBRANCH  32  33
ENDBRANCH  27  32
ENDBRANCH   2   3
TORSDOF 4
ENDMDL
MODEL      141
REMARK 921   NORMALIZED FREE ENERGY PREDICTED BY IDOCK:    5.46 KCAL/MOL
REMARK 922        TOTAL FREE ENERGY PREDICTED BY IDOCK:    6.14 KCAL/MOL
REMARK 923 INTER-LIGAND FREE ENERGY PREDICTED BY IDOCK:   -0.06 KCAL/MOL
REMARK 924 INTRA-LIGAND FREE ENERGY PREDICTED BY IDOCK:    6.20 KCAL/MOL
REMARK 927      BINDING AFFINITY PREDICTED BY RF-SCORE:    0.00 PKD
ROOT
HETATM    1  C   UNL     1     -10.797  13.620  67.922  1.00  0.00    -0.250 C  
HETATM    2  O   UNL     1      -9.741  13.162  67.081  1.00  0.00    -0.224 OA 
ENDROOT
BRANCH   2   3
HETATM    3  C   UNL     1     -10.062  12.206  66.152  1.00  0.00    -0.228 A  
HETATM    4  C   UNL     1     -10.736  12.533  64.963  1.00  0.00    -0.326 A  
HETATM    5  C   UNL     1     -11.046  11.552  64.027  1.00  0.00    -0.441 A  
HETATM    6  C   UNL     1     -10.688  10.234  64.275  1.00  0.00     0.935 A  
HETATM    7  C   UNL     1     -10.038   9.886  65.469  1.00  0.00    -0.297 A  
HETATM    8  C   UNL     1      -9.735  10.859  66.422  1.00  0.00    -0.240 A  
HETATM    9  C   UNL     1      -9.078  10.425  67.684  1.00  0.00    -0.138 C  
HETATM   10  O   UNL     1      -8.880  11.196  68.619  1.00  0.00    -0.159 OA 
HETATM   11  C   UNL     1      -8.644   9.014  67.861  1.00  0.00    -0.125 A  
HETATM   12  C   UNL     1      -7.916   8.633  69.008  1.00  0.00    -0.115 A  
HETATM   13  O   UNL     1      -7.558   9.549  69.970  1.00  0.00    -0.096 OA 
HETATM   14  C   UNL     1      -7.504   7.301  69.222  1.00  0.00    -0.096 A  
HETATM   15  H   UNL     1      -7.067   9.292  70.742  1.00  0.00     0.000 HD 
HETATM   16  C   UNL     1      -7.851   6.322  68.262  1.00  0.00    -0.105 A  
HETATM   17  C   UNL     1      -8.536   6.721  67.094  1.00  0.00    -0.120 A  
HETATM   18  C   UNL     1      -7.461   4.863  68.454  1.00  0.00    -0.074 C  
HETATM   19  C   UNL     1      -7.024   4.523  69.883  1.00  0.00    -0.045 C  
HETATM   20  C   UNL     1      -8.947   8.057  66.895  1.00  0.00    -0.160 A  
HETATM   21  O   UNL     1      -8.813   5.801  66.119  1.00  0.00    -0.136 OA 
HETATM   22  O   UNL     1     -10.025   7.673  64.808  1.00  0.00     2.531 OA 
HETATM   23  C   UNL     1      -9.688   8.469  65.675  1.00  0.00     0.230 C  
HETATM   24  C   UNL     1      -6.020   5.585  70.335  1.00  0.00    -0.025 C  
HETATM   25  O   UNL     1      -8.184   4.451  70.716  1.00  0.00    -0.072 OA 
HETATM   26  H   UNL     1      -9.275   6.070  65.333  1.00  0.00     0.000 HD 
HETATM   27  C   UNL     1      -6.709   6.946  70.480  1.00  0.00    -0.053 C  
HETATM   28  H   UNL     1      -7.913   4.240  71.602  1.00  0.00     0.000 HD 
BRANCH  19  29
HETATM   29  C   UNL     1      -6.342   3.145  69.936  1.00  0.00    -0.028 C  
HETATM   30  O   UNL     1      -6.766   2.235  70.654  1.00  0.00    -0.031 OA 
HETATM   31  C   UNL     1      -5.187   2.906  68.991  1.00  0.00    -0.012 C  
ENDBRANCH  19  29
BRANCH  27  32
HETATM   32  O   UNL     1      -7.623   6.957  71.592  1.00  0.00    -0.088 OA 
BRANCH  32  33
HETATM   33  C   UNL     1      -8.897   7.572  71.359  1.00  0.00    -0.132 C  
HETATM   34  C   UNL     1      -9.696   6.964  70.207  1.00  0.00    -0.176 C  
HETATM   35  C   UNL     1     -10.160   5.554  70.575  1.00  0.00    -0.226 C  
HETATM   36  N   UNL     1     -10.947   4.974  69.468  1.00  0.00     0.524 NA 
HETATM   37  C   UNL     1     -10.984   5.615  71.874  1.00  0.00    -0.235 C  
HETATM   38  H1  UNL     1     -11.257   4.033  69.714  1.00  0.00     0.000 HD 
HETATM   39  H2  UNL     1     -10.434   4.988  68.587  1.00  0.00     0.000 HD 
HETATM   40  O   UNL     1     -12.210   6.320  71.614  1.00  0.00    -0.279 OA 
HETATM   41  C   UNL     1     -10.163   6.314  72.976  1.00  0.00    -0.197 C  
HETATM   42  H   UNL     1     -12.718   6.358  72.415  1.00  0.00     0.000 HD 
HETATM   43  C   UNL     1     -10.999   6.549  74.230  1.00  0.00     0.808 C  
HETATM   44  O   UNL     1      -9.665   7.592  72.562  1.00  0.00    -0.160 OA 
ENDBRANCH  32  33
ENDBRANCH  27  32
ENDBRANCH   2   3
TORSDOF 4
ENDMDL
MODEL      142
REMARK 921   NORMALIZED FREE ENERGY PREDICTED BY IDOCK:    5.96 KCAL/MOL
REMARK 922        TOTAL FREE ENERGY PREDICTED BY IDOCK:    6.76 KCAL/MOL
REMARK 923 INTER-LIGAND FREE ENERGY PREDICTED BY IDOCK:    6.70 KCAL/MOL
REMARK 924 INTRA-LIGAND FREE ENERGY PREDICTED BY IDOCK:    0.06 KCAL/MOL
REMARK 927      BINDING AFFINITY PREDICTED BY RF-SCORE:    0.00 PKD
ROOT
HETATM    1  C   UNL     1     -10.826  19.492  64.438  1.00  0.00     3.999 C  
HETATM    2  O   UNL     1     -10.369  18.325  65.115  1.00  0.00    -0.147 OA 
ENDROOT
BRANCH   2   3
HETATM    3  C   UNL     1     -10.528  18.299  66.477  1.00  0.00    -0.356 A  
HETATM    4  C   UNL     1     -10.949  19.434  67.190  1.00  0.00    -0.454 A  
HETATM    5  C   UNL     1     -11.114  19.388  68.571  1.00  0.00     0.904 A  
HETATM    6  C   UNL     1     -10.855  18.207  69.250  1.00  0.00     0.882 A  
HETATM    7  C   UNL     1     -10.409  17.071  68.557  1.00  0.00    -0.359 A  
HETATM    8  C   UNL     1     -10.225  17.109  67.175  1.00  0.00    -0.316 A  
HETATM    9  C   UNL     1      -9.716  15.885  66.501  1.00  0.00    -0.266 C  
HETATM   10  O   UNL     1      -9.420  15.869  65.308  1.00  0.00    -0.306 OA 
HETATM   11  C   UNL     1      -9.533  14.623  67.265  1.00  0.00    -0.221 A  
HETATM   12  C   UNL     1      -9.164  13.435  66.599  1.00  0.00    -0.214 A  
HETATM   13  O   UNL     1      -8.998  13.398  65.234  1.00  0.00     0.289 OA 
HETATM   14  C   UNL     1      -8.961  12.224  67.291  1.00  0.00    -0.187 A  
HETATM   15  H   UNL     1      -8.750  12.598  64.785  1.00  0.00     0.000 HD 
HETATM   16  C   UNL     1      -9.118  12.213  68.697  1.00  0.00    -0.007 A  
HETATM   17  C   UNL     1      -9.535  13.393  69.349  1.00  0.00     0.955 A  
HETATM   18  C   UNL     1      -8.882  10.942  69.502  1.00  0.00     0.238 C  
HETATM   19  C   UNL     1      -8.132   9.851  68.730  1.00  0.00    -0.102 C  
HETATM   20  C   UNL     1      -9.730  14.600  68.644  1.00  0.00    -0.220 A  
HETATM   21  O   UNL     1      -9.765  13.381  70.698  1.00  0.00     3.475 OA 
HETATM   22  O   UNL     1     -10.294  15.909  70.551  1.00  0.00    -0.125 OA 
HETATM   23  C   UNL     1     -10.147  15.847  69.337  1.00  0.00    -0.267 C  
HETATM   24  C   UNL     1      -8.794   9.703  67.359  1.00  0.00    -0.134 C  
HETATM   25  O   UNL     1      -6.749  10.208  68.654  1.00  0.00    -0.056 OA 
HETATM   26  H   UNL     1     -10.046  14.176  71.137  1.00  0.00     0.000 HD 
HETATM   27  C   UNL     1      -8.570  10.964  66.517  1.00  0.00    -0.156 C  
HETATM   28  H   UNL     1      -6.284   9.531  68.176  1.00  0.00     0.000 HD 
BRANCH  19  29
HETATM   29  C   UNL     1      -8.213   8.503  69.465  1.00  0.00    -0.116 C  
HETATM   30  O   UNL     1      -7.375   7.614  69.291  1.00  0.00    -0.083 OA 
HETATM   31  C   UNL     1      -9.305   8.340  70.498  1.00  0.00    -0.169 C  
ENDBRANCH  19  29
BRANCH  27  32
HETATM   32  O   UNL     1      -7.190  11.100  66.130  1.00  0.00    -0.101 OA 
BRANCH  32  33
HETATM   33  C   UNL     1      -6.904  10.927  64.736  1.00  0.00     0.450 C  
HETATM   34  C   UNL     1      -6.231   9.601  64.384  1.00  0.00    -0.098 C  
HETATM   35  C   UNL     1      -7.209   8.444  64.585  1.00  0.00    -0.082 C  
HETATM   36  N   UNL     1      -6.563   7.165  64.227  1.00  0.00    -0.039 NA 
HETATM   37  C   UNL     1      -8.468   8.690  63.734  1.00  0.00    -0.055 C  
HETATM   38  H1  UNL     1      -7.216   6.393  64.361  1.00  0.00     0.000 HD 
HETATM   39  H2  UNL     1      -5.692   7.021  64.739  1.00  0.00     0.000 HD 
HETATM   40  O   UNL     1      -8.114   8.599  62.344  1.00  0.00    -0.147 OA 
HETATM   41  C   UNL     1      -9.056  10.076  64.069  1.00  0.00    -0.257 C  
HETATM   42  H   UNL     1      -8.891   8.751  61.819  1.00  0.00     0.000 HD 
HETATM   43  C   UNL     1     -10.204  10.436  63.130  1.00  0.00     0.230 C  
HETATM   44  O   UNL     1      -8.086  11.124  63.960  1.00  0.00     0.326 OA 
ENDBRANCH  32  33
ENDBRANCH  27  32
ENDBRANCH   2   3
TORSDOF 4
ENDMDL
MODEL      143
REMARK 921   NORMALIZED FREE ENERGY PREDICTED BY IDOCK:    5.96 KCAL/MOL
REMARK 922        TOTAL FREE ENERGY PREDICTED BY IDOCK:    6.76 KCAL/MOL
REMARK 923 INTER-LIGAND FREE ENERGY PREDICTED BY IDOCK:    4.83 KCAL/MOL
REMARK 924 INTRA-LIGAND FREE ENERGY PREDICTED BY IDOCK:    1.94 KCAL/MOL
REMARK 927      BINDING AFFINITY PREDICTED BY RF-SCORE:    0.00 PKD
ROOT
HETATM    1  C   UNL     1      -5.426  17.240  72.911  1.00  0.00     3.371 C  
HETATM    2  O   UNL     1      -5.148  17.778  71.621  1.00  0.00    -0.519 OA 
ENDROOT
BRANCH   2   3
HETATM    3  C   UNL     1      -6.050  18.683  71.122  1.00  0.00     0.682 A  
HETATM    4  C   UNL     1      -5.968  20.051  71.434  1.00  0.00    -0.302 A  
HETATM    5  C   UNL     1      -6.886  20.957  70.913  1.00  0.00     1.921 A  
HETATM    6  C   UNL     1      -7.895  20.502  70.077  1.00  0.00     1.476 A  
HETATM    7  C   UNL     1      -8.008  19.135  69.776  1.00  0.00     0.526 A  
HETATM    8  C   UNL     1      -7.103  18.215  70.305  1.00  0.00     1.409 A  
HETATM    9  C   UNL     1      -7.294  16.777  69.980  1.00  0.00     1.026 C  
HETATM   10  O   UNL     1      -6.613  15.893  70.494  1.00  0.00     0.218 OA 
HETATM   11  C   UNL     1      -8.342  16.354  69.015  1.00  0.00    -0.225 A  
HETATM   12  C   UNL     1      -8.442  15.003  68.619  1.00  0.00    -0.168 A  
HETATM   13  O   UNL     1      -7.562  14.052  69.079  1.00  0.00    -0.213 OA 
HETATM   14  C   UNL     1      -9.436  14.561  67.721  1.00  0.00    -0.210 A  
HETATM   15  H   UNL     1      -7.629  13.143  68.812  1.00  0.00     0.000 HD 
HETATM   16  C   UNL     1     -10.367  15.502  67.223  1.00  0.00    -0.267 A  
HETATM   17  C   UNL     1     -10.229  16.859  67.586  1.00  0.00    -0.306 A  
HETATM   18  C   UNL     1     -11.480  15.077  66.276  1.00  0.00    -0.214 C  
HETATM   19  C   UNL     1     -11.708  13.562  66.229  1.00  0.00    -0.367 C  
HETATM   20  C   UNL     1      -9.233  17.288  68.488  1.00  0.00    -0.273 A  
HETATM   21  O   UNL     1     -11.074  17.796  67.053  1.00  0.00    -0.035 OA 
HETATM   22  O   UNL     1      -9.880  19.579  68.496  1.00  0.00    -0.378 OA 
HETATM   23  C   UNL     1      -9.105  18.714  68.886  1.00  0.00    -0.192 C  
HETATM   24  C   UNL     1     -10.347  12.885  66.064  1.00  0.00    -0.294 C  
HETATM   25  O   UNL     1     -12.398  13.163  67.417  1.00  0.00    -0.225 OA 
HETATM   26  H   UNL     1     -10.981  18.709  67.297  1.00  0.00     0.000 HD 
HETATM   27  C   UNL     1      -9.493  13.085  67.320  1.00  0.00    -0.224 C  
HETATM   28  H   UNL     1     -12.539  12.224  67.388  1.00  0.00     0.000 HD 
BRANCH  19  29
HETATM   29  C   UNL     1     -12.600  13.177  65.037  1.00  0.00    -0.438 C  
HETATM   30  O   UNL     1     -12.862  12.000  64.772  1.00  0.00    -0.420 OA 
HETATM   31  C   UNL     1     -13.237  14.302  64.255  1.00  0.00     1.235 C  
ENDBRANCH  19  29
BRANCH  27  32
HETATM   32  O   UNL     1     -10.019  12.348  68.439  1.00  0.00    -0.220 OA 
BRANCH  32  33
HETATM   33  C   UNL     1      -9.521  11.016  68.609  1.00  0.00    -0.195 C  
HETATM   34  C   UNL     1      -9.984  10.021  67.545  1.00  0.00    -0.232 C  
HETATM   35  C   UNL     1      -9.345  10.358  66.197  1.00  0.00    -0.172 C  
HETATM   36  N   UNL     1      -9.780   9.385  65.173  1.00  0.00    -0.449 NA 
HETATM   37  C   UNL     1      -7.814  10.362  66.348  1.00  0.00    -0.128 C  
HETATM   38  H1  UNL     1      -9.354   9.610  64.274  1.00  0.00     0.000 HD 
HETATM   39  H2  UNL     1     -10.796   9.326  65.110  1.00  0.00     0.000 HD 
HETATM   40  O   UNL     1      -7.369   9.021  66.610  1.00  0.00    -0.084 OA 
HETATM   41  C   UNL     1      -7.409  11.316  67.491  1.00  0.00    -0.105 C  
HETATM   42  H   UNL     1      -6.424   9.023  66.703  1.00  0.00     0.000 HD 
HETATM   43  C   UNL     1      -5.916  11.225  67.790  1.00  0.00    -0.048 C  
HETATM   44  O   UNL     1      -8.097  11.029  68.714  1.00  0.00    -0.134 OA 
ENDBRANCH  32  33
ENDBRANCH  27  32
ENDBRANCH   2   3
TORSDOF 4
ENDMDL
MODEL      144
REMARK 921   NORMALIZED FREE ENERGY PREDICTED BY IDOCK:    6.21 KCAL/MOL
REMARK 922        TOTAL FREE ENERGY PREDICTED BY IDOCK:    7.07 KCAL/MOL
REMARK 923 INTER-LIGAND FREE ENERGY PREDICTED BY IDOCK:   -0.48 KCAL/MOL
REMARK 924 INTRA-LIGAND FREE ENERGY PREDICTED BY IDOCK:    7.56 KCAL/MOL
REMARK 927      BINDING AFFINITY PREDICTED BY RF-SCORE:    0.00 PKD
ROOT
HETATM    1  C   UNL     1     -10.740   4.821  73.975  1.00  0.00    -0.296 C  
HETATM    2  O   UNL     1     -10.301   3.526  74.376  1.00  0.00    -0.166 OA 
ENDROOT
BRANCH   2   3
HETATM    3  C   UNL     1      -9.074   3.120  73.918  1.00  0.00    -0.081 A  
HETATM    4  C   UNL     1      -8.459   1.951  74.396  1.00  0.00    -0.057 A  
HETATM    5  C   UNL     1      -7.218   1.550  73.914  1.00  0.00    -0.024 A  
HETATM    6  C   UNL     1      -6.579   2.317  72.951  1.00  0.00    -0.018 A  
HETATM    7  C   UNL     1      -7.166   3.502  72.481  1.00  0.00    -0.048 A  
HETATM    8  C   UNL     1      -8.403   3.923  72.968  1.00  0.00    -0.092 A  
HETATM    9  C   UNL     1      -8.959   5.205  72.459  1.00  0.00    -0.130 C  
HETATM   10  O   UNL     1      -9.984   5.703  72.916  1.00  0.00    -0.172 OA 
HETATM   11  C   UNL     1      -8.271   5.945  71.367  1.00  0.00    -0.123 A  
HETATM   12  C   UNL     1      -8.863   7.096  70.806  1.00  0.00    -0.148 A  
HETATM   13  O   UNL     1     -10.095   7.546  71.219  1.00  0.00    -0.188 OA 
HETATM   14  C   UNL     1      -8.232   7.836  69.784  1.00  0.00    -0.129 A  
HETATM   15  H   UNL     1     -10.493   8.322  70.841  1.00  0.00     0.000 HD 
HETATM   16  C   UNL     1      -6.961   7.414  69.328  1.00  0.00    -0.065 A  
HETATM   17  C   UNL     1      -6.400   6.233  69.860  1.00  0.00    -0.035 A  
HETATM   18  C   UNL     1      -6.219   8.191  68.250  1.00  0.00    -0.050 C  
HETATM   19  C   UNL     1      -6.777   9.597  68.004  1.00  0.00    -0.062 C  
HETATM   20  C   UNL     1      -7.040   5.505  70.886  1.00  0.00    -0.069 A  
HETATM   21  O   UNL     1      -5.207   5.768  69.376  1.00  0.00    -0.004 OA 
HETATM   22  O   UNL     1      -5.337   3.858  71.115  1.00  0.00    -0.003 OA 
HETATM   23  C   UNL     1      -6.435   4.276  71.460  1.00  0.00    -0.019 C  
HETATM   24  C   UNL     1      -8.297   9.484  67.870  1.00  0.00    -0.115 C  
HETATM   25  O   UNL     1      -6.365  10.450  69.075  1.00  0.00    -0.043 OA 
HETATM   26  H   UNL     1      -4.829   4.973  69.735  1.00  0.00     0.000 HD 
HETATM   27  C   UNL     1      -8.923   9.073  69.206  1.00  0.00    -0.144 C  
HETATM   28  H   UNL     1      -6.712  11.321  68.923  1.00  0.00     0.000 HD 
BRANCH  19  29
HETATM   29  C   UNL     1      -6.210  10.194  66.706  1.00  0.00    -0.068 C  
HETATM   30  O   UNL     1      -5.989  11.403  66.586  1.00  0.00    -0.129 OA 
HETATM   31  C   UNL     1      -5.829   9.229  65.606  1.00  0.00    -0.054 C  
ENDBRANCH  19  29
BRANCH  27  32
HETATM   32  O   UNL     1      -8.822  10.126  70.182  1.00  0.00    -0.091 OA 
BRANCH  32  33
HETATM   33  C   UNL     1     -10.006  10.904  70.399  1.00  0.00     1.404 C  
HETATM   34  C   UNL     1     -10.498  11.671  69.172  1.00  0.00    -0.099 C  
HETATM   35  C   UNL     1     -11.026  10.696  68.119  1.00  0.00    -0.269 C  
HETATM   36  N   UNL     1     -11.517  11.440  66.940  1.00  0.00    -0.466 NA 
HETATM   37  C   UNL     1     -12.140   9.835  68.739  1.00  0.00     1.313 C  
HETATM   38  H1  UNL     1     -11.869  10.790  66.238  1.00  0.00     0.000 HD 
HETATM   39  H2  UNL     1     -10.806  12.064  66.560  1.00  0.00     0.000 HD 
HETATM   40  O   UNL     1     -13.272  10.674  69.024  1.00  0.00     0.281 OA 
HETATM   41  C   UNL     1     -11.616   9.153  70.019  1.00  0.00     0.060 C  
HETATM   42  H   UNL     1     -13.960  10.142  69.407  1.00  0.00     0.000 HD 
HETATM   43  C   UNL     1     -12.733   8.425  70.760  1.00  0.00     0.246 C  
HETATM   44  O   UNL     1     -11.043  10.087  70.942  1.00  0.00    -0.328 OA 
ENDBRANCH  32  33
ENDBRANCH  27  32
ENDBRANCH   2   3
TORSDOF 4
ENDMDL
MODEL      145
REMARK 921   NORMALIZED FREE ENERGY PREDICTED BY IDOCK:    6.27 KCAL/MOL
REMARK 922        TOTAL FREE ENERGY PREDICTED BY IDOCK:    7.14 KCAL/MOL
REMARK 923 INTER-LIGAND FREE ENERGY PREDICTED BY IDOCK:    2.01 KCAL/MOL
REMARK 924 INTRA-LIGAND FREE ENERGY PREDICTED BY IDOCK:    5.13 KCAL/MOL
REMARK 927      BINDING AFFINITY PREDICTED BY RF-SCORE:    0.00 PKD
ROOT
HETATM    1  C   UNL     1      -8.765   7.419  68.172  1.00  0.00    -0.122 C  
HETATM    2  O   UNL     1      -8.803   6.154  68.826  1.00  0.00    -0.121 OA 
ENDROOT
BRANCH   2   3
HETATM    3  C   UNL     1      -9.733   6.002  69.823  1.00  0.00    -0.158 A  
HETATM    4  C   UNL     1     -10.054   4.737  70.343  1.00  0.00    -0.301 A  
HETATM    5  C   UNL     1     -10.993   4.601  71.361  1.00  0.00     0.441 A  
HETATM    6  C   UNL     1     -11.622   5.731  71.864  1.00  0.00    -0.184 A  
HETATM    7  C   UNL     1     -11.332   7.000  71.338  1.00  0.00    -0.298 A  
HETATM    8  C   UNL     1     -10.404   7.147  70.307  1.00  0.00    -0.214 A  
HETATM    9  C   UNL     1     -10.166   8.511  69.766  1.00  0.00    -0.206 C  
HETATM   10  O   UNL     1      -9.452   8.712  68.787  1.00  0.00    -0.142 OA 
HETATM   11  C   UNL     1     -10.806   9.695  70.397  1.00  0.00    -0.353 A  
HETATM   12  C   UNL     1     -10.484  10.997  69.957  1.00  0.00     0.351 A  
HETATM   13  O   UNL     1      -9.554  11.212  68.967  1.00  0.00    -0.336 OA 
HETATM   14  C   UNL     1     -11.085  12.143  70.516  1.00  0.00     1.318 A  
HETATM   15  H   UNL     1      -9.338  12.088  68.670  1.00  0.00     0.000 HD 
HETATM   16  C   UNL     1     -12.051  11.973  71.536  1.00  0.00     0.543 A  
HETATM   17  C   UNL     1     -12.329  10.671  72.004  1.00  0.00     0.254 A  
HETATM   18  C   UNL     1     -12.755  13.172  72.156  1.00  0.00    -0.138 C  
HETATM   19  C   UNL     1     -12.605  14.464  71.346  1.00  0.00    -0.354 C  
HETATM   20  C   UNL     1     -11.724   9.532  71.432  1.00  0.00    -0.465 A  
HETATM   21  O   UNL     1     -13.204  10.493  73.042  1.00  0.00     0.341 OA 
HETATM   22  O   UNL     1     -12.866   7.941  72.787  1.00  0.00     0.080 OA 
HETATM   23  C   UNL     1     -12.037   8.161  71.912  1.00  0.00    -0.323 C  
HETATM   24  C   UNL     1     -11.127  14.626  70.985  1.00  0.00     0.107 C  
HETATM   25  O   UNL     1     -13.462  14.395  70.204  1.00  0.00    -0.305 OA 
HETATM   26  H   UNL     1     -13.392   9.616  73.357  1.00  0.00     0.000 HD 
HETATM   27  C   UNL     1     -10.693  13.531  70.006  1.00  0.00     0.799 C  
HETATM   28  H   UNL     1     -13.369  15.196  69.702  1.00  0.00     0.000 HD 
BRANCH  19  29
HETATM   29  C   UNL     1     -13.049  15.684  72.171  1.00  0.00    -0.458 C  
HETATM   30  O   UNL     1     -12.649  16.824  71.917  1.00  0.00     0.689 OA 
HETATM   31  C   UNL     1     -14.082  15.454  73.250  1.00  0.00     0.627 C  
ENDBRANCH  19  29
BRANCH  27  32
HETATM   32  O   UNL     1     -11.301  13.709  68.713  1.00  0.00    -0.253 OA 
BRANCH  32  33
HETATM   33  C   UNL     1     -10.542  14.456  67.754  1.00  0.00    -0.246 C  
HETATM   34  C   UNL     1      -9.030  14.421  67.972  1.00  0.00    -0.183 C  
HETATM   35  C   UNL     1      -8.489  13.020  67.684  1.00  0.00    -0.187 C  
HETATM   36  N   UNL     1      -7.025  12.992  67.878  1.00  0.00    -0.110 NA 
HETATM   37  C   UNL     1      -8.870  12.614  66.249  1.00  0.00     0.106 C  
HETATM   38  H1  UNL     1      -6.664  12.058  67.686  1.00  0.00     0.000 HD 
HETATM   39  H2  UNL     1      -6.756  13.322  68.805  1.00  0.00     0.000 HD 
HETATM   40  O   UNL     1      -8.156  13.451  65.324  1.00  0.00     2.724 OA 
HETATM   41  C   UNL     1     -10.394  12.750  66.060  1.00  0.00    -0.276 C  
HETATM   42  H   UNL     1      -8.391  13.201  64.439  1.00  0.00     0.000 HD 
HETATM   43  C   UNL     1     -10.798  12.522  64.607  1.00  0.00    -0.343 C  
HETATM   44  O   UNL     1     -10.879  14.047  66.428  1.00  0.00    -0.295 OA 
ENDBRANCH  32  33
ENDBRANCH  27  32
ENDBRANCH   2   3
TORSDOF 4
ENDMDL
MODEL      146
REMARK 921   NORMALIZED FREE ENERGY PREDICTED BY IDOCK:    6.78 KCAL/MOL
REMARK 922        TOTAL FREE ENERGY PREDICTED BY IDOCK:    7.77 KCAL/MOL
REMARK 923 INTER-LIGAND FREE ENERGY PREDICTED BY IDOCK:   -2.04 KCAL/MOL
REMARK 924 INTRA-LIGAND FREE ENERGY PREDICTED BY IDOCK:    9.81 KCAL/MOL
REMARK 927      BINDING AFFINITY PREDICTED BY RF-SCORE:    0.00 PKD
ROOT
HETATM    1  C   UNL     1     -11.713  16.503  70.778  1.00  0.00     0.159 C  
HETATM    2  O   UNL     1     -11.431  15.106  70.794  1.00  0.00    -0.271 OA 
ENDROOT
BRANCH   2   3
HETATM    3  C   UNL     1     -12.397  14.288  71.323  1.00  0.00    -0.363 A  
HETATM    4  C   UNL     1     -13.432  14.795  72.126  1.00  0.00    -0.491 A  
HETATM    5  C   UNL     1     -14.408  13.952  72.648  1.00  0.00    -0.007 A  
HETATM    6  C   UNL     1     -14.354  12.593  72.373  1.00  0.00     0.363 A  
HETATM    7  C   UNL     1     -13.312  12.066  71.594  1.00  0.00    -0.237 A  
HETATM    8  C   UNL     1     -12.319  12.899  71.078  1.00  0.00    -0.318 A  
HETATM    9  C   UNL     1     -11.221  12.278  70.291  1.00  0.00     0.620 C  
HETATM   10  O   UNL     1     -10.251  12.921  69.899  1.00  0.00     1.119 OA 
HETATM   11  C   UNL     1     -11.258  10.829  69.958  1.00  0.00    -0.366 A  
HETATM   12  C   UNL     1     -10.277  10.269  69.112  1.00  0.00    -0.218 A  
HETATM   13  O   UNL     1      -9.290  11.040  68.546  1.00  0.00    -0.174 OA 
HETATM   14  C   UNL     1     -10.266   8.896  68.790  1.00  0.00    -0.224 A  
HETATM   15  H   UNL     1      -8.630  10.663  67.975  1.00  0.00     0.000 HD 
HETATM   16  C   UNL     1     -11.260   8.060  69.351  1.00  0.00     0.206 A  
HETATM   17  C   UNL     1     -12.265   8.638  70.156  1.00  0.00     0.661 A  
HETATM   18  C   UNL     1     -11.280   6.566  69.065  1.00  0.00    -0.354 C  
HETATM   19  C   UNL     1      -9.976   6.033  68.462  1.00  0.00    -0.142 C  
HETATM   20  C   UNL     1     -12.262  10.013  70.474  1.00  0.00    -0.308 A  
HETATM   21  O   UNL     1     -13.278   7.858  70.645  1.00  0.00    -0.318 OA 
HETATM   22  O   UNL     1     -14.194   9.947  71.864  1.00  0.00     0.054 OA 
HETATM   23  C   UNL     1     -13.308  10.613  71.342  1.00  0.00    -0.205 C  
HETATM   24  C   UNL     1      -9.570   6.964  67.317  1.00  0.00    -0.173 C  
HETATM   25  O   UNL     1      -8.992   5.947  69.496  1.00  0.00    -0.127 OA 
HETATM   26  H   UNL     1     -13.955   8.247  71.188  1.00  0.00     0.000 HD 
HETATM   27  C   UNL     1      -9.184   8.343  67.861  1.00  0.00    -0.135 C  
HETATM   28  H   UNL     1      -8.183   5.617  69.123  1.00  0.00     0.000 HD 
BRANCH  19  29
HETATM   29  C   UNL     1     -10.168   4.615  67.901  1.00  0.00     0.048 C  
HETATM   30  O   UNL     1     -10.044   3.611  68.608  1.00  0.00     0.207 OA 
HETATM   31  C   UNL     1     -10.621   4.492  66.463  1.00  0.00     0.103 C  
ENDBRANCH  19  29
BRANCH  27  32
HETATM   32  O   UNL     1      -7.953   8.291  68.605  1.00  0.00    -0.117 OA 
BRANCH  32  33
HETATM   33  C   UNL     1      -7.899   7.336  69.672  1.00  0.00    -0.118 C  
HETATM   34  C   UNL     1      -6.579   7.314  70.441  1.00  0.00    -0.047 C  
HETATM   35  C   UNL     1      -6.418   8.602  71.248  1.00  0.00    -0.062 C  
HETATM   36  N   UNL     1      -5.149   8.572  72.005  1.00  0.00    -0.035 NA 
HETATM   37  C   UNL     1      -7.625   8.764  72.190  1.00  0.00     0.064 C  
HETATM   38  H1  UNL     1      -5.042   9.431  72.544  1.00  0.00     0.000 HD 
HETATM   39  H2  UNL     1      -4.348   8.399  71.398  1.00  0.00     0.000 HD 
HETATM   40  O   UNL     1      -7.579   7.730  73.186  1.00  0.00    -0.100 OA 
HETATM   41  C   UNL     1      -8.932   8.693  71.373  1.00  0.00    -0.222 C  
HETATM   42  H   UNL     1      -8.324   7.830  73.767  1.00  0.00     0.000 HD 
HETATM   43  C   UNL     1     -10.157   8.679  72.282  1.00  0.00    -0.363 C  
HETATM   44  O   UNL     1      -9.005   7.518  70.557  1.00  0.00    -0.150 OA 
ENDBRANCH  32  33
ENDBRANCH  27  32
ENDBRANCH   2   3
TORSDOF 4
ENDMDL
MODEL      147
REMARK 921   NORMALIZED FREE ENERGY PREDICTED BY IDOCK:    6.83 KCAL/MOL
REMARK 922        TOTAL FREE ENERGY PREDICTED BY IDOCK:    7.83 KCAL/MOL
REMARK 923 INTER-LIGAND FREE ENERGY PREDICTED BY IDOCK:    6.47 KCAL/MOL
REMARK 924 INTRA-LIGAND FREE ENERGY PREDICTED BY IDOCK:    1.36 KCAL/MOL
REMARK 927      BINDING AFFINITY PREDICTED BY RF-SCORE:    0.00 PKD
ROOT
HETATM    1  C   UNL     1      -5.356   8.663  73.964  1.00  0.00    -0.097 C  
HETATM    2  O   UNL     1      -6.441   9.385  73.387  1.00  0.00    -0.227 OA 
ENDROOT
BRANCH   2   3
HETATM    3  C   UNL     1      -6.151  10.614  72.854  1.00  0.00     2.048 A  
HETATM    4  C   UNL     1      -5.464  11.593  73.592  1.00  0.00     1.130 A  
HETATM    5  C   UNL     1      -5.170  12.832  73.033  1.00  0.00     0.355 A  
HETATM    6  C   UNL     1      -5.564  13.105  71.730  1.00  0.00     0.117 A  
HETATM    7  C   UNL     1      -6.274  12.148  70.988  1.00  0.00     0.974 A  
HETATM    8  C   UNL     1      -6.588  10.907  71.543  1.00  0.00     1.979 A  
HETATM    9  C   UNL     1      -7.373   9.949  70.721  1.00  0.00     0.145 C  
HETATM   10  O   UNL     1      -7.787   8.884  71.172  1.00  0.00    -0.129 OA 
HETATM   11  C   UNL     1      -7.698  10.260  69.304  1.00  0.00    -0.130 A  
HETATM   12  C   UNL     1      -8.339   9.299  68.493  1.00  0.00    -0.119 A  
HETATM   13  O   UNL     1      -8.647   8.047  68.970  1.00  0.00    -0.135 OA 
HETATM   14  C   UNL     1      -8.682   9.564  67.151  1.00  0.00    -0.137 A  
HETATM   15  H   UNL     1      -9.078   7.399  68.424  1.00  0.00     0.000 HD 
HETATM   16  C   UNL     1      -8.388  10.841  66.616  1.00  0.00    -0.141 A  
HETATM   17  C   UNL     1      -7.703  11.778  67.419  1.00  0.00    -0.151 A  
HETATM   18  C   UNL     1      -8.763  11.195  65.184  1.00  0.00     0.005 C  
HETATM   19  C   UNL     1      -9.769  10.228  64.551  1.00  0.00    -0.329 C  
HETATM   20  C   UNL     1      -7.370  11.501  68.762  1.00  0.00    -0.115 A  
HETATM   21  O   UNL     1      -7.342  12.989  66.893  1.00  0.00    -0.360 OA 
HETATM   22  O   UNL     1      -6.389  13.623  69.213  1.00  0.00    -0.097 OA 
HETATM   23  C   UNL     1      -6.669  12.499  69.611  1.00  0.00     0.079 C  
HETATM   24  C   UNL     1      -9.287   8.802  64.819  1.00  0.00     0.377 C  
HETATM   25  O   UNL     1     -11.067  10.498  65.088  1.00  0.00     0.208 OA 
HETATM   26  H   UNL     1      -6.881  13.621  67.434  1.00  0.00     0.000 HD 
HETATM   27  C   UNL     1      -9.369   8.482  66.316  1.00  0.00    -0.224 C  
HETATM   28  H   UNL     1     -11.691   9.898  64.695  1.00  0.00     0.000 HD 
BRANCH  19  29
HETATM   29  C   UNL     1      -9.855  10.443  63.030  1.00  0.00    -0.139 C  
HETATM   30  O   UNL     1     -10.802  10.016  62.364  1.00  0.00     1.912 OA 
HETATM   31  C   UNL     1      -8.782  11.292  62.387  1.00  0.00    -0.248 C  
ENDBRANCH  19  29
BRANCH  27  32
HETATM   32  O   UNL     1     -10.734   8.387  66.761  1.00  0.00    -0.249 OA 
BRANCH  32  33
HETATM   33  C   UNL     1     -11.313   7.076  66.751  1.00  0.00     0.618 C  
HETATM   34  C   UNL     1     -10.571   6.059  65.885  1.00  0.00     0.549 C  
HETATM   35  C   UNL     1      -9.213   5.729  66.506  1.00  0.00    -0.143 C  
HETATM   36  N   UNL     1      -8.505   4.733  65.677  1.00  0.00    -0.118 NA 
HETATM   37  C   UNL     1      -9.424   5.213  67.941  1.00  0.00    -0.129 C  
HETATM   38  H1  UNL     1      -7.599   4.513  66.091  1.00  0.00     0.000 HD 
HETATM   39  H2  UNL     1      -8.417   5.036  64.707  1.00  0.00     0.000 HD 
HETATM   40  O   UNL     1     -10.090   3.941  67.884  1.00  0.00     0.042 OA 
HETATM   41  C   UNL     1     -10.250   6.239  68.743  1.00  0.00    -0.178 C  
HETATM   42  H   UNL     1     -10.220   3.623  68.769  1.00  0.00     0.000 HD 
HETATM   43  C   UNL     1     -10.629   5.696  70.118  1.00  0.00    -0.380 C  
HETATM   44  O   UNL     1     -11.472   6.594  68.085  1.00  0.00    -0.094 OA 
ENDBRANCH  32  33
ENDBRANCH  27  32
ENDBRANCH   2   3
TORSDOF 4
ENDMDL
MODEL      148
REMARK 921   NORMALIZED FREE ENERGY PREDICTED BY IDOCK:    6.90 KCAL/MOL
REMARK 922        TOTAL FREE ENERGY PREDICTED BY IDOCK:    7.92 KCAL/MOL
REMARK 923 INTER-LIGAND FREE ENERGY PREDICTED BY IDOCK:   -1.01 KCAL/MOL
REMARK 924 INTRA-LIGAND FREE ENERGY PREDICTED BY IDOCK:    8.93 KCAL/MOL
REMARK 927      BINDING AFFINITY PREDICTED BY RF-SCORE:    0.00 PKD
ROOT
HETATM    1  C   UNL     1      -9.921   8.982  66.706  1.00  0.00    -0.263 C  
HETATM    2  O   UNL     1      -9.697   8.380  67.978  1.00  0.00    -0.150 OA 
ENDROOT
BRANCH   2   3
HETATM    3  C   UNL     1     -10.501   8.796  69.008  1.00  0.00    -0.203 A  
HETATM    4  C   UNL     1     -11.174   7.879  69.833  1.00  0.00    -0.051 A  
HETATM    5  C   UNL     1     -11.979   8.318  70.879  1.00  0.00    -0.194 A  
HETATM    6  C   UNL     1     -12.121   9.679  71.106  1.00  0.00    -0.448 A  
HETATM    7  C   UNL     1     -11.477  10.610  70.275  1.00  0.00    -0.422 A  
HETATM    8  C   UNL     1     -10.679  10.182  69.214  1.00  0.00    -0.259 A  
HETATM    9  C   UNL     1     -10.053  11.214  68.347  1.00  0.00    -0.184 C  
HETATM   10  O   UNL     1      -9.430  10.925  67.328  1.00  0.00    -0.158 OA 
HETATM   11  C   UNL     1     -10.171  12.657  68.684  1.00  0.00    -0.165 A  
HETATM   12  C   UNL     1      -9.477  13.625  67.927  1.00  0.00    -0.213 A  
HETATM   13  O   UNL     1      -8.650  13.267  66.888  1.00  0.00    -0.341 OA 
HETATM   14  C   UNL     1      -9.581  15.004  68.204  1.00  0.00    -0.207 A  
HETATM   15  H   UNL     1      -8.182  13.919  66.379  1.00  0.00     0.000 HD 
HETATM   16  C   UNL     1     -10.422  15.421  69.262  1.00  0.00    -0.251 A  
HETATM   17  C   UNL     1     -11.074  14.444  70.044  1.00  0.00    -0.076 A  
HETATM   18  C   UNL     1     -10.598  16.898  69.587  1.00  0.00    -0.172 C  
HETATM   19  C   UNL     1     -10.108  17.838  68.480  1.00  0.00    -0.377 C  
HETATM   20  C   UNL     1     -10.965  13.067  69.753  1.00  0.00     0.245 A  
HETATM   21  O   UNL     1     -11.831  14.826  71.119  1.00  0.00    -0.314 OA 
HETATM   22  O   UNL     1     -12.419  12.335  71.491  1.00  0.00    -0.194 OA 
HETATM   23  C   UNL     1     -11.671  12.043  70.565  1.00  0.00     0.040 C  
HETATM   24  C   UNL     1      -8.716  17.373  68.048  1.00  0.00    -0.241 C  
HETATM   25  O   UNL     1     -11.063  17.831  67.415  1.00  0.00    -0.161 OA 
HETATM   26  H   UNL     1     -12.270  14.168  71.645  1.00  0.00     0.000 HD 
HETATM   27  C   UNL     1      -8.799  16.008  67.356  1.00  0.00    -0.184 C  
HETATM   28  H   UNL     1     -10.759  18.415  66.728  1.00  0.00     0.000 HD 
BRANCH  19  29
HETATM   29  C   UNL     1     -10.009  19.285  68.991  1.00  0.00    -0.379 C  
HETATM   30  O   UNL     1     -10.080  20.252  68.228  1.00  0.00    -0.381 OA 
HETATM   31  C   UNL     1      -9.927  19.488  70.487  1.00  0.00     1.169 C  
ENDBRANCH  19  29
BRANCH  27  32
HETATM   32  O   UNL     1      -9.453  16.104  66.077  1.00  0.00    -0.304 OA 
BRANCH  32  33
HETATM   33  C   UNL     1     -10.871  16.305  66.105  1.00  0.00    -0.105 C  
HETATM   34  C   UNL     1     -11.497  16.624  64.748  1.00  0.00     0.166 C  
HETATM   35  C   UNL     1     -11.435  15.396  63.839  1.00  0.00     0.445 C  
HETATM   36  N   UNL     1     -12.055  15.700  62.533  1.00  0.00     3.837 NA 
HETATM   37  C   UNL     1     -12.141  14.216  64.531  1.00  0.00    -0.468 C  
HETATM   38  H1  UNL     1     -12.014  14.881  61.927  1.00  0.00     0.000 HD 
HETATM   39  H2  UNL     1     -11.638  16.521  62.094  1.00  0.00     0.000 HD 
HETATM   40  O   UNL     1     -13.546  14.503  64.620  1.00  0.00     0.596 OA 
HETATM   41  C   UNL     1     -11.528  13.995  65.929  1.00  0.00    -0.330 C  
HETATM   42  H   UNL     1     -13.982  13.776  65.047  1.00  0.00     0.000 HD 
HETATM   43  C   UNL     1     -12.307  12.948  66.719  1.00  0.00    -0.010 C  
HETATM   44  O   UNL     1     -11.518  15.190  66.719  1.00  0.00    -0.303 OA 
ENDBRANCH  32  33
ENDBRANCH  27  32
ENDBRANCH   2   3
TORSDOF 4
ENDMDL
MODEL      149
REMARK 921   NORMALIZED FREE ENERGY PREDICTED BY IDOCK:    6.99 KCAL/MOL
REMARK 922        TOTAL FREE ENERGY PREDICTED BY IDOCK:    8.03 KCAL/MOL
REMARK 923 INTER-LIGAND FREE ENERGY PREDICTED BY IDOCK:    4.78 KCAL/MOL
REMARK 924 INTRA-LIGAND FREE ENERGY PREDICTED BY IDOCK:    3.24 KCAL/MOL
REMARK 927      BINDING AFFINITY PREDICTED BY RF-SCORE:    0.00 PKD
ROOT
HETATM    1  C   UNL     1      -8.827   9.512  73.519  1.00  0.00     4.078 C  
HETATM    2  O   UNL     1     -10.139   9.068  73.184  1.00  0.00     0.852 OA 
ENDROOT
BRANCH   2   3
HETATM    3  C   UNL     1     -10.802   9.775  72.214  1.00  0.00     1.717 A  
HETATM    4  C   UNL     1     -11.932  10.555  72.513  1.00  0.00     2.292 A  
HETATM    5  C   UNL     1     -12.587  11.272  71.518  1.00  0.00    -0.418 A  
HETATM    6  C   UNL     1     -12.120  11.212  70.213  1.00  0.00    -0.462 A  
HETATM    7  C   UNL     1     -11.009  10.417  69.891  1.00  0.00    -0.364 A  
HETATM    8  C   UNL     1     -10.352   9.681  70.878  1.00  0.00    -0.334 A  
HETATM    9  C   UNL     1      -9.204   8.829  70.471  1.00  0.00    -0.188 C  
HETATM   10  O   UNL     1      -8.644   8.065  71.253  1.00  0.00    -0.115 OA 
HETATM   11  C   UNL     1      -8.695   8.866  69.074  1.00  0.00    -0.136 A  
HETATM   12  C   UNL     1      -7.533   8.147  68.721  1.00  0.00    -0.090 A  
HETATM   13  O   UNL     1      -6.822   7.427  69.653  1.00  0.00    -0.050 OA 
HETATM   14  C   UNL     1      -7.031   8.141  67.403  1.00  0.00    -0.075 A  
HETATM   15  H   UNL     1      -6.039   6.944  69.415  1.00  0.00     0.000 HD 
HETATM   16  C   UNL     1      -7.730   8.864  66.409  1.00  0.00    -0.095 A  
HETATM   17  C   UNL     1      -8.863   9.620  66.781  1.00  0.00    -0.135 A  
HETATM   18  C   UNL     1      -7.254   8.869  64.963  1.00  0.00    -0.091 C  
HETATM   19  C   UNL     1      -6.234   7.770  64.644  1.00  0.00    -0.045 C  
HETATM   20  C   UNL     1      -9.357   9.613  68.103  1.00  0.00    -0.140 A  
HETATM   21  O   UNL     1      -9.507  10.386  65.847  1.00  0.00    -0.171 OA 
HETATM   22  O   UNL     1     -11.219  11.035  67.675  1.00  0.00    -0.281 OA 
HETATM   23  C   UNL     1     -10.564  10.392  68.486  1.00  0.00    -0.209 C  
HETATM   24  C   UNL     1      -5.164   7.788  65.738  1.00  0.00    -0.028 C  
HETATM   25  O   UNL     1      -6.920   6.519  64.544  1.00  0.00    -0.047 OA 
HETATM   26  H   UNL     1     -10.270  10.895  66.098  1.00  0.00     0.000 HD 
HETATM   27  C   UNL     1      -5.762   7.350  67.078  1.00  0.00    -0.030 C  
HETATM   28  H   UNL     1      -6.287   5.839  64.346  1.00  0.00     0.000 HD 
BRANCH  19  29
HETATM   29  C   UNL     1      -5.557   8.026  63.287  1.00  0.00    -0.058 C  
HETATM   30  O   UNL     1      -5.146   7.102  62.579  1.00  0.00    -0.031 OA 
HETATM   31  C   UNL     1      -5.506   9.455  62.795  1.00  0.00    -0.083 C  
ENDBRANCH  19  29
BRANCH  27  32
HETATM   32  O   UNL     1      -6.108   5.953  67.071  1.00  0.00    -0.023 OA 
BRANCH  32  33
HETATM   33  C   UNL     1      -7.265   5.583  67.830  1.00  0.00    -0.072 C  
HETATM   34  C   UNL     1      -7.983   4.331  67.327  1.00  0.00    -0.096 C  
HETATM   35  C   UNL     1      -7.117   3.095  67.570  1.00  0.00    -0.054 C  
HETATM   36  N   UNL     1      -7.820   1.883  67.099  1.00  0.00    -0.064 NA 
HETATM   37  C   UNL     1      -6.780   2.997  69.068  1.00  0.00    -0.037 C  
HETATM   38  H1  UNL     1      -7.242   1.058  67.261  1.00  0.00     0.000 HD 
HETATM   39  H2  UNL     1      -8.106   1.963  66.123  1.00  0.00     0.000 HD 
HETATM   40  O   UNL     1      -7.986   2.717  69.799  1.00  0.00    -0.043 OA 
HETATM   41  C   UNL     1      -6.137   4.317  69.541  1.00  0.00    -0.026 C  
HETATM   42  H   UNL     1      -7.777   2.657  70.723  1.00  0.00     0.000 HD 
HETATM   43  C   UNL     1      -5.941   4.331  71.054  1.00  0.00    -0.014 C  
HETATM   44  O   UNL     1      -6.933   5.463  69.213  1.00  0.00    -0.052 OA 
ENDBRANCH  32  33
ENDBRANCH  27  32
ENDBRANCH   2   3
TORSDOF 4
ENDMDL
MODEL      150
REMARK 921   NORMALIZED FREE ENERGY PREDICTED BY IDOCK:    7.39 KCAL/MOL
REMARK 922        TOTAL FREE ENERGY PREDICTED BY IDOCK:    8.52 KCAL/MOL
REMARK 923 INTER-LIGAND FREE ENERGY PREDICTED BY IDOCK:    5.88 KCAL/MOL
REMARK 924 INTRA-LIGAND FREE ENERGY PREDICTED BY IDOCK:    2.64 KCAL/MOL
REMARK 927      BINDING AFFINITY PREDICTED BY RF-SCORE:    0.00 PKD
ROOT
HETATM    1  C   UNL     1     -12.262  20.075  67.979  1.00  0.00     3.772 C  
HETATM    2  O   UNL     1     -11.427  18.926  68.099  1.00  0.00     0.616 OA 
ENDROOT
BRANCH   2   3
HETATM    3  C   UNL     1     -10.274  19.074  68.828  1.00  0.00    -0.274 A  
HETATM    4  C   UNL     1      -9.930  20.301  69.419  1.00  0.00     0.071 A  
HETATM    5  C   UNL     1      -8.761  20.432  70.162  1.00  0.00     1.598 A  
HETATM    6  C   UNL     1      -7.925  19.336  70.317  1.00  0.00     1.333 A  
HETATM    7  C   UNL     1      -8.240  18.110  69.711  1.00  0.00     1.182 A  
HETATM    8  C   UNL     1      -9.401  17.970  68.951  1.00  0.00    -0.168 A  
HETATM    9  C   UNL     1      -9.664  16.657  68.305  1.00  0.00    -0.244 C  
HETATM   10  O   UNL     1     -10.601  16.484  67.530  1.00  0.00    -0.316 OA 
HETATM   11  C   UNL     1      -8.777  15.495  68.571  1.00  0.00    -0.184 A  
HETATM   12  C   UNL     1      -9.096  14.222  68.052  1.00  0.00    -0.191 A  
HETATM   13  O   UNL     1     -10.242  14.011  67.321  1.00  0.00    -0.255 OA 
HETATM   14  C   UNL     1      -8.270  13.100  68.265  1.00  0.00    -0.154 A  
HETATM   15  H   UNL     1     -10.458  13.154  66.971  1.00  0.00     0.000 HD 
HETATM   16  C   UNL     1      -7.078  13.268  69.009  1.00  0.00    -0.044 A  
HETATM   17  C   UNL     1      -6.791  14.533  69.566  1.00  0.00    -0.152 A  
HETATM   18  C   UNL     1      -6.131  12.100  69.245  1.00  0.00    -0.090 C  
HETATM   19  C   UNL     1      -6.389  10.898  68.329  1.00  0.00    -0.056 C  
HETATM   20  C   UNL     1      -7.625  15.649  69.340  1.00  0.00    -0.221 A  
HETATM   21  O   UNL     1      -5.682  14.695  70.352  1.00  0.00    -0.125 OA 
HETATM   22  O   UNL     1      -6.292  17.201  70.557  1.00  0.00     0.355 OA 
HETATM   23  C   UNL     1      -7.308  16.984  69.910  1.00  0.00     0.840 C  
HETATM   24  C   UNL     1      -7.890  10.603  68.351  1.00  0.00    -0.113 C  
HETATM   25  O   UNL     1      -5.890  11.199  67.023  1.00  0.00    -0.057 OA 
HETATM   26  H   UNL     1      -5.489  15.547  70.727  1.00  0.00     0.000 HD 
HETATM   27  C   UNL     1      -8.669  11.742  67.685  1.00  0.00    -0.159 C  
HETATM   28  H   UNL     1      -6.051  10.454  66.456  1.00  0.00     0.000 HD 
BRANCH  19  29
HETATM   29  C   UNL     1      -5.634   9.655  68.828  1.00  0.00    -0.036 C  
HETATM   30  O   UNL     1      -5.424   9.457  70.028  1.00  0.00    -0.031 OA 
HETATM   31  C   UNL     1      -5.243   8.621  67.797  1.00  0.00    -0.035 C  
ENDBRANCH  19  29
BRANCH  27  32
HETATM   32  O   UNL     1      -8.430  11.785  66.266  1.00  0.00    -0.135 OA 
BRANCH  32  33
HETATM   33  C   UNL     1      -9.475  11.272  65.432  1.00  0.00    -0.225 C  
HETATM   34  C   UNL     1     -10.655  10.665  66.190  1.00  0.00    -0.211 C  
HETATM   35  C   UNL     1     -11.432  11.761  66.921  1.00  0.00    -0.293 C  
HETATM   36  N   UNL     1     -12.582  11.175  67.639  1.00  0.00     1.197 NA 
HETATM   37  C   UNL     1     -11.890  12.821  65.903  1.00  0.00    -0.437 C  
HETATM   38  H1  UNL     1     -13.100  11.907  68.126  1.00  0.00     0.000 HD 
HETATM   39  H2  UNL     1     -12.297  10.425  68.269  1.00  0.00     0.000 HD 
HETATM   40  O   UNL     1     -12.869  12.235  65.030  1.00  0.00    -0.563 OA 
HETATM   41  C   UNL     1     -10.673  13.337  65.109  1.00  0.00    -0.322 C  
HETATM   42  H   UNL     1     -13.152  12.890  64.403  1.00  0.00     0.000 HD 
HETATM   43  C   UNL     1     -11.100  14.264  63.975  1.00  0.00     0.272 C  
HETATM   44  O   UNL     1      -9.916  12.274  64.516  1.00  0.00    -0.260 OA 
ENDBRANCH  32  33
ENDBRANCH  27  32
ENDBRANCH   2   3
TORSDOF 4
ENDMDL
MODEL      151
REMARK 921   NORMALIZED FREE ENERGY PREDICTED BY IDOCK:   11.07 KCAL/MOL
REMARK 922        TOTAL FREE ENERGY PREDICTED BY IDOCK:   13.07 KCAL/MOL
REMARK 923 INTER-LIGAND FREE ENERGY PREDICTED BY IDOCK:   11.56 KCAL/MOL
REMARK 924 INTRA-LIGAND FREE ENERGY PREDICTED BY IDOCK:    1.51 KCAL/MOL
REMARK 927      BINDING AFFINITY PREDICTED BY RF-SCORE:    0.00 PKD
ROOT
HETATM    1  C   UNL     1      -9.259  13.526  65.033  1.00  0.00     1.150 C  
HETATM    2  O   UNL     1      -9.302  12.538  66.060  1.00  0.00    -0.195 OA 
ENDROOT
BRANCH   2   3
HETATM    3  C   UNL     1     -10.230  11.538  65.916  1.00  0.00    -0.244 A  
HETATM    4  C   UNL     1     -11.460  11.763  65.277  1.00  0.00    -0.250 A  
HETATM    5  C   UNL     1     -12.387  10.735  65.132  1.00  0.00     3.761 A  
HETATM    6  C   UNL     1     -12.091   9.474  65.630  1.00  0.00     8.404 A  
HETATM    7  C   UNL     1     -10.877   9.239  66.295  1.00  0.00     0.506 A  
HETATM    8  C   UNL     1      -9.947  10.265  66.459  1.00  0.00    -0.280 A  
HETATM    9  C   UNL     1      -8.695   9.965  67.204  1.00  0.00    -0.131 C  
HETATM   10  O   UNL     1      -7.878  10.837  67.490  1.00  0.00    -0.107 OA 
HETATM   11  C   UNL     1      -8.393   8.578  67.643  1.00  0.00    -0.129 A  
HETATM   12  C   UNL     1      -7.151   8.276  68.243  1.00  0.00    -0.081 A  
HETATM   13  O   UNL     1      -6.179   9.235  68.406  1.00  0.00    -0.052 OA 
HETATM   14  C   UNL     1      -6.836   6.977  68.692  1.00  0.00    -0.076 A  
HETATM   15  H   UNL     1      -5.343   9.031  68.809  1.00  0.00     0.000 HD 
HETATM   16  C   UNL     1      -7.806   5.956  68.549  1.00  0.00    -0.102 A  
HETATM   17  C   UNL     1      -9.025   6.256  67.903  1.00  0.00    -0.113 A  
HETATM   18  C   UNL     1      -7.534   4.543  69.043  1.00  0.00    -0.056 C  
HETATM   19  C   UNL     1      -6.337   4.439  69.995  1.00  0.00    -0.027 C  
HETATM   20  C   UNL     1      -9.329   7.562  67.463  1.00  0.00    -0.157 A  
HETATM   21  O   UNL     1      -9.943   5.264  67.688  1.00  0.00    -0.147 OA 
HETATM   22  O   UNL     1     -11.508   7.046  66.654  1.00  0.00     0.278 OA 
HETATM   23  C   UNL     1     -10.623   7.879  66.805  1.00  0.00    -0.163 C  
HETATM   24  C   UNL     1      -5.169   5.202  69.369  1.00  0.00     0.000 C  
HETATM   25  O   UNL     1      -6.723   4.945  71.276  1.00  0.00    -0.036 OA 
HETATM   26  H   UNL     1     -10.764   5.466  67.253  1.00  0.00     0.000 HD 
HETATM   27  C   UNL     1      -5.472   6.704  69.328  1.00  0.00    -0.014 C  
HETATM   28  H   UNL     1      -5.981   4.880  71.866  1.00  0.00     0.000 HD 
BRANCH  19  29
HETATM   29  C   UNL     1      -5.919   2.973  70.194  1.00  0.00    -0.022 C  
HETATM   30  O   UNL     1      -5.356   2.589  71.223  1.00  0.00    -0.004 OA 
HETATM   31  C   UNL     1      -6.317   1.985  69.121  1.00  0.00    -0.029 C  
ENDBRANCH  19  29
BRANCH  27  32
HETATM   32  O   UNL     1      -5.483   7.276  70.648  1.00  0.00    -0.023 OA 
BRANCH  32  33
HETATM   33  C   UNL     1      -6.675   7.975  71.025  1.00  0.00    -0.041 C  
HETATM   34  C   UNL     1      -7.631   7.175  71.909  1.00  0.00    -0.087 C  
HETATM   35  C   UNL     1      -7.016   6.963  73.293  1.00  0.00    -0.074 C  
HETATM   36  N   UNL     1      -7.948   6.204  74.151  1.00  0.00    -0.099 NA 
HETATM   37  C   UNL     1      -6.675   8.331  73.911  1.00  0.00    -0.128 C  
HETATM   38  H1  UNL     1      -7.538   6.063  75.074  1.00  0.00     0.000 HD 
HETATM   39  H2  UNL     1      -8.233   5.324  73.721  1.00  0.00     0.000 HD 
HETATM   40  O   UNL     1      -7.898   9.034  74.186  1.00  0.00    -0.313 OA 
HETATM   41  C   UNL     1      -5.780   9.129  72.941  1.00  0.00    -0.020 C  
HETATM   42  H   UNL     1      -7.688   9.878  74.568  1.00  0.00     0.000 HD 
HETATM   43  C   UNL     1      -5.556  10.555  73.435  1.00  0.00     0.839 C  
HETATM   44  O   UNL     1      -6.346   9.227  71.628  1.00  0.00    -0.179 OA 
ENDBRANCH  32  33
ENDBRANCH  27  32
ENDBRANCH   2   3
TORSDOF 4
ENDMDL
MODEL      152
REMARK 921   NORMALIZED FREE ENERGY PREDICTED BY IDOCK:   11.80 KCAL/MOL
REMARK 922        TOTAL FREE ENERGY PREDICTED BY IDOCK:   13.96 KCAL/MOL
REMARK 923 INTER-LIGAND FREE ENERGY PREDICTED BY IDOCK:   11.59 KCAL/MOL
REMARK 924 INTRA-LIGAND FREE ENERGY PREDICTED BY IDOCK:    2.37 KCAL/MOL
REMARK 927      BINDING AFFINITY PREDICTED BY RF-SCORE:    0.00 PKD
ROOT
HETATM    1  C   UNL     1      -7.942   2.859  68.573  1.00  0.00    -0.057 C  
HETATM    2  O   UNL     1      -6.943   3.602  67.878  1.00  0.00    -0.049 OA 
ENDROOT
BRANCH   2   3
HETATM    3  C   UNL     1      -7.120   3.760  66.528  1.00  0.00    -0.063 A  
HETATM    4  C   UNL     1      -6.661   2.803  65.608  1.00  0.00    -0.035 A  
HETATM    5  C   UNL     1      -6.855   2.975  64.241  1.00  0.00    -0.037 A  
HETATM    6  C   UNL     1      -7.509   4.110  63.783  1.00  0.00    -0.058 A  
HETATM    7  C   UNL     1      -7.951   5.090  64.686  1.00  0.00    -0.102 A  
HETATM    8  C   UNL     1      -7.748   4.936  66.057  1.00  0.00    -0.091 A  
HETATM    9  C   UNL     1      -8.206   6.023  66.961  1.00  0.00    -0.105 C  
HETATM   10  O   UNL     1      -7.965   6.019  68.166  1.00  0.00    -0.107 OA 
HETATM   11  C   UNL     1      -8.972   7.178  66.424  1.00  0.00    -0.178 A  
HETATM   12  C   UNL     1      -9.507   8.147  67.301  1.00  0.00    -0.155 A  
HETATM   13  O   UNL     1      -9.370   8.037  68.665  1.00  0.00    -0.146 OA 
HETATM   14  C   UNL     1     -10.222   9.266  66.828  1.00  0.00    -0.325 A  
HETATM   15  H   UNL     1      -9.730   8.688  69.255  1.00  0.00     0.000 HD 
HETATM   16  C   UNL     1     -10.388   9.425  65.432  1.00  0.00     0.654 A  
HETATM   17  C   UNL     1      -9.892   8.426  64.566  1.00  0.00     2.616 A  
HETATM   18  C   UNL     1     -11.123  10.630  64.862  1.00  0.00     0.451 C  
HETATM   19  C   UNL     1     -11.313  11.771  65.867  1.00  0.00    -0.263 C  
HETATM   20  C   UNL     1      -9.174   7.313  65.053  1.00  0.00     0.839 A  
HETATM   21  O   UNL     1     -10.110   8.525  63.218  1.00  0.00     2.689 OA 
HETATM   22  O   UNL     1      -8.737   6.353  62.918  1.00  0.00     0.200 OA 
HETATM   23  C   UNL     1      -8.634   6.275  64.136  1.00  0.00     0.295 C  
HETATM   24  C   UNL     1     -11.849  11.170  67.168  1.00  0.00     0.375 C  
HETATM   25  O   UNL     1     -10.067  12.453  66.031  1.00  0.00    -0.241 OA 
HETATM   26  H   UNL     1      -9.776   7.852  62.636  1.00  0.00     0.000 HD 
HETATM   27  C   UNL     1     -10.787  10.281  67.824  1.00  0.00    -0.292 C  
HETATM   28  H   UNL     1     -10.185  13.161  66.654  1.00  0.00     0.000 HD 
BRANCH  19  29
HETATM   29  C   UNL     1     -12.328  12.801  65.344  1.00  0.00    -0.470 C  
HETATM   30  O   UNL     1     -12.868  13.622  66.090  1.00  0.00    -0.313 OA 
HETATM   31  C   UNL     1     -12.568  12.843  63.852  1.00  0.00    -0.334 C  
ENDBRANCH  19  29
BRANCH  27  32
HETATM   32  O   UNL     1      -9.686  11.059  68.327  1.00  0.00    -0.164 OA 
BRANCH  32  33
HETATM   33  C   UNL     1      -8.874  10.433  69.328  1.00  0.00    -0.154 C  
HETATM   34  C   UNL     1      -7.641   9.709  68.787  1.00  0.00    -0.076 C  
HETATM   35  C   UNL     1      -6.633  10.722  68.243  1.00  0.00    -0.058 C  
HETATM   36  N   UNL     1      -5.435  10.023  67.736  1.00  0.00    -0.039 NA 
HETATM   37  C   UNL     1      -6.268  11.721  69.355  1.00  0.00    -0.103 C  
HETATM   38  H1  UNL     1      -4.762  10.698  67.373  1.00  0.00     0.000 HD 
HETATM   39  H2  UNL     1      -5.672   9.311  67.045  1.00  0.00     0.000 HD 
HETATM   40  O   UNL     1      -5.535  11.029  70.379  1.00  0.00    -0.082 OA 
HETATM   41  C   UNL     1      -7.553  12.357  69.922  1.00  0.00     1.508 C  
HETATM   42  H   UNL     1      -5.309  11.646  71.065  1.00  0.00     0.000 HD 
HETATM   43  C   UNL     1      -7.254  13.227  71.140  1.00  0.00     3.982 C  
HETATM   44  O   UNL     1      -8.513  11.377  70.336  1.00  0.00     2.083 OA 
ENDBRANCH  32  33
ENDBRANCH  27  32
ENDBRANCH   2   3
TORSDOF 4
ENDMDL
MODEL      153
REMARK 921   NORMALIZED FREE ENERGY PREDICTED BY IDOCK:   12.92 KCAL/MOL
REMARK 922        TOTAL FREE ENERGY PREDICTED BY IDOCK:   15.35 KCAL/MOL
REMARK 923 INTER-LIGAND FREE ENERGY PREDICTED BY IDOCK:   13.20 KCAL/MOL
REMARK 924 INTRA-LIGAND FREE ENERGY PREDICTED BY IDOCK:    2.15 KCAL/MOL
REMARK 927      BINDING AFFINITY PREDICTED BY RF-SCORE:    0.00 PKD
ROOT
HETATM    1  C   UNL     1      -9.036  18.978  68.958  1.00  0.00    -0.182 C  
HETATM    2  O   UNL     1      -9.150  17.617  69.367  1.00  0.00     0.148 OA 
ENDROOT
BRANCH   2   3
HETATM    3  C   UNL     1     -10.128  17.328  70.283  1.00  0.00     1.182 A  
HETATM    4  C   UNL     1     -10.797  18.341  70.990  1.00  0.00     2.784 A  
HETATM    5  C   UNL     1     -11.793  18.031  71.910  1.00  0.00     4.983 A  
HETATM    6  C   UNL     1     -12.127  16.703  72.133  1.00  0.00     0.012 A  
HETATM    7  C   UNL     1     -11.451  15.676  71.454  1.00  0.00    -0.488 A  
HETATM    8  C   UNL     1     -10.440  15.974  70.541  1.00  0.00     0.100 A  
HETATM    9  C   UNL     1      -9.735  14.844  69.880  1.00  0.00     0.189 C  
HETATM   10  O   UNL     1      -8.761  15.015  69.152  1.00  0.00    -0.200 OA 
HETATM   11  C   UNL     1     -10.188  13.444  70.094  1.00  0.00     2.045 A  
HETATM   12  C   UNL     1      -9.594  12.386  69.373  1.00  0.00     1.046 A  
HETATM   13  O   UNL     1      -8.614  12.616  68.436  1.00  0.00    -0.224 OA 
HETATM   14  C   UNL     1      -9.982  11.044  69.563  1.00  0.00     0.074 A  
HETATM   15  H   UNL     1      -8.214  11.903  67.950  1.00  0.00     0.000 HD 
HETATM   16  C   UNL     1     -10.985  10.757  70.519  1.00  0.00     0.072 A  
HETATM   17  C   UNL     1     -11.608  11.826  71.199  1.00  0.00     1.209 A  
HETATM   18  C   UNL     1     -11.423   9.325  70.790  1.00  0.00    -0.351 C  
HETATM   19  C   UNL     1     -10.459   8.269  70.238  1.00  0.00    -0.218 C  
HETATM   20  C   UNL     1     -11.206  13.165  71.003  1.00  0.00     2.098 A  
HETATM   21  O   UNL     1     -12.632  11.573  72.071  1.00  0.00    -0.128 OA 
HETATM   22  O   UNL     1     -12.718  14.108  72.582  1.00  0.00    -0.334 OA 
HETATM   23  C   UNL     1     -11.849  14.285  71.738  1.00  0.00     0.134 C  
HETATM   24  C   UNL     1     -10.127   8.642  68.793  1.00  0.00    -0.210 C  
HETATM   25  O   UNL     1      -9.308   8.208  71.086  1.00  0.00    -0.145 OA 
HETATM   26  H   UNL     1     -13.051  12.293  72.529  1.00  0.00     0.000 HD 
HETATM   27  C   UNL     1      -9.310   9.937  68.749  1.00  0.00    -0.157 C  
HETATM   28  H   UNL     1      -8.711   7.553  70.744  1.00  0.00     0.000 HD 
BRANCH  19  29
HETATM   29  C   UNL     1     -11.106   6.874  70.252  1.00  0.00    -0.297 C  
HETATM   30  O   UNL     1     -12.019   6.586  71.031  1.00  0.00    -0.361 OA 
HETATM   31  C   UNL     1     -10.653   5.888  69.199  1.00  0.00    -0.369 C  
ENDBRANCH  19  29
BRANCH  27  32
HETATM   32  O   UNL     1      -7.987   9.745  69.282  1.00  0.00    -0.093 OA 
BRANCH  32  33
HETATM   33  C   UNL     1      -6.949   9.499  68.325  1.00  0.00    -0.070 C  
HETATM   34  C   UNL     1      -7.169   8.267  67.448  1.00  0.00    -0.084 C  
HETATM   35  C   UNL     1      -8.340   8.504  66.493  1.00  0.00    -0.113 C  
HETATM   36  N   UNL     1      -8.541   7.319  65.634  1.00  0.00    -0.242 NA 
HETATM   37  C   UNL     1      -8.062   9.763  65.652  1.00  0.00    -0.120 C  
HETATM   38  H1  UNL     1      -9.322   7.477  64.997  1.00  0.00     0.000 HD 
HETATM   39  H2  UNL     1      -8.661   6.467  66.181  1.00  0.00     0.000 HD 
HETATM   40  O   UNL     1      -6.955   9.500  64.774  1.00  0.00    -0.095 OA 
HETATM   41  C   UNL     1      -7.762  10.953  66.586  1.00  0.00    -0.146 C  
HETATM   42  H   UNL     1      -6.783  10.277  64.255  1.00  0.00     0.000 HD 
HETATM   43  C   UNL     1      -7.315  12.180  65.797  1.00  0.00     1.820 C  
HETATM   44  O   UNL     1      -6.723  10.662  67.528  1.00  0.00    -0.068 OA 
ENDBRANCH  32  33
ENDBRANCH  27  32
ENDBRANCH   2   3
TORSDOF 4
ENDMDL
MODEL      154
REMARK 921   NORMALIZED FREE ENERGY PREDICTED BY IDOCK:   13.98 KCAL/MOL
REMARK 922        TOTAL FREE ENERGY PREDICTED BY IDOCK:   16.65 KCAL/MOL
REMARK 923 INTER-LIGAND FREE ENERGY PREDICTED BY IDOCK:   -0.98 KCAL/MOL
REMARK 924 INTRA-LIGAND FREE ENERGY PREDICTED BY IDOCK:   17.62 KCAL/MOL
REMARK 927      BINDING AFFINITY PREDICTED BY RF-SCORE:    0.00 PKD
ROOT
HETATM    1  C   UNL     1     -10.271   3.708  68.221  1.00  0.00     0.870 C  
HETATM    2  O   UNL     1      -9.855   2.750  67.252  1.00  0.00     0.141 OA 
ENDROOT
BRANCH   2   3
HETATM    3  C   UNL     1      -8.878   3.144  66.374  1.00  0.00    -0.143 A  
HETATM    4  C   UNL     1      -8.260   2.232  65.503  1.00  0.00    -0.087 A  
HETATM    5  C   UNL     1      -7.276   2.650  64.612  1.00  0.00    -0.054 A  
HETATM    6  C   UNL     1      -6.900   3.985  64.589  1.00  0.00    -0.049 A  
HETATM    7  C   UNL     1      -7.488   4.906  65.471  1.00  0.00    -0.081 A  
HETATM    8  C   UNL     1      -8.464   4.495  66.379  1.00  0.00    -0.112 A  
HETATM    9  C   UNL     1      -9.025   5.508  67.312  1.00  0.00    -0.111 C  
HETATM   10  O   UNL     1      -9.802   5.208  68.215  1.00  0.00    -0.144 OA 
HETATM   11  C   UNL     1      -8.645   6.940  67.189  1.00  0.00    -0.121 A  
HETATM   12  C   UNL     1      -9.268   7.914  67.998  1.00  0.00    -0.131 A  
HETATM   13  O   UNL     1     -10.260   7.579  68.890  1.00  0.00    -0.197 OA 
HETATM   14  C   UNL     1      -8.921   9.278  67.925  1.00  0.00    -0.130 A  
HETATM   15  H   UNL     1     -10.680   8.235  69.435  1.00  0.00     0.000 HD 
HETATM   16  C   UNL     1      -7.903   9.671  67.023  1.00  0.00    -0.098 A  
HETATM   17  C   UNL     1      -7.320   8.697  66.183  1.00  0.00    -0.085 A  
HETATM   18  C   UNL     1      -7.464  11.124  66.923  1.00  0.00    -0.138 C  
HETATM   19  C   UNL     1      -7.933  11.995  68.094  1.00  0.00    -0.152 C  
HETATM   20  C   UNL     1      -7.674   7.334  66.271  1.00  0.00    -0.097 A  
HETATM   21  O   UNL     1      -6.389   9.072  65.252  1.00  0.00    -0.063 OA 
HETATM   22  O   UNL     1      -6.152   6.579  64.603  1.00  0.00    -0.032 OA 
HETATM   23  C   UNL     1      -7.041   6.309  65.401  1.00  0.00    -0.068 C  
HETATM   24  C   UNL     1      -9.422  11.724  68.317  1.00  0.00    -0.193 C  
HETATM   25  O   UNL     1      -7.126  11.702  69.238  1.00  0.00    -0.190 OA 
HETATM   26  H   UNL     1      -5.996   8.416  64.687  1.00  0.00     0.000 HD 
HETATM   27  C   UNL     1      -9.635  10.292  68.820  1.00  0.00    -0.175 C  
HETATM   28  H   UNL     1      -7.417  12.242  69.964  1.00  0.00     0.000 HD 
BRANCH  19  29
HETATM   29  C   UNL     1      -7.745  13.488  67.778  1.00  0.00    -0.163 C  
HETATM   30  O   UNL     1      -7.027  13.874  66.851  1.00  0.00     0.163 OA 
HETATM   31  C   UNL     1      -8.559  14.476  68.583  1.00  0.00    -0.168 C  
ENDBRANCH  19  29
BRANCH  27  32
HETATM   32  O   UNL     1      -9.133  10.123  70.158  1.00  0.00    -0.107 OA 
BRANCH  32  33
HETATM   33  C   UNL     1     -10.071   9.644  71.130  1.00  0.00    -0.050 C  
HETATM   34  C   UNL     1     -11.359  10.461  71.229  1.00  0.00     0.034 C  
HETATM   35  C   UNL     1     -12.195  10.279  69.962  1.00  0.00    -0.120 C  
HETATM   36  N   UNL     1     -13.448  11.055  70.065  1.00  0.00     0.467 NA 
HETATM   37  C   UNL     1     -12.482   8.781  69.753  1.00  0.00     1.702 C  
HETATM   38  H1  UNL     1     -14.006  10.934  69.220  1.00  0.00     0.000 HD 
HETATM   39  H2  UNL     1     -13.272  12.039  70.269  1.00  0.00     0.000 HD 
HETATM   40  O   UNL     1     -13.351   8.324  70.803  1.00  0.00    -0.382 OA 
HETATM   41  C   UNL     1     -11.154   7.996  69.748  1.00  0.00    -0.064 C  
HETATM   42  H   UNL     1     -13.528   7.400  70.674  1.00  0.00     0.000 HD 
HETATM   43  C   UNL     1     -11.398   6.490  69.714  1.00  0.00    -0.456 C  
HETATM   44  O   UNL     1     -10.355   8.263  70.906  1.00  0.00    -0.189 OA 
ENDBRANCH  32  33
ENDBRANCH  27  32
ENDBRANCH   2   3
TORSDOF 4
ENDMDL
MODEL      155
REMARK 921   NORMALIZED FREE ENERGY PREDICTED BY IDOCK:   14.33 KCAL/MOL
REMARK 922        TOTAL FREE ENERGY PREDICTED BY IDOCK:   17.09 KCAL/MOL
REMARK 923 INTER-LIGAND FREE ENERGY PREDICTED BY IDOCK:   -2.09 KCAL/MOL
REMARK 924 INTRA-LIGAND FREE ENERGY PREDICTED BY IDOCK:   19.18 KCAL/MOL
REMARK 927      BINDING AFFINITY PREDICTED BY RF-SCORE:    0.00 PKD
ROOT
HETATM    1  C   UNL     1     -10.468  12.200  63.197  1.00  0.00    -0.166 C  
HETATM    2  O   UNL     1     -10.189  11.702  64.503  1.00  0.00    -0.260 OA 
ENDROOT
BRANCH   2   3
HETATM    3  C   UNL     1     -10.899  12.254  65.539  1.00  0.00    -0.282 A  
HETATM    4  C   UNL     1     -11.405  13.563  65.470  1.00  0.00    -0.310 A  
HETATM    5  C   UNL     1     -12.131  14.104  66.526  1.00  0.00    -0.481 A  
HETATM    6  C   UNL     1     -12.354  13.340  67.663  1.00  0.00     0.005 A  
HETATM    7  C   UNL     1     -11.833  12.040  67.760  1.00  0.00    -0.308 A  
HETATM    8  C   UNL     1     -11.091  11.492  66.713  1.00  0.00    -0.361 A  
HETATM    9  C   UNL     1     -10.535  10.124  66.888  1.00  0.00    -0.222 C  
HETATM   10  O   UNL     1      -9.779   9.614  66.066  1.00  0.00    -0.223 OA 
HETATM   11  C   UNL     1     -10.874   9.321  68.092  1.00  0.00    -0.145 A  
HETATM   12  C   UNL     1     -10.442   7.981  68.198  1.00  0.00    -0.167 A  
HETATM   13  O   UNL     1      -9.733   7.372  67.189  1.00  0.00    -0.149 OA 
HETATM   14  C   UNL     1     -10.725   7.194  69.333  1.00  0.00    -0.246 A  
HETATM   15  H   UNL     1      -9.443   6.470  67.260  1.00  0.00     0.000 HD 
HETATM   16  C   UNL     1     -11.449   7.778  70.400  1.00  0.00    -0.171 A  
HETATM   17  C   UNL     1     -11.919   9.102  70.264  1.00  0.00     0.151 A  
HETATM   18  C   UNL     1     -11.757   6.986  71.663  1.00  0.00    -0.332 C  
HETATM   19  C   UNL     1     -10.925   5.708  71.811  1.00  0.00    -0.226 C  
HETATM   20  C   UNL     1     -11.624   9.880  69.124  1.00  0.00     0.064 A  
HETATM   21  O   UNL     1     -12.685   9.656  71.253  1.00  0.00    -0.322 OA 
HETATM   22  O   UNL     1     -12.727  11.850  69.882  1.00  0.00     0.077 OA 
HETATM   23  C   UNL     1     -12.101  11.281  68.995  1.00  0.00    -0.257 C  
HETATM   24  C   UNL     1     -10.975   4.956  70.479  1.00  0.00     0.609 C  
HETATM   25  O   UNL     1      -9.599   6.064  72.209  1.00  0.00    -0.151 OA 
HETATM   26  H   UNL     1     -13.002  10.548  71.162  1.00  0.00     0.000 HD 
HETATM   27  C   UNL     1     -10.239   5.744  69.391  1.00  0.00    -0.234 C  
HETATM   28  H   UNL     1      -9.083   5.271  72.301  1.00  0.00     0.000 HD 
BRANCH  19  29
HETATM   29  C   UNL     1     -11.501   4.801  72.912  1.00  0.00    -0.133 C  
HETATM   30  O   UNL     1     -11.690   3.595  72.731  1.00  0.00     0.407 OA 
HETATM   31  C   UNL     1     -11.733   5.422  74.271  1.00  0.00     2.832 C  
ENDBRANCH  19  29
BRANCH  27  32
HETATM   32  O   UNL     1      -8.819   5.769  69.627  1.00  0.00    -0.120 OA 
BRANCH  32  33
HETATM   33  C   UNL     1      -8.397   6.274  70.899  1.00  0.00    -0.127 C  
HETATM   34  C   UNL     1      -6.911   6.619  70.987  1.00  0.00    -0.062 C  
HETATM   35  C   UNL     1      -6.601   7.838  70.116  1.00  0.00    -0.038 C  
HETATM   36  N   UNL     1      -5.168   8.181  70.215  1.00  0.00    -0.023 NA 
HETATM   37  C   UNL     1      -7.489   9.015  70.559  1.00  0.00    -0.098 C  
HETATM   38  H1  UNL     1      -4.961   8.994  69.635  1.00  0.00     0.000 HD 
HETATM   39  H2  UNL     1      -4.569   7.387  69.987  1.00  0.00     0.000 HD 
HETATM   40  O   UNL     1      -7.090   9.428  71.876  1.00  0.00    -0.308 OA 
HETATM   41  C   UNL     1      -8.970   8.585  70.534  1.00  0.00    -0.155 C  
HETATM   42  H   UNL     1      -7.638  10.155  72.149  1.00  0.00     0.000 HD 
HETATM   43  C   UNL     1      -9.873   9.663  71.125  1.00  0.00    -0.004 C  
HETATM   44  O   UNL     1      -9.205   7.387  71.283  1.00  0.00    -0.149 OA 
ENDBRANCH  32  33
ENDBRANCH  27  32
ENDBRANCH   2   3
TORSDOF 4
ENDMDL
MODEL      156
REMARK 921   NORMALIZED FREE ENERGY PREDICTED BY IDOCK:   14.86 KCAL/MOL
REMARK 922        TOTAL FREE ENERGY PREDICTED BY IDOCK:   17.74 KCAL/MOL
REMARK 923 INTER-LIGAND FREE ENERGY PREDICTED BY IDOCK:    7.92 KCAL/MOL
REMARK 924 INTRA-LIGAND FREE ENERGY PREDICTED BY IDOCK:    9.82 KCAL/MOL
REMARK 927      BINDING AFFINITY PREDICTED BY RF-SCORE:    0.00 PKD
ROOT
HETATM    1  C   UNL     1      -5.983   9.899  67.472  1.00  0.00    -0.054 C  
HETATM    2  O   UNL     1      -6.031   9.041  66.335  1.00  0.00    -0.057 OA 
ENDROOT
BRANCH   2   3
HETATM    3  C   UNL     1      -6.978   9.328  65.384  1.00  0.00    -0.085 A  
HETATM    4  C   UNL     1      -7.368   8.380  64.424  1.00  0.00    -0.091 A  
HETATM    5  C   UNL     1      -8.335   8.685  63.472  1.00  0.00    -0.117 A  
HETATM    6  C   UNL     1      -8.918   9.944  63.471  1.00  0.00    -0.277 A  
HETATM    7  C   UNL     1      -8.521  10.913  64.406  1.00  0.00     0.101 A  
HETATM    8  C   UNL     1      -7.541  10.624  65.356  1.00  0.00    -0.038 A  
HETATM    9  C   UNL     1      -7.137  11.701  66.298  1.00  0.00     0.242 C  
HETATM   10  O   UNL     1      -6.205  11.565  67.087  1.00  0.00    -0.091 OA 
HETATM   11  C   UNL     1      -7.852  13.004  66.305  1.00  0.00     1.321 A  
HETATM   12  C   UNL     1      -7.544  13.979  67.278  1.00  0.00    -0.070 A  
HETATM   13  O   UNL     1      -6.611  13.745  68.261  1.00  0.00    -0.086 OA 
HETATM   14  C   UNL     1      -8.186  15.234  67.305  1.00  0.00    -0.230 A  
HETATM   15  H   UNL     1      -6.404  14.401  68.916  1.00  0.00     0.000 HD 
HETATM   16  C   UNL     1      -9.152  15.523  66.313  1.00  0.00    -0.369 A  
HETATM   17  C   UNL     1      -9.488  14.524  65.374  1.00  0.00     0.202 A  
HETATM   18  C   UNL     1      -9.854  16.873  66.273  1.00  0.00    -0.320 C  
HETATM   19  C   UNL     1      -9.173  17.950  67.123  1.00  0.00    -0.258 C  
HETATM   20  C   UNL     1      -8.834  13.274  65.355  1.00  0.00     1.452 A  
HETATM   21  O   UNL     1     -10.474  14.759  64.454  1.00  0.00    -0.505 OA 
HETATM   22  O   UNL     1      -9.997  12.419  63.461  1.00  0.00    -0.374 OA 
HETATM   23  C   UNL     1      -9.175  12.233  64.351  1.00  0.00     0.602 C  
HETATM   24  C   UNL     1      -8.880  17.350  68.499  1.00  0.00    -0.277 C  
HETATM   25  O   UNL     1      -8.000  18.402  66.441  1.00  0.00    -0.255 OA 
HETATM   26  H   UNL     1     -10.700  14.086  63.822  1.00  0.00     0.000 HD 
HETATM   27  C   UNL     1      -7.819  16.250  68.388  1.00  0.00    -0.168 C  
HETATM   28  H   UNL     1      -7.578  19.070  66.969  1.00  0.00     0.000 HD 
BRANCH  19  29
HETATM   29  C   UNL     1     -10.091  19.171  67.302  1.00  0.00    -0.376 C  
HETATM   30  O   UNL     1     -10.725  19.363  68.343  1.00  0.00    -0.213 OA 
HETATM   31  C   UNL     1     -10.111  20.194  66.189  1.00  0.00    -0.532 C  
ENDBRANCH  19  29
BRANCH  27  32
HETATM   32  O   UNL     1      -6.528  16.794  68.058  1.00  0.00    -0.136 OA 
BRANCH  32  33
HETATM   33  C   UNL     1      -5.920  17.630  69.051  1.00  0.00    -0.199 C  
HETATM   34  C   UNL     1      -5.502  19.012  68.551  1.00  0.00    -0.200 C  
HETATM   35  C   UNL     1      -6.739  19.854  68.236  1.00  0.00    -0.288 C  
HETATM   36  N   UNL     1      -6.334  21.196  67.770  1.00  0.00    -0.359 NA 
HETATM   37  C   UNL     1      -7.625  19.944  69.492  1.00  0.00     0.110 C  
HETATM   38  H1  UNL     1      -7.159  21.758  67.560  1.00  0.00     0.000 HD 
HETATM   39  H2  UNL     1      -5.694  21.148  66.977  1.00  0.00     0.000 HD 
HETATM   40  O   UNL     1      -6.936  20.712  70.493  1.00  0.00     0.064 OA 
HETATM   41  C   UNL     1      -7.944  18.524  70.002  1.00  0.00     1.535 C  
HETATM   42  H   UNL     1      -7.482  20.767  71.268  1.00  0.00     0.000 HD 
HETATM   43  C   UNL     1      -8.677  18.564  71.340  1.00  0.00     8.042 C  
HETATM   44  O   UNL     1      -6.766  17.733  70.197  1.00  0.00     0.273 OA 
ENDBRANCH  32  33
ENDBRANCH  27  32
ENDBRANCH   2   3
TORSDOF 4
ENDMDL
MODEL      157
REMARK 921   NORMALIZED FREE ENERGY PREDICTED BY IDOCK:   19.97 KCAL/MOL
REMARK 922        TOTAL FREE ENERGY PREDICTED BY IDOCK:   24.05 KCAL/MOL
REMARK 923 INTER-LIGAND FREE ENERGY PREDICTED BY IDOCK:    3.17 KCAL/MOL
REMARK 924 INTRA-LIGAND FREE ENERGY PREDICTED BY IDOCK:   20.88 KCAL/MOL
REMARK 927      BINDING AFFINITY PREDICTED BY RF-SCORE:    0.00 PKD
ROOT
HETATM    1  C   UNL     1     -11.744   6.260  67.275  1.00  0.00     1.197 C  
HETATM    2  O   UNL     1     -11.418   5.182  68.148  1.00  0.00     1.491 OA 
ENDROOT
BRANCH   2   3
HETATM    3  C   UNL     1     -10.757   5.504  69.306  1.00  0.00    -0.217 A  
HETATM    4  C   UNL     1     -10.795   4.665  70.432  1.00  0.00     0.828 A  
HETATM    5  C   UNL     1     -10.112   5.003  71.596  1.00  0.00    -0.260 A  
HETATM    6  C   UNL     1      -9.387   6.185  71.644  1.00  0.00    -0.157 A  
HETATM    7  C   UNL     1      -9.360   7.048  70.537  1.00  0.00    -0.159 A  
HETATM    8  C   UNL     1     -10.054   6.728  69.369  1.00  0.00    -0.183 A  
HETATM    9  C   UNL     1     -10.017   7.697  68.243  1.00  0.00    -0.176 C  
HETATM   10  O   UNL     1     -10.690   7.546  67.226  1.00  0.00    -0.307 OA 
HETATM   11  C   UNL     1      -9.159   8.909  68.318  1.00  0.00    -0.140 A  
HETATM   12  C   UNL     1      -9.036   9.764  67.202  1.00  0.00    -0.135 A  
HETATM   13  O   UNL     1      -9.668   9.488  66.012  1.00  0.00    -0.232 OA 
HETATM   14  C   UNL     1      -8.249  10.933  67.241  1.00  0.00    -0.123 A  
HETATM   15  H   UNL     1      -9.584  10.063  65.260  1.00  0.00     0.000 HD 
HETATM   16  C   UNL     1      -7.581  11.260  68.445  1.00  0.00    -0.120 A  
HETATM   17  C   UNL     1      -7.671  10.374  69.540  1.00  0.00    -0.156 A  
HETATM   18  C   UNL     1      -6.742  12.526  68.556  1.00  0.00    -0.078 C  
HETATM   19  C   UNL     1      -6.994  13.536  67.432  1.00  0.00    -0.070 C  
HETATM   20  C   UNL     1      -8.466   9.210  69.488  1.00  0.00    -0.128 A  
HETATM   21  O   UNL     1      -6.970  10.636  70.686  1.00  0.00    -0.464 OA 
HETATM   22  O   UNL     1      -8.030   8.517  71.724  1.00  0.00    -0.127 OA 
HETATM   23  C   UNL     1      -8.576   8.292  70.651  1.00  0.00    -0.136 C  
HETATM   24  C   UNL     1      -6.956  12.781  66.101  1.00  0.00     2.581 C  
HETATM   25  O   UNL     1      -8.241  14.193  67.674  1.00  0.00    -0.158 OA 
HETATM   26  H   UNL     1      -7.031  10.040  71.424  1.00  0.00     0.000 HD 
HETATM   27  C   UNL     1      -8.144  11.819  65.998  1.00  0.00     0.313 C  
HETATM   28  H   UNL     1      -8.397  14.820  66.976  1.00  0.00     0.000 HD 
BRANCH  19  29
HETATM   29  C   UNL     1      -5.906  14.622  67.415  1.00  0.00     0.308 C  
HETATM   30  O   UNL     1      -5.690  15.313  66.415  1.00  0.00     1.479 OA 
HETATM   31  C   UNL     1      -5.172  14.890  68.709  1.00  0.00    -0.089 C  
ENDBRANCH  19  29
BRANCH  27  32
HETATM   32  O   UNL     1      -9.388  12.529  65.862  1.00  0.00    -0.164 OA 
BRANCH  32  33
HETATM   33  C   UNL     1      -9.299  13.959  65.810  1.00  0.00     0.140 C  
HETATM   34  C   UNL     1     -10.597  14.665  65.424  1.00  0.00    -0.390 C  
HETATM   35  C   UNL     1     -11.629  14.518  66.543  1.00  0.00    -0.371 C  
HETATM   36  N   UNL     1     -12.879  15.215  66.176  1.00  0.00     0.577 NA 
HETATM   37  C   UNL     1     -11.042  15.076  67.851  1.00  0.00    -0.307 C  
HETATM   38  H1  UNL     1     -13.567  15.117  66.922  1.00  0.00     0.000 HD 
HETATM   39  H2  UNL     1     -13.243  14.899  65.277  1.00  0.00     0.000 HD 
HETATM   40  O   UNL     1     -10.883  16.499  67.719  1.00  0.00    -0.341 OA 
HETATM   41  C   UNL     1      -9.692  14.391  68.147  1.00  0.00    -0.223 C  
HETATM   42  H   UNL     1     -10.521  16.843  68.527  1.00  0.00     0.000 HD 
HETATM   43  C   UNL     1      -8.992  15.031  69.341  1.00  0.00    -0.113 C  
HETATM   44  O   UNL     1      -8.785  14.468  67.041  1.00  0.00    -0.219 OA 
ENDBRANCH  32  33
ENDBRANCH  27  32
ENDBRANCH   2   3
TORSDOF 4
ENDMDL
MODEL      158
REMARK 921   NORMALIZED FREE ENERGY PREDICTED BY IDOCK:   21.64 KCAL/MOL
REMARK 922        TOTAL FREE ENERGY PREDICTED BY IDOCK:   26.11 KCAL/MOL
REMARK 923 INTER-LIGAND FREE ENERGY PREDICTED BY IDOCK:   18.36 KCAL/MOL
REMARK 924 INTRA-LIGAND FREE ENERGY PREDICTED BY IDOCK:    7.75 KCAL/MOL
REMARK 927      BINDING AFFINITY PREDICTED BY RF-SCORE:    0.00 PKD
ROOT
HETATM    1  C   UNL     1     -11.934   6.201  67.242  1.00  0.00     2.601 C  
HETATM    2  O   UNL     1     -11.976   5.098  68.143  1.00  0.00     4.092 OA 
ENDROOT
BRANCH   2   3
HETATM    3  C   UNL     1     -11.669   5.359  69.454  1.00  0.00     2.768 A  
HETATM    4  C   UNL     1     -12.103   4.518  70.493  1.00  0.00     7.653 A  
HETATM    5  C   UNL     1     -11.775   4.793  71.816  1.00  0.00     1.366 A  
HETATM    6  C   UNL     1     -11.013   5.915  72.112  1.00  0.00    -0.317 A  
HETATM    7  C   UNL     1     -10.594   6.780  71.089  1.00  0.00    -0.252 A  
HETATM    8  C   UNL     1     -10.929   6.523  69.760  1.00  0.00    -0.396 A  
HETATM    9  C   UNL     1     -10.487   7.494  68.725  1.00  0.00    -0.194 C  
HETATM   10  O   UNL     1     -10.835   7.403  67.550  1.00  0.00    -0.242 OA 
HETATM   11  C   UNL     1      -9.605   8.634  69.087  1.00  0.00    -0.163 A  
HETATM   12  C   UNL     1      -9.091   9.483  68.084  1.00  0.00    -0.127 A  
HETATM   13  O   UNL     1      -9.358   9.267  66.752  1.00  0.00    -0.143 OA 
HETATM   14  C   UNL     1      -8.268  10.586  68.390  1.00  0.00    -0.121 A  
HETATM   15  H   UNL     1      -9.012   9.838  66.076  1.00  0.00     0.000 HD 
HETATM   16  C   UNL     1      -7.967  10.852  69.746  1.00  0.00     0.301 A  
HETATM   17  C   UNL     1      -8.445   9.969  70.739  1.00  0.00     0.853 A  
HETATM   18  C   UNL     1      -7.110  12.047  70.139  1.00  0.00     1.073 C  
HETATM   19  C   UNL     1      -6.940  13.081  69.021  1.00  0.00    -0.056 C  
HETATM   20  C   UNL     1      -9.272   8.871  70.419  1.00  0.00    -0.222 A  
HETATM   21  O   UNL     1      -8.101  10.167  72.049  1.00  0.00     1.889 OA 
HETATM   22  O   UNL     1      -9.574   8.131  72.662  1.00  0.00    -0.229 OA 
HETATM   23  C   UNL     1      -9.791   7.957  71.469  1.00  0.00    -0.165 C  
HETATM   24  C   UNL     1      -6.562  12.335  67.741  1.00  0.00    -0.108 C  
HETATM   25  O   UNL     1      -8.151  13.833  68.902  1.00  0.00    -0.313 OA 
HETATM   26  H   UNL     1      -8.422   9.572  72.717  1.00  0.00     0.000 HD 
HETATM   27  C   UNL     1      -7.732  11.470  67.261  1.00  0.00    -0.150 C  
HETATM   28  H   UNL     1      -8.045  14.475  68.209  1.00  0.00     0.000 HD 
BRANCH  19  29
HETATM   29  C   UNL     1      -5.819  14.078  69.361  1.00  0.00    -0.092 C  
HETATM   30  O   UNL     1      -5.278  14.771  68.494  1.00  0.00    -0.091 OA 
HETATM   31  C   UNL     1      -5.470  14.260  70.821  1.00  0.00    -0.153 C  
ENDBRANCH  19  29
BRANCH  27  32
HETATM   32  O   UNL     1      -8.824  12.277  66.783  1.00  0.00    -0.202 OA 
BRANCH  32  33
HETATM   33  C   UNL     1      -9.875  11.581  66.102  1.00  0.00    -0.221 C  
HETATM   34  C   UNL     1     -10.737  12.459  65.195  1.00  0.00    -0.327 C  
HETATM   35  C   UNL     1      -9.924  12.927  63.989  1.00  0.00     0.028 C  
HETATM   36  N   UNL     1     -10.763  13.761  63.104  1.00  0.00     1.291 NA 
HETATM   37  C   UNL     1      -9.373  11.700  63.241  1.00  0.00    -0.153 C  
HETATM   38  H1  UNL     1     -10.221  14.074  62.299  1.00  0.00     0.000 HD 
HETATM   39  H2  UNL     1     -11.187  14.542  63.605  1.00  0.00     0.000 HD 
HETATM   40  O   UNL     1     -10.471  10.982  62.653  1.00  0.00    -0.748 OA 
HETATM   41  C   UNL     1      -8.585  10.807  64.222  1.00  0.00    -0.032 C  
HETATM   42  H   UNL     1     -10.130  10.225  62.192  1.00  0.00     0.000 HD 
HETATM   43  C   UNL     1      -8.164   9.496  63.566  1.00  0.00    -0.164 C  
HETATM   44  O   UNL     1      -9.348  10.465  65.385  1.00  0.00    -0.176 OA 
ENDBRANCH  32  33
ENDBRANCH  27  32
ENDBRANCH   2   3
TORSDOF 4
ENDMDL
MODEL      159
REMARK 921   NORMALIZED FREE ENERGY PREDICTED BY IDOCK:   25.33 KCAL/MOL
REMARK 922        TOTAL FREE ENERGY PREDICTED BY IDOCK:   30.66 KCAL/MOL
REMARK 923 INTER-LIGAND FREE ENERGY PREDICTED BY IDOCK:   24.77 KCAL/MOL
REMARK 924 INTRA-LIGAND FREE ENERGY PREDICTED BY IDOCK:    5.89 KCAL/MOL
REMARK 927      BINDING AFFINITY PREDICTED BY RF-SCORE:    0.00 PKD
ROOT
HETATM    1  C   UNL     1      -9.819  19.141  66.885  1.00  0.00    -0.335 C  
HETATM    2  O   UNL     1      -8.449  19.498  67.050  1.00  0.00    -0.277 OA 
ENDROOT
BRANCH   2   3
HETATM    3  C   UNL     1      -7.857  19.140  68.235  1.00  0.00    -0.315 A  
HETATM    4  C   UNL     1      -6.979  20.006  68.909  1.00  0.00    -0.293 A  
HETATM    5  C   UNL     1      -6.394  19.631  70.114  1.00  0.00    -0.276 A  
HETATM    6  C   UNL     1      -6.678  18.385  70.653  1.00  0.00     1.403 A  
HETATM    7  C   UNL     1      -7.532  17.497  69.979  1.00  0.00     1.414 A  
HETATM    8  C   UNL     1      -8.113  17.855  68.763  1.00  0.00    -0.238 A  
HETATM    9  C   UNL     1      -8.979  16.860  68.078  1.00  0.00    -0.224 C  
HETATM   10  O   UNL     1      -9.437  17.051  66.954  1.00  0.00    -0.241 OA 
HETATM   11  C   UNL     1      -9.316  15.571  68.739  1.00  0.00    -0.209 A  
HETATM   12  C   UNL     1     -10.233  14.682  68.140  1.00  0.00    -0.231 A  
HETATM   13  O   UNL     1     -10.864  14.989  66.957  1.00  0.00    -0.299 OA 
HETATM   14  C   UNL     1     -10.561  13.442  68.726  1.00  0.00    -0.230 A  
HETATM   15  H   UNL     1     -11.481  14.390  66.553  1.00  0.00     0.000 HD 
HETATM   16  C   UNL     1      -9.935  13.080  69.942  1.00  0.00     2.028 A  
HETATM   17  C   UNL     1      -9.058  13.997  70.559  1.00  0.00     3.461 A  
HETATM   18  C   UNL     1     -10.227  11.741  70.604  1.00  0.00     3.875 C  
HETATM   19  C   UNL     1     -10.923  10.733  69.684  1.00  0.00    -0.264 C  
HETATM   20  C   UNL     1      -8.734  15.233  69.959  1.00  0.00     0.351 A  
HETATM   21  O   UNL     1      -8.502  13.695  71.773  1.00  0.00     7.463 OA 
HETATM   22  O   UNL     1      -7.211  15.934  71.650  1.00  0.00     3.487 OA 
HETATM   23  C   UNL     1      -7.792  16.185  70.601  1.00  0.00     2.682 C  
HETATM   24  C   UNL     1     -12.089  11.448  68.998  1.00  0.00    -0.316 C  
HETATM   25  O   UNL     1      -9.962  10.208  68.764  1.00  0.00    -0.165 OA 
HETATM   26  H   UNL     1      -7.911  14.313  72.189  1.00  0.00     0.000 HD 
HETATM   27  C   UNL     1     -11.568  12.520  68.035  1.00  0.00    -0.342 C  
HETATM   28  H   UNL     1     -10.394   9.583  68.194  1.00  0.00     0.000 HD 
BRANCH  19  29
HETATM   29  C   UNL     1     -11.477   9.545  70.488  1.00  0.00    -0.276 C  
HETATM   30  O   UNL     1     -12.365   9.687  71.334  1.00  0.00    -0.328 OA 
HETATM   31  C   UNL     1     -10.965   8.168  70.132  1.00  0.00    -0.223 C  
ENDBRANCH  19  29
BRANCH  27  32
HETATM   32  O   UNL     1     -10.913  11.932  66.896  1.00  0.00    -0.259 OA 
BRANCH  32  33
HETATM   33  C   UNL     1     -11.238  10.565  66.615  1.00  0.00     0.209 C  
HETATM   34  C   UNL     1     -11.627  10.289  65.163  1.00  0.00     2.764 C  
HETATM   35  C   UNL     1     -10.409  10.451  64.252  1.00  0.00     0.013 C  
HETATM   36  N   UNL     1     -10.782  10.166  62.851  1.00  0.00     0.448 NA 
HETATM   37  C   UNL     1      -9.288   9.512  64.733  1.00  0.00    -0.169 C  
HETATM   38  H1  UNL     1      -9.970  10.274  62.244  1.00  0.00     0.000 HD 
HETATM   39  H2  UNL     1     -11.568  10.738  62.542  1.00  0.00     0.000 HD 
HETATM   40  O   UNL     1      -9.697   8.151  64.516  1.00  0.00     1.148 OA 
HETATM   41  C   UNL     1      -8.997   9.775  66.224  1.00  0.00    -0.153 C  
HETATM   42  H   UNL     1      -9.005   7.572  64.813  1.00  0.00     0.000 HD 
HETATM   43  C   UNL     1      -8.013   8.754  66.788  1.00  0.00    -0.097 C  
HETATM   44  O   UNL     1     -10.177   9.707  67.034  1.00  0.00    -0.215 OA 
ENDBRANCH  32  33
ENDBRANCH  27  32
ENDBRANCH   2   3
TORSDOF 4
ENDMDL
MODEL      160
REMARK 921   NORMALIZED FREE ENERGY PREDICTED BY IDOCK:   25.49 KCAL/MOL
REMARK 922        TOTAL FREE ENERGY PREDICTED BY IDOCK:   30.86 KCAL/MOL
REMARK 923 INTER-LIGAND FREE ENERGY PREDICTED BY IDOCK:    2.74 KCAL/MOL
REMARK 924 INTRA-LIGAND FREE ENERGY PREDICTED BY IDOCK:   28.12 KCAL/MOL
REMARK 927      BINDING AFFINITY PREDICTED BY RF-SCORE:    0.00 PKD
ROOT
HETATM    1  C   UNL     1      -9.993  14.889  69.777  1.00  0.00     0.038 C  
HETATM    2  O   UNL     1      -9.717  13.493  69.688  1.00  0.00     0.816 OA 
ENDROOT
BRANCH   2   3
HETATM    3  C   UNL     1     -10.679  12.641  70.165  1.00  0.00     1.455 A  
HETATM    4  C   UNL     1     -11.575  13.034  71.174  1.00  0.00     1.263 A  
HETATM    5  C   UNL     1     -12.551  12.160  71.641  1.00  0.00    -0.204 A  
HETATM    6  C   UNL     1     -12.637  10.883  71.105  1.00  0.00    -0.532 A  
HETATM    7  C   UNL     1     -11.734  10.465  70.115  1.00  0.00    -0.394 A  
HETATM    8  C   UNL     1     -10.741  11.327  69.650  1.00  0.00    -0.085 A  
HETATM    9  C   UNL     1      -9.790  10.816  68.627  1.00  0.00    -0.184 C  
HETATM   10  O   UNL     1      -8.821  11.470  68.248  1.00  0.00    -0.155 OA 
HETATM   11  C   UNL     1      -9.979   9.469  68.029  1.00  0.00    -0.198 A  
HETATM   12  C   UNL     1      -9.146   9.035  66.975  1.00  0.00    -0.130 A  
HETATM   13  O   UNL     1      -8.169   9.848  66.449  1.00  0.00    -0.116 OA 
HETATM   14  C   UNL     1      -9.280   7.757  66.396  1.00  0.00    -0.229 A  
HETATM   15  H   UNL     1      -7.609   9.557  65.739  1.00  0.00     0.000 HD 
HETATM   16  C   UNL     1     -10.270   6.883  66.904  1.00  0.00    -0.310 A  
HETATM   17  C   UNL     1     -11.130   7.343  67.925  1.00  0.00     0.132 A  
HETATM   18  C   UNL     1     -10.440   5.479  66.340  1.00  0.00    -0.294 C  
HETATM   19  C   UNL     1      -9.257   5.007  65.488  1.00  0.00    -0.151 C  
HETATM   20  C   UNL     1     -10.981   8.623  68.499  1.00  0.00     0.123 A  
HETATM   21  O   UNL     1     -12.141   6.538  68.376  1.00  0.00     0.306 OA 
HETATM   22  O   UNL     1     -12.746   8.389  70.079  1.00  0.00     1.118 OA 
HETATM   23  C   UNL     1     -11.874   9.095  69.589  1.00  0.00     0.599 C  
HETATM   24  C   UNL     1      -8.909   6.124  64.503  1.00  0.00     0.377 C  
HETATM   25  O   UNL     1      -8.175   4.659  66.356  1.00  0.00    -0.106 OA 
HETATM   26  H   UNL     1     -12.720   6.848  69.063  1.00  0.00     0.000 HD 
HETATM   27  C   UNL     1      -8.355   7.342  65.250  1.00  0.00    -0.104 C  
HETATM   28  H   UNL     1      -7.441   4.366  65.828  1.00  0.00     0.000 HD 
BRANCH  19  29
HETATM   29  C   UNL     1      -9.623   3.743  64.692  1.00  0.00    -0.173 C  
HETATM   30  O   UNL     1      -8.761   3.000  64.215  1.00  0.00    -0.093 OA 
HETATM   31  C   UNL     1     -11.088   3.379  64.602  1.00  0.00     0.723 C  
ENDBRANCH  19  29
BRANCH  27  32
HETATM   32  O   UNL     1      -7.058   7.072  65.811  1.00  0.00    -0.065 OA 
BRANCH  32  33
HETATM   33  C   UNL     1      -6.913   5.823  66.498  1.00  0.00    -0.064 C  
HETATM   34  C   UNL     1      -5.808   5.801  67.553  1.00  0.00    -0.017 C  
HETATM   35  C   UNL     1      -6.189   6.695  68.734  1.00  0.00    -0.027 C  
HETATM   36  N   UNL     1      -5.128   6.659  69.761  1.00  0.00    -0.013 NA 
HETATM   37  C   UNL     1      -7.538   6.227  69.309  1.00  0.00    -0.099 C  
HETATM   38  H1  UNL     1      -5.383   7.255  70.548  1.00  0.00     0.000 HD 
HETATM   39  H2  UNL     1      -4.216   6.904  69.376  1.00  0.00     0.000 HD 
HETATM   40  O   UNL     1      -7.365   4.931  69.905  1.00  0.00    -0.053 OA 
HETATM   41  C   UNL     1      -8.594   6.186  68.184  1.00  0.00    -0.115 C  
HETATM   42  H   UNL     1      -8.198   4.642  70.260  1.00  0.00     0.000 HD 
HETATM   43  C   UNL     1      -9.901   5.567  68.670  1.00  0.00    -0.198 C  
HETATM   44  O   UNL     1      -8.163   5.416  67.056  1.00  0.00    -0.105 OA 
ENDBRANCH  32  33
ENDBRANCH  27  32
ENDBRANCH   2   3
TORSDOF 4
ENDMDL
MODEL      161
REMARK 921   NORMALIZED FREE ENERGY PREDICTED BY IDOCK:   29.60 KCAL/MOL
REMARK 922        TOTAL FREE ENERGY PREDICTED BY IDOCK:   35.92 KCAL/MOL
REMARK 923 INTER-LIGAND FREE ENERGY PREDICTED BY IDOCK:   14.33 KCAL/MOL
REMARK 924 INTRA-LIGAND FREE ENERGY PREDICTED BY IDOCK:   21.59 KCAL/MOL
REMARK 927      BINDING AFFINITY PREDICTED BY RF-SCORE:    0.00 PKD
ROOT
HETATM    1  C   UNL     1     -10.818  11.183  65.077  1.00  0.00    -0.173 C  
HETATM    2  O   UNL     1     -10.586  10.211  66.093  1.00  0.00    -0.146 OA 
ENDROOT
BRANCH   2   3
HETATM    3  C   UNL     1     -11.056  10.504  67.347  1.00  0.00    -0.252 A  
HETATM    4  C   UNL     1     -11.881   9.611  68.051  1.00  0.00     1.728 A  
HETATM    5  C   UNL     1     -12.343   9.921  69.326  1.00  0.00     0.875 A  
HETATM    6  C   UNL     1     -11.985  11.129  69.907  1.00  0.00    -0.439 A  
HETATM    7  C   UNL     1     -11.183  12.045  69.207  1.00  0.00    -0.291 A  
HETATM    8  C   UNL     1     -10.727  11.752  67.922  1.00  0.00    -0.241 A  
HETATM    9  C   UNL     1      -9.912  12.776  67.217  1.00  0.00    -0.219 C  
HETATM   10  O   UNL     1      -9.567  12.646  66.045  1.00  0.00    -0.247 OA 
HETATM   11  C   UNL     1      -9.490  14.018  67.916  1.00  0.00    -0.210 A  
HETATM   12  C   UNL     1      -8.618  14.930  67.284  1.00  0.00    -0.213 A  
HETATM   13  O   UNL     1      -8.108  14.686  66.030  1.00  0.00     0.408 OA 
HETATM   14  C   UNL     1      -8.213  16.128  67.907  1.00  0.00    -0.159 A  
HETATM   15  H   UNL     1      -7.521  15.300  65.605  1.00  0.00     0.000 HD 
HETATM   16  C   UNL     1      -8.714  16.425  69.196  1.00  0.00    -0.185 A  
HETATM   17  C   UNL     1      -9.546  15.484  69.841  1.00  0.00    -0.103 A  
HETATM   18  C   UNL     1      -8.336  17.718  69.905  1.00  0.00     1.686 C  
HETATM   19  C   UNL     1      -7.712  18.770  68.982  1.00  0.00    -0.202 C  
HETATM   20  C   UNL     1      -9.948  14.291  69.203  1.00  0.00    -0.033 A  
HETATM   21  O   UNL     1      -9.978  15.720  71.118  1.00  0.00     0.742 OA 
HETATM   22  O   UNL     1     -11.316  13.510  70.989  1.00  0.00     0.647 OA 
HETATM   23  C   UNL     1     -10.842  13.314  69.876  1.00  0.00     0.564 C  
HETATM   24  C   UNL     1      -6.629  18.083  68.147  1.00  0.00    -0.199 C  
HETATM   25  O   UNL     1      -8.746  19.361  68.191  1.00  0.00    -0.309 OA 
HETATM   26  H   UNL     1     -10.538  15.086  71.552  1.00  0.00     0.000 HD 
HETATM   27  C   UNL     1      -7.259  17.077  67.178  1.00  0.00    -0.172 C  
HETATM   28  H   UNL     1      -8.359  20.014  67.619  1.00  0.00     0.000 HD 
BRANCH  19  29
HETATM   29  C   UNL     1      -7.063  19.901  69.797  1.00  0.00    -0.060 C  
HETATM   30  O   UNL     1      -7.534  20.284  70.871  1.00  0.00     0.365 OA 
HETATM   31  C   UNL     1      -5.756  20.464  69.286  1.00  0.00    -0.360 C  
ENDBRANCH  19  29
BRANCH  27  32
HETATM   32  O   UNL     1      -8.009  17.740  66.143  1.00  0.00    -0.402 OA 
BRANCH  32  33
HETATM   33  C   UNL     1      -9.265  18.306  66.535  1.00  0.00    -0.292 C  
HETATM   34  C   UNL     1     -10.154  18.750  65.374  1.00  0.00     0.692 C  
HETATM   35  C   UNL     1     -10.658  17.530  64.601  1.00  0.00     1.714 C  
HETATM   36  N   UNL     1     -11.531  17.959  63.489  1.00  0.00     5.391 NA 
HETATM   37  C   UNL     1     -11.404  16.591  65.566  1.00  0.00     0.371 C  
HETATM   38  H1  UNL     1     -11.867  17.146  62.974  1.00  0.00     0.000 HD 
HETATM   39  H2  UNL     1     -11.069  18.634  62.879  1.00  0.00     0.000 HD 
HETATM   40  O   UNL     1     -12.610  17.237  66.004  1.00  0.00     4.950 OA 
HETATM   41  C   UNL     1     -10.491  16.245  66.760  1.00  0.00    -0.287 C  
HETATM   42  H   UNL     1     -13.070  16.658  66.600  1.00  0.00     0.000 HD 
HETATM   43  C   UNL     1     -11.244  15.454  67.826  1.00  0.00    -0.321 C  
HETATM   44  O   UNL     1      -9.963  17.412  67.402  1.00  0.00    -0.286 OA 
ENDBRANCH  32  33
ENDBRANCH  27  32
ENDBRANCH   2   3
TORSDOF 4
ENDMDL
MODEL      162
REMARK 921   NORMALIZED FREE ENERGY PREDICTED BY IDOCK:   29.91 KCAL/MOL
REMARK 922        TOTAL FREE ENERGY PREDICTED BY IDOCK:   36.31 KCAL/MOL
REMARK 923 INTER-LIGAND FREE ENERGY PREDICTED BY IDOCK:   33.89 KCAL/MOL
REMARK 924 INTRA-LIGAND FREE ENERGY PREDICTED BY IDOCK:    2.41 KCAL/MOL
REMARK 927      BINDING AFFINITY PREDICTED BY RF-SCORE:    0.00 PKD
ROOT
HETATM    1  C   UNL     1     -13.716   7.285  69.221  1.00  0.00     8.492 C  
HETATM    2  O   UNL     1     -13.084   8.510  69.584  1.00  0.00     2.747 OA 
ENDROOT
BRANCH   2   3
HETATM    3  C   UNL     1     -11.971   8.418  70.381  1.00  0.00     0.184 A  
HETATM    4  C   UNL     1     -11.792   7.348  71.274  1.00  0.00    -0.330 A  
HETATM    5  C   UNL     1     -10.654   7.265  72.069  1.00  0.00    -0.236 A  
HETATM    6  C   UNL     1      -9.686   8.255  71.980  1.00  0.00    -0.322 A  
HETATM    7  C   UNL     1      -9.862   9.346  71.113  1.00  0.00    -0.287 A  
HETATM    8  C   UNL     1     -11.006   9.447  70.322  1.00  0.00    -0.305 A  
HETATM    9  C   UNL     1     -11.152  10.643  69.450  1.00  0.00    -0.260 C  
HETATM   10  O   UNL     1     -12.177  10.865  68.810  1.00  0.00    -0.518 OA 
HETATM   11  C   UNL     1     -10.048  11.631  69.334  1.00  0.00     0.299 A  
HETATM   12  C   UNL     1     -10.144  12.699  68.416  1.00  0.00    -0.222 A  
HETATM   13  O   UNL     1     -11.231  12.839  67.585  1.00  0.00    -0.252 OA 
HETATM   14  C   UNL     1      -9.127  13.668  68.291  1.00  0.00    -0.193 A  
HETATM   15  H   UNL     1     -11.295  13.558  66.967  1.00  0.00     0.000 HD 
HETATM   16  C   UNL     1      -7.989  13.569  69.127  1.00  0.00     0.326 A  
HETATM   17  C   UNL     1      -7.880  12.470  70.006  1.00  0.00     2.399 A  
HETATM   18  C   UNL     1      -6.875  14.603  69.058  1.00  0.00    -0.111 C  
HETATM   19  C   UNL     1      -7.266  15.886  68.318  1.00  0.00    -0.116 C  
HETATM   20  C   UNL     1      -8.908  11.510  70.125  1.00  0.00     2.812 A  
HETATM   21  O   UNL     1      -6.753  12.317  70.767  1.00  0.00    -0.009 OA 
HETATM   22  O   UNL     1      -7.846  10.224  71.824  1.00  0.00     2.057 OA 
HETATM   23  C   UNL     1      -8.799  10.368  71.068  1.00  0.00     2.709 C  
HETATM   24  C   UNL     1      -7.936  15.487  67.003  1.00  0.00    -0.268 C  
HETATM   25  O   UNL     1      -8.108  16.670  69.168  1.00  0.00    -0.226 OA 
HETATM   26  H   UNL     1      -6.679  11.577  71.359  1.00  0.00     0.000 HD 
HETATM   27  C   UNL     1      -9.279  14.801  67.274  1.00  0.00    -0.203 C  
HETATM   28  H   UNL     1      -8.350  17.466  68.709  1.00  0.00     0.000 HD 
BRANCH  19  29
HETATM   29  C   UNL     1      -6.025  16.738  68.001  1.00  0.00    -0.126 C  
HETATM   30  O   UNL     1      -5.402  17.337  68.883  1.00  0.00    -0.144 OA 
HETATM   31  C   UNL     1      -5.525  16.733  66.574  1.00  0.00     0.086 C  
ENDBRANCH  19  29
BRANCH  27  32
HETATM   32  O   UNL     1     -10.250  15.727  67.793  1.00  0.00    -0.242 OA 
BRANCH  32  33
HETATM   33  C   UNL     1     -10.641  16.792  66.917  1.00  0.00    -0.219 C  
HETATM   34  C   UNL     1      -9.576  17.206  65.902  1.00  0.00    -0.110 C  
HETATM   35  C   UNL     1      -9.371  16.095  64.872  1.00  0.00     1.933 C  
HETATM   36  N   UNL     1      -8.353  16.503  63.882  1.00  0.00    10.456 NA 
HETATM   37  C   UNL     1     -10.715  15.778  64.193  1.00  0.00     1.039 C  
HETATM   38  H1  UNL     1      -8.216  15.762  63.195  1.00  0.00     0.000 HD 
HETATM   39  H2  UNL     1      -7.477  16.779  64.326  1.00  0.00     0.000 HD 
HETATM   40  O   UNL     1     -11.113  16.908  63.400  1.00  0.00     0.794 OA 
HETATM   41  C   UNL     1     -11.773  15.451  65.267  1.00  0.00     0.030 C  
HETATM   42  H   UNL     1     -11.943  16.712  62.981  1.00  0.00     0.000 HD 
HETATM   43  C   UNL     1     -13.161  15.296  64.653  1.00  0.00     1.094 C  
HETATM   44  O   UNL     1     -11.872  16.472  66.268  1.00  0.00     1.134 OA 
ENDBRANCH  32  33
ENDBRANCH  27  32
ENDBRANCH   2   3
TORSDOF 4
ENDMDL
MODEL      163
REMARK 921   NORMALIZED FREE ENERGY PREDICTED BY IDOCK:   34.90 KCAL/MOL
REMARK 922        TOTAL FREE ENERGY PREDICTED BY IDOCK:   42.47 KCAL/MOL
REMARK 923 INTER-LIGAND FREE ENERGY PREDICTED BY IDOCK:   12.93 KCAL/MOL
REMARK 924 INTRA-LIGAND FREE ENERGY PREDICTED BY IDOCK:   29.53 KCAL/MOL
REMARK 927      BINDING AFFINITY PREDICTED BY RF-SCORE:    0.00 PKD
ROOT
HETATM    1  C   UNL     1      -7.159  19.111  66.622  1.00  0.00    -0.209 C  
HETATM    2  O   UNL     1      -8.328  19.758  67.118  1.00  0.00    -0.291 OA 
ENDROOT
BRANCH   2   3
HETATM    3  C   UNL     1      -8.692  19.471  68.409  1.00  0.00    -0.345 A  
HETATM    4  C   UNL     1      -8.616  20.436  69.427  1.00  0.00     0.974 A  
HETATM    5  C   UNL     1      -8.997  20.131  70.729  1.00  0.00     1.804 A  
HETATM    6  C   UNL     1      -9.455  18.855  71.025  1.00  0.00     3.752 A  
HETATM    7  C   UNL     1      -9.512  17.870  70.026  1.00  0.00     1.567 A  
HETATM    8  C   UNL     1      -9.118  18.160  68.720  1.00  0.00    -0.239 A  
HETATM    9  C   UNL     1      -9.167  17.067  67.713  1.00  0.00    -0.236 C  
HETATM   10  O   UNL     1      -8.732  17.207  66.572  1.00  0.00    -0.231 OA 
HETATM   11  C   UNL     1      -9.742  15.742  68.065  1.00  0.00    -0.212 A  
HETATM   12  C   UNL     1      -9.895  14.747  67.076  1.00  0.00    -0.239 A  
HETATM   13  O   UNL     1      -9.556  14.980  65.763  1.00  0.00    -0.336 OA 
HETATM   14  C   UNL     1     -10.417  13.472  67.375  1.00  0.00    -0.247 A  
HETATM   15  H   UNL     1      -9.659  14.310  65.097  1.00  0.00     0.000 HD 
HETATM   16  C   UNL     1     -10.778  13.184  68.712  1.00  0.00    -0.253 A  
HETATM   17  C   UNL     1     -10.668  14.201  69.685  1.00  0.00     0.052 A  
HETATM   18  C   UNL     1     -11.318  11.815  69.100  1.00  0.00    -0.340 C  
HETATM   19  C   UNL     1     -11.080  10.733  68.041  1.00  0.00    -0.299 C  
HETATM   20  C   UNL     1     -10.139  15.472  69.373  1.00  0.00    -0.266 A  
HETATM   21  O   UNL     1     -11.084  13.964  70.967  1.00  0.00     0.124 OA 
HETATM   22  O   UNL     1     -10.290  16.349  71.581  1.00  0.00     1.822 OA 
HETATM   23  C   UNL     1     -10.002  16.532  70.405  1.00  0.00     1.086 C  
HETATM   24  C   UNL     1     -11.506  11.299  66.685  1.00  0.00    -0.029 C  
HETATM   25  O   UNL     1      -9.706  10.340  68.084  1.00  0.00    -0.141 OA 
HETATM   26  H   UNL     1     -11.009  14.649  71.622  1.00  0.00     0.000 HD 
HETATM   27  C   UNL     1     -10.569  12.434  66.261  1.00  0.00    -0.249 C  
HETATM   28  H   UNL     1      -9.559   9.669  67.428  1.00  0.00     0.000 HD 
BRANCH  19  29
HETATM   29  C   UNL     1     -11.919   9.479  68.339  1.00  0.00     1.900 C  
HETATM   30  O   UNL     1     -12.778   9.464  69.225  1.00  0.00     1.724 OA 
HETATM   31  C   UNL     1     -11.728   8.284  67.432  1.00  0.00     2.780 C  
ENDBRANCH  19  29
BRANCH  27  32
HETATM   32  O   UNL     1      -9.255  11.942  65.940  1.00  0.00    -0.217 OA 
BRANCH  32  33
HETATM   33  C   UNL     1      -8.955  10.610  66.374  1.00  0.00    -0.162 C  
HETATM   34  C   UNL     1      -7.482  10.220  66.262  1.00  0.00    -0.118 C  
HETATM   35  C   UNL     1      -6.650  11.009  67.274  1.00  0.00    -0.078 C  
HETATM   36  N   UNL     1      -5.228  10.619  67.176  1.00  0.00    -0.040 NA 
HETATM   37  C   UNL     1      -7.201  10.757  68.689  1.00  0.00    -0.089 C  
HETATM   38  H1  UNL     1      -4.673  11.144  67.851  1.00  0.00     0.000 HD 
HETATM   39  H2  UNL     1      -4.870  10.719  66.226  1.00  0.00     0.000 HD 
HETATM   40  O   UNL     1      -6.960   9.386  69.045  1.00  0.00    -0.057 OA 
HETATM   41  C   UNL     1      -8.708  11.085  68.723  1.00  0.00    -0.145 C  
HETATM   42  H   UNL     1      -7.300   9.231  69.918  1.00  0.00     0.000 HD 
HETATM   43  C   UNL     1      -9.334  10.691  70.057  1.00  0.00     0.565 C  
HETATM   44  O   UNL     1      -9.441  10.399  67.700  1.00  0.00    -0.147 OA 
ENDBRANCH  32  33
ENDBRANCH  27  32
ENDBRANCH   2   3
TORSDOF 4
ENDMDL
MODEL      164
REMARK 921   NORMALIZED FREE ENERGY PREDICTED BY IDOCK:   37.03 KCAL/MOL
REMARK 922        TOTAL FREE ENERGY PREDICTED BY IDOCK:   45.09 KCAL/MOL
REMARK 923 INTER-LIGAND FREE ENERGY PREDICTED BY IDOCK:   38.62 KCAL/MOL
REMARK 924 INTRA-LIGAND FREE ENERGY PREDICTED BY IDOCK:    6.47 KCAL/MOL
REMARK 927      BINDING AFFINITY PREDICTED BY RF-SCORE:    0.00 PKD
ROOT
HETATM    1  C   UNL     1     -10.695  14.882  65.633  1.00  0.00    -0.342 C  
HETATM    2  O   UNL     1     -11.345  14.822  64.366  1.00  0.00    -0.313 OA 
ENDROOT
BRANCH   2   3
HETATM    3  C   UNL     1     -11.833  13.600  63.980  1.00  0.00    -0.400 A  
HETATM    4  C   UNL     1     -12.869  13.486  63.038  1.00  0.00     1.015 A  
HETATM    5  C   UNL     1     -13.347  12.238  62.651  1.00  0.00     1.933 A  
HETATM    6  C   UNL     1     -12.794  11.093  63.206  1.00  0.00     1.382 A  
HETATM    7  C   UNL     1     -11.776  11.189  64.169  1.00  0.00     0.461 A  
HETATM    8  C   UNL     1     -11.299  12.435  64.576  1.00  0.00    -0.381 A  
HETATM    9  C   UNL     1     -10.246  12.475  65.624  1.00  0.00    -0.267 C  
HETATM   10  O   UNL     1      -9.853  13.529  66.119  1.00  0.00    -0.286 OA 
HETATM   11  C   UNL     1      -9.632  11.217  66.125  1.00  0.00    -0.241 A  
HETATM   12  C   UNL     1      -8.551  11.264  67.032  1.00  0.00    -0.148 A  
HETATM   13  O   UNL     1      -8.014  12.460  67.448  1.00  0.00    -0.159 OA 
HETATM   14  C   UNL     1      -7.956  10.094  67.545  1.00  0.00    -0.106 A  
HETATM   15  H   UNL     1      -7.286  12.492  68.058  1.00  0.00     0.000 HD 
HETATM   16  C   UNL     1      -8.476   8.839  67.148  1.00  0.00    -0.110 A  
HETATM   17  C   UNL     1      -9.525   8.801  66.203  1.00  0.00    -0.247 A  
HETATM   18  C   UNL     1      -7.895   7.542  67.693  1.00  0.00    -0.113 C  
HETATM   19  C   UNL     1      -7.007   7.733  68.927  1.00  0.00    -0.066 C  
HETATM   20  C   UNL     1     -10.114   9.981  65.701  1.00  0.00    -0.321 A  
HETATM   21  O   UNL     1      -9.989   7.595  65.750  1.00  0.00    -0.193 OA 
HETATM   22  O   UNL     1     -11.734   8.886  64.343  1.00  0.00    10.863 OA 
HETATM   23  C   UNL     1     -11.233   9.936  64.724  1.00  0.00     3.512 C  
HETATM   24  C   UNL     1      -6.031   8.873  68.635  1.00  0.00    -0.045 C  
HETATM   25  O   UNL     1      -7.843   7.980  70.062  1.00  0.00    -0.099 OA 
HETATM   26  H   UNL     1     -10.695   7.570  65.114  1.00  0.00     0.000 HD 
HETATM   27  C   UNL     1      -6.782  10.204  68.519  1.00  0.00    -0.057 C  
HETATM   28  H   UNL     1      -7.292   8.097  70.827  1.00  0.00     0.000 HD 
BRANCH  19  29
HETATM   29  C   UNL     1      -6.202   6.457  69.227  1.00  0.00    -0.034 C  
HETATM   30  O   UNL     1      -5.154   6.486  69.879  1.00  0.00    -0.013 OA 
HETATM   31  C   UNL     1      -6.796   5.140  68.781  1.00  0.00    -0.051 C  
ENDBRANCH  19  29
BRANCH  27  32
HETATM   32  O   UNL     1      -7.307  10.626  69.791  1.00  0.00    -0.153 OA 
BRANCH  32  33
HETATM   33  C   UNL     1      -6.588  11.672  70.456  1.00  0.00     0.711 C  
HETATM   34  C   UNL     1      -5.894  12.663  69.521  1.00  0.00    -0.105 C  
HETATM   35  C   UNL     1      -6.934  13.503  68.779  1.00  0.00    -0.102 C  
HETATM   36  N   UNL     1      -6.261  14.472  67.889  1.00  0.00    -0.150 NA 
HETATM   37  C   UNL     1      -7.833  14.218  69.804  1.00  0.00     0.492 C  
HETATM   38  H1  UNL     1      -6.955  15.033  67.394  1.00  0.00     0.000 HD 
HETATM   39  H2  UNL     1      -5.612  14.015  67.249  1.00  0.00     0.000 HD 
HETATM   40  O   UNL     1      -7.048  15.193  70.510  1.00  0.00     0.026 OA 
HETATM   41  C   UNL     1      -8.438  13.182  70.773  1.00  0.00     7.308 C  
HETATM   42  H   UNL     1      -7.603  15.634  71.143  1.00  0.00     0.000 HD 
HETATM   43  C   UNL     1      -9.200  13.859  71.908  1.00  0.00     9.934 C  
HETATM   44  O   UNL     1      -7.441  12.350  71.379  1.00  0.00     5.483 OA 
ENDBRANCH  32  33
ENDBRANCH  27  32
ENDBRANCH   2   3
TORSDOF 4
ENDMDL
MODEL      165
REMARK 921   NORMALIZED FREE ENERGY PREDICTED BY IDOCK:   38.58 KCAL/MOL
REMARK 922        TOTAL FREE ENERGY PREDICTED BY IDOCK:   47.01 KCAL/MOL
REMARK 923 INTER-LIGAND FREE ENERGY PREDICTED BY IDOCK:   16.35 KCAL/MOL
REMARK 924 INTRA-LIGAND FREE ENERGY PREDICTED BY IDOCK:   30.66 KCAL/MOL
REMARK 927      BINDING AFFINITY PREDICTED BY RF-SCORE:    0.00 PKD
ROOT
HETATM    1  C   UNL     1     -11.428   5.699  71.687  1.00  0.00    -0.001 C  
HETATM    2  O   UNL     1     -11.088   6.440  70.518  1.00  0.00    -0.278 OA 
ENDROOT
BRANCH   2   3
HETATM    3  C   UNL     1      -9.834   6.994  70.482  1.00  0.00    -0.179 A  
HETATM    4  C   UNL     1      -8.756   6.423  71.178  1.00  0.00    -0.135 A  
HETATM    5  C   UNL     1      -7.489   6.993  71.124  1.00  0.00    -0.081 A  
HETATM    6  C   UNL     1      -7.290   8.144  70.374  1.00  0.00    -0.062 A  
HETATM    7  C   UNL     1      -8.362   8.744  69.694  1.00  0.00    -0.126 A  
HETATM    8  C   UNL     1      -9.640   8.189  69.753  1.00  0.00    -0.171 A  
HETATM    9  C   UNL     1     -10.742   8.889  69.042  1.00  0.00    -0.126 C  
HETATM   10  O   UNL     1     -11.914   8.532  69.136  1.00  0.00     1.277 OA 
HETATM   11  C   UNL     1     -10.457  10.072  68.188  1.00  0.00    -0.250 A  
HETATM   12  C   UNL     1     -11.486  10.660  67.421  1.00  0.00     0.064 A  
HETATM   13  O   UNL     1     -12.760  10.143  67.410  1.00  0.00     4.038 OA 
HETATM   14  C   UNL     1     -11.260  11.795  66.615  1.00  0.00    -0.383 A  
HETATM   15  H   UNL     1     -13.453  10.539  66.894  1.00  0.00     0.000 HD 
HETATM   16  C   UNL     1      -9.965  12.364  66.594  1.00  0.00    -0.236 A  
HETATM   17  C   UNL     1      -8.931  11.740  67.326  1.00  0.00    -0.172 A  
HETATM   18  C   UNL     1      -9.669  13.608  65.768  1.00  0.00    -0.162 C  
HETATM   19  C   UNL     1     -10.923  14.353  65.300  1.00  0.00    -0.350 C  
HETATM   20  C   UNL     1      -9.173  10.608  68.132  1.00  0.00    -0.148 A  
HETATM   21  O   UNL     1      -7.656  12.233  67.257  1.00  0.00    -0.148 OA 
HETATM   22  O   UNL     1      -6.945  10.411  68.951  1.00  0.00    -0.060 OA 
HETATM   23  C   UNL     1      -8.087   9.968  68.919  1.00  0.00    -0.111 C  
HETATM   24  C   UNL     1     -11.888  13.326  64.705  1.00  0.00    -0.411 C  
HETATM   25  O   UNL     1     -11.474  15.070  66.409  1.00  0.00    -0.321 OA 
HETATM   26  H   UNL     1      -6.960  11.813  67.750  1.00  0.00     0.000 HD 
HETATM   27  C   UNL     1     -12.410  12.386  65.797  1.00  0.00    -0.028 C  
HETATM   28  H   UNL     1     -12.251  15.532  66.118  1.00  0.00     0.000 HD 
BRANCH  19  29
HETATM   29  C   UNL     1     -10.576  15.389  64.218  1.00  0.00     0.766 C  
HETATM   30  O   UNL     1     -10.205  16.531  64.503  1.00  0.00     0.183 OA 
HETATM   31  C   UNL     1     -10.603  14.926  62.779  1.00  0.00     8.888 C  
ENDBRANCH  19  29
BRANCH  27  32
HETATM   32  O   UNL     1     -13.286  13.073  66.710  1.00  0.00     1.526 OA 
BRANCH  32  33
HETATM   33  C   UNL     1     -12.714  14.169  67.433  1.00  0.00     0.683 C  
HETATM   34  C   UNL     1     -13.345  14.429  68.800  1.00  0.00     3.245 C  
HETATM   35  C   UNL     1     -13.008  13.289  69.762  1.00  0.00     0.815 C  
HETATM   36  N   UNL     1     -13.605  13.550  71.088  1.00  0.00    -0.012 NA 
HETATM   37  C   UNL     1     -11.479  13.142  69.857  1.00  0.00    -0.089 C  
HETATM   38  H1  UNL     1     -13.380  12.790  71.729  1.00  0.00     0.000 HD 
HETATM   39  H2  UNL     1     -14.610  13.714  71.028  1.00  0.00     0.000 HD 
HETATM   40  O   UNL     1     -10.940  14.305  70.507  1.00  0.00    -0.465 OA 
HETATM   41  C   UNL     1     -10.886  12.968  68.444  1.00  0.00    -0.258 C  
HETATM   42  H   UNL     1      -9.996  14.215  70.565  1.00  0.00     0.000 HD 
HETATM   43  C   UNL     1      -9.361  12.989  68.473  1.00  0.00    -0.078 C  
HETATM   44  O   UNL     1     -11.300  14.005  67.545  1.00  0.00    -0.293 OA 
ENDBRANCH  32  33
ENDBRANCH  27  32
ENDBRANCH   2   3
TORSDOF 4
ENDMDL
MODEL      166
REMARK 921   NORMALIZED FREE ENERGY PREDICTED BY IDOCK:   39.26 KCAL/MOL
REMARK 922        TOTAL FREE ENERGY PREDICTED BY IDOCK:   47.85 KCAL/MOL
REMARK 923 INTER-LIGAND FREE ENERGY PREDICTED BY IDOCK:   44.99 KCAL/MOL
REMARK 924 INTRA-LIGAND FREE ENERGY PREDICTED BY IDOCK:    2.86 KCAL/MOL
REMARK 927      BINDING AFFINITY PREDICTED BY RF-SCORE:    0.00 PKD
ROOT
HETATM    1  C   UNL     1      -7.068  17.249  73.887  1.00  0.00    10.873 C  
HETATM    2  O   UNL     1      -6.461  17.400  72.606  1.00  0.00     3.858 OA 
ENDROOT
BRANCH   2   3
HETATM    3  C   UNL     1      -6.707  18.574  71.941  1.00  0.00     3.593 A  
HETATM    4  C   UNL     1      -6.220  19.803  72.415  1.00  0.00     0.740 A  
HETATM    5  C   UNL     1      -6.471  20.984  71.723  1.00  0.00     1.694 A  
HETATM    6  C   UNL     1      -7.215  20.945  70.553  1.00  0.00     2.476 A  
HETATM    7  C   UNL     1      -7.732  19.728  70.079  1.00  0.00     0.572 A  
HETATM    8  C   UNL     1      -7.500  18.540  70.772  1.00  0.00     3.265 A  
HETATM    9  C   UNL     1      -8.103  17.289  70.242  1.00  0.00     2.870 C  
HETATM   10  O   UNL     1      -8.043  16.223  70.850  1.00  0.00     3.124 OA 
HETATM   11  C   UNL     1      -8.823  17.291  68.941  1.00  0.00    -0.173 A  
HETATM   12  C   UNL     1      -9.290  16.081  68.384  1.00  0.00    -0.207 A  
HETATM   13  O   UNL     1      -9.066  14.872  69.001  1.00  0.00    -0.196 OA 
HETATM   14  C   UNL     1      -9.994  16.044  67.163  1.00  0.00    -0.249 A  
HETATM   15  H   UNL     1      -9.380  14.057  68.626  1.00  0.00     0.000 HD 
HETATM   16  C   UNL     1     -10.251  17.263  66.492  1.00  0.00    -0.325 A  
HETATM   17  C   UNL     1      -9.737  18.462  67.031  1.00  0.00    -0.310 A  
HETATM   18  C   UNL     1     -11.033  17.289  65.187  1.00  0.00     0.118 C  
HETATM   19  C   UNL     1     -11.795  15.991  64.896  1.00  0.00     0.261 C  
HETATM   20  C   UNL     1      -9.038  18.485  68.257  1.00  0.00    -0.338 A  
HETATM   21  O   UNL     1      -9.911  19.641  66.357  1.00  0.00    -0.373 OA 
HETATM   22  O   UNL     1      -8.710  20.843  68.308  1.00  0.00     0.437 OA 
HETATM   23  C   UNL     1      -8.519  19.753  68.833  1.00  0.00    -0.105 C  
HETATM   24  C   UNL     1     -10.836  14.821  65.119  1.00  0.00    -0.417 C  
HETATM   25  O   UNL     1     -12.954  15.940  65.733  1.00  0.00     2.102 OA 
HETATM   26  H   UNL     1      -9.565  20.448  66.720  1.00  0.00     0.000 HD 
HETATM   27  C   UNL     1     -10.470  14.703  66.602  1.00  0.00    -0.278 C  
HETATM   28  H   UNL     1     -13.426  15.136  65.553  1.00  0.00     0.000 HD 
BRANCH  19  29
HETATM   29  C   UNL     1     -12.287  15.957  63.440  1.00  0.00     2.338 C  
HETATM   30  O   UNL     1     -12.012  16.854  62.637  1.00  0.00     6.293 OA 
HETATM   31  C   UNL     1     -13.038  14.725  62.989  1.00  0.00     3.273 C  
ENDBRANCH  19  29
BRANCH  27  32
HETATM   32  O   UNL     1     -11.596  14.274  67.390  1.00  0.00    -0.330 OA 
BRANCH  32  33
HETATM   33  C   UNL     1     -11.829  12.862  67.445  1.00  0.00    -0.360 C  
HETATM   34  C   UNL     1     -12.864  12.348  66.446  1.00  0.00     1.866 C  
HETATM   35  C   UNL     1     -12.321  12.458  65.021  1.00  0.00    -0.369 C  
HETATM   36  N   UNL     1     -13.316  11.945  64.057  1.00  0.00    -0.545 NA 
HETATM   37  C   UNL     1     -10.996  11.681  64.922  1.00  0.00    -0.284 C  
HETATM   38  H1  UNL     1     -12.954  12.018  63.107  1.00  0.00     0.000 HD 
HETATM   39  H2  UNL     1     -14.219  12.408  64.158  1.00  0.00     0.000 HD 
HETATM   40  O   UNL     1     -11.268  10.278  65.075  1.00  0.00     0.718 OA 
HETATM   41  C   UNL     1     -10.021  12.181  66.007  1.00  0.00    -0.236 C  
HETATM   42  H   UNL     1     -10.450   9.798  65.014  1.00  0.00     0.000 HD 
HETATM   43  C   UNL     1      -8.758  11.326  66.058  1.00  0.00    -0.165 C  
HETATM   44  O   UNL     1     -10.597  12.151  67.318  1.00  0.00    -0.220 OA 
ENDBRANCH  32  33
ENDBRANCH  27  32
ENDBRANCH   2   3
TORSDOF 4
ENDMDL
MODEL      167
REMARK 921   NORMALIZED FREE ENERGY PREDICTED BY IDOCK:   39.39 KCAL/MOL
REMARK 922        TOTAL FREE ENERGY PREDICTED BY IDOCK:   48.00 KCAL/MOL
REMARK 923 INTER-LIGAND FREE ENERGY PREDICTED BY IDOCK:    6.63 KCAL/MOL
REMARK 924 INTRA-LIGAND FREE ENERGY PREDICTED BY IDOCK:   41.38 KCAL/MOL
REMARK 927      BINDING AFFINITY PREDICTED BY RF-SCORE:    0.00 PKD
ROOT
HETATM    1  C   UNL     1      -9.225   5.495  69.935  1.00  0.00    -0.138 C  
HETATM    2  O   UNL     1      -8.743   6.828  69.789  1.00  0.00    -0.139 OA 
ENDROOT
BRANCH   2   3
HETATM    3  C   UNL     1      -7.818   7.254  70.708  1.00  0.00    -0.094 A  
HETATM    4  C   UNL     1      -7.252   6.373  71.645  1.00  0.00    -0.086 A  
HETATM    5  C   UNL     1      -6.309   6.820  72.565  1.00  0.00    -0.054 A  
HETATM    6  C   UNL     1      -5.927   8.154  72.558  1.00  0.00    -0.051 A  
HETATM    7  C   UNL     1      -6.502   9.053  71.647  1.00  0.00    -0.054 A  
HETATM    8  C   UNL     1      -7.460   8.620  70.729  1.00  0.00    -0.080 A  
HETATM    9  C   UNL     1      -8.059   9.626  69.813  1.00  0.00    -0.155 C  
HETATM   10  O   UNL     1      -8.987   9.352  69.056  1.00  0.00    -0.135 OA 
HETATM   11  C   UNL     1      -7.554  11.024  69.793  1.00  0.00     0.194 A  
HETATM   12  C   UNL     1      -8.043  11.944  68.841  1.00  0.00     0.067 A  
HETATM   13  O   UNL     1      -8.964  11.573  67.890  1.00  0.00    -0.148 OA 
HETATM   14  C   UNL     1      -7.604  13.283  68.804  1.00  0.00    -0.043 A  
HETATM   15  H   UNL     1      -9.293  12.192  67.248  1.00  0.00     0.000 HD 
HETATM   16  C   UNL     1      -6.659  13.714  69.765  1.00  0.00    -0.009 A  
HETATM   17  C   UNL     1      -6.139  12.775  70.682  1.00  0.00     0.139 A  
HETATM   18  C   UNL     1      -6.172  15.155  69.793  1.00  0.00    -0.147 C  
HETATM   19  C   UNL     1      -7.041  16.119  68.978  1.00  0.00    -0.187 C  
HETATM   20  C   UNL     1      -6.591  11.438  70.711  1.00  0.00     0.998 A  
HETATM   21  O   UNL     1      -5.168  13.155  71.568  1.00  0.00    -0.167 OA 
HETATM   22  O   UNL     1      -5.243  10.765  72.554  1.00  0.00    -0.315 OA 
HETATM   23  C   UNL     1      -6.058  10.459  71.693  1.00  0.00     0.559 C  
HETATM   24  C   UNL     1      -7.288  15.486  67.607  1.00  0.00    -0.197 C  
HETATM   25  O   UNL     1      -8.244  16.381  69.705  1.00  0.00     0.052 OA 
HETATM   26  H   UNL     1      -4.818  12.523  72.186  1.00  0.00     0.000 HD 
HETATM   27  C   UNL     1      -8.162  14.236  67.744  1.00  0.00    -0.174 C  
HETATM   28  H   UNL     1      -8.783  16.979  69.199  1.00  0.00     0.000 HD 
BRANCH  19  29
HETATM   29  C   UNL     1      -6.329  17.467  68.779  1.00  0.00    -0.197 C  
HETATM   30  O   UNL     1      -5.539  17.917  69.613  1.00  0.00    -0.195 OA 
HETATM   31  C   UNL     1      -6.550  18.182  67.465  1.00  0.00    -0.197 C  
ENDBRANCH  19  29
BRANCH  27  32
HETATM   32  O   UNL     1      -9.508  14.573  68.125  1.00  0.00    -0.196 OA 
BRANCH  32  33
HETATM   33  C   UNL     1      -9.689  15.036  69.469  1.00  0.00    -0.103 C  
HETATM   34  C   UNL     1      -8.548  15.901  70.003  1.00  0.00     0.672 C  
HETATM   35  C   UNL     1      -8.520  17.245  69.275  1.00  0.00     0.177 C  
HETATM   36  N   UNL     1      -7.428  18.087  69.804  1.00  0.00     0.518 NA 
HETATM   37  C   UNL     1      -9.886  17.937  69.435  1.00  0.00     0.087 C  
HETATM   38  H1  UNL     1      -7.409  18.983  69.318  1.00  0.00     0.000 HD 
HETATM   39  H2  UNL     1      -6.526  17.612  69.763  1.00  0.00     0.000 HD 
HETATM   40  O   UNL     1     -10.063  18.301  70.814  1.00  0.00     1.592 OA 
HETATM   41  C   UNL     1     -11.006  16.988  68.961  1.00  0.00    -0.103 C  
HETATM   42  H   UNL     1     -10.905  18.728  70.913  1.00  0.00     0.000 HD 
HETATM   43  C   UNL     1     -12.387  17.565  69.259  1.00  0.00     5.178 C  
HETATM   44  O   UNL     1     -10.943  15.706  69.598  1.00  0.00    -0.241 OA 
ENDBRANCH  32  33
ENDBRANCH  27  32
ENDBRANCH   2   3
TORSDOF 4
ENDMDL
MODEL      168
REMARK 921   NORMALIZED FREE ENERGY PREDICTED BY IDOCK:   41.95 KCAL/MOL
REMARK 922        TOTAL FREE ENERGY PREDICTED BY IDOCK:   51.16 KCAL/MOL
REMARK 923 INTER-LIGAND FREE ENERGY PREDICTED BY IDOCK:   31.55 KCAL/MOL
REMARK 924 INTRA-LIGAND FREE ENERGY PREDICTED BY IDOCK:   19.61 KCAL/MOL
REMARK 927      BINDING AFFINITY PREDICTED BY RF-SCORE:    0.00 PKD
ROOT
HETATM    1  C   UNL     1     -12.157  12.362  69.100  1.00  0.00    -0.146 C  
HETATM    2  O   UNL     1     -11.581  13.643  69.340  1.00  0.00    -0.277 OA 
ENDROOT
BRANCH   2   3
HETATM    3  C   UNL     1     -10.383  13.665  70.008  1.00  0.00     1.270 A  
HETATM    4  C   UNL     1      -9.901  14.836  70.617  1.00  0.00     1.150 A  
HETATM    5  C   UNL     1      -8.688  14.839  71.297  1.00  0.00     3.776 A  
HETATM    6  C   UNL     1      -7.944  13.670  71.371  1.00  0.00     7.058 A  
HETATM    7  C   UNL     1      -8.397  12.498  70.745  1.00  0.00     7.830 A  
HETATM    8  C   UNL     1      -9.604  12.487  70.047  1.00  0.00     3.130 A  
HETATM    9  C   UNL     1     -10.014  11.226  69.375  1.00  0.00     0.166 C  
HETATM   10  O   UNL     1     -11.003  11.162  68.648  1.00  0.00    -0.188 OA 
HETATM   11  C   UNL     1      -9.220   9.982  69.554  1.00  0.00    -0.238 A  
HETATM   12  C   UNL     1      -9.677   8.761  69.012  1.00  0.00    -0.172 A  
HETATM   13  O   UNL     1     -10.874   8.676  68.341  1.00  0.00    -0.431 OA 
HETATM   14  C   UNL     1      -8.941   7.565  69.144  1.00  0.00    -0.135 A  
HETATM   15  H   UNL     1     -11.181   7.854  67.976  1.00  0.00     0.000 HD 
HETATM   16  C   UNL     1      -7.701   7.603  69.824  1.00  0.00    -0.098 A  
HETATM   17  C   UNL     1      -7.276   8.818  70.405  1.00  0.00    -0.050 A  
HETATM   18  C   UNL     1      -6.849   6.351  69.970  1.00  0.00    -0.054 C  
HETATM   19  C   UNL     1      -7.260   5.210  69.033  1.00  0.00    -0.057 C  
HETATM   20  C   UNL     1      -8.020  10.009  70.262  1.00  0.00    -0.039 A  
HETATM   21  O   UNL     1      -6.117   8.856  71.132  1.00  0.00    -0.042 OA 
HETATM   22  O   UNL     1      -6.493  11.395  71.451  1.00  0.00     0.717 OA 
HETATM   23  C   UNL     1      -7.558  11.290  70.855  1.00  0.00     3.882 C  
HETATM   24  C   UNL     1      -8.777   5.044  69.129  1.00  0.00    -0.106 C  
HETATM   25  O   UNL     1      -6.806   5.515  67.711  1.00  0.00    -0.060 OA 
HETATM   26  H   UNL     1      -5.831   9.674  71.523  1.00  0.00     0.000 HD 
HETATM   27  C   UNL     1      -9.488   6.269  68.544  1.00  0.00    -0.123 C  
HETATM   28  H   UNL     1      -7.061   4.807  67.129  1.00  0.00     0.000 HD 
BRANCH  19  29
HETATM   29  C   UNL     1      -6.591   3.889  69.448  1.00  0.00    -0.034 C  
HETATM   30  O   UNL     1      -6.649   2.878  68.743  1.00  0.00    -0.032 OA 
HETATM   31  C   UNL     1      -5.761   3.899  70.712  1.00  0.00    -0.013 C  
ENDBRANCH  19  29
BRANCH  27  32
HETATM   32  O   UNL     1      -9.321   6.343  67.116  1.00  0.00    -0.120 OA 
BRANCH  32  33
HETATM   33  C   UNL     1      -8.537   7.438  66.627  1.00  0.00    -0.127 C  
HETATM   34  C   UNL     1      -8.324   7.444  65.113  1.00  0.00    -0.085 C  
HETATM   35  C   UNL     1      -9.643   7.740  64.398  1.00  0.00     2.714 C  
HETATM   36  N   UNL     1      -9.433   7.762  62.936  1.00  0.00     1.328 NA 
HETATM   37  C   UNL     1     -10.203   9.082  64.902  1.00  0.00     1.979 C  
HETATM   38  H1  UNL     1     -10.313   7.960  62.459  1.00  0.00     0.000 HD 
HETATM   39  H2  UNL     1      -9.001   6.901  62.599  1.00  0.00     0.000 HD 
HETATM   40  O   UNL     1      -9.334  10.141  64.466  1.00  0.00    -0.244 OA 
HETATM   41  C   UNL     1     -10.315   9.051  66.440  1.00  0.00    -0.149 C  
HETATM   42  H   UNL     1      -9.680  10.969  64.777  1.00  0.00     0.000 HD 
HETATM   43  C   UNL     1     -10.705  10.417  66.998  1.00  0.00    -0.298 C  
HETATM   44  O   UNL     1      -9.085   8.679  67.072  1.00  0.00    -0.132 OA 
ENDBRANCH  32  33
ENDBRANCH  27  32
ENDBRANCH   2   3
TORSDOF 4
ENDMDL
MODEL      169
REMARK 921   NORMALIZED FREE ENERGY PREDICTED BY IDOCK:   43.88 KCAL/MOL
REMARK 922        TOTAL FREE ENERGY PREDICTED BY IDOCK:   53.55 KCAL/MOL
REMARK 923 INTER-LIGAND FREE ENERGY PREDICTED BY IDOCK:    9.20 KCAL/MOL
REMARK 924 INTRA-LIGAND FREE ENERGY PREDICTED BY IDOCK:   44.35 KCAL/MOL
REMARK 927      BINDING AFFINITY PREDICTED BY RF-SCORE:    0.00 PKD
ROOT
HETATM    1  C   UNL     1      -9.727  18.484  64.207  1.00  0.00     7.958 C  
HETATM    2  O   UNL     1     -10.493  17.315  64.486  1.00  0.00     0.158 OA 
ENDROOT
BRANCH   2   3
HETATM    3  C   UNL     1     -10.868  17.120  65.791  1.00  0.00    -0.039 A  
HETATM    4  C   UNL     1     -11.488  18.136  66.538  1.00  0.00     1.452 A  
HETATM    5  C   UNL     1     -11.870  17.919  67.857  1.00  0.00     1.975 A  
HETATM    6  C   UNL     1     -11.632  16.684  68.443  1.00  0.00     0.121 A  
HETATM    7  C   UNL     1     -10.990  15.666  67.719  1.00  0.00    -0.316 A  
HETATM    8  C   UNL     1     -10.589  15.877  66.400  1.00  0.00    -0.298 A  
HETATM    9  C   UNL     1      -9.882  14.774  65.697  1.00  0.00    -0.327 C  
HETATM   10  O   UNL     1      -9.396  14.915  64.577  1.00  0.00     1.107 OA 
HETATM   11  C   UNL     1      -9.726  13.444  66.343  1.00  0.00    -0.282 A  
HETATM   12  C   UNL     1      -9.161  12.367  65.628  1.00  0.00     0.153 A  
HETATM   13  O   UNL     1      -8.773  12.500  64.315  1.00  0.00     0.906 OA 
HETATM   14  C   UNL     1      -8.978  11.097  66.213  1.00  0.00    -0.202 A  
HETATM   15  H   UNL     1      -8.393  11.775  63.833  1.00  0.00     0.000 HD 
HETATM   16  C   UNL     1      -9.359  10.912  67.563  1.00  0.00    -0.164 A  
HETATM   17  C   UNL     1      -9.969  11.981  68.255  1.00  0.00    -0.203 A  
HETATM   18  C   UNL     1      -9.157   9.572  68.257  1.00  0.00    -0.127 C  
HETATM   19  C   UNL     1      -8.208   8.627  67.513  1.00  0.00    -0.110 C  
HETATM   20  C   UNL     1     -10.141  13.248  67.659  1.00  0.00    -0.229 A  
HETATM   21  O   UNL     1     -10.412  11.796  69.537  1.00  0.00    -0.432 OA 
HETATM   22  O   UNL     1     -11.109  14.287  69.570  1.00  0.00    -0.245 OA 
HETATM   23  C   UNL     1     -10.762  14.377  68.398  1.00  0.00    -0.245 C  
HETATM   24  C   UNL     1      -8.625   8.601  66.041  1.00  0.00    -0.173 C  
HETATM   25  O   UNL     1      -6.863   9.073  67.712  1.00  0.00    -0.068 OA 
HETATM   26  H   UNL     1     -10.823  12.516  70.003  1.00  0.00     0.000 HD 
HETATM   27  C   UNL     1      -8.368   9.963  65.388  1.00  0.00    -0.146 C  
HETATM   28  H   UNL     1      -6.275   8.486  67.250  1.00  0.00     0.000 HD 
BRANCH  19  29
HETATM   29  C   UNL     1      -8.300   7.199  68.078  1.00  0.00    -0.119 C  
HETATM   30  O   UNL     1      -7.326   6.634  68.585  1.00  0.00    -0.082 OA 
HETATM   31  C   UNL     1      -9.661   6.543  68.086  1.00  0.00    -0.126 C  
ENDBRANCH  19  29
BRANCH  27  32
HETATM   32  O   UNL     1      -6.959  10.227  65.257  1.00  0.00    -0.132 OA 
BRANCH  32  33
HETATM   33  C   UNL     1      -6.109   9.080  65.133  1.00  0.00    -0.060 C  
HETATM   34  C   UNL     1      -5.254   8.784  66.365  1.00  0.00    -0.030 C  
HETATM   35  C   UNL     1      -6.140   8.317  67.521  1.00  0.00    -0.052 C  
HETATM   36  N   UNL     1      -5.310   8.015  68.705  1.00  0.00    -0.026 NA 
HETATM   37  C   UNL     1      -6.946   7.084  67.075  1.00  0.00    -0.070 C  
HETATM   38  H1  UNL     1      -5.901   7.703  69.476  1.00  0.00     0.000 HD 
HETATM   39  H2  UNL     1      -4.722   8.805  68.971  1.00  0.00     0.000 HD 
HETATM   40  O   UNL     1      -6.042   5.985  66.873  1.00  0.00    -0.023 OA 
HETATM   41  C   UNL     1      -7.721   7.412  65.782  1.00  0.00    -0.102 C  
HETATM   42  H   UNL     1      -6.540   5.224  66.598  1.00  0.00     0.000 HD 
HETATM   43  C   UNL     1      -8.400   6.171  65.210  1.00  0.00    -0.144 C  
HETATM   44  O   UNL     1      -6.873   7.935  64.753  1.00  0.00    -0.053 OA 
ENDBRANCH  32  33
ENDBRANCH  27  32
ENDBRANCH   2   3
TORSDOF 4
ENDMDL
MODEL      170
REMARK 921   NORMALIZED FREE ENERGY PREDICTED BY IDOCK:   48.41 KCAL/MOL
REMARK 922        TOTAL FREE ENERGY PREDICTED BY IDOCK:   59.13 KCAL/MOL
REMARK 923 INTER-LIGAND FREE ENERGY PREDICTED BY IDOCK:    0.66 KCAL/MOL
REMARK 924 INTRA-LIGAND FREE ENERGY PREDICTED BY IDOCK:   58.47 KCAL/MOL
REMARK 927      BINDING AFFINITY PREDICTED BY RF-SCORE:    0.00 PKD
ROOT
HETATM    1  C   UNL     1     -11.411   5.680  71.706  1.00  0.00    -0.111 C  
HETATM    2  O   UNL     1     -10.895   6.504  70.664  1.00  0.00    -0.236 OA 
ENDROOT
BRANCH   2   3
HETATM    3  C   UNL     1      -9.567   6.838  70.741  1.00  0.00    -0.168 A  
HETATM    4  C   UNL     1      -8.610   5.940  71.243  1.00  0.00    -0.129 A  
HETATM    5  C   UNL     1      -7.266   6.293  71.307  1.00  0.00    -0.079 A  
HETATM    6  C   UNL     1      -6.868   7.549  70.871  1.00  0.00    -0.047 A  
HETATM    7  C   UNL     1      -7.814   8.468  70.391  1.00  0.00    -0.089 A  
HETATM    8  C   UNL     1      -9.167   8.132  70.337  1.00  0.00    -0.151 A  
HETATM    9  C   UNL     1     -10.127   9.159  69.853  1.00  0.00    -0.202 C  
HETATM   10  O   UNL     1     -11.343   8.985  69.881  1.00  0.00    -0.149 OA 
HETATM   11  C   UNL     1      -9.637  10.458  69.323  1.00  0.00    -0.226 A  
HETATM   12  C   UNL     1     -10.541  11.381  68.755  1.00  0.00    -0.204 A  
HETATM   13  O   UNL     1     -11.882  11.098  68.643  1.00  0.00    -0.403 OA 
HETATM   14  C   UNL     1     -10.118  12.632  68.260  1.00  0.00    -0.233 A  
HETATM   15  H   UNL     1     -12.491  11.720  68.261  1.00  0.00     0.000 HD 
HETATM   16  C   UNL     1      -8.748  12.970  68.356  1.00  0.00    -0.115 A  
HETATM   17  C   UNL     1      -7.843  12.021  68.880  1.00  0.00     0.042 A  
HETATM   18  C   UNL     1      -8.238  14.319  67.867  1.00  0.00    -0.156 C  
HETATM   19  C   UNL     1      -9.345  15.352  67.635  1.00  0.00    -0.203 C  
HETATM   20  C   UNL     1      -8.281  10.775  69.376  1.00  0.00    -0.035 A  
HETATM   21  O   UNL     1      -6.504  12.302  68.910  1.00  0.00    -0.076 OA 
HETATM   22  O   UNL     1      -6.132  10.017  70.065  1.00  0.00    -0.045 OA 
HETATM   23  C   UNL     1      -7.329   9.788  69.948  1.00  0.00    -0.134 C  
HETATM   24  C   UNL     1     -10.453  14.681  66.820  1.00  0.00    -0.277 C  
HETATM   25  O   UNL     1      -9.792  15.841  68.902  1.00  0.00    -0.202 OA 
HETATM   26  H   UNL     1      -5.895  11.662  69.262  1.00  0.00     0.000 HD 
HETATM   27  C   UNL     1     -11.141  13.591  67.648  1.00  0.00    -0.269 C  
HETATM   28  H   UNL     1     -10.479  16.482  68.757  1.00  0.00     0.000 HD 
BRANCH  19  29
HETATM   29  C   UNL     1      -8.813  16.559  66.845  1.00  0.00    -0.208 C  
HETATM   30  O   UNL     1      -8.269  17.516  67.403  1.00  0.00    -0.203 OA 
HETATM   31  C   UNL     1      -8.885  16.489  65.336  1.00  0.00     1.072 C  
ENDBRANCH  19  29
BRANCH  27  32
HETATM   32  O   UNL     1     -11.911  14.155  68.725  1.00  0.00    -0.334 OA 
BRANCH  32  33
HETATM   33  C   UNL     1     -11.834  15.577  68.882  1.00  0.00    -0.338 C  
HETATM   34  C   UNL     1     -11.957  16.067  70.324  1.00  0.00    -0.226 C  
HETATM   35  C   UNL     1     -10.721  15.659  71.126  1.00  0.00     0.111 C  
HETATM   36  N   UNL     1     -10.833  16.148  72.515  1.00  0.00     1.409 NA 
HETATM   37  C   UNL     1      -9.463  16.217  70.437  1.00  0.00     1.484 C  
HETATM   38  H1  UNL     1     -10.008  15.875  73.050  1.00  0.00     0.000 HD 
HETATM   39  H2  UNL     1     -11.697  15.837  72.961  1.00  0.00     0.000 HD 
HETATM   40  O   UNL     1      -9.476  17.651  70.538  1.00  0.00     2.482 OA 
HETATM   41  C   UNL     1      -9.435  15.763  68.964  1.00  0.00    -0.247 C  
HETATM   42  H   UNL     1      -8.700  17.996  70.114  1.00  0.00     0.000 HD 
HETATM   43  C   UNL     1      -8.297  16.431  68.197  1.00  0.00    -0.186 C  
HETATM   44  O   UNL     1     -10.647  16.080  68.269  1.00  0.00    -0.261 OA 
ENDBRANCH  32  33
ENDBRANCH  27  32
ENDBRANCH   2   3
TORSDOF 4
ENDMDL
MODEL      171
REMARK 921   NORMALIZED FREE ENERGY PREDICTED BY IDOCK:   49.30 KCAL/MOL
REMARK 922        TOTAL FREE ENERGY PREDICTED BY IDOCK:   60.23 KCAL/MOL
REMARK 923 INTER-LIGAND FREE ENERGY PREDICTED BY IDOCK:    6.62 KCAL/MOL
REMARK 924 INTRA-LIGAND FREE ENERGY PREDICTED BY IDOCK:   53.61 KCAL/MOL
REMARK 927      BINDING AFFINITY PREDICTED BY RF-SCORE:    0.00 PKD
ROOT
HETATM    1  C   UNL     1      -9.600  13.733  62.449  1.00  0.00    12.225 C  
HETATM    2  O   UNL     1      -9.406  13.251  63.776  1.00  0.00     1.016 OA 
ENDROOT
BRANCH   2   3
HETATM    3  C   UNL     1     -10.237  13.754  64.744  1.00  0.00    -0.335 A  
HETATM    4  C   UNL     1     -10.838  15.017  64.613  1.00  0.00    -0.290 A  
HETATM    5  C   UNL     1     -11.686  15.509  65.600  1.00  0.00     0.265 A  
HETATM    6  C   UNL     1     -11.936  14.743  66.730  1.00  0.00    -0.210 A  
HETATM    7  C   UNL     1     -11.322  13.490  66.889  1.00  0.00    -0.350 A  
HETATM    8  C   UNL     1     -10.459  12.993  65.913  1.00  0.00    -0.293 A  
HETATM    9  C   UNL     1      -9.811  11.677  66.153  1.00  0.00    -0.223 C  
HETATM   10  O   UNL     1      -8.954  11.220  65.401  1.00  0.00    -0.181 OA 
HETATM   11  C   UNL     1     -10.177  10.861  67.341  1.00  0.00    -0.236 A  
HETATM   12  C   UNL     1      -9.649   9.562  67.503  1.00  0.00    -0.144 A  
HETATM   13  O   UNL     1      -8.818   9.002  66.563  1.00  0.00    -0.127 OA 
HETATM   14  C   UNL     1      -9.957   8.767  68.626  1.00  0.00    -0.197 A  
HETATM   15  H   UNL     1      -8.463   8.127  66.671  1.00  0.00     0.000 HD 
HETATM   16  C   UNL     1     -10.806   9.302  69.624  1.00  0.00    -0.228 A  
HETATM   17  C   UNL     1     -11.369  10.582  69.429  1.00  0.00    -0.269 A  
HETATM   18  C   UNL     1     -11.148   8.502  70.872  1.00  0.00    -0.295 C  
HETATM   19  C   UNL     1     -10.231   7.296  71.106  1.00  0.00    -0.190 C  
HETATM   20  C   UNL     1     -11.048  11.369  68.303  1.00  0.00    -0.300 A  
HETATM   21  O   UNL     1     -12.252  11.083  70.346  1.00  0.00    -0.315 OA 
HETATM   22  O   UNL     1     -12.361  13.251  68.938  1.00  0.00    -0.178 OA 
HETATM   23  C   UNL     1     -11.624  12.726  68.113  1.00  0.00    -0.336 C  
HETATM   24  C   UNL     1     -10.116   6.528  69.788  1.00  0.00    -0.207 C  
HETATM   25  O   UNL     1      -8.973   7.764  71.600  1.00  0.00    -0.124 OA 
HETATM   26  H   UNL     1     -12.631  11.946  70.215  1.00  0.00     0.000 HD 
HETATM   27  C   UNL     1      -9.363   7.362  68.747  1.00  0.00    -0.144 C  
HETATM   28  H   UNL     1      -8.404   7.016  71.745  1.00  0.00     0.000 HD 
BRANCH  19  29
HETATM   29  C   UNL     1     -10.817   6.359  72.175  1.00  0.00    -0.237 C  
HETATM   30  O   UNL     1     -10.106   5.808  73.020  1.00  0.00    -0.171 OA 
HETATM   31  C   UNL     1     -12.322   6.214  72.222  1.00  0.00    -0.106 C  
ENDBRANCH  19  29
BRANCH  27  32
HETATM   32  O   UNL     1      -7.972   7.504  69.091  1.00  0.00    -0.116 OA 
BRANCH  32  33
HETATM   33  C   UNL     1      -7.646   8.581  69.978  1.00  0.00    -0.064 C  
HETATM   34  C   UNL     1      -6.439   9.415  69.551  1.00  0.00    -0.043 C  
HETATM   35  C   UNL     1      -6.771  10.217  68.293  1.00  0.00    -0.057 C  
HETATM   36  N   UNL     1      -5.609  11.036  67.891  1.00  0.00    -0.043 NA 
HETATM   37  C   UNL     1      -8.006  11.096  68.563  1.00  0.00    -0.143 C  
HETATM   38  H1  UNL     1      -5.831  11.571  67.052  1.00  0.00     0.000 HD 
HETATM   39  H2  UNL     1      -4.767  10.472  67.773  1.00  0.00     0.000 HD 
HETATM   40  O   UNL     1      -7.657  12.103  69.527  1.00  0.00    -0.289 OA 
HETATM   41  C   UNL     1      -9.166  10.216  69.072  1.00  0.00    -0.185 C  
HETATM   42  H   UNL     1      -8.419  12.645  69.694  1.00  0.00     0.000 HD 
HETATM   43  C   UNL     1     -10.355  11.063  69.514  1.00  0.00    -0.077 C  
HETATM   44  O   UNL     1      -8.790   9.408  70.195  1.00  0.00    -0.184 OA 
ENDBRANCH  32  33
ENDBRANCH  27  32
ENDBRANCH   2   3
TORSDOF 4
ENDMDL
MODEL      172
REMARK 921   NORMALIZED FREE ENERGY PREDICTED BY IDOCK:   49.98 KCAL/MOL
REMARK 922        TOTAL FREE ENERGY PREDICTED BY IDOCK:   61.08 KCAL/MOL
REMARK 923 INTER-LIGAND FREE ENERGY PREDICTED BY IDOCK:   56.15 KCAL/MOL
REMARK 924 INTRA-LIGAND FREE ENERGY PREDICTED BY IDOCK:    4.93 KCAL/MOL
REMARK 927      BINDING AFFINITY PREDICTED BY RF-SCORE:    0.00 PKD
ROOT
HETATM    1  C   UNL     1      -9.554  13.314  69.913  1.00  0.00     2.370 C  
HETATM    2  O   UNL     1      -9.766  11.925  69.672  1.00  0.00     0.784 OA 
ENDROOT
BRANCH   2   3
HETATM    3  C   UNL     1     -11.051  11.537  69.391  1.00  0.00    -0.226 A  
HETATM    4  C   UNL     1     -12.157  12.303  69.796  1.00  0.00    -0.298 A  
HETATM    5  C   UNL     1     -13.453  11.899  69.495  1.00  0.00     3.163 A  
HETATM    6  C   UNL     1     -13.655  10.721  68.789  1.00  0.00     5.749 A  
HETATM    7  C   UNL     1     -12.563   9.930  68.400  1.00  0.00     3.782 A  
HETATM    8  C   UNL     1     -11.259  10.317  68.709  1.00  0.00    -0.260 A  
HETATM    9  C   UNL     1     -10.145   9.420  68.302  1.00  0.00    -0.183 C  
HETATM   10  O   UNL     1      -8.981   9.629  68.633  1.00  0.00    -0.126 OA 
HETATM   11  C   UNL     1     -10.412   8.212  67.476  1.00  0.00    -0.326 A  
HETATM   12  C   UNL     1      -9.342   7.430  66.993  1.00  0.00    -0.149 A  
HETATM   13  O   UNL     1      -8.033   7.774  67.235  1.00  0.00    -0.114 OA 
HETATM   14  C   UNL     1      -9.555   6.267  66.225  1.00  0.00    -0.117 A  
HETATM   15  H   UNL     1      -7.312   7.248  66.909  1.00  0.00     0.000 HD 
HETATM   16  C   UNL     1     -10.886   5.870  65.951  1.00  0.00     0.645 A  
HETATM   17  C   UNL     1     -11.948   6.686  66.397  1.00  0.00     3.435 A  
HETATM   18  C   UNL     1     -11.178   4.607  65.154  1.00  0.00     0.255 C  
HETATM   19  C   UNL     1      -9.975   3.667  65.021  1.00  0.00    -0.110 C  
HETATM   20  C   UNL     1     -11.720   7.845  67.169  1.00  0.00     2.678 A  
HETATM   21  O   UNL     1     -13.238   6.358  66.076  1.00  0.00     6.012 OA 
HETATM   22  O   UNL     1     -14.017   8.400  67.460  1.00  0.00    19.300 OA 
HETATM   23  C   UNL     1     -12.843   8.688  67.656  1.00  0.00    11.994 C  
HETATM   24  C   UNL     1      -8.767   4.504  64.595  1.00  0.00    -0.147 C  
HETATM   25  O   UNL     1      -9.783   2.986  66.264  1.00  0.00    -0.402 OA 
HETATM   26  H   UNL     1     -13.954   6.907  66.377  1.00  0.00     0.000 HD 
HETATM   27  C   UNL     1      -8.357   5.461  65.719  1.00  0.00    -0.126 C  
HETATM   28  H   UNL     1      -9.037   2.403  66.181  1.00  0.00     0.000 HD 
BRANCH  19  29
HETATM   29  C   UNL     1     -10.233   2.593  63.951  1.00  0.00    -0.124 C  
HETATM   30  O   UNL     1     -11.376   2.252  63.630  1.00  0.00    -0.216 OA 
HETATM   31  C   UNL     1      -9.031   2.035  63.223  1.00  0.00    -0.088 C  
ENDBRANCH  19  29
BRANCH  27  32
HETATM   32  O   UNL     1      -7.803   4.751  66.841  1.00  0.00    -0.097 OA 
BRANCH  32  33
HETATM   33  C   UNL     1      -8.732   4.007  67.640  1.00  0.00    -0.105 C  
HETATM   34  C   UNL     1      -8.087   3.021  68.614  1.00  0.00    -0.068 C  
HETATM   35  C   UNL     1      -7.353   3.778  69.721  1.00  0.00    -0.042 C  
HETATM   36  N   UNL     1      -6.745   2.824  70.671  1.00  0.00    -0.032 NA 
HETATM   37  C   UNL     1      -8.340   4.721  70.432  1.00  0.00    -0.087 C  
HETATM   38  H1  UNL     1      -6.255   3.329  71.410  1.00  0.00     0.000 HD 
HETATM   39  H2  UNL     1      -6.138   2.152  70.201  1.00  0.00     0.000 HD 
HETATM   40  O   UNL     1      -9.307   3.930  71.144  1.00  0.00    -0.121 OA 
HETATM   41  C   UNL     1      -9.024   5.633  69.393  1.00  0.00    -0.114 C  
HETATM   42  H   UNL     1      -9.916   4.512  71.582  1.00  0.00     0.000 HD 
HETATM   43  C   UNL     1     -10.133   6.467  70.027  1.00  0.00    -0.208 C  
HETATM   44  O   UNL     1      -9.621   4.893  68.321  1.00  0.00    -0.131 OA 
ENDBRANCH  32  33
ENDBRANCH  27  32
ENDBRANCH   2   3
TORSDOF 4
ENDMDL
MODEL      173
REMARK 921   NORMALIZED FREE ENERGY PREDICTED BY IDOCK:   52.76 KCAL/MOL
REMARK 922        TOTAL FREE ENERGY PREDICTED BY IDOCK:   64.51 KCAL/MOL
REMARK 923 INTER-LIGAND FREE ENERGY PREDICTED BY IDOCK:   42.75 KCAL/MOL
REMARK 924 INTRA-LIGAND FREE ENERGY PREDICTED BY IDOCK:   21.76 KCAL/MOL
REMARK 927      BINDING AFFINITY PREDICTED BY RF-SCORE:    0.00 PKD
ROOT
HETATM    1  C   UNL     1     -12.866  16.223  66.214  1.00  0.00     4.314 C  
HETATM    2  O   UNL     1     -13.462  16.625  67.445  1.00  0.00     5.253 OA 
ENDROOT
BRANCH   2   3
HETATM    3  C   UNL     1     -12.875  16.164  68.595  1.00  0.00     2.079 A  
HETATM    4  C   UNL     1     -13.000  16.853  69.813  1.00  0.00     5.245 A  
HETATM    5  C   UNL     1     -12.405  16.367  70.972  1.00  0.00     0.572 A  
HETATM    6  C   UNL     1     -11.675  15.188  70.922  1.00  0.00    -0.378 A  
HETATM    7  C   UNL     1     -11.517  14.501  69.709  1.00  0.00    -0.327 A  
HETATM    8  C   UNL     1     -12.096  14.986  68.536  1.00  0.00    -0.177 A  
HETATM    9  C   UNL     1     -11.864  14.235  67.275  1.00  0.00    -0.413 C  
HETATM   10  O   UNL     1     -12.242  14.653  66.183  1.00  0.00    -0.290 OA 
HETATM   11  C   UNL     1     -11.143  12.935  67.293  1.00  0.00    -0.309 A  
HETATM   12  C   UNL     1     -11.029  12.167  66.114  1.00  0.00    -0.298 A  
HETATM   13  O   UNL     1     -11.604  12.574  64.933  1.00  0.00    -0.317 OA 
HETATM   14  C   UNL     1     -10.336  10.940  66.087  1.00  0.00    -0.305 A  
HETATM   15  H   UNL     1     -11.527  12.058  64.139  1.00  0.00     0.000 HD 
HETATM   16  C   UNL     1      -9.724  10.481  67.278  1.00  0.00    -0.197 A  
HETATM   17  C   UNL     1      -9.886  11.230  68.463  1.00  0.00    -0.197 A  
HETATM   18  C   UNL     1      -8.936   9.179  67.301  1.00  0.00    -0.136 C  
HETATM   19  C   UNL     1      -8.571   8.651  65.910  1.00  0.00    -0.157 C  
HETATM   20  C   UNL     1     -10.578  12.459  68.475  1.00  0.00    -0.251 A  
HETATM   21  O   UNL     1      -9.366  10.762  69.640  1.00  0.00    -0.408 OA 
HETATM   22  O   UNL     1     -10.218  12.920  70.783  1.00  0.00     4.074 OA 
HETATM   23  C   UNL     1     -10.726  13.256  69.720  1.00  0.00     0.555 C  
HETATM   24  C   UNL     1      -9.830   8.695  65.043  1.00  0.00     1.156 C  
HETATM   25  O   UNL     1      -7.496   9.436  65.387  1.00  0.00    -0.096 OA 
HETATM   26  H   UNL     1      -9.474  11.267  70.438  1.00  0.00     0.000 HD 
HETATM   27  C   UNL     1     -10.250  10.146  64.783  1.00  0.00    -0.051 C  
HETATM   28  H   UNL     1      -7.269   9.108  64.524  1.00  0.00     0.000 HD 
BRANCH  19  29
HETATM   29  C   UNL     1      -8.075   7.197  65.986  1.00  0.00    -0.115 C  
HETATM   30  O   UNL     1      -8.500   6.322  65.227  1.00  0.00    -0.151 OA 
HETATM   31  C   UNL     1      -6.961   6.894  66.962  1.00  0.00    -0.070 C  
ENDBRANCH  19  29
BRANCH  27  32
HETATM   32  O   UNL     1      -9.314  10.819  63.921  1.00  0.00    -0.216 OA 
BRANCH  32  33
HETATM   33  C   UNL     1      -9.043  12.192  64.232  1.00  0.00     0.708 C  
HETATM   34  C   UNL     1      -9.040  12.519  65.724  1.00  0.00     0.215 C  
HETATM   35  C   UNL     1      -7.837  11.865  66.404  1.00  0.00     0.170 C  
HETATM   36  N   UNL     1      -7.825  12.196  67.844  1.00  0.00    -0.135 NA 
HETATM   37  C   UNL     1      -6.545  12.337  65.713  1.00  0.00     2.858 C  
HETATM   38  H1  UNL     1      -7.023  11.760  68.298  1.00  0.00     0.000 HD 
HETATM   39  H2  UNL     1      -8.703  11.947  68.300  1.00  0.00     0.000 HD 
HETATM   40  O   UNL     1      -6.363  13.738  65.974  1.00  0.00     3.463 OA 
HETATM   41  C   UNL     1      -6.638  12.060  64.198  1.00  0.00     5.294 C  
HETATM   42  H   UNL     1      -5.566  14.029  65.548  1.00  0.00     0.000 HD 
HETATM   43  C   UNL     1      -5.454  12.664  63.448  1.00  0.00     7.332 C  
HETATM   44  O   UNL     1      -7.825  12.608  63.613  1.00  0.00     4.457 OA 
ENDBRANCH  32  33
ENDBRANCH  27  32
ENDBRANCH   2   3
TORSDOF 4
ENDMDL
MODEL      174
REMARK 921   NORMALIZED FREE ENERGY PREDICTED BY IDOCK:   53.35 KCAL/MOL
REMARK 922        TOTAL FREE ENERGY PREDICTED BY IDOCK:   65.23 KCAL/MOL
REMARK 923 INTER-LIGAND FREE ENERGY PREDICTED BY IDOCK:   61.62 KCAL/MOL
REMARK 924 INTRA-LIGAND FREE ENERGY PREDICTED BY IDOCK:    3.60 KCAL/MOL
REMARK 927      BINDING AFFINITY PREDICTED BY RF-SCORE:    0.00 PKD
ROOT
HETATM    1  C   UNL     1      -6.632   8.793  67.483  1.00  0.00    -0.062 C  
HETATM    2  O   UNL     1      -5.843   8.770  68.670  1.00  0.00    -0.043 OA 
ENDROOT
BRANCH   2   3
HETATM    3  C   UNL     1      -6.521   8.728  69.861  1.00  0.00    -0.038 A  
HETATM    4  C   UNL     1      -6.248   7.746  70.828  1.00  0.00    -0.034 A  
HETATM    5  C   UNL     1      -6.939   7.722  72.035  1.00  0.00    -0.067 A  
HETATM    6  C   UNL     1      -7.912   8.680  72.284  1.00  0.00    -0.072 A  
HETATM    7  C   UNL     1      -8.216   9.652  71.318  1.00  0.00     0.675 A  
HETATM    8  C   UNL     1      -7.541   9.677  70.098  1.00  0.00    -0.165 A  
HETATM    9  C   UNL     1      -7.931  10.708  69.100  1.00  0.00    -0.139 C  
HETATM   10  O   UNL     1      -7.467  10.728  67.963  1.00  0.00    -0.087 OA 
HETATM   11  C   UNL     1      -8.922  11.759  69.450  1.00  0.00     0.838 A  
HETATM   12  C   UNL     1      -9.201  12.804  68.544  1.00  0.00    -0.061 A  
HETATM   13  O   UNL     1      -8.548  12.904  67.338  1.00  0.00    -0.175 OA 
HETATM   14  C   UNL     1     -10.150  13.807  68.831  1.00  0.00    -0.075 A  
HETATM   15  H   UNL     1      -8.735  13.608  66.728  1.00  0.00     0.000 HD 
HETATM   16  C   UNL     1     -10.850  13.746  70.058  1.00  0.00     0.411 A  
HETATM   17  C   UNL     1     -10.530  12.726  70.979  1.00  0.00     5.707 A  
HETATM   18  C   UNL     1     -11.908  14.783  70.409  1.00  0.00    -0.352 C  
HETATM   19  C   UNL     1     -12.378  15.617  69.213  1.00  0.00    -0.034 C  
HETATM   20  C   UNL     1      -9.582  11.725  70.677  1.00  0.00     5.574 A  
HETATM   21  O   UNL     1     -11.143  12.696  72.203  1.00  0.00     4.875 OA 
HETATM   22  O   UNL     1      -9.836  10.523  72.717  1.00  0.00     7.497 OA 
HETATM   23  C   UNL     1      -9.264  10.639  71.640  1.00  0.00     6.730 C  
HETATM   24  C   UNL     1     -11.138  16.103  68.460  1.00  0.00    -0.357 C  
HETATM   25  O   UNL     1     -13.251  14.819  68.409  1.00  0.00     1.240 OA 
HETATM   26  H   UNL     1     -10.927  12.008  72.823  1.00  0.00     0.000 HD 
HETATM   27  C   UNL     1     -10.406  14.922  67.815  1.00  0.00    -0.244 C  
HETATM   28  H   UNL     1     -13.542  15.336  67.667  1.00  0.00     0.000 HD 
BRANCH  19  29
HETATM   29  C   UNL     1     -13.184  16.841  69.678  1.00  0.00     5.346 C  
HETATM   30  O   UNL     1     -13.455  17.773  68.915  1.00  0.00     8.153 OA 
HETATM   31  C   UNL     1     -13.729  16.818  71.088  1.00  0.00     5.987 C  
ENDBRANCH  19  29
BRANCH  27  32
HETATM   32  O   UNL     1     -11.168  14.358  66.731  1.00  0.00    -0.318 OA 
BRANCH  32  33
HETATM   33  C   UNL     1     -10.790  14.769  65.411  1.00  0.00    -0.363 C  
HETATM   34  C   UNL     1     -11.327  16.136  64.991  1.00  0.00    -0.115 C  
HETATM   35  C   UNL     1     -10.648  17.241  65.802  1.00  0.00    -0.194 C  
HETATM   36  N   UNL     1     -11.155  18.563  65.383  1.00  0.00    -0.190 NA 
HETATM   37  C   UNL     1      -9.123  17.143  65.615  1.00  0.00     0.408 C  
HETATM   38  H1  UNL     1     -10.702  19.300  65.924  1.00  0.00     0.000 HD 
HETATM   39  H2  UNL     1     -12.172  18.618  65.441  1.00  0.00     0.000 HD 
HETATM   40  O   UNL     1      -8.800  17.473  64.254  1.00  0.00     6.279 OA 
HETATM   41  C   UNL     1      -8.648  15.719  65.970  1.00  0.00    -0.016 C  
HETATM   42  H   UNL     1      -7.859  17.412  64.138  1.00  0.00     0.000 HD 
HETATM   43  C   UNL     1      -7.172  15.525  65.638  1.00  0.00     4.987 C  
HETATM   44  O   UNL     1      -9.371  14.707  65.260  1.00  0.00     0.119 OA 
ENDBRANCH  32  33
ENDBRANCH  27  32
ENDBRANCH   2   3
TORSDOF 4
ENDMDL
MODEL      175
REMARK 921   NORMALIZED FREE ENERGY PREDICTED BY IDOCK:   60.93 KCAL/MOL
REMARK 922        TOTAL FREE ENERGY PREDICTED BY IDOCK:   74.59 KCAL/MOL
REMARK 923 INTER-LIGAND FREE ENERGY PREDICTED BY IDOCK:   -1.15 KCAL/MOL
REMARK 924 INTRA-LIGAND FREE ENERGY PREDICTED BY IDOCK:   75.73 KCAL/MOL
REMARK 927      BINDING AFFINITY PREDICTED BY RF-SCORE:    0.00 PKD
ROOT
HETATM    1  C   UNL     1     -11.083  15.731  64.085  1.00  0.00     0.260 C  
HETATM    2  O   UNL     1     -11.768  15.815  65.332  1.00  0.00     0.118 OA 
ENDROOT
BRANCH   2   3
HETATM    3  C   UNL     1     -10.992  15.959  66.454  1.00  0.00    -0.115 A  
HETATM    4  C   UNL     1     -10.805  17.212  67.062  1.00  0.00    -0.044 A  
HETATM    5  C   UNL     1     -10.022  17.339  68.205  1.00  0.00    -0.303 A  
HETATM    6  C   UNL     1      -9.416  16.214  68.746  1.00  0.00    -0.230 A  
HETATM    7  C   UNL     1      -9.571  14.960  68.136  1.00  0.00    -0.210 A  
HETATM    8  C   UNL     1     -10.341  14.822  66.981  1.00  0.00    -0.255 A  
HETATM    9  C   UNL     1     -10.439  13.475  66.359  1.00  0.00    -0.287 C  
HETATM   10  O   UNL     1     -11.002  13.289  65.283  1.00  0.00    -0.283 OA 
HETATM   11  C   UNL     1      -9.838  12.290  67.026  1.00  0.00    -0.211 A  
HETATM   12  C   UNL     1     -10.035  10.998  66.495  1.00  0.00    -0.212 A  
HETATM   13  O   UNL     1     -10.809  10.790  65.377  1.00  0.00    -0.137 OA 
HETATM   14  C   UNL     1      -9.464   9.853  67.087  1.00  0.00    -0.190 A  
HETATM   15  H   UNL     1     -10.942   9.920  65.020  1.00  0.00     0.000 HD 
HETATM   16  C   UNL     1      -8.656  10.016  68.238  1.00  0.00    -0.115 A  
HETATM   17  C   UNL     1      -8.505  11.306  68.791  1.00  0.00    -0.112 A  
HETATM   18  C   UNL     1      -7.988   8.820  68.902  1.00  0.00    -0.105 C  
HETATM   19  C   UNL     1      -7.966   7.560  68.030  1.00  0.00    -0.123 C  
HETATM   20  C   UNL     1      -9.079  12.444  68.184  1.00  0.00    -0.200 A  
HETATM   21  O   UNL     1      -7.791  11.472  69.946  1.00  0.00     0.031 OA 
HETATM   22  O   UNL     1      -8.209  14.017  69.746  1.00  0.00     0.628 OA 
HETATM   23  C   UNL     1      -8.898  13.803  68.757  1.00  0.00     0.044 C  
HETATM   24  C   UNL     1      -9.371   7.355  67.460  1.00  0.00    -0.147 C  
HETATM   25  O   UNL     1      -6.964   7.716  67.021  1.00  0.00    -0.075 OA 
HETATM   26  H   UNL     1      -7.689  12.341  70.318  1.00  0.00     0.000 HD 
HETATM   27  C   UNL     1      -9.717   8.475  66.473  1.00  0.00    -0.260 C  
HETATM   28  H   UNL     1      -6.950   6.935  66.480  1.00  0.00     0.000 HD 
BRANCH  19  29
HETATM   29  C   UNL     1      -7.584   6.324  68.860  1.00  0.00    -0.092 C  
HETATM   30  O   UNL     1      -7.624   6.329  70.094  1.00  0.00    -0.091 OA 
HETATM   31  C   UNL     1      -7.254   5.056  68.106  1.00  0.00    -0.063 C  
ENDBRANCH  19  29
BRANCH  27  32
HETATM   32  O   UNL     1      -8.930   8.380  65.272  1.00  0.00    -0.126 OA 
BRANCH  32  33
HETATM   33  C   UNL     1      -7.595   8.896  65.347  1.00  0.00    -0.087 C  
HETATM   34  C   UNL     1      -7.438  10.332  64.847  1.00  0.00    -0.114 C  
HETATM   35  C   UNL     1      -8.137  11.301  65.801  1.00  0.00     0.111 C  
HETATM   36  N   UNL     1      -7.970  12.690  65.326  1.00  0.00     2.282 NA 
HETATM   37  C   UNL     1      -7.560  11.122  67.217  1.00  0.00    -0.126 C  
HETATM   38  H1  UNL     1      -8.435  13.336  65.963  1.00  0.00     0.000 HD 
HETATM   39  H2  UNL     1      -8.288  12.805  64.364  1.00  0.00     0.000 HD 
HETATM   40  O   UNL     1      -6.193  11.566  67.222  1.00  0.00    -0.078 OA 
HETATM   41  C   UNL     1      -7.667   9.642  67.636  1.00  0.00    -0.095 C  
HETATM   42  H   UNL     1      -5.838  11.456  68.096  1.00  0.00     0.000 HD 
HETATM   43  C   UNL     1      -6.955   9.385  68.961  1.00  0.00    -0.059 C  
HETATM   44  O   UNL     1      -7.084   8.756  66.673  1.00  0.00    -0.078 OA 
ENDBRANCH  32  33
ENDBRANCH  27  32
ENDBRANCH   2   3
TORSDOF 4
ENDMDL
MODEL      176
REMARK 921   NORMALIZED FREE ENERGY PREDICTED BY IDOCK:   62.55 KCAL/MOL
REMARK 922        TOTAL FREE ENERGY PREDICTED BY IDOCK:   76.58 KCAL/MOL
REMARK 923 INTER-LIGAND FREE ENERGY PREDICTED BY IDOCK:   52.09 KCAL/MOL
REMARK 924 INTRA-LIGAND FREE ENERGY PREDICTED BY IDOCK:   24.49 KCAL/MOL
REMARK 927      BINDING AFFINITY PREDICTED BY RF-SCORE:    0.00 PKD
ROOT
HETATM    1  C   UNL     1     -14.041  18.984  68.681  1.00  0.00    14.374 C  
HETATM    2  O   UNL     1     -13.502  17.678  68.496  1.00  0.00     6.258 OA 
ENDROOT
BRANCH   2   3
HETATM    3  C   UNL     1     -12.580  17.253  69.418  1.00  0.00     5.409 A  
HETATM    4  C   UNL     1     -12.264  18.024  70.550  1.00  0.00     9.471 A  
HETATM    5  C   UNL     1     -11.332  17.574  71.480  1.00  0.00     2.040 A  
HETATM    6  C   UNL     1     -10.707  16.351  71.285  1.00  0.00     0.860 A  
HETATM    7  C   UNL     1     -10.992  15.581  70.146  1.00  0.00    -0.336 A  
HETATM    8  C   UNL     1     -11.912  16.028  69.198  1.00  0.00    -0.187 A  
HETATM    9  C   UNL     1     -12.146  15.186  67.995  1.00  0.00     0.057 C  
HETATM   10  O   UNL     1     -12.852  15.559  67.061  1.00  0.00     1.705 OA 
HETATM   11  C   UNL     1     -11.511  13.848  67.876  1.00  0.00    -0.350 A  
HETATM   12  C   UNL     1     -11.828  13.003  66.791  1.00  0.00    -0.388 A  
HETATM   13  O   UNL     1     -12.751  13.371  65.839  1.00  0.00    -0.400 OA 
HETATM   14  C   UNL     1     -11.231  11.736  66.632  1.00  0.00    -0.383 A  
HETATM   15  H   UNL     1     -12.965  12.802  65.109  1.00  0.00     0.000 HD 
HETATM   16  C   UNL     1     -10.273  11.314  67.585  1.00  0.00    -0.206 A  
HETATM   17  C   UNL     1      -9.999  12.144  68.693  1.00  0.00    -0.128 A  
HETATM   18  C   UNL     1      -9.573   9.969  67.448  1.00  0.00    -0.182 C  
HETATM   19  C   UNL     1      -9.717   9.334  66.061  1.00  0.00    -0.289 C  
HETATM   20  C   UNL     1     -10.600  13.412  68.836  1.00  0.00    -0.181 A  
HETATM   21  O   UNL     1      -9.132  11.719  69.663  1.00  0.00     0.362 OA 
HETATM   22  O   UNL     1      -9.469  13.993  70.849  1.00  0.00     3.438 OA 
HETATM   23  C   UNL     1     -10.291  14.293  69.992  1.00  0.00     0.568 C  
HETATM   24  C   UNL     1     -11.192   9.403  65.661  1.00  0.00     3.052 C  
HETATM   25  O   UNL     1      -8.851  10.017  65.150  1.00  0.00    -0.157 OA 
HETATM   26  H   UNL     1      -8.947  12.278  70.409  1.00  0.00     0.000 HD 
HETATM   27  C   UNL     1     -11.619  10.858  65.441  1.00  0.00     0.900 C  
HETATM   28  H   UNL     1      -8.940   9.623  64.290  1.00  0.00     0.000 HD 
BRANCH  19  29
HETATM   29  C   UNL     1      -9.279   7.860  66.083  1.00  0.00    -0.152 C  
HETATM   30  O   UNL     1      -9.525   7.121  67.041  1.00  0.00    -0.141 OA 
HETATM   31  C   UNL     1      -8.622   7.312  64.837  1.00  0.00     0.151 C  
ENDBRANCH  19  29
BRANCH  27  32
HETATM   32  O   UNL     1     -11.001  11.417  64.267  1.00  0.00    -0.350 OA 
BRANCH  32  33
HETATM   33  C   UNL     1     -11.825  12.271  63.464  1.00  0.00    -0.514 C  
HETATM   34  C   UNL     1     -13.204  12.565  64.055  1.00  0.00     0.139 C  
HETATM   35  C   UNL     1     -13.068  13.443  65.299  1.00  0.00    -0.012 C  
HETATM   36  N   UNL     1     -14.402  13.741  65.859  1.00  0.00     3.020 NA 
HETATM   37  C   UNL     1     -12.318  14.735  64.928  1.00  0.00    -0.252 C  
HETATM   38  H1  UNL     1     -14.311  14.327  66.689  1.00  0.00     0.000 HD 
HETATM   39  H2  UNL     1     -14.935  12.891  66.048  1.00  0.00     0.000 HD 
HETATM   40  O   UNL     1     -13.144  15.516  64.049  1.00  0.00    -0.281 OA 
HETATM   41  C   UNL     1     -10.974  14.379  64.259  1.00  0.00     0.016 C  
HETATM   42  H   UNL     1     -12.681  16.313  63.820  1.00  0.00     0.000 HD 
HETATM   43  C   UNL     1     -10.273  15.623  63.721  1.00  0.00     4.565 C  
HETATM   44  O   UNL     1     -11.132  13.480  63.155  1.00  0.00     0.598 OA 
ENDBRANCH  32  33
ENDBRANCH  27  32
ENDBRANCH   2   3
TORSDOF 4
ENDMDL
MODEL      177
REMARK 921   NORMALIZED FREE ENERGY PREDICTED BY IDOCK:   68.25 KCAL/MOL
REMARK 922        TOTAL FREE ENERGY PREDICTED BY IDOCK:   83.61 KCAL/MOL
REMARK 923 INTER-LIGAND FREE ENERGY PREDICTED BY IDOCK:   79.69 KCAL/MOL
REMARK 924 INTRA-LIGAND FREE ENERGY PREDICTED BY IDOCK:    3.92 KCAL/MOL
REMARK 927      BINDING AFFINITY PREDICTED BY RF-SCORE:    0.00 PKD
ROOT
HETATM    1  C   UNL     1     -11.076  12.778  72.694  1.00  0.00     9.123 C  
HETATM    2  O   UNL     1     -11.188  14.196  72.790  1.00  0.00     1.643 OA 
ENDROOT
BRANCH   2   3
HETATM    3  C   UNL     1     -10.480  14.934  71.877  1.00  0.00     1.737 A  
HETATM    4  C   UNL     1     -10.362  16.329  71.992  1.00  0.00     3.230 A  
HETATM    5  C   UNL     1      -9.633  17.062  71.061  1.00  0.00     4.500 A  
HETATM    6  C   UNL     1      -9.018  16.405  70.005  1.00  0.00     1.118 A  
HETATM    7  C   UNL     1      -9.148  15.015  69.860  1.00  0.00     0.231 A  
HETATM    8  C   UNL     1      -9.889  14.271  70.778  1.00  0.00     2.624 A  
HETATM    9  C   UNL     1     -10.021  12.808  70.552  1.00  0.00     4.968 C  
HETATM   10  O   UNL     1     -10.746  12.100  71.247  1.00  0.00     4.109 OA 
HETATM   11  C   UNL     1      -9.274  12.144  69.451  1.00  0.00     1.065 A  
HETATM   12  C   UNL     1      -9.308  10.740  69.314  1.00  0.00    -0.067 A  
HETATM   13  O   UNL     1      -9.994   9.946  70.204  1.00  0.00    -0.249 OA 
HETATM   14  C   UNL     1      -8.630  10.076  68.271  1.00  0.00    -0.115 A  
HETATM   15  H   UNL     1     -10.017   9.001  70.111  1.00  0.00     0.000 HD 
HETATM   16  C   UNL     1      -7.913  10.849  67.329  1.00  0.00    -0.123 A  
HETATM   17  C   UNL     1      -7.844  12.249  67.502  1.00  0.00    -0.166 A  
HETATM   18  C   UNL     1      -7.188  10.190  66.164  1.00  0.00    -0.115 C  
HETATM   19  C   UNL     1      -7.609   8.738  65.914  1.00  0.00    -0.090 C  
HETATM   20  C   UNL     1      -8.531  12.901  68.548  1.00  0.00    -0.045 A  
HETATM   21  O   UNL     1      -7.091  13.005  66.644  1.00  0.00    -0.191 OA 
HETATM   22  O   UNL     1      -7.877  15.106  67.932  1.00  0.00    -0.120 OA 
HETATM   23  C   UNL     1      -8.475  14.376  68.714  1.00  0.00    -0.120 C  
HETATM   24  C   UNL     1      -7.596   8.005  67.257  1.00  0.00    -0.097 C  
HETATM   25  O   UNL     1      -8.891   8.734  65.280  1.00  0.00    -0.215 OA 
HETATM   26  H   UNL     1      -7.045  13.947  66.761  1.00  0.00     0.000 HD 
HETATM   27  C   UNL     1      -8.695   8.550  68.175  1.00  0.00    -0.142 C  
HETATM   28  H   UNL     1      -9.153   7.833  65.125  1.00  0.00     0.000 HD 
BRANCH  19  29
HETATM   29  C   UNL     1      -6.629   8.038  64.959  1.00  0.00    -0.051 C  
HETATM   30  O   UNL     1      -5.408   8.205  65.039  1.00  0.00    -0.035 OA 
HETATM   31  C   UNL     1      -7.207   7.046  63.975  1.00  0.00    -0.069 C  
ENDBRANCH  19  29
BRANCH  27  32
HETATM   32  O   UNL     1     -10.005   8.197  67.696  1.00  0.00    -0.162 OA 
BRANCH  32  33
HETATM   33  C   UNL     1     -10.562   6.982  68.211  1.00  0.00    -0.196 C  
HETATM   34  C   UNL     1     -11.314   7.136  69.532  1.00  0.00    -0.056 C  
HETATM   35  C   UNL     1     -12.603   7.930  69.315  1.00  0.00     3.484 C  
HETATM   36  N   UNL     1     -13.338   8.063  70.589  1.00  0.00    -0.103 NA 
HETATM   37  C   UNL     1     -13.459   7.224  68.248  1.00  0.00    14.257 C  
HETATM   38  H1  UNL     1     -14.198   8.592  70.444  1.00  0.00     0.000 HD 
HETATM   39  H2  UNL     1     -12.758   8.470  71.323  1.00  0.00     0.000 HD 
HETATM   40  O   UNL     1     -13.918   5.969  68.776  1.00  0.00    11.792 OA 
HETATM   41  C   UNL     1     -12.623   7.018  66.967  1.00  0.00     7.885 C  
HETATM   42  H   UNL     1     -14.446   5.533  68.117  1.00  0.00     0.000 HD 
HETATM   43  C   UNL     1     -13.374   6.173  65.943  1.00  0.00    10.746 C  
HETATM   44  O   UNL     1     -11.381   6.354  67.225  1.00  0.00    -0.295 OA 
ENDBRANCH  32  33
ENDBRANCH  27  32
ENDBRANCH   2   3
TORSDOF 4
ENDMDL
MODEL      178
REMARK 921   NORMALIZED FREE ENERGY PREDICTED BY IDOCK:   70.18 KCAL/MOL
REMARK 922        TOTAL FREE ENERGY PREDICTED BY IDOCK:   85.99 KCAL/MOL
REMARK 923 INTER-LIGAND FREE ENERGY PREDICTED BY IDOCK:   16.82 KCAL/MOL
REMARK 924 INTRA-LIGAND FREE ENERGY PREDICTED BY IDOCK:   69.18 KCAL/MOL
REMARK 927      BINDING AFFINITY PREDICTED BY RF-SCORE:    0.00 PKD
ROOT
HETATM    1  C   UNL     1     -10.701  14.882  65.631  1.00  0.00    -0.342 C  
HETATM    2  O   UNL     1     -11.333  14.773  64.358  1.00  0.00    -0.313 OA 
ENDROOT
BRANCH   2   3
HETATM    3  C   UNL     1     -11.820  13.538  64.014  1.00  0.00    -0.427 A  
HETATM    4  C   UNL     1     -12.819  13.387  63.038  1.00  0.00     0.869 A  
HETATM    5  C   UNL     1     -13.297  12.127  62.695  1.00  0.00     1.842 A  
HETATM    6  C   UNL     1     -12.781  11.006  63.329  1.00  0.00     1.814 A  
HETATM    7  C   UNL     1     -11.801  11.140  64.326  1.00  0.00     0.604 A  
HETATM    8  C   UNL     1     -11.325  12.400  64.689  1.00  0.00    -0.364 A  
HETATM    9  C   UNL     1     -10.314  12.482  65.776  1.00  0.00    -0.265 C  
HETATM   10  O   UNL     1      -9.928  13.555  66.233  1.00  0.00    -0.285 OA 
HETATM   11  C   UNL     1      -9.737  11.245  66.364  1.00  0.00    -0.238 A  
HETATM   12  C   UNL     1      -8.692  11.326  67.310  1.00  0.00    -0.145 A  
HETATM   13  O   UNL     1      -8.157  12.536  67.687  1.00  0.00    -0.147 OA 
HETATM   14  C   UNL     1      -8.133  10.177  67.905  1.00  0.00    -0.109 A  
HETATM   15  H   UNL     1      -7.454  12.591  68.324  1.00  0.00     0.000 HD 
HETATM   16  C   UNL     1      -8.652   8.909  67.550  1.00  0.00    -0.120 A  
HETATM   17  C   UNL     1      -9.663   8.834  66.567  1.00  0.00    -0.259 A  
HETATM   18  C   UNL     1      -8.110   7.636  68.183  1.00  0.00    -0.124 C  
HETATM   19  C   UNL     1      -7.270   7.879  69.441  1.00  0.00    -0.079 C  
HETATM   20  C   UNL     1     -10.217   9.993  65.983  1.00  0.00    -0.277 A  
HETATM   21  O   UNL     1     -10.123   7.612  66.157  1.00  0.00    -0.456 OA 
HETATM   22  O   UNL     1     -11.795   8.848  64.617  1.00  0.00    10.667 OA 
HETATM   23  C   UNL     1     -11.296   9.911  64.966  1.00  0.00     3.544 C  
HETATM   24  C   UNL     1      -6.268   8.993  69.132  1.00  0.00    -0.042 C  
HETATM   25  O   UNL     1      -8.146   8.192  70.527  1.00  0.00    -0.099 OA 
HETATM   26  H   UNL     1     -10.804   7.562  65.495  1.00  0.00     0.000 HD 
HETATM   27  C   UNL     1      -6.997  10.324  68.919  1.00  0.00    -0.065 C  
HETATM   28  H   UNL     1      -7.625   8.343  71.308  1.00  0.00     0.000 HD 
BRANCH  19  29
HETATM   29  C   UNL     1      -6.493   6.612  69.837  1.00  0.00    -0.044 C  
HETATM   30  O   UNL     1      -6.793   5.499  69.397  1.00  0.00    -0.056 OA 
HETATM   31  C   UNL     1      -5.272   6.791  70.711  1.00  0.00    -0.023 C  
ENDBRANCH  19  29
BRANCH  27  32
HETATM   32  O   UNL     1      -7.567  10.816  70.145  1.00  0.00    -0.012 OA 
BRANCH  32  33
HETATM   33  C   UNL     1      -8.772  10.178  70.584  1.00  0.00     0.932 C  
HETATM   34  C   UNL     1     -10.028  11.040  70.468  1.00  0.00     2.014 C  
HETATM   35  C   UNL     1     -10.381  11.262  68.997  1.00  0.00    -0.166 C  
HETATM   36  N   UNL     1     -11.605  12.081  68.887  1.00  0.00    -0.295 NA 
HETATM   37  C   UNL     1     -10.560   9.897  68.308  1.00  0.00    -0.229 C  
HETATM   38  H1  UNL     1     -11.841  12.229  67.905  1.00  0.00     0.000 HD 
HETATM   39  H2  UNL     1     -11.522  12.961  69.396  1.00  0.00     0.000 HD 
HETATM   40  O   UNL     1     -11.727   9.254  68.845  1.00  0.00    -0.058 OA 
HETATM   41  C   UNL     1      -9.299   9.037  68.529  1.00  0.00    -0.139 C  
HETATM   42  H   UNL     1     -11.837   8.412  68.420  1.00  0.00     0.000 HD 
HETATM   43  C   UNL     1      -9.496   7.616  68.010  1.00  0.00    -0.151 C  
HETATM   44  O   UNL     1      -8.944   8.929  69.913  1.00  0.00    -0.143 OA 
ENDBRANCH  32  33
ENDBRANCH  27  32
ENDBRANCH   2   3
TORSDOF 4
ENDMDL
MODEL      179
REMARK 921   NORMALIZED FREE ENERGY PREDICTED BY IDOCK:   72.15 KCAL/MOL
REMARK 922        TOTAL FREE ENERGY PREDICTED BY IDOCK:   88.43 KCAL/MOL
REMARK 923 INTER-LIGAND FREE ENERGY PREDICTED BY IDOCK:   14.03 KCAL/MOL
REMARK 924 INTRA-LIGAND FREE ENERGY PREDICTED BY IDOCK:   74.40 KCAL/MOL
REMARK 927      BINDING AFFINITY PREDICTED BY RF-SCORE:    0.00 PKD
ROOT
HETATM    1  C   UNL     1      -7.377   3.385  72.127  1.00  0.00    -0.055 C  
HETATM    2  O   UNL     1      -7.760   4.580  71.452  1.00  0.00    -0.079 OA 
ENDROOT
BRANCH   2   3
HETATM    3  C   UNL     1      -7.118   5.733  71.827  1.00  0.00    -0.082 A  
HETATM    4  C   UNL     1      -6.477   5.847  73.072  1.00  0.00    -0.064 A  
HETATM    5  C   UNL     1      -5.823   7.020  73.432  1.00  0.00    -0.053 A  
HETATM    6  C   UNL     1      -5.809   8.093  72.552  1.00  0.00    -0.048 A  
HETATM    7  C   UNL     1      -6.468   8.005  71.315  1.00  0.00    -0.038 A  
HETATM    8  C   UNL     1      -7.139   6.839  70.948  1.00  0.00    -0.068 A  
HETATM    9  C   UNL     1      -7.849   6.819  69.642  1.00  0.00    -0.115 C  
HETATM   10  O   UNL     1      -8.556   5.876  69.295  1.00  0.00    -0.111 OA 
HETATM   11  C   UNL     1      -7.733   7.965  68.702  1.00  0.00    -0.113 A  
HETATM   12  C   UNL     1      -8.309   7.892  67.416  1.00  0.00    -0.123 A  
HETATM   13  O   UNL     1      -8.957   6.760  66.982  1.00  0.00    -0.112 OA 
HETATM   14  C   UNL     1      -8.238   8.966  66.505  1.00  0.00    -0.114 A  
HETATM   15  H   UNL     1      -9.345   6.711  66.116  1.00  0.00     0.000 HD 
HETATM   16  C   UNL     1      -7.583  10.154  66.907  1.00  0.00    -0.100 A  
HETATM   17  C   UNL     1      -6.967  10.200  68.177  1.00  0.00    -0.075 A  
HETATM   18  C   UNL     1      -7.502  11.357  65.978  1.00  0.00     0.206 C  
HETATM   19  C   UNL     1      -8.472  11.290  64.793  1.00  0.00     0.387 C  
HETATM   20  C   UNL     1      -7.050   9.119  69.081  1.00  0.00    -0.062 A  
HETATM   21  O   UNL     1      -6.264  11.313  68.552  1.00  0.00    -0.046 OA 
HETATM   22  O   UNL     1      -5.844  10.178  70.839  1.00  0.00    -0.084 OA 
HETATM   23  C   UNL     1      -6.420   9.180  70.425  1.00  0.00    -0.051 C  
HETATM   24  C   UNL     1      -8.349   9.903  64.161  1.00  0.00    -0.168 C  
HETATM   25  O   UNL     1      -9.791  11.584  65.261  1.00  0.00    -0.236 OA 
HETATM   26  H   UNL     1      -5.850  11.343  69.407  1.00  0.00     0.000 HD 
HETATM   27  C   UNL     1      -8.873   8.829  65.120  1.00  0.00    -0.133 C  
HETATM   28  H   UNL     1     -10.392  11.543  64.526  1.00  0.00     0.000 HD 
BRANCH  19  29
HETATM   29  C   UNL     1      -8.120  12.348  63.735  1.00  0.00     4.200 C  
HETATM   30  O   UNL     1      -6.979  12.459  63.277  1.00  0.00     4.202 OA 
HETATM   31  C   UNL     1      -9.252  13.189  63.190  1.00  0.00     4.894 C  
ENDBRANCH  19  29
BRANCH  27  32
HETATM   32  O   UNL     1     -10.300   8.919  65.283  1.00  0.00     0.942 OA 
BRANCH  32  33
HETATM   33  C   UNL     1     -10.898   7.959  66.163  1.00  0.00     1.812 C  
HETATM   34  C   UNL     1     -10.296   6.557  66.080  1.00  0.00     0.531 C  
HETATM   35  C   UNL     1      -8.874   6.561  66.641  1.00  0.00    -0.132 C  
HETATM   36  N   UNL     1      -8.299   5.201  66.576  1.00  0.00    -0.108 NA 
HETATM   37  C   UNL     1      -8.902   7.086  68.088  1.00  0.00    -0.129 C  
HETATM   38  H1  UNL     1      -7.351   5.204  66.951  1.00  0.00     0.000 HD 
HETATM   39  H2  UNL     1      -8.336   4.816  65.632  1.00  0.00     0.000 HD 
HETATM   40  O   UNL     1      -9.592   6.135  68.915  1.00  0.00    -0.128 OA 
HETATM   41  C   UNL     1      -9.596   8.463  68.125  1.00  0.00    -0.143 C  
HETATM   42  H   UNL     1      -9.608   6.459  69.807  1.00  0.00     0.000 HD 
HETATM   43  C   UNL     1      -9.798   8.947  69.558  1.00  0.00    -0.180 C  
HETATM   44  O   UNL     1     -10.888   8.442  67.506  1.00  0.00    -0.191 OA 
ENDBRANCH  32  33
ENDBRANCH  27  32
ENDBRANCH   2   3
TORSDOF 4
ENDMDL
MODEL      180
REMARK 921   NORMALIZED FREE ENERGY PREDICTED BY IDOCK:   72.55 KCAL/MOL
REMARK 922        TOTAL FREE ENERGY PREDICTED BY IDOCK:   88.92 KCAL/MOL
REMARK 923 INTER-LIGAND FREE ENERGY PREDICTED BY IDOCK:   22.30 KCAL/MOL
REMARK 924 INTRA-LIGAND FREE ENERGY PREDICTED BY IDOCK:   66.63 KCAL/MOL
REMARK 927      BINDING AFFINITY PREDICTED BY RF-SCORE:    0.00 PKD
ROOT
HETATM    1  C   UNL     1     -10.431  16.546  73.595  1.00  0.00     6.515 C  
HETATM    2  O   UNL     1      -9.708  16.129  72.440  1.00  0.00     5.504 OA 
ENDROOT
BRANCH   2   3
HETATM    3  C   UNL     1      -9.960  16.807  71.275  1.00  0.00     3.766 A  
HETATM    4  C   UNL     1     -10.279  18.175  71.275  1.00  0.00     3.662 A  
HETATM    5  C   UNL     1     -10.524  18.850  70.083  1.00  0.00     1.438 A  
HETATM    6  C   UNL     1     -10.456  18.160  68.882  1.00  0.00    -0.080 A  
HETATM    7  C   UNL     1     -10.165  16.787  68.866  1.00  0.00    -0.304 A  
HETATM    8  C   UNL     1      -9.933  16.096  70.055  1.00  0.00     0.137 A  
HETATM    9  C   UNL     1      -9.665  14.636  69.977  1.00  0.00     0.565 C  
HETATM   10  O   UNL     1      -9.563  13.934  70.981  1.00  0.00     4.164 OA 
HETATM   11  C   UNL     1      -9.523  13.963  68.659  1.00  0.00    -0.123 A  
HETATM   12  C   UNL     1      -9.152  12.603  68.590  1.00  0.00     0.045 A  
HETATM   13  O   UNL     1      -8.879  11.874  69.723  1.00  0.00     0.800 OA 
HETATM   14  C   UNL     1      -9.027  11.926  67.360  1.00  0.00    -0.173 A  
HETATM   15  H   UNL     1      -8.628  10.959  69.677  1.00  0.00     0.000 HD 
HETATM   16  C   UNL     1      -9.301  12.633  66.166  1.00  0.00    -0.117 A  
HETATM   17  C   UNL     1      -9.623  14.006  66.242  1.00  0.00    -0.265 A  
HETATM   18  C   UNL     1      -9.214  11.946  64.810  1.00  0.00     0.257 C  
HETATM   19  C   UNL     1      -9.179  10.416  64.893  1.00  0.00    -0.221 C  
HETATM   20  C   UNL     1      -9.750  14.670  67.480  1.00  0.00    -0.210 A  
HETATM   21  O   UNL     1      -9.817  14.724  65.093  1.00  0.00    -0.445 OA 
HETATM   22  O   UNL     1     -10.367  16.779  66.564  1.00  0.00    -0.304 OA 
HETATM   23  C   UNL     1     -10.112  16.109  67.557  1.00  0.00    -0.256 C  
HETATM   24  C   UNL     1      -8.145  10.024  65.949  1.00  0.00    -0.126 C  
HETATM   25  O   UNL     1     -10.496   9.941  65.187  1.00  0.00    -0.138 OA 
HETATM   26  H   UNL     1     -10.034  15.648  65.144  1.00  0.00     0.000 HD 
HETATM   27  C   UNL     1      -8.614  10.453  67.343  1.00  0.00    -0.125 C  
HETATM   28  H   UNL     1     -10.475   8.993  65.238  1.00  0.00     0.000 HD 
BRANCH  19  29
HETATM   29  C   UNL     1      -8.766   9.802  63.545  1.00  0.00    -0.222 C  
HETATM   30  O   UNL     1      -9.186  10.243  62.471  1.00  0.00    -0.253 OA 
HETATM   31  C   UNL     1      -7.737   8.695  63.573  1.00  0.00    -0.136 C  
ENDBRANCH  19  29
BRANCH  27  32
HETATM   32  O   UNL     1      -9.744   9.677  67.781  1.00  0.00    -0.141 OA 
BRANCH  32  33
HETATM   33  C   UNL     1     -11.004  10.359  67.818  1.00  0.00    -0.309 C  
HETATM   34  C   UNL     1     -11.825  10.114  69.083  1.00  0.00     0.059 C  
HETATM   35  C   UNL     1     -11.147  10.773  70.285  1.00  0.00    -0.170 C  
HETATM   36  N   UNL     1     -11.950  10.550  71.505  1.00  0.00    -0.242 NA 
HETATM   37  C   UNL     1     -10.965  12.275  70.004  1.00  0.00     0.631 C  
HETATM   38  H1  UNL     1     -11.498  10.990  72.307  1.00  0.00     0.000 HD 
HETATM   39  H2  UNL     1     -12.133   9.560  71.666  1.00  0.00     0.000 HD 
HETATM   40  O   UNL     1     -12.258  12.900  69.958  1.00  0.00    -0.291 OA 
HETATM   41  C   UNL     1     -10.207  12.464  68.674  1.00  0.00    -0.157 C  
HETATM   42  H   UNL     1     -12.145  13.827  69.784  1.00  0.00     0.000 HD 
HETATM   43  C   UNL     1     -10.151  13.934  68.269  1.00  0.00    -0.241 C  
HETATM   44  O   UNL     1     -10.819  11.756  67.589  1.00  0.00    -0.199 OA 
ENDBRANCH  32  33
ENDBRANCH  27  32
ENDBRANCH   2   3
TORSDOF 4
ENDMDL
MODEL      181
REMARK 921   NORMALIZED FREE ENERGY PREDICTED BY IDOCK:   76.48 KCAL/MOL
REMARK 922        TOTAL FREE ENERGY PREDICTED BY IDOCK:   93.77 KCAL/MOL
REMARK 923 INTER-LIGAND FREE ENERGY PREDICTED BY IDOCK:   86.99 KCAL/MOL
REMARK 924 INTRA-LIGAND FREE ENERGY PREDICTED BY IDOCK:    6.78 KCAL/MOL
REMARK 927      BINDING AFFINITY PREDICTED BY RF-SCORE:    0.00 PKD
ROOT
HETATM    1  C   UNL     1     -10.779  14.849  65.626  1.00  0.00    -0.342 C  
HETATM    2  O   UNL     1     -11.446  14.775  64.369  1.00  0.00    -0.336 OA 
ENDROOT
BRANCH   2   3
HETATM    3  C   UNL     1     -12.212  13.660  64.141  1.00  0.00    -0.399 A  
HETATM    4  C   UNL     1     -13.113  13.594  63.066  1.00  0.00     1.935 A  
HETATM    5  C   UNL     1     -13.876  12.452  62.844  1.00  0.00     3.181 A  
HETATM    6  C   UNL     1     -13.745  11.367  63.699  1.00  0.00     1.910 A  
HETATM    7  C   UNL     1     -12.869  11.426  64.794  1.00  0.00     1.993 A  
HETATM    8  C   UNL     1     -12.110  12.571  65.036  1.00  0.00    -0.504 A  
HETATM    9  C   UNL     1     -11.227  12.588  66.231  1.00  0.00    -0.315 C  
HETATM   10  O   UNL     1     -10.613  13.594  66.579  1.00  0.00    -0.278 OA 
HETATM   11  C   UNL     1     -11.064  11.370  67.067  1.00  0.00    -0.364 A  
HETATM   12  C   UNL     1     -10.135  11.354  68.129  1.00  0.00    -0.189 A  
HETATM   13  O   UNL     1      -9.334  12.438  68.400  1.00  0.00    -0.245 OA 
HETATM   14  C   UNL     1      -9.967  10.224  68.956  1.00  0.00    -0.223 A  
HETATM   15  H   UNL     1      -8.708  12.428  69.115  1.00  0.00     0.000 HD 
HETATM   16  C   UNL     1     -10.770   9.084  68.718  1.00  0.00    -0.140 A  
HETATM   17  C   UNL     1     -11.661   9.091  67.623  1.00  0.00     2.483 A  
HETATM   18  C   UNL     1     -10.655   7.847  69.597  1.00  0.00    -0.234 C  
HETATM   19  C   UNL     1      -9.909   8.091  70.914  1.00  0.00    -0.175 C  
HETATM   20  C   UNL     1     -11.823  10.231  66.806  1.00  0.00     2.268 A  
HETATM   21  O   UNL     1     -12.391   7.970  67.332  1.00  0.00     4.081 OA 
HETATM   22  O   UNL     1     -13.508   9.293  65.410  1.00  0.00    18.634 OA 
HETATM   23  C   UNL     1     -12.779  10.242  65.669  1.00  0.00     9.340 C  
HETATM   24  C   UNL     1      -8.619   8.848  70.592  1.00  0.00    -0.224 C  
HETATM   25  O   UNL     1     -10.772   8.798  71.808  1.00  0.00    -0.290 OA 
HETATM   26  H   UNL     1     -12.991   7.975  66.595  1.00  0.00     0.000 HD 
HETATM   27  C   UNL     1      -8.938  10.259  70.088  1.00  0.00     0.302 C  
HETATM   28  H   UNL     1     -10.309   8.949  72.624  1.00  0.00     0.000 HD 
BRANCH  19  29
HETATM   29  C   UNL     1      -9.544   6.760  71.593  1.00  0.00    -0.162 C  
HETATM   30  O   UNL     1      -8.739   5.971  71.091  1.00  0.00    -0.131 OA 
HETATM   31  C   UNL     1     -10.131   6.496  72.961  1.00  0.00    -0.206 C  
ENDBRANCH  19  29
BRANCH  27  32
HETATM   32  O   UNL     1      -9.473  11.085  71.139  1.00  0.00     3.646 OA 
BRANCH  32  33
HETATM   33  C   UNL     1      -8.793  12.323  71.379  1.00  0.00    14.803 C  
HETATM   34  C   UNL     1      -7.877  12.320  72.603  1.00  0.00    17.043 C  
HETATM   35  C   UNL     1      -6.671  11.413  72.354  1.00  0.00     5.784 C  
HETATM   36  N   UNL     1      -5.777  11.424  73.531  1.00  0.00     0.920 NA 
HETATM   37  C   UNL     1      -5.933  11.886  71.089  1.00  0.00     0.570 C  
HETATM   38  H1  UNL     1      -4.973  10.819  73.366  1.00  0.00     0.000 HD 
HETATM   39  H2  UNL     1      -6.272  11.175  74.388  1.00  0.00     0.000 HD 
HETATM   40  O   UNL     1      -5.345  13.172  71.348  1.00  0.00    -0.178 OA 
HETATM   41  C   UNL     1      -6.922  11.953  69.908  1.00  0.00     0.373 C  
HETATM   42  H   UNL     1      -4.890  13.464  70.567  1.00  0.00     0.000 HD 
HETATM   43  C   UNL     1      -6.276  12.578  68.675  1.00  0.00    -0.069 C  
HETATM   44  O   UNL     1      -8.084  12.735  70.210  1.00  0.00     2.726 OA 
ENDBRANCH  32  33
ENDBRANCH  27  32
ENDBRANCH   2   3
TORSDOF 4
ENDMDL
MODEL      182
REMARK 921   NORMALIZED FREE ENERGY PREDICTED BY IDOCK:   82.47 KCAL/MOL
REMARK 922        TOTAL FREE ENERGY PREDICTED BY IDOCK:  101.16 KCAL/MOL
REMARK 923 INTER-LIGAND FREE ENERGY PREDICTED BY IDOCK:   10.95 KCAL/MOL
REMARK 924 INTRA-LIGAND FREE ENERGY PREDICTED BY IDOCK:   90.21 KCAL/MOL
REMARK 927      BINDING AFFINITY PREDICTED BY RF-SCORE:    0.00 PKD
ROOT
HETATM    1  C   UNL     1      -9.253  13.409  65.717  1.00  0.00     0.318 C  
HETATM    2  O   UNL     1      -9.307  12.485  66.801  1.00  0.00    -0.218 OA 
ENDROOT
BRANCH   2   3
HETATM    3  C   UNL     1     -10.187  11.440  66.678  1.00  0.00    -0.222 A  
HETATM    4  C   UNL     1     -11.360  11.552  65.914  1.00  0.00    -0.174 A  
HETATM    5  C   UNL     1     -12.238  10.480  65.793  1.00  0.00     4.396 A  
HETATM    6  C   UNL     1     -11.950   9.286  66.440  1.00  0.00     6.200 A  
HETATM    7  C   UNL     1     -10.796   9.166  67.230  1.00  0.00    -0.121 A  
HETATM    8  C   UNL     1      -9.916  10.239  67.371  1.00  0.00    -0.230 A  
HETATM    9  C   UNL     1      -8.730  10.063  68.249  1.00  0.00    -0.119 C  
HETATM   10  O   UNL     1      -7.969  10.990  68.517  1.00  0.00    -0.121 OA 
HETATM   11  C   UNL     1      -8.427   8.738  68.852  1.00  0.00    -0.131 A  
HETATM   12  C   UNL     1      -7.237   8.546  69.586  1.00  0.00    -0.052 A  
HETATM   13  O   UNL     1      -6.314   9.553  69.736  1.00  0.00    -0.041 OA 
HETATM   14  C   UNL     1      -6.926   7.310  70.191  1.00  0.00    -0.060 A  
HETATM   15  H   UNL     1      -5.513   9.424  70.231  1.00  0.00     0.000 HD 
HETATM   16  C   UNL     1      -7.847   6.243  70.067  1.00  0.00    -0.106 A  
HETATM   17  C   UNL     1      -9.010   6.430  69.289  1.00  0.00    -0.133 A  
HETATM   18  C   UNL     1      -7.579   4.897  70.723  1.00  0.00    -0.066 C  
HETATM   19  C   UNL     1      -6.472   4.934  71.783  1.00  0.00    -0.031 C  
HETATM   20  C   UNL     1      -9.312   7.674  68.694  1.00  0.00    -0.147 A  
HETATM   21  O   UNL     1      -9.874   5.387  69.095  1.00  0.00    -0.149 OA 
HETATM   22  O   UNL     1     -11.391   6.995  67.752  1.00  0.00    -0.041 OA 
HETATM   23  C   UNL     1     -10.549   7.873  67.895  1.00  0.00    -0.149 C  
HETATM   24  C   UNL     1      -5.274   5.678  71.188  1.00  0.00    -0.009 C  
HETATM   25  O   UNL     1      -6.988   5.548  72.967  1.00  0.00    -0.076 OA 
HETATM   26  H   UNL     1     -10.657   5.513  68.572  1.00  0.00     0.000 HD 
HETATM   27  C   UNL     1      -5.618   7.155  70.969  1.00  0.00    -0.027 C  
HETATM   28  H   UNL     1      -6.302   5.571  73.624  1.00  0.00     0.000 HD 
BRANCH  19  29
HETATM   29  C   UNL     1      -6.029   3.512  72.166  1.00  0.00    -0.009 C  
HETATM   30  O   UNL     1      -5.225   2.873  71.482  1.00  0.00    -0.003 OA 
HETATM   31  C   UNL     1      -6.537   2.957  73.477  1.00  0.00    -0.022 C  
ENDBRANCH  19  29
BRANCH  27  32
HETATM   32  O   UNL     1      -5.767   7.853  72.218  1.00  0.00    -0.036 OA 
BRANCH  32  33
HETATM   33  C   UNL     1      -6.975   8.607  72.382  1.00  0.00    -0.001 C  
HETATM   34  C   UNL     1      -6.772  10.117  72.502  1.00  0.00     2.197 C  
HETATM   35  C   UNL     1      -6.296  10.692  71.167  1.00  0.00     0.486 C  
HETATM   36  N   UNL     1      -6.117  12.154  71.279  1.00  0.00    -0.222 NA 
HETATM   37  C   UNL     1      -7.315  10.336  70.070  1.00  0.00    -0.149 C  
HETATM   38  H1  UNL     1      -5.799  12.537  70.389  1.00  0.00     0.000 HD 
HETATM   39  H2  UNL     1      -5.494  12.404  72.047  1.00  0.00     0.000 HD 
HETATM   40  O   UNL     1      -8.540  11.043  70.327  1.00  0.00     0.513 OA 
HETATM   41  C   UNL     1      -7.545   8.811  70.051  1.00  0.00    -0.062 C  
HETATM   42  H   UNL     1      -9.168  10.824  69.649  1.00  0.00     0.000 HD 
HETATM   43  C   UNL     1      -8.672   8.430  69.095  1.00  0.00    -0.142 C  
HETATM   44  O   UNL     1      -7.899   8.295  71.340  1.00  0.00    -0.087 OA 
ENDBRANCH  32  33
ENDBRANCH  27  32
ENDBRANCH   2   3
TORSDOF 4
ENDMDL
MODEL      183
REMARK 921   NORMALIZED FREE ENERGY PREDICTED BY IDOCK:   92.05 KCAL/MOL
REMARK 922        TOTAL FREE ENERGY PREDICTED BY IDOCK:  112.98 KCAL/MOL
REMARK 923 INTER-LIGAND FREE ENERGY PREDICTED BY IDOCK:  114.02 KCAL/MOL
REMARK 924 INTRA-LIGAND FREE ENERGY PREDICTED BY IDOCK:   -1.04 KCAL/MOL
REMARK 927      BINDING AFFINITY PREDICTED BY RF-SCORE:    0.00 PKD
ROOT
HETATM    1  C   UNL     1      -7.562  17.044  73.955  1.00  0.00    14.176 C  
HETATM    2  O   UNL     1      -7.613  17.562  72.629  1.00  0.00    10.665 OA 
ENDROOT
BRANCH   2   3
HETATM    3  C   UNL     1      -8.542  18.541  72.383  1.00  0.00    12.492 A  
HETATM    4  C   UNL     1      -8.725  19.619  73.266  1.00  0.00     4.698 A  
HETATM    5  C   UNL     1      -9.666  20.608  72.997  1.00  0.00     4.804 A  
HETATM    6  C   UNL     1     -10.434  20.525  71.845  1.00  0.00     4.743 A  
HETATM    7  C   UNL     1     -10.282  19.441  70.966  1.00  0.00     2.146 A  
HETATM    8  C   UNL     1      -9.353  18.435  71.232  1.00  0.00     6.352 A  
HETATM    9  C   UNL     1      -9.263  17.294  70.283  1.00  0.00     2.560 C  
HETATM   10  O   UNL     1      -8.554  16.314  70.501  1.00  0.00     1.864 OA 
HETATM   11  C   UNL     1     -10.051  17.297  69.022  1.00  0.00    -0.302 A  
HETATM   12  C   UNL     1      -9.873  16.271  68.069  1.00  0.00    -0.236 A  
HETATM   13  O   UNL     1      -8.952  15.268  68.256  1.00  0.00    -0.169 OA 
HETATM   14  C   UNL     1     -10.617  16.228  66.872  1.00  0.00    -0.270 A  
HETATM   15  H   UNL     1      -8.832  14.577  67.615  1.00  0.00     0.000 HD 
HETATM   16  C   UNL     1     -11.580  17.237  66.636  1.00  0.00     1.556 A  
HETATM   17  C   UNL     1     -11.716  18.286  67.571  1.00  0.00     1.744 A  
HETATM   18  C   UNL     1     -12.434  17.225  65.376  1.00  0.00     5.890 C  
HETATM   19  C   UNL     1     -12.416  15.887  64.629  1.00  0.00     0.652 C  
HETATM   20  C   UNL     1     -10.968  18.314  68.768  1.00  0.00     0.733 A  
HETATM   21  O   UNL     1     -12.588  19.311  67.322  1.00  0.00     3.211 OA 
HETATM   22  O   UNL     1     -11.949  20.308  69.621  1.00  0.00     4.277 OA 
HETATM   23  C   UNL     1     -11.131  19.407  69.760  1.00  0.00     2.747 C  
HETATM   24  C   UNL     1     -10.959  15.440  64.496  1.00  0.00    -0.223 C  
HETATM   25  O   UNL     1     -13.232  14.952  65.340  1.00  0.00    -0.035 OA 
HETATM   26  H   UNL     1     -12.680  20.017  67.952  1.00  0.00     0.000 HD 
HETATM   27  C   UNL     1     -10.377  15.097  65.870  1.00  0.00    -0.327 C  
HETATM   28  H   UNL     1     -13.221  14.122  64.876  1.00  0.00     0.000 HD 
BRANCH  19  29
HETATM   29  C   UNL     1     -13.018  16.035  63.222  1.00  0.00     4.267 C  
HETATM   30  O   UNL     1     -13.340  17.135  62.762  1.00  0.00     9.248 OA 
HETATM   31  C   UNL     1     -13.107  14.790  62.369  1.00  0.00     5.293 C  
ENDBRANCH  19  29
BRANCH  27  32
HETATM   32  O   UNL     1     -10.971  13.902  66.411  1.00  0.00    -0.299 OA 
BRANCH  32  33
HETATM   33  C   UNL     1     -10.479  12.660  65.891  1.00  0.00    -0.274 C  
HETATM   34  C   UNL     1     -10.281  11.565  66.938  1.00  0.00    -0.249 C  
HETATM   35  C   UNL     1     -11.635  11.096  67.472  1.00  0.00    -0.135 C  
HETATM   36  N   UNL     1     -11.443  10.025  68.471  1.00  0.00    -0.520 NA 
HETATM   37  C   UNL     1     -12.503  10.613  66.296  1.00  0.00     5.375 C  
HETATM   38  H1  UNL     1     -12.347   9.712  68.827  1.00  0.00     0.000 HD 
HETATM   39  H2  UNL     1     -10.816  10.312  69.222  1.00  0.00     0.000 HD 
HETATM   40  O   UNL     1     -11.921   9.419  65.748  1.00  0.00     4.709 OA 
HETATM   41  C   UNL     1     -12.598  11.725  65.231  1.00  0.00     1.244 C  
HETATM   42  H   UNL     1     -12.457   9.121  65.023  1.00  0.00     0.000 HD 
HETATM   43  C   UNL     1     -13.307  11.233  63.973  1.00  0.00     1.924 C  
HETATM   44  O   UNL     1     -11.311  12.205  64.824  1.00  0.00    -0.312 OA 
ENDBRANCH  32  33
ENDBRANCH  27  32
ENDBRANCH   2   3
TORSDOF 4
ENDMDL
