MODEL        1
REMARK 921   NORMALIZED FREE ENERGY PREDICTED BY IDOCK:   -4.44 KCAL/MOL
REMARK 922        TOTAL FREE ENERGY PREDICTED BY IDOCK:   -8.06 KCAL/MOL
REMARK 923 INTER-LIGAND FREE ENERGY PREDICTED BY IDOCK:   -7.29 KCAL/MOL
REMARK 924 INTRA-LIGAND FREE ENERGY PREDICTED BY IDOCK:   -0.77 KCAL/MOL
REMARK 927      BINDING AFFINITY PREDICTED BY RF-SCORE:    0.00 PKD
ROOT
HETATM    1  C   UNL     1     -11.285   7.571  70.291  1.00  0.00    -0.236 C  
HETATM    2  N   UNL     1     -11.893   8.258  71.520  1.00  0.00    -0.282 N  
HETATM    3  C   UNL     1     -11.091   7.857  72.751  1.00  0.00    -0.400 C  
HETATM    4  C   UNL     1     -13.333   7.789  71.664  1.00  0.00    -0.342 C  
ENDROOT
BRANCH   2   5
HETATM    5  C   UNL     1     -11.811   9.758  71.269  1.00  0.00    -0.399 C  
BRANCH   5   6
HETATM    6  C   UNL     1     -13.038  10.549  71.725  1.00  0.00    -0.570 C  
BRANCH   6   7
HETATM    7  C   UNL     1     -12.882  12.032  71.364  1.00  0.00    -0.391 C  
BRANCH   7   8
HETATM    8  C   UNL     1     -13.535  12.981  72.378  1.00  0.00    -0.615 C  
BRANCH   8   9
HETATM    9  C   UNL     1     -14.146  14.229  71.729  1.00  0.00    -0.535 C  
BRANCH   9  10
HETATM   10  C   UNL     1     -13.521  15.525  72.250  1.00  0.00    -0.596 C  
BRANCH  10  11
HETATM   11  C   UNL     1     -11.996  15.541  72.103  1.00  0.00    -0.534 C  
BRANCH  11  12
HETATM   12  C   UNL     1     -11.527  16.044  70.731  1.00  0.00    -0.444 C  
BRANCH  12  13
HETATM   13  C   UNL     1     -11.144  14.916  69.766  1.00  0.00    -0.300 C  
BRANCH  13  14
HETATM   14  C   UNL     1     -11.743  15.176  68.384  1.00  0.00    -0.316 C  
BRANCH  14  15
HETATM   15  N   UNL     1     -11.377  14.134  67.331  1.00  0.00    -0.311 N  
HETATM   16  C   UNL     1      -9.882  14.139  67.032  1.00  0.00    -0.258 C  
HETATM   17  C   UNL     1     -12.165  14.342  66.044  1.00  0.00    -0.404 C  
HETATM   18  C   UNL     1     -11.742  12.763  67.918  1.00  0.00    -0.357 C  
ENDBRANCH  14  15
ENDBRANCH  13  14
ENDBRANCH  12  13
ENDBRANCH  11  12
ENDBRANCH  10  11
ENDBRANCH   9  10
ENDBRANCH   8   9
ENDBRANCH   7   8
ENDBRANCH   6   7
ENDBRANCH   5   6
ENDBRANCH   2   5
TORSDOF 11
ENDMDL
MODEL        2
REMARK 921   NORMALIZED FREE ENERGY PREDICTED BY IDOCK:   -4.35 KCAL/MOL
REMARK 922        TOTAL FREE ENERGY PREDICTED BY IDOCK:   -7.91 KCAL/MOL
REMARK 923 INTER-LIGAND FREE ENERGY PREDICTED BY IDOCK:   -7.00 KCAL/MOL
REMARK 924 INTRA-LIGAND FREE ENERGY PREDICTED BY IDOCK:   -0.91 KCAL/MOL
REMARK 927      BINDING AFFINITY PREDICTED BY RF-SCORE:    0.00 PKD
ROOT
HETATM    1  C   UNL     1     -10.764   7.938  72.556  1.00  0.00    -0.328 C  
HETATM    2  N   UNL     1     -11.659   8.236  71.346  1.00  0.00    -0.271 N  
HETATM    3  C   UNL     1     -12.786   7.212  71.310  1.00  0.00    -0.366 C  
HETATM    4  C   UNL     1     -10.812   8.120  70.088  1.00  0.00    -0.241 C  
ENDROOT
BRANCH   2   5
HETATM    5  C   UNL     1     -12.197   9.648  71.537  1.00  0.00    -0.399 C  
BRANCH   5   6
HETATM    6  C   UNL     1     -11.706  10.662  70.502  1.00  0.00    -0.451 C  
BRANCH   6   7
HETATM    7  C   UNL     1     -12.365  12.026  70.737  1.00  0.00    -0.403 C  
BRANCH   7   8
HETATM    8  C   UNL     1     -13.292  12.057  71.960  1.00  0.00    -0.447 C  
BRANCH   8   9
HETATM    9  C   UNL     1     -13.428  13.452  72.579  1.00  0.00    -0.640 C  
BRANCH   9  10
HETATM   10  C   UNL     1     -14.239  14.407  71.700  1.00  0.00    -0.512 C  
BRANCH  10  11
HETATM   11  C   UNL     1     -13.465  15.683  71.351  1.00  0.00    -0.473 C  
BRANCH  11  12
HETATM   12  C   UNL     1     -11.979  15.609  71.722  1.00  0.00    -0.518 C  
BRANCH  12  13
HETATM   13  C   UNL     1     -11.044  15.664  70.508  1.00  0.00    -0.375 C  
BRANCH  13  14
HETATM   14  C   UNL     1     -11.842  15.494  69.216  1.00  0.00    -0.353 C  
BRANCH  14  15
HETATM   15  N   UNL     1     -11.046  14.905  68.055  1.00  0.00    -0.283 N  
HETATM   16  C   UNL     1     -11.896  13.961  67.212  1.00  0.00    -0.407 C  
HETATM   17  C   UNL     1      -9.798  14.183  68.546  1.00  0.00    -0.230 C  
HETATM   18  C   UNL     1     -10.618  16.083  67.168  1.00  0.00    -0.305 C  
ENDBRANCH  14  15
ENDBRANCH  13  14
ENDBRANCH  12  13
ENDBRANCH  11  12
ENDBRANCH  10  11
ENDBRANCH   9  10
ENDBRANCH   8   9
ENDBRANCH   7   8
ENDBRANCH   6   7
ENDBRANCH   5   6
ENDBRANCH   2   5
TORSDOF 11
ENDMDL
MODEL        3
REMARK 921   NORMALIZED FREE ENERGY PREDICTED BY IDOCK:   -4.34 KCAL/MOL
REMARK 922        TOTAL FREE ENERGY PREDICTED BY IDOCK:   -7.89 KCAL/MOL
REMARK 923 INTER-LIGAND FREE ENERGY PREDICTED BY IDOCK:   -7.23 KCAL/MOL
REMARK 924 INTRA-LIGAND FREE ENERGY PREDICTED BY IDOCK:   -0.67 KCAL/MOL
REMARK 927      BINDING AFFINITY PREDICTED BY RF-SCORE:    0.00 PKD
ROOT
HETATM    1  C   UNL     1     -11.259   7.511  70.343  1.00  0.00    -0.253 C  
HETATM    2  N   UNL     1     -11.910   8.187  71.556  1.00  0.00    -0.283 N  
HETATM    3  C   UNL     1     -11.155   7.768  72.811  1.00  0.00    -0.398 C  
HETATM    4  C   UNL     1     -13.356   7.724  71.641  1.00  0.00    -0.342 C  
ENDROOT
BRANCH   2   5
HETATM    5  C   UNL     1     -11.811   9.690  71.325  1.00  0.00    -0.381 C  
BRANCH   5   6
HETATM    6  C   UNL     1     -13.018  10.490  71.818  1.00  0.00    -0.582 C  
BRANCH   6   7
HETATM    7  C   UNL     1     -12.910  11.952  71.366  1.00  0.00    -0.411 C  
BRANCH   7   8
HETATM    8  C   UNL     1     -13.584  12.942  72.326  1.00  0.00    -0.611 C  
BRANCH   8   9
HETATM    9  C   UNL     1     -14.396  14.023  71.604  1.00  0.00    -0.266 C  
BRANCH   9  10
HETATM   10  C   UNL     1     -14.318  15.381  72.306  1.00  0.00    -0.576 C  
BRANCH  10  11
HETATM   11  C   UNL     1     -12.980  15.594  73.023  1.00  0.00    -0.617 C  
BRANCH  11  12
HETATM   12  C   UNL     1     -11.942  16.323  72.161  1.00  0.00    -0.575 C  
BRANCH  12  13
HETATM   13  C   UNL     1     -11.203  15.401  71.184  1.00  0.00    -0.410 C  
BRANCH  13  14
HETATM   14  C   UNL     1     -11.615  15.713  69.746  1.00  0.00    -0.352 C  
BRANCH  14  15
HETATM   15  N   UNL     1     -10.461  16.111  68.831  1.00  0.00    -0.241 N  
HETATM   16  C   UNL     1      -9.148  15.475  69.274  1.00  0.00    -0.266 C  
HETATM   17  C   UNL     1     -10.307  17.624  68.755  1.00  0.00    -0.348 C  
HETATM   18  C   UNL     1     -10.801  15.578  67.431  1.00  0.00    -0.312 C  
ENDBRANCH  14  15
ENDBRANCH  13  14
ENDBRANCH  12  13
ENDBRANCH  11  12
ENDBRANCH  10  11
ENDBRANCH   9  10
ENDBRANCH   8   9
ENDBRANCH   7   8
ENDBRANCH   6   7
ENDBRANCH   5   6
ENDBRANCH   2   5
TORSDOF 11
ENDMDL
MODEL        4
REMARK 921   NORMALIZED FREE ENERGY PREDICTED BY IDOCK:   -4.30 KCAL/MOL
REMARK 922        TOTAL FREE ENERGY PREDICTED BY IDOCK:   -7.83 KCAL/MOL
REMARK 923 INTER-LIGAND FREE ENERGY PREDICTED BY IDOCK:   -7.09 KCAL/MOL
REMARK 924 INTRA-LIGAND FREE ENERGY PREDICTED BY IDOCK:   -0.75 KCAL/MOL
REMARK 927      BINDING AFFINITY PREDICTED BY RF-SCORE:    0.00 PKD
ROOT
HETATM    1  C   UNL     1     -10.863   8.010  72.618  1.00  0.00    -0.368 C  
HETATM    2  N   UNL     1     -11.700   8.317  71.370  1.00  0.00    -0.279 N  
HETATM    3  C   UNL     1     -13.113   7.792  71.590  1.00  0.00    -0.345 C  
HETATM    4  C   UNL     1     -11.062   7.610  70.184  1.00  0.00    -0.218 C  
ENDROOT
BRANCH   2   5
HETATM    5  C   UNL     1     -11.691   9.830  71.197  1.00  0.00    -0.385 C  
BRANCH   5   6
HETATM    6  C   UNL     1     -12.970  10.531  71.657  1.00  0.00    -0.581 C  
BRANCH   6   7
HETATM    7  C   UNL     1     -12.870  12.042  71.410  1.00  0.00    -0.391 C  
BRANCH   7   8
HETATM    8  C   UNL     1     -13.740  12.877  72.358  1.00  0.00    -0.530 C  
BRANCH   8   9
HETATM    9  C   UNL     1     -14.001  14.297  71.844  1.00  0.00    -0.566 C  
BRANCH   9  10
HETATM   10  C   UNL     1     -13.257  15.360  72.655  1.00  0.00    -0.567 C  
BRANCH  10  11
HETATM   11  C   UNL     1     -12.141  16.037  71.852  1.00  0.00    -0.590 C  
BRANCH  11  12
HETATM   12  C   UNL     1     -12.200  15.721  70.352  1.00  0.00    -0.388 C  
BRANCH  12  13
HETATM   13  C   UNL     1     -10.822  15.464  69.728  1.00  0.00    -0.297 C  
BRANCH  13  14
HETATM   14  C   UNL     1     -10.865  14.216  68.848  1.00  0.00    -0.258 C  
BRANCH  14  15
HETATM   15  N   UNL     1     -10.826  14.500  67.349  1.00  0.00    -0.285 N  
HETATM   16  C   UNL     1     -10.632  15.984  67.063  1.00  0.00    -0.302 C  
HETATM   17  C   UNL     1     -12.084  13.996  66.654  1.00  0.00    -0.456 C  
HETATM   18  C   UNL     1      -9.614  13.743  66.785  1.00  0.00    -0.279 C  
ENDBRANCH  14  15
ENDBRANCH  13  14
ENDBRANCH  12  13
ENDBRANCH  11  12
ENDBRANCH  10  11
ENDBRANCH   9  10
ENDBRANCH   8   9
ENDBRANCH   7   8
ENDBRANCH   6   7
ENDBRANCH   5   6
ENDBRANCH   2   5
TORSDOF 11
ENDMDL
MODEL        5
REMARK 921   NORMALIZED FREE ENERGY PREDICTED BY IDOCK:   -4.29 KCAL/MOL
REMARK 922        TOTAL FREE ENERGY PREDICTED BY IDOCK:   -7.81 KCAL/MOL
REMARK 923 INTER-LIGAND FREE ENERGY PREDICTED BY IDOCK:   -7.05 KCAL/MOL
REMARK 924 INTRA-LIGAND FREE ENERGY PREDICTED BY IDOCK:   -0.77 KCAL/MOL
REMARK 927      BINDING AFFINITY PREDICTED BY RF-SCORE:    0.00 PKD
ROOT
HETATM    1  C   UNL     1     -11.809   8.306  72.311  1.00  0.00    -0.388 C  
HETATM    2  N   UNL     1     -10.876   8.643  71.142  1.00  0.00    -0.244 N  
HETATM    3  C   UNL     1     -10.979   7.536  70.100  1.00  0.00    -0.254 C  
HETATM    4  C   UNL     1      -9.453   8.722  71.675  1.00  0.00    -0.288 C  
ENDROOT
BRANCH   2   5
HETATM    5  C   UNL     1     -11.343   9.979  70.580  1.00  0.00    -0.348 C  
BRANCH   5   6
HETATM    6  C   UNL     1     -12.689  10.463  71.123  1.00  0.00    -0.514 C  
BRANCH   6   7
HETATM    7  C   UNL     1     -12.722  11.995  71.183  1.00  0.00    -0.365 C  
BRANCH   7   8
HETATM    8  C   UNL     1     -13.660  12.546  72.266  1.00  0.00    -0.443 C  
BRANCH   8   9
HETATM    9  C   UNL     1     -13.859  14.063  72.176  1.00  0.00    -0.627 C  
BRANCH   9  10
HETATM   10  C   UNL     1     -12.863  14.837  73.043  1.00  0.00    -0.583 C  
BRANCH  10  11
HETATM   11  C   UNL     1     -11.836  15.610  72.209  1.00  0.00    -0.578 C  
BRANCH  11  12
HETATM   12  C   UNL     1     -12.181  15.652  70.715  1.00  0.00    -0.463 C  
BRANCH  12  13
HETATM   13  C   UNL     1     -10.954  15.537  69.802  1.00  0.00    -0.299 C  
BRANCH  13  14
HETATM   14  C   UNL     1     -11.324  15.914  68.367  1.00  0.00    -0.361 C  
BRANCH  14  15
HETATM   15  N   UNL     1     -10.786  14.959  67.306  1.00  0.00    -0.287 N  
HETATM   16  C   UNL     1      -9.649  14.100  67.847  1.00  0.00    -0.223 C  
HETATM   17  C   UNL     1     -10.324  15.710  66.064  1.00  0.00    -0.335 C  
HETATM   18  C   UNL     1     -11.944  14.028  66.918  1.00  0.00    -0.447 C  
ENDBRANCH  14  15
ENDBRANCH  13  14
ENDBRANCH  12  13
ENDBRANCH  11  12
ENDBRANCH  10  11
ENDBRANCH   9  10
ENDBRANCH   8   9
ENDBRANCH   7   8
ENDBRANCH   6   7
ENDBRANCH   5   6
ENDBRANCH   2   5
TORSDOF 11
ENDMDL
MODEL        6
REMARK 921   NORMALIZED FREE ENERGY PREDICTED BY IDOCK:   -4.28 KCAL/MOL
REMARK 922        TOTAL FREE ENERGY PREDICTED BY IDOCK:   -7.80 KCAL/MOL
REMARK 923 INTER-LIGAND FREE ENERGY PREDICTED BY IDOCK:   -7.01 KCAL/MOL
REMARK 924 INTRA-LIGAND FREE ENERGY PREDICTED BY IDOCK:   -0.79 KCAL/MOL
REMARK 927      BINDING AFFINITY PREDICTED BY RF-SCORE:    0.00 PKD
ROOT
HETATM    1  C   UNL     1     -12.504   8.240  72.354  1.00  0.00    -0.302 C  
HETATM    2  N   UNL     1     -11.331   8.666  71.463  1.00  0.00    -0.268 N  
HETATM    3  C   UNL     1     -11.235   7.702  70.287  1.00  0.00    -0.216 C  
HETATM    4  C   UNL     1     -10.056   8.603  72.291  1.00  0.00    -0.292 C  
ENDROOT
BRANCH   2   5
HETATM    5  C   UNL     1     -11.630  10.084  70.994  1.00  0.00    -0.393 C  
BRANCH   5   6
HETATM    6  C   UNL     1     -12.945  10.664  71.518  1.00  0.00    -0.566 C  
BRANCH   6   7
HETATM    7  C   UNL     1     -12.909  12.197  71.473  1.00  0.00    -0.394 C  
BRANCH   7   8
HETATM    8  C   UNL     1     -13.897  12.861  72.442  1.00  0.00    -0.443 C  
BRANCH   8   9
HETATM    9  C   UNL     1     -14.117  14.350  72.151  1.00  0.00    -0.627 C  
BRANCH   9  10
HETATM   10  C   UNL     1     -13.177  15.249  72.957  1.00  0.00    -0.617 C  
BRANCH  10  11
HETATM   11  C   UNL     1     -11.886  15.578  72.199  1.00  0.00    -0.551 C  
BRANCH  11  12
HETATM   12  C   UNL     1     -12.119  15.880  70.714  1.00  0.00    -0.393 C  
BRANCH  12  13
HETATM   13  C   UNL     1     -11.341  14.951  69.773  1.00  0.00    -0.314 C  
BRANCH  13  14
HETATM   14  C   UNL     1     -11.876  15.073  68.347  1.00  0.00    -0.270 C  
BRANCH  14  15
HETATM   15  N   UNL     1     -11.519  13.901  67.437  1.00  0.00    -0.329 N  
HETATM   16  C   UNL     1     -12.260  13.977  66.107  1.00  0.00    -0.465 C  
HETATM   17  C   UNL     1     -11.798  12.565  68.113  1.00  0.00    -0.317 C  
HETATM   18  C   UNL     1     -10.013  14.004  67.151  1.00  0.00    -0.252 C  
ENDBRANCH  14  15
ENDBRANCH  13  14
ENDBRANCH  12  13
ENDBRANCH  11  12
ENDBRANCH  10  11
ENDBRANCH   9  10
ENDBRANCH   8   9
ENDBRANCH   7   8
ENDBRANCH   6   7
ENDBRANCH   5   6
ENDBRANCH   2   5
TORSDOF 11
ENDMDL
MODEL        7
REMARK 921   NORMALIZED FREE ENERGY PREDICTED BY IDOCK:   -4.27 KCAL/MOL
REMARK 922        TOTAL FREE ENERGY PREDICTED BY IDOCK:   -7.79 KCAL/MOL
REMARK 923 INTER-LIGAND FREE ENERGY PREDICTED BY IDOCK:   -6.75 KCAL/MOL
REMARK 924 INTRA-LIGAND FREE ENERGY PREDICTED BY IDOCK:   -1.04 KCAL/MOL
REMARK 927      BINDING AFFINITY PREDICTED BY RF-SCORE:    0.00 PKD
ROOT
HETATM    1  C   UNL     1     -12.979   9.172  72.133  1.00  0.00    -0.425 C  
HETATM    2  N   UNL     1     -11.802   8.359  71.579  1.00  0.00    -0.284 N  
HETATM    3  C   UNL     1     -12.336   7.048  71.018  1.00  0.00    -0.356 C  
HETATM    4  C   UNL     1     -10.837   8.080  72.721  1.00  0.00    -0.369 C  
ENDROOT
BRANCH   2   5
HETATM    5  C   UNL     1     -11.158   9.207  70.491  1.00  0.00    -0.260 C  
BRANCH   5   6
HETATM    6  C   UNL     1     -11.589  10.675  70.487  1.00  0.00    -0.444 C  
BRANCH   6   7
HETATM    7  C   UNL     1     -12.084  11.083  69.094  1.00  0.00    -0.333 C  
BRANCH   7   8
HETATM    8  C   UNL     1     -11.072  10.798  67.977  1.00  0.00    -0.359 C  
BRANCH   8   9
HETATM    9  C   UNL     1     -10.769  12.026  67.110  1.00  0.00    -0.277 C  
BRANCH   9  10
HETATM   10  C   UNL     1     -11.868  13.088  67.195  1.00  0.00    -0.431 C  
BRANCH  10  11
HETATM   11  C   UNL     1     -11.305  14.499  67.400  1.00  0.00    -0.370 C  
BRANCH  11  12
HETATM   12  C   UNL     1     -11.124  14.868  68.877  1.00  0.00    -0.267 C  
BRANCH  12  13
HETATM   13  C   UNL     1     -12.387  14.656  69.719  1.00  0.00    -0.306 C  
BRANCH  13  14
HETATM   14  C   UNL     1     -12.015  14.415  71.182  1.00  0.00    -0.316 C  
BRANCH  14  15
HETATM   15  N   UNL     1     -13.193  14.471  72.151  1.00  0.00    -0.341 N  
HETATM   16  C   UNL     1     -14.328  15.329  71.605  1.00  0.00    -0.561 C  
HETATM   17  C   UNL     1     -12.764  14.985  73.519  1.00  0.00    -0.536 C  
HETATM   18  C   UNL     1     -13.711  13.034  72.303  1.00  0.00    -0.512 C  
ENDBRANCH  14  15
ENDBRANCH  13  14
ENDBRANCH  12  13
ENDBRANCH  11  12
ENDBRANCH  10  11
ENDBRANCH   9  10
ENDBRANCH   8   9
ENDBRANCH   7   8
ENDBRANCH   6   7
ENDBRANCH   5   6
ENDBRANCH   2   5
TORSDOF 11
ENDMDL
MODEL        8
REMARK 921   NORMALIZED FREE ENERGY PREDICTED BY IDOCK:   -4.21 KCAL/MOL
REMARK 922        TOTAL FREE ENERGY PREDICTED BY IDOCK:   -7.68 KCAL/MOL
REMARK 923 INTER-LIGAND FREE ENERGY PREDICTED BY IDOCK:   -7.12 KCAL/MOL
REMARK 924 INTRA-LIGAND FREE ENERGY PREDICTED BY IDOCK:   -0.56 KCAL/MOL
REMARK 927      BINDING AFFINITY PREDICTED BY RF-SCORE:    0.00 PKD
ROOT
HETATM    1  C   UNL     1     -10.292  13.077  64.333  1.00  0.00    -0.374 C  
HETATM    2  N   UNL     1     -11.799  13.152  64.612  1.00  0.00    -0.351 N  
HETATM    3  C   UNL     1     -12.508  12.123  63.742  1.00  0.00    -0.514 C  
HETATM    4  C   UNL     1     -12.279  14.551  64.257  1.00  0.00    -0.415 C  
ENDROOT
BRANCH   2   5
HETATM    5  C   UNL     1     -11.986  12.850  66.093  1.00  0.00    -0.429 C  
BRANCH   5   6
HETATM    6  C   UNL     1     -11.996  14.083  66.998  1.00  0.00    -0.472 C  
BRANCH   6   7
HETATM    7  C   UNL     1     -11.805  13.672  68.464  1.00  0.00    -0.406 C  
BRANCH   7   8
HETATM    8  C   UNL     1     -12.025  14.821  69.456  1.00  0.00    -0.351 C  
BRANCH   8   9
HETATM    9  C   UNL     1     -11.965  14.373  70.921  1.00  0.00    -0.393 C  
BRANCH   9  10
HETATM   10  C   UNL     1     -13.340  13.986  71.472  1.00  0.00    -0.422 C  
BRANCH  10  11
HETATM   11  C   UNL     1     -13.371  12.556  72.020  1.00  0.00    -0.528 C  
BRANCH  11  12
HETATM   12  C   UNL     1     -12.442  11.598  71.263  1.00  0.00    -0.371 C  
BRANCH  12  13
HETATM   13  C   UNL     1     -13.083  10.240  70.956  1.00  0.00    -0.458 C  
BRANCH  13  14
HETATM   14  C   UNL     1     -12.873   9.278  72.125  1.00  0.00    -0.408 C  
BRANCH  14  15
HETATM   15  N   UNL     1     -11.997   8.072  71.800  1.00  0.00    -0.286 N  
HETATM   16  C   UNL     1     -11.059   7.733  72.952  1.00  0.00    -0.398 C  
HETATM   17  C   UNL     1     -11.194   8.294  70.524  1.00  0.00    -0.239 C  
HETATM   18  C   UNL     1     -12.942   6.881  71.587  1.00  0.00    -0.307 C  
ENDBRANCH  14  15
ENDBRANCH  13  14
ENDBRANCH  12  13
ENDBRANCH  11  12
ENDBRANCH  10  11
ENDBRANCH   9  10
ENDBRANCH   8   9
ENDBRANCH   7   8
ENDBRANCH   6   7
ENDBRANCH   5   6
ENDBRANCH   2   5
TORSDOF 11
ENDMDL
MODEL        9
REMARK 921   NORMALIZED FREE ENERGY PREDICTED BY IDOCK:   -4.19 KCAL/MOL
REMARK 922        TOTAL FREE ENERGY PREDICTED BY IDOCK:   -7.65 KCAL/MOL
REMARK 923 INTER-LIGAND FREE ENERGY PREDICTED BY IDOCK:   -6.82 KCAL/MOL
REMARK 924 INTRA-LIGAND FREE ENERGY PREDICTED BY IDOCK:   -0.83 KCAL/MOL
REMARK 927      BINDING AFFINITY PREDICTED BY RF-SCORE:    0.00 PKD
ROOT
HETATM    1  C   UNL     1     -11.946  13.991  67.395  1.00  0.00    -0.404 C  
HETATM    2  N   UNL     1     -10.592  14.709  67.460  1.00  0.00    -0.255 N  
HETATM    3  C   UNL     1     -10.600  15.856  66.458  1.00  0.00    -0.297 C  
HETATM    4  C   UNL     1      -9.505  13.709  67.097  1.00  0.00    -0.244 C  
ENDROOT
BRANCH   2   5
HETATM    5  C   UNL     1     -10.436  15.220  68.886  1.00  0.00    -0.241 C  
BRANCH   5   6
HETATM    6  C   UNL     1     -11.743  15.648  69.557  1.00  0.00    -0.382 C  
BRANCH   6   7
HETATM    7  C   UNL     1     -11.487  16.060  71.012  1.00  0.00    -0.460 C  
BRANCH   7   8
HETATM    8  C   UNL     1     -12.625  15.677  71.966  1.00  0.00    -0.503 C  
BRANCH   8   9
HETATM    9  C   UNL     1     -13.461  14.494  71.464  1.00  0.00    -0.449 C  
BRANCH   9  10
HETATM   10  C   UNL     1     -13.659  13.420  72.536  1.00  0.00    -0.659 C  
BRANCH  10  11
HETATM   11  C   UNL     1     -13.265  12.022  72.046  1.00  0.00    -0.481 C  
BRANCH  11  12
HETATM   12  C   UNL     1     -12.290  12.050  70.862  1.00  0.00    -0.384 C  
BRANCH  12  13
HETATM   13  C   UNL     1     -11.791  10.660  70.449  1.00  0.00    -0.441 C  
BRANCH  13  14
HETATM   14  C   UNL     1     -12.031   9.655  71.575  1.00  0.00    -0.406 C  
BRANCH  14  15
HETATM   15  N   UNL     1     -11.086   8.457  71.565  1.00  0.00    -0.252 N  
HETATM   16  C   UNL     1     -11.482   7.439  70.502  1.00  0.00    -0.255 C  
HETATM   17  C   UNL     1     -11.022   7.786  72.930  1.00  0.00    -0.407 C  
HETATM   18  C   UNL     1      -9.691   8.996  71.213  1.00  0.00    -0.301 C  
ENDBRANCH  14  15
ENDBRANCH  13  14
ENDBRANCH  12  13
ENDBRANCH  11  12
ENDBRANCH  10  11
ENDBRANCH   9  10
ENDBRANCH   8   9
ENDBRANCH   7   8
ENDBRANCH   6   7
ENDBRANCH   5   6
ENDBRANCH   2   5
TORSDOF 11
ENDMDL
MODEL       10
REMARK 921   NORMALIZED FREE ENERGY PREDICTED BY IDOCK:   -4.16 KCAL/MOL
REMARK 922        TOTAL FREE ENERGY PREDICTED BY IDOCK:   -7.61 KCAL/MOL
REMARK 923 INTER-LIGAND FREE ENERGY PREDICTED BY IDOCK:   -6.85 KCAL/MOL
REMARK 924 INTRA-LIGAND FREE ENERGY PREDICTED BY IDOCK:   -0.76 KCAL/MOL
REMARK 927      BINDING AFFINITY PREDICTED BY RF-SCORE:    0.00 PKD
ROOT
HETATM    1  C   UNL     1     -10.748   8.723  71.992  1.00  0.00    -0.347 C  
HETATM    2  N   UNL     1     -10.278   9.084  70.577  1.00  0.00    -0.204 N  
HETATM    3  C   UNL     1     -10.684   7.964  69.627  1.00  0.00    -0.218 C  
HETATM    4  C   UNL     1      -8.764   9.223  70.599  1.00  0.00    -0.234 C  
ENDROOT
BRANCH   2   5
HETATM    5  C   UNL     1     -10.961  10.396  70.211  1.00  0.00    -0.284 C  
BRANCH   5   6
HETATM    6  C   UNL     1     -12.272  10.661  70.953  1.00  0.00    -0.497 C  
BRANCH   6   7
HETATM    7  C   UNL     1     -12.567  12.165  70.996  1.00  0.00    -0.359 C  
BRANCH   7   8
HETATM    8  C   UNL     1     -13.394  12.593  72.215  1.00  0.00    -0.527 C  
BRANCH   8   9
HETATM    9  C   UNL     1     -13.753  14.083  72.208  1.00  0.00    -0.646 C  
BRANCH   9  10
HETATM   10  C   UNL     1     -12.850  14.907  73.130  1.00  0.00    -0.619 C  
BRANCH  10  11
HETATM   11  C   UNL     1     -12.023  15.946  72.365  1.00  0.00    -0.620 C  
BRANCH  11  12
HETATM   12  C   UNL     1     -12.180  15.842  70.843  1.00  0.00    -0.458 C  
BRANCH  12  13
HETATM   13  C   UNL     1     -10.858  15.591  70.109  1.00  0.00    -0.346 C  
BRANCH  13  14
HETATM   14  C   UNL     1     -10.989  15.973  68.635  1.00  0.00    -0.323 C  
BRANCH  14  15
HETATM   15  N   UNL     1      -9.822  16.790  68.088  1.00  0.00    -0.256 N  
HETATM   16  C   UNL     1      -9.675  16.620  66.580  1.00  0.00    -0.266 C  
HETATM   17  C   UNL     1      -8.516  16.429  68.782  1.00  0.00    -0.249 C  
HETATM   18  C   UNL     1     -10.141  18.265  68.373  1.00  0.00    -0.391 C  
ENDBRANCH  14  15
ENDBRANCH  13  14
ENDBRANCH  12  13
ENDBRANCH  11  12
ENDBRANCH  10  11
ENDBRANCH   9  10
ENDBRANCH   8   9
ENDBRANCH   7   8
ENDBRANCH   6   7
ENDBRANCH   5   6
ENDBRANCH   2   5
TORSDOF 11
ENDMDL
MODEL       11
REMARK 921   NORMALIZED FREE ENERGY PREDICTED BY IDOCK:   -4.14 KCAL/MOL
REMARK 922        TOTAL FREE ENERGY PREDICTED BY IDOCK:   -7.57 KCAL/MOL
REMARK 923 INTER-LIGAND FREE ENERGY PREDICTED BY IDOCK:   -7.05 KCAL/MOL
REMARK 924 INTRA-LIGAND FREE ENERGY PREDICTED BY IDOCK:   -0.52 KCAL/MOL
REMARK 927      BINDING AFFINITY PREDICTED BY RF-SCORE:    0.00 PKD
ROOT
HETATM    1  C   UNL     1      -9.321  17.059  66.707  1.00  0.00    -0.252 C  
HETATM    2  N   UNL     1      -9.837  18.028  67.777  1.00  0.00    -0.293 N  
HETATM    3  C   UNL     1     -10.715  19.075  67.105  1.00  0.00    -0.456 C  
HETATM    4  C   UNL     1      -8.638  18.699  68.431  1.00  0.00    -0.337 C  
ENDROOT
BRANCH   2   5
HETATM    5  C   UNL     1     -10.631  17.195  68.775  1.00  0.00    -0.336 C  
BRANCH   5   6
HETATM    6  C   UNL     1     -10.856  15.742  68.355  1.00  0.00    -0.297 C  
BRANCH   6   7
HETATM    7  C   UNL     1     -11.818  15.047  69.327  1.00  0.00    -0.344 C  
BRANCH   7   8
HETATM    8  C   UNL     1     -11.938  15.758  70.682  1.00  0.00    -0.426 C  
BRANCH   8   9
HETATM    9  C   UNL     1     -13.233  15.419  71.429  1.00  0.00    -0.578 C  
BRANCH   9  10
HETATM   10  C   UNL     1     -13.017  14.386  72.537  1.00  0.00    -0.501 C  
BRANCH  10  11
HETATM   11  C   UNL     1     -13.710  13.052  72.239  1.00  0.00    -0.608 C  
BRANCH  11  12
HETATM   12  C   UNL     1     -12.842  12.089  71.420  1.00  0.00    -0.391 C  
BRANCH  12  13
HETATM   13  C   UNL     1     -13.027  10.618  71.809  1.00  0.00    -0.577 C  
BRANCH  13  14
HETATM   14  C   UNL     1     -11.857   9.782  71.293  1.00  0.00    -0.399 C  
BRANCH  14  15
HETATM   15  N   UNL     1     -11.964   8.290  71.596  1.00  0.00    -0.288 N  
HETATM   16  C   UNL     1     -13.416   7.826  71.626  1.00  0.00    -0.349 C  
HETATM   17  C   UNL     1     -11.279   7.939  72.911  1.00  0.00    -0.366 C  
HETATM   18  C   UNL     1     -11.250   7.553  70.454  1.00  0.00    -0.253 C  
ENDBRANCH  14  15
ENDBRANCH  13  14
ENDBRANCH  12  13
ENDBRANCH  11  12
ENDBRANCH  10  11
ENDBRANCH   9  10
ENDBRANCH   8   9
ENDBRANCH   7   8
ENDBRANCH   6   7
ENDBRANCH   5   6
ENDBRANCH   2   5
TORSDOF 11
ENDMDL
MODEL       12
REMARK 921   NORMALIZED FREE ENERGY PREDICTED BY IDOCK:   -4.13 KCAL/MOL
REMARK 922        TOTAL FREE ENERGY PREDICTED BY IDOCK:   -7.55 KCAL/MOL
REMARK 923 INTER-LIGAND FREE ENERGY PREDICTED BY IDOCK:   -6.66 KCAL/MOL
REMARK 924 INTRA-LIGAND FREE ENERGY PREDICTED BY IDOCK:   -0.89 KCAL/MOL
REMARK 927      BINDING AFFINITY PREDICTED BY RF-SCORE:    0.00 PKD
ROOT
HETATM    1  C   UNL     1     -10.450  13.519  64.631  1.00  0.00    -0.421 C  
HETATM    2  N   UNL     1     -11.769  12.930  65.145  1.00  0.00    -0.331 N  
HETATM    3  C   UNL     1     -12.398  12.099  64.033  1.00  0.00    -0.451 C  
HETATM    4  C   UNL     1     -12.692  14.080  65.517  1.00  0.00    -0.486 C  
ENDROOT
BRANCH   2   5
HETATM    5  C   UNL     1     -11.424  12.069  66.353  1.00  0.00    -0.353 C  
BRANCH   5   6
HETATM    6  C   UNL     1     -11.646  12.751  67.704  1.00  0.00    -0.412 C  
BRANCH   6   7
HETATM    7  C   UNL     1     -11.861  11.702  68.803  1.00  0.00    -0.387 C  
BRANCH   7   8
HETATM    8  C   UNL     1     -11.937  12.300  70.214  1.00  0.00    -0.373 C  
BRANCH   8   9
HETATM    9  C   UNL     1     -12.636  13.664  70.254  1.00  0.00    -0.253 C  
BRANCH   9  10
HETATM   10  C   UNL     1     -12.090  14.569  71.362  1.00  0.00    -0.420 C  
BRANCH  10  11
HETATM   11  C   UNL     1     -11.553  15.898  70.822  1.00  0.00    -0.441 C  
BRANCH  11  12
HETATM   12  C   UNL     1     -10.419  15.723  69.804  1.00  0.00    -0.318 C  
BRANCH  12  13
HETATM   13  C   UNL     1     -10.656  16.479  68.491  1.00  0.00    -0.318 C  
BRANCH  13  14
HETATM   14  C   UNL     1     -10.298  17.955  68.657  1.00  0.00    -0.337 C  
BRANCH  14  15
HETATM   15  N   UNL     1      -9.666  18.595  67.424  1.00  0.00    -0.299 N  
HETATM   16  C   UNL     1      -8.386  19.345  67.774  1.00  0.00    -0.305 C  
HETATM   17  C   UNL     1     -10.641  19.529  66.720  1.00  0.00    -0.488 C  
HETATM   18  C   UNL     1      -9.302  17.449  66.468  1.00  0.00    -0.270 C  
ENDBRANCH  14  15
ENDBRANCH  13  14
ENDBRANCH  12  13
ENDBRANCH  11  12
ENDBRANCH  10  11
ENDBRANCH   9  10
ENDBRANCH   8   9
ENDBRANCH   7   8
ENDBRANCH   6   7
ENDBRANCH   5   6
ENDBRANCH   2   5
TORSDOF 11
ENDMDL
MODEL       13
REMARK 921   NORMALIZED FREE ENERGY PREDICTED BY IDOCK:   -4.13 KCAL/MOL
REMARK 922        TOTAL FREE ENERGY PREDICTED BY IDOCK:   -7.55 KCAL/MOL
REMARK 923 INTER-LIGAND FREE ENERGY PREDICTED BY IDOCK:   -6.87 KCAL/MOL
REMARK 924 INTRA-LIGAND FREE ENERGY PREDICTED BY IDOCK:   -0.68 KCAL/MOL
REMARK 927      BINDING AFFINITY PREDICTED BY RF-SCORE:    0.00 PKD
ROOT
HETATM    1  C   UNL     1     -12.684   7.139  71.656  1.00  0.00    -0.379 C  
HETATM    2  N   UNL     1     -11.212   7.437  71.967  1.00  0.00    -0.243 N  
HETATM    3  C   UNL     1     -10.343   6.745  70.925  1.00  0.00    -0.199 C  
HETATM    4  C   UNL     1     -10.898   6.890  73.351  1.00  0.00    -0.273 C  
ENDROOT
BRANCH   2   5
HETATM    5  C   UNL     1     -11.050   8.950  71.909  1.00  0.00    -0.372 C  
BRANCH   5   6
HETATM    6  C   UNL     1     -12.319   9.713  71.522  1.00  0.00    -0.477 C  
BRANCH   6   7
HETATM    7  C   UNL     1     -12.006  10.757  70.443  1.00  0.00    -0.448 C  
BRANCH   7   8
HETATM    8  C   UNL     1     -12.647  12.126  70.712  1.00  0.00    -0.305 C  
BRANCH   8   9
HETATM    9  C   UNL     1     -13.313  12.220  72.089  1.00  0.00    -0.473 C  
BRANCH   9  10
HETATM   10  C   UNL     1     -13.936  13.594  72.346  1.00  0.00    -0.651 C  
BRANCH  10  11
HETATM   11  C   UNL     1     -12.960  14.564  73.019  1.00  0.00    -0.596 C  
BRANCH  11  12
HETATM   12  C   UNL     1     -12.680  15.818  72.181  1.00  0.00    -0.520 C  
BRANCH  12  13
HETATM   13  C   UNL     1     -11.541  15.635  71.170  1.00  0.00    -0.462 C  
BRANCH  13  14
HETATM   14  C   UNL     1     -12.094  15.623  69.745  1.00  0.00    -0.326 C  
BRANCH  14  15
HETATM   15  N   UNL     1     -11.028  15.688  68.655  1.00  0.00    -0.277 N  
HETATM   16  C   UNL     1      -9.710  15.083  69.121  1.00  0.00    -0.212 C  
HETATM   17  C   UNL     1     -10.805  17.118  68.179  1.00  0.00    -0.316 C  
HETATM   18  C   UNL     1     -11.548  14.851  67.477  1.00  0.00    -0.339 C  
ENDBRANCH  14  15
ENDBRANCH  13  14
ENDBRANCH  12  13
ENDBRANCH  11  12
ENDBRANCH  10  11
ENDBRANCH   9  10
ENDBRANCH   8   9
ENDBRANCH   7   8
ENDBRANCH   6   7
ENDBRANCH   5   6
ENDBRANCH   2   5
TORSDOF 11
ENDMDL
MODEL       14
REMARK 921   NORMALIZED FREE ENERGY PREDICTED BY IDOCK:   -4.12 KCAL/MOL
REMARK 922        TOTAL FREE ENERGY PREDICTED BY IDOCK:   -7.54 KCAL/MOL
REMARK 923 INTER-LIGAND FREE ENERGY PREDICTED BY IDOCK:   -6.75 KCAL/MOL
REMARK 924 INTRA-LIGAND FREE ENERGY PREDICTED BY IDOCK:   -0.79 KCAL/MOL
REMARK 927      BINDING AFFINITY PREDICTED BY RF-SCORE:    0.00 PKD
ROOT
HETATM    1  C   UNL     1     -13.525  13.098  72.339  1.00  0.00    -0.543 C  
HETATM    2  N   UNL     1     -13.096  14.471  71.808  1.00  0.00    -0.327 N  
HETATM    3  C   UNL     1     -12.054  15.056  72.753  1.00  0.00    -0.326 C  
HETATM    4  C   UNL     1     -14.322  15.370  71.767  1.00  0.00    -0.531 C  
ENDROOT
BRANCH   2   5
HETATM    5  C   UNL     1     -12.517  14.242  70.418  1.00  0.00    -0.362 C  
BRANCH   5   6
HETATM    6  C   UNL     1     -12.095  12.799  70.134  1.00  0.00    -0.370 C  
BRANCH   6   7
HETATM    7  C   UNL     1     -11.222  12.736  68.874  1.00  0.00    -0.332 C  
BRANCH   7   8
HETATM    8  C   UNL     1     -11.699  11.698  67.850  1.00  0.00    -0.329 C  
BRANCH   8   9
HETATM    9  C   UNL     1     -11.062  11.877  66.468  1.00  0.00    -0.357 C  
BRANCH   9  10
HETATM   10  C   UNL     1     -12.064  12.366  65.419  1.00  0.00    -0.428 C  
BRANCH  10  11
HETATM   11  C   UNL     1     -12.349  13.867  65.536  1.00  0.00    -0.506 C  
BRANCH  11  12
HETATM   12  C   UNL     1     -11.358  14.733  64.749  1.00  0.00    -0.399 C  
BRANCH  12  13
HETATM   13  C   UNL     1     -10.132  15.156  65.569  1.00  0.00    -0.402 C  
BRANCH  13  14
HETATM   14  C   UNL     1     -10.570  15.761  66.902  1.00  0.00    -0.317 C  
BRANCH  14  15
HETATM   15  N   UNL     1     -10.017  17.157  67.173  1.00  0.00    -0.275 N  
HETATM   16  C   UNL     1     -10.369  17.638  68.576  1.00  0.00    -0.370 C  
HETATM   17  C   UNL     1     -10.512  18.161  66.140  1.00  0.00    -0.364 C  
HETATM   18  C   UNL     1      -8.489  17.057  67.071  1.00  0.00    -0.210 C  
ENDBRANCH  14  15
ENDBRANCH  13  14
ENDBRANCH  12  13
ENDBRANCH  11  12
ENDBRANCH  10  11
ENDBRANCH   9  10
ENDBRANCH   8   9
ENDBRANCH   7   8
ENDBRANCH   6   7
ENDBRANCH   5   6
ENDBRANCH   2   5
TORSDOF 11
ENDMDL
MODEL       15
REMARK 921   NORMALIZED FREE ENERGY PREDICTED BY IDOCK:   -4.09 KCAL/MOL
REMARK 922        TOTAL FREE ENERGY PREDICTED BY IDOCK:   -7.49 KCAL/MOL
REMARK 923 INTER-LIGAND FREE ENERGY PREDICTED BY IDOCK:   -6.95 KCAL/MOL
REMARK 924 INTRA-LIGAND FREE ENERGY PREDICTED BY IDOCK:   -0.55 KCAL/MOL
REMARK 927      BINDING AFFINITY PREDICTED BY RF-SCORE:    0.00 PKD
ROOT
HETATM    1  C   UNL     1     -10.791   8.047  72.624  1.00  0.00    -0.368 C  
HETATM    2  N   UNL     1     -11.681   8.337  71.409  1.00  0.00    -0.279 N  
HETATM    3  C   UNL     1     -13.088   7.835  71.703  1.00  0.00    -0.345 C  
HETATM    4  C   UNL     1     -11.106   7.598  70.211  1.00  0.00    -0.244 C  
ENDROOT
BRANCH   2   5
HETATM    5  C   UNL     1     -11.662   9.846  71.203  1.00  0.00    -0.396 C  
BRANCH   5   6
HETATM    6  C   UNL     1     -12.943  10.564  71.632  1.00  0.00    -0.581 C  
BRANCH   6   7
HETATM    7  C   UNL     1     -12.874  12.049  71.256  1.00  0.00    -0.364 C  
BRANCH   7   8
HETATM    8  C   UNL     1     -13.490  12.977  72.312  1.00  0.00    -0.645 C  
BRANCH   8   9
HETATM    9  C   UNL     1     -13.558  14.441  71.863  1.00  0.00    -0.491 C  
BRANCH   9  10
HETATM   10  C   UNL     1     -12.283  15.218  72.202  1.00  0.00    -0.457 C  
BRANCH  10  11
HETATM   11  C   UNL     1     -11.339  15.349  71.002  1.00  0.00    -0.411 C  
BRANCH  11  12
HETATM   12  C   UNL     1     -12.049  15.181  69.654  1.00  0.00    -0.336 C  
BRANCH  12  13
HETATM   13  C   UNL     1     -11.409  15.992  68.521  1.00  0.00    -0.382 C  
BRANCH  13  14
HETATM   14  C   UNL     1     -10.517  17.092  69.095  1.00  0.00    -0.323 C  
BRANCH  14  15
HETATM   15  N   UNL     1      -9.847  17.974  68.046  1.00  0.00    -0.307 N  
HETATM   16  C   UNL     1      -8.491  18.481  68.521  1.00  0.00    -0.329 C  
HETATM   17  C   UNL     1     -10.735  19.148  67.657  1.00  0.00    -0.417 C  
HETATM   18  C   UNL     1      -9.620  17.095  66.807  1.00  0.00    -0.270 C  
ENDBRANCH  14  15
ENDBRANCH  13  14
ENDBRANCH  12  13
ENDBRANCH  11  12
ENDBRANCH  10  11
ENDBRANCH   9  10
ENDBRANCH   8   9
ENDBRANCH   7   8
ENDBRANCH   6   7
ENDBRANCH   5   6
ENDBRANCH   2   5
TORSDOF 11
ENDMDL
MODEL       16
REMARK 921   NORMALIZED FREE ENERGY PREDICTED BY IDOCK:   -4.08 KCAL/MOL
REMARK 922        TOTAL FREE ENERGY PREDICTED BY IDOCK:   -7.47 KCAL/MOL
REMARK 923 INTER-LIGAND FREE ENERGY PREDICTED BY IDOCK:   -6.57 KCAL/MOL
REMARK 924 INTRA-LIGAND FREE ENERGY PREDICTED BY IDOCK:   -0.90 KCAL/MOL
REMARK 927      BINDING AFFINITY PREDICTED BY RF-SCORE:    0.00 PKD
ROOT
HETATM    1  C   UNL     1     -10.010  14.160  68.375  1.00  0.00    -0.235 C  
HETATM    2  N   UNL     1     -11.122  15.046  67.799  1.00  0.00    -0.299 N  
HETATM    3  C   UNL     1     -12.060  14.177  66.971  1.00  0.00    -0.414 C  
HETATM    4  C   UNL     1     -10.478  16.103  66.915  1.00  0.00    -0.300 C  
ENDROOT
BRANCH   2   5
HETATM    5  C   UNL     1     -11.845  15.668  68.987  1.00  0.00    -0.364 C  
BRANCH   5   6
HETATM    6  C   UNL     1     -11.018  15.736  70.272  1.00  0.00    -0.368 C  
BRANCH   6   7
HETATM    7  C   UNL     1     -11.924  16.027  71.475  1.00  0.00    -0.539 C  
BRANCH   7   8
HETATM    8  C   UNL     1     -13.261  15.276  71.431  1.00  0.00    -0.555 C  
BRANCH   8   9
HETATM    9  C   UNL     1     -13.483  14.367  72.645  1.00  0.00    -0.605 C  
BRANCH   9  10
HETATM   10  C   UNL     1     -13.612  12.892  72.257  1.00  0.00    -0.611 C  
BRANCH  10  11
HETATM   11  C   UNL     1     -12.867  12.560  70.960  1.00  0.00    -0.246 C  
BRANCH  11  12
HETATM   12  C   UNL     1     -12.484  11.079  70.846  1.00  0.00    -0.509 C  
BRANCH  12  13
HETATM   13  C   UNL     1     -11.213  10.838  70.024  1.00  0.00    -0.366 C  
BRANCH  13  14
HETATM   14  C   UNL     1     -11.541  10.834  68.531  1.00  0.00    -0.255 C  
BRANCH  14  15
HETATM   15  N   UNL     1     -10.426  10.291  67.641  1.00  0.00    -0.220 N  
HETATM   16  C   UNL     1     -10.414  10.971  66.277  1.00  0.00    -0.254 C  
HETATM   17  C   UNL     1     -10.535   8.782  67.470  1.00  0.00    -0.271 C  
HETATM   18  C   UNL     1      -9.100  10.613  68.346  1.00  0.00    -0.156 C  
ENDBRANCH  14  15
ENDBRANCH  13  14
ENDBRANCH  12  13
ENDBRANCH  11  12
ENDBRANCH  10  11
ENDBRANCH   9  10
ENDBRANCH   8   9
ENDBRANCH   7   8
ENDBRANCH   6   7
ENDBRANCH   5   6
ENDBRANCH   2   5
TORSDOF 11
ENDMDL
MODEL       17
REMARK 921   NORMALIZED FREE ENERGY PREDICTED BY IDOCK:   -4.06 KCAL/MOL
REMARK 922        TOTAL FREE ENERGY PREDICTED BY IDOCK:   -7.44 KCAL/MOL
REMARK 923 INTER-LIGAND FREE ENERGY PREDICTED BY IDOCK:   -6.21 KCAL/MOL
REMARK 924 INTRA-LIGAND FREE ENERGY PREDICTED BY IDOCK:   -1.24 KCAL/MOL
REMARK 927      BINDING AFFINITY PREDICTED BY RF-SCORE:    0.00 PKD
ROOT
HETATM    1  C   UNL     1      -7.928  17.890  66.421  1.00  0.00    -0.267 C  
HETATM    2  N   UNL     1      -9.304  17.282  66.720  1.00  0.00    -0.250 N  
HETATM    3  C   UNL     1     -10.372  18.141  66.056  1.00  0.00    -0.353 C  
HETATM    4  C   UNL     1      -9.505  17.278  68.227  1.00  0.00    -0.283 C  
ENDROOT
BRANCH   2   5
HETATM    5  C   UNL     1      -9.292  15.870  66.148  1.00  0.00    -0.350 C  
BRANCH   5   6
HETATM    6  C   UNL     1     -10.557  15.484  65.379  1.00  0.00    -0.428 C  
BRANCH   6   7
HETATM    7  C   UNL     1     -11.485  14.642  66.265  1.00  0.00    -0.351 C  
BRANCH   7   8
HETATM    8  C   UNL     1     -12.490  13.797  65.471  1.00  0.00    -0.548 C  
BRANCH   8   9
HETATM    9  C   UNL     1     -12.243  13.830  63.958  1.00  0.00    -0.429 C  
BRANCH   9  10
HETATM   10  C   UNL     1     -11.991  12.438  63.375  1.00  0.00    -0.595 C  
BRANCH  10  11
HETATM   11  C   UNL     1     -10.510  12.046  63.411  1.00  0.00    -0.474 C  
BRANCH  11  12
HETATM   12  C   UNL     1     -10.211  10.901  64.387  1.00  0.00    -0.423 C  
BRANCH  12  13
HETATM   13  C   UNL     1      -9.715  11.379  65.757  1.00  0.00    -0.263 C  
BRANCH  13  14
HETATM   14  C   UNL     1     -10.611  10.830  66.866  1.00  0.00    -0.258 C  
BRANCH  14  15
HETATM   15  N   UNL     1     -10.351  11.431  68.244  1.00  0.00    -0.186 N  
HETATM   16  C   UNL     1     -11.610  12.058  68.830  1.00  0.00    -0.321 C  
HETATM   17  C   UNL     1      -9.229  12.460  68.199  1.00  0.00    -0.205 C  
HETATM   18  C   UNL     1      -9.923  10.274  69.159  1.00  0.00    -0.222 C  
ENDBRANCH  14  15
ENDBRANCH  13  14
ENDBRANCH  12  13
ENDBRANCH  11  12
ENDBRANCH  10  11
ENDBRANCH   9  10
ENDBRANCH   8   9
ENDBRANCH   7   8
ENDBRANCH   6   7
ENDBRANCH   5   6
ENDBRANCH   2   5
TORSDOF 11
ENDMDL
MODEL       18
REMARK 921   NORMALIZED FREE ENERGY PREDICTED BY IDOCK:   -4.03 KCAL/MOL
REMARK 922        TOTAL FREE ENERGY PREDICTED BY IDOCK:   -7.39 KCAL/MOL
REMARK 923 INTER-LIGAND FREE ENERGY PREDICTED BY IDOCK:   -6.66 KCAL/MOL
REMARK 924 INTRA-LIGAND FREE ENERGY PREDICTED BY IDOCK:   -0.72 KCAL/MOL
REMARK 927      BINDING AFFINITY PREDICTED BY RF-SCORE:    0.00 PKD
ROOT
HETATM    1  C   UNL     1      -9.483  17.333  68.428  1.00  0.00    -0.283 C  
HETATM    2  N   UNL     1      -9.600  17.199  66.905  1.00  0.00    -0.253 N  
HETATM    3  C   UNL     1      -8.202  17.230  66.303  1.00  0.00    -0.267 C  
HETATM    4  C   UNL     1     -10.415  18.373  66.385  1.00  0.00    -0.383 C  
ENDROOT
BRANCH   2   5
HETATM    5  C   UNL     1     -10.291  15.869  66.635  1.00  0.00    -0.300 C  
BRANCH   5   6
HETATM    6  C   UNL     1     -10.780  15.685  65.197  1.00  0.00    -0.463 C  
BRANCH   6   7
HETATM    7  C   UNL     1     -10.607  14.226  64.756  1.00  0.00    -0.434 C  
BRANCH   7   8
HETATM    8  C   UNL     1     -11.910  13.572  64.277  1.00  0.00    -0.471 C  
BRANCH   8   9
HETATM    9  C   UNL     1     -12.467  12.541  65.265  1.00  0.00    -0.390 C  
BRANCH   9  10
HETATM   10  C   UNL     1     -11.454  12.161  66.347  1.00  0.00    -0.430 C  
BRANCH  10  11
HETATM   11  C   UNL     1     -11.879  12.634  67.741  1.00  0.00    -0.381 C  
BRANCH  11  12
HETATM   12  C   UNL     1     -11.884  11.511  68.785  1.00  0.00    -0.394 C  
BRANCH  12  13
HETATM   13  C   UNL     1     -12.142  12.006  70.214  1.00  0.00    -0.395 C  
BRANCH  13  14
HETATM   14  C   UNL     1     -12.006  13.527  70.280  1.00  0.00    -0.316 C  
BRANCH  14  15
HETATM   15  N   UNL     1     -12.709  14.172  71.471  1.00  0.00    -0.341 N  
HETATM   16  C   UNL     1     -11.739  14.983  72.323  1.00  0.00    -0.330 C  
HETATM   17  C   UNL     1     -13.413  13.132  72.332  1.00  0.00    -0.543 C  
HETATM   18  C   UNL     1     -13.760  15.134  70.899  1.00  0.00    -0.288 C  
ENDBRANCH  14  15
ENDBRANCH  13  14
ENDBRANCH  12  13
ENDBRANCH  11  12
ENDBRANCH  10  11
ENDBRANCH   9  10
ENDBRANCH   8   9
ENDBRANCH   7   8
ENDBRANCH   6   7
ENDBRANCH   5   6
ENDBRANCH   2   5
TORSDOF 11
ENDMDL
MODEL       19
REMARK 921   NORMALIZED FREE ENERGY PREDICTED BY IDOCK:   -4.01 KCAL/MOL
REMARK 922        TOTAL FREE ENERGY PREDICTED BY IDOCK:   -7.36 KCAL/MOL
REMARK 923 INTER-LIGAND FREE ENERGY PREDICTED BY IDOCK:   -6.44 KCAL/MOL
REMARK 924 INTRA-LIGAND FREE ENERGY PREDICTED BY IDOCK:   -0.93 KCAL/MOL
REMARK 927      BINDING AFFINITY PREDICTED BY RF-SCORE:    0.00 PKD
ROOT
HETATM    1  C   UNL     1      -8.392  18.808  66.553  1.00  0.00    -0.297 C  
HETATM    2  N   UNL     1      -9.865  18.935  66.961  1.00  0.00    -0.310 N  
HETATM    3  C   UNL     1     -10.616  19.667  65.856  1.00  0.00    -0.466 C  
HETATM    4  C   UNL     1      -9.935  19.734  68.253  1.00  0.00    -0.444 C  
ENDROOT
BRANCH   2   5
HETATM    5  C   UNL     1     -10.392  17.518  67.144  1.00  0.00    -0.330 C  
BRANCH   5   6
HETATM    6  C   UNL     1      -9.811  16.491  66.171  1.00  0.00    -0.355 C  
BRANCH   6   7
HETATM    7  C   UNL     1     -10.891  16.011  65.194  1.00  0.00    -0.411 C  
BRANCH   7   8
HETATM    8  C   UNL     1     -10.733  14.541  64.779  1.00  0.00    -0.414 C  
BRANCH   8   9
HETATM    9  C   UNL     1     -12.007  13.945  64.171  1.00  0.00    -0.464 C  
BRANCH   9  10
HETATM   10  C   UNL     1     -11.771  12.566  63.551  1.00  0.00    -0.595 C  
BRANCH  10  11
HETATM   11  C   UNL     1     -10.309  12.119  63.656  1.00  0.00    -0.482 C  
BRANCH  11  12
HETATM   12  C   UNL     1     -10.155  10.629  63.987  1.00  0.00    -0.378 C  
BRANCH  12  13
HETATM   13  C   UNL     1     -10.132  10.337  65.492  1.00  0.00    -0.351 C  
BRANCH  13  14
HETATM   14  C   UNL     1      -9.396  11.450  66.237  1.00  0.00    -0.212 C  
BRANCH  14  15
HETATM   15  N   UNL     1     -10.009  11.820  67.585  1.00  0.00    -0.191 N  
HETATM   16  C   UNL     1      -9.688  10.780  68.652  1.00  0.00    -0.186 C  
HETATM   17  C   UNL     1     -11.517  12.008  67.478  1.00  0.00    -0.333 C  
HETATM   18  C   UNL     1      -9.374  13.152  68.010  1.00  0.00    -0.219 C  
ENDBRANCH  14  15
ENDBRANCH  13  14
ENDBRANCH  12  13
ENDBRANCH  11  12
ENDBRANCH  10  11
ENDBRANCH   9  10
ENDBRANCH   8   9
ENDBRANCH   7   8
ENDBRANCH   6   7
ENDBRANCH   5   6
ENDBRANCH   2   5
TORSDOF 11
ENDMDL
MODEL       20
REMARK 921   NORMALIZED FREE ENERGY PREDICTED BY IDOCK:   -4.01 KCAL/MOL
REMARK 922        TOTAL FREE ENERGY PREDICTED BY IDOCK:   -7.36 KCAL/MOL
REMARK 923 INTER-LIGAND FREE ENERGY PREDICTED BY IDOCK:   -6.70 KCAL/MOL
REMARK 924 INTRA-LIGAND FREE ENERGY PREDICTED BY IDOCK:   -0.66 KCAL/MOL
REMARK 927      BINDING AFFINITY PREDICTED BY RF-SCORE:    0.00 PKD
ROOT
HETATM    1  C   UNL     1     -10.634  14.250  64.923  1.00  0.00    -0.431 C  
HETATM    2  N   UNL     1     -11.433  13.244  65.760  1.00  0.00    -0.315 N  
HETATM    3  C   UNL     1     -10.481  12.172  66.273  1.00  0.00    -0.239 C  
HETATM    4  C   UNL     1     -12.490  12.614  64.866  1.00  0.00    -0.494 C  
ENDROOT
BRANCH   2   5
HETATM    5  C   UNL     1     -12.058  14.027  66.907  1.00  0.00    -0.430 C  
BRANCH   5   6
HETATM    6  C   UNL     1     -11.067  14.494  67.974  1.00  0.00    -0.289 C  
BRANCH   6   7
HETATM    7  C   UNL     1     -11.787  14.721  69.309  1.00  0.00    -0.352 C  
BRANCH   7   8
HETATM    8  C   UNL     1     -12.113  13.422  70.058  1.00  0.00    -0.404 C  
BRANCH   8   9
HETATM    9  C   UNL     1     -12.876  13.655  71.367  1.00  0.00    -0.442 C  
BRANCH   9  10
HETATM   10  C   UNL     1     -13.366  12.351  72.000  1.00  0.00    -0.511 C  
BRANCH  10  11
HETATM   11  C   UNL     1     -12.672  11.117  71.414  1.00  0.00    -0.524 C  
BRANCH  11  12
HETATM   12  C   UNL     1     -13.410   9.807  71.717  1.00  0.00    -0.506 C  
BRANCH  12  13
HETATM   13  C   UNL     1     -12.479   8.670  72.157  1.00  0.00    -0.453 C  
BRANCH  13  14
HETATM   14  C   UNL     1     -11.054   8.935  71.674  1.00  0.00    -0.350 C  
BRANCH  14  15
HETATM   15  N   UNL     1     -10.572   7.989  70.578  1.00  0.00    -0.216 N  
HETATM   16  C   UNL     1     -11.549   6.839  70.360  1.00  0.00    -0.367 C  
HETATM   17  C   UNL     1      -9.185   7.441  70.886  1.00  0.00    -0.154 C  
HETATM   18  C   UNL     1     -10.503   8.809  69.282  1.00  0.00    -0.219 C  
ENDBRANCH  14  15
ENDBRANCH  13  14
ENDBRANCH  12  13
ENDBRANCH  11  12
ENDBRANCH  10  11
ENDBRANCH   9  10
ENDBRANCH   8   9
ENDBRANCH   7   8
ENDBRANCH   6   7
ENDBRANCH   5   6
ENDBRANCH   2   5
TORSDOF 11
ENDMDL
MODEL       21
REMARK 921   NORMALIZED FREE ENERGY PREDICTED BY IDOCK:   -4.01 KCAL/MOL
REMARK 922        TOTAL FREE ENERGY PREDICTED BY IDOCK:   -7.36 KCAL/MOL
REMARK 923 INTER-LIGAND FREE ENERGY PREDICTED BY IDOCK:   -6.78 KCAL/MOL
REMARK 924 INTRA-LIGAND FREE ENERGY PREDICTED BY IDOCK:   -0.57 KCAL/MOL
REMARK 927      BINDING AFFINITY PREDICTED BY RF-SCORE:    0.00 PKD
ROOT
HETATM    1  C   UNL     1     -13.444   7.633  71.654  1.00  0.00    -0.358 C  
HETATM    2  N   UNL     1     -11.922   7.781  71.528  1.00  0.00    -0.290 N  
HETATM    3  C   UNL     1     -11.481   7.171  70.204  1.00  0.00    -0.205 C  
HETATM    4  C   UNL     1     -11.274   7.037  72.685  1.00  0.00    -0.272 C  
ENDROOT
BRANCH   2   5
HETATM    5  C   UNL     1     -11.622   9.274  71.578  1.00  0.00    -0.382 C  
BRANCH   5   6
HETATM    6  C   UNL     1     -12.860  10.172  71.595  1.00  0.00    -0.559 C  
BRANCH   6   7
HETATM    7  C   UNL     1     -12.464  11.633  71.347  1.00  0.00    -0.314 C  
BRANCH   7   8
HETATM    8  C   UNL     1     -13.357  12.643  72.079  1.00  0.00    -0.555 C  
BRANCH   8   9
HETATM    9  C   UNL     1     -13.049  14.099  71.710  1.00  0.00    -0.434 C  
BRANCH   9  10
HETATM   10  C   UNL     1     -11.808  14.229  70.825  1.00  0.00    -0.336 C  
BRANCH  10  11
HETATM   11  C   UNL     1     -12.148  14.682  69.401  1.00  0.00    -0.317 C  
BRANCH  11  12
HETATM   12  C   UNL     1     -11.921  13.589  68.349  1.00  0.00    -0.378 C  
BRANCH  12  13
HETATM   13  C   UNL     1     -12.161  14.067  66.911  1.00  0.00    -0.465 C  
BRANCH  13  14
HETATM   14  C   UNL     1     -12.142  12.879  65.949  1.00  0.00    -0.444 C  
BRANCH  14  15
HETATM   15  N   UNL     1     -11.282  13.088  64.706  1.00  0.00    -0.306 N  
HETATM   16  C   UNL     1     -10.404  14.327  64.833  1.00  0.00    -0.401 C  
HETATM   17  C   UNL     1     -12.134  13.181  63.448  1.00  0.00    -0.486 C  
HETATM   18  C   UNL     1     -10.364  11.862  64.592  1.00  0.00    -0.284 C  
ENDBRANCH  14  15
ENDBRANCH  13  14
ENDBRANCH  12  13
ENDBRANCH  11  12
ENDBRANCH  10  11
ENDBRANCH   9  10
ENDBRANCH   8   9
ENDBRANCH   7   8
ENDBRANCH   6   7
ENDBRANCH   5   6
ENDBRANCH   2   5
TORSDOF 11
ENDMDL
MODEL       22
REMARK 921   NORMALIZED FREE ENERGY PREDICTED BY IDOCK:   -3.97 KCAL/MOL
REMARK 922        TOTAL FREE ENERGY PREDICTED BY IDOCK:   -7.29 KCAL/MOL
REMARK 923 INTER-LIGAND FREE ENERGY PREDICTED BY IDOCK:   -6.48 KCAL/MOL
REMARK 924 INTRA-LIGAND FREE ENERGY PREDICTED BY IDOCK:   -0.80 KCAL/MOL
REMARK 927      BINDING AFFINITY PREDICTED BY RF-SCORE:    0.00 PKD
ROOT
HETATM    1  C   UNL     1     -14.194  15.316  71.559  1.00  0.00    -0.526 C  
HETATM    2  N   UNL     1     -13.095  14.380  72.076  1.00  0.00    -0.339 N  
HETATM    3  C   UNL     1     -13.678  12.981  72.232  1.00  0.00    -0.512 C  
HETATM    4  C   UNL     1     -12.622  14.899  73.425  1.00  0.00    -0.483 C  
ENDROOT
BRANCH   2   5
HETATM    5  C   UNL     1     -11.978  14.402  71.040  1.00  0.00    -0.323 C  
BRANCH   5   6
HETATM    6  C   UNL     1     -11.793  15.746  70.332  1.00  0.00    -0.391 C  
BRANCH   6   7
HETATM    7  C   UNL     1     -11.771  15.550  68.811  1.00  0.00    -0.372 C  
BRANCH   7   8
HETATM    8  C   UNL     1     -12.086  14.113  68.374  1.00  0.00    -0.308 C  
BRANCH   8   9
HETATM    9  C   UNL     1     -12.129  13.941  66.852  1.00  0.00    -0.467 C  
BRANCH   9  10
HETATM   10  C   UNL     1     -11.369  15.047  66.116  1.00  0.00    -0.270 C  
BRANCH  10  11
HETATM   11  C   UNL     1      -9.947  14.625  65.730  1.00  0.00    -0.365 C  
BRANCH  11  12
HETATM   12  C   UNL     1      -8.864  15.308  66.573  1.00  0.00    -0.335 C  
BRANCH  12  13
HETATM   13  C   UNL     1      -8.537  16.733  66.109  1.00  0.00    -0.299 C  
BRANCH  13  14
HETATM   14  C   UNL     1      -7.836  17.505  67.226  1.00  0.00    -0.203 C  
BRANCH  14  15
HETATM   15  N   UNL     1      -8.314  18.945  67.394  1.00  0.00    -0.273 N  
HETATM   16  C   UNL     1      -8.149  19.745  66.107  1.00  0.00    -0.342 C  
HETATM   17  C   UNL     1      -7.588  19.643  68.537  1.00  0.00    -0.337 C  
HETATM   18  C   UNL     1      -9.811  18.879  67.727  1.00  0.00    -0.337 C  
ENDBRANCH  14  15
ENDBRANCH  13  14
ENDBRANCH  12  13
ENDBRANCH  11  12
ENDBRANCH  10  11
ENDBRANCH   9  10
ENDBRANCH   8   9
ENDBRANCH   7   8
ENDBRANCH   6   7
ENDBRANCH   5   6
ENDBRANCH   2   5
TORSDOF 11
ENDMDL
MODEL       23
REMARK 921   NORMALIZED FREE ENERGY PREDICTED BY IDOCK:   -3.95 KCAL/MOL
REMARK 922        TOTAL FREE ENERGY PREDICTED BY IDOCK:   -7.26 KCAL/MOL
REMARK 923 INTER-LIGAND FREE ENERGY PREDICTED BY IDOCK:   -6.45 KCAL/MOL
REMARK 924 INTRA-LIGAND FREE ENERGY PREDICTED BY IDOCK:   -0.81 KCAL/MOL
REMARK 927      BINDING AFFINITY PREDICTED BY RF-SCORE:    0.00 PKD
ROOT
HETATM    1  C   UNL     1     -10.406  13.634  64.614  1.00  0.00    -0.384 C  
HETATM    2  N   UNL     1     -11.289  12.390  64.780  1.00  0.00    -0.305 N  
HETATM    3  C   UNL     1     -10.401  11.153  64.739  1.00  0.00    -0.325 C  
HETATM    4  C   UNL     1     -12.283  12.354  63.629  1.00  0.00    -0.557 C  
ENDROOT
BRANCH   2   5
HETATM    5  C   UNL     1     -11.988  12.527  66.126  1.00  0.00    -0.366 C  
BRANCH   5   6
HETATM    6  C   UNL     1     -11.487  11.565  67.205  1.00  0.00    -0.338 C  
BRANCH   6   7
HETATM    7  C   UNL     1     -11.812  12.112  68.601  1.00  0.00    -0.358 C  
BRANCH   7   8
HETATM    8  C   UNL     1     -11.582  11.095  69.726  1.00  0.00    -0.409 C  
BRANCH   8   9
HETATM    9  C   UNL     1     -12.823  10.868  70.597  1.00  0.00    -0.340 C  
BRANCH   9  10
HETATM   10  C   UNL     1     -12.814  11.727  71.864  1.00  0.00    -0.338 C  
BRANCH  10  11
HETATM   11  C   UNL     1     -13.422  13.115  71.636  1.00  0.00    -0.320 C  
BRANCH  11  12
HETATM   12  C   UNL     1     -12.387  14.246  71.705  1.00  0.00    -0.392 C  
BRANCH  12  13
HETATM   13  C   UNL     1     -12.496  15.245  70.546  1.00  0.00    -0.454 C  
BRANCH  13  14
HETATM   14  C   UNL     1     -11.313  16.211  70.567  1.00  0.00    -0.373 C  
BRANCH  14  15
HETATM   15  N   UNL     1     -10.567  16.324  69.241  1.00  0.00    -0.271 N  
HETATM   16  C   UNL     1      -9.211  15.629  69.299  1.00  0.00    -0.269 C  
HETATM   17  C   UNL     1     -10.389  17.778  68.824  1.00  0.00    -0.332 C  
HETATM   18  C   UNL     1     -11.425  15.610  68.187  1.00  0.00    -0.322 C  
ENDBRANCH  14  15
ENDBRANCH  13  14
ENDBRANCH  12  13
ENDBRANCH  11  12
ENDBRANCH  10  11
ENDBRANCH   9  10
ENDBRANCH   8   9
ENDBRANCH   7   8
ENDBRANCH   6   7
ENDBRANCH   5   6
ENDBRANCH   2   5
TORSDOF 11
ENDMDL
MODEL       24
REMARK 921   NORMALIZED FREE ENERGY PREDICTED BY IDOCK:   -3.90 KCAL/MOL
REMARK 922        TOTAL FREE ENERGY PREDICTED BY IDOCK:   -7.17 KCAL/MOL
REMARK 923 INTER-LIGAND FREE ENERGY PREDICTED BY IDOCK:   -6.25 KCAL/MOL
REMARK 924 INTRA-LIGAND FREE ENERGY PREDICTED BY IDOCK:   -0.92 KCAL/MOL
REMARK 927      BINDING AFFINITY PREDICTED BY RF-SCORE:    0.00 PKD
ROOT
HETATM    1  C   UNL     1     -12.702  12.138  63.758  1.00  0.00    -0.411 C  
HETATM    2  N   UNL     1     -11.712  12.963  64.590  1.00  0.00    -0.340 N  
HETATM    3  C   UNL     1     -11.985  14.442  64.347  1.00  0.00    -0.452 C  
HETATM    4  C   UNL     1     -10.303  12.614  64.139  1.00  0.00    -0.387 C  
ENDROOT
BRANCH   2   5
HETATM    5  C   UNL     1     -11.947  12.588  66.047  1.00  0.00    -0.392 C  
BRANCH   5   6
HETATM    6  C   UNL     1     -10.855  11.713  66.664  1.00  0.00    -0.327 C  
BRANCH   6   7
HETATM    7  C   UNL     1     -11.164  11.433  68.140  1.00  0.00    -0.343 C  
BRANCH   7   8
HETATM    8  C   UNL     1     -11.681  12.661  68.901  1.00  0.00    -0.370 C  
BRANCH   8   9
HETATM    9  C   UNL     1     -11.968  12.377  70.380  1.00  0.00    -0.342 C  
BRANCH   9  10
HETATM   10  C   UNL     1     -12.690  13.537  71.070  1.00  0.00    -0.399 C  
BRANCH  10  11
HETATM   11  C   UNL     1     -12.723  14.803  70.207  1.00  0.00    -0.324 C  
BRANCH  11  12
HETATM   12  C   UNL     1     -11.885  15.950  70.785  1.00  0.00    -0.423 C  
BRANCH  12  13
HETATM   13  C   UNL     1     -10.648  16.287  69.943  1.00  0.00    -0.280 C  
BRANCH  13  14
HETATM   14  C   UNL     1     -11.035  16.447  68.473  1.00  0.00    -0.350 C  
BRANCH  14  15
HETATM   15  N   UNL     1      -9.852  16.632  67.527  1.00  0.00    -0.249 N  
HETATM   16  C   UNL     1     -10.178  17.613  66.406  1.00  0.00    -0.364 C  
HETATM   17  C   UNL     1      -9.397  15.303  66.938  1.00  0.00    -0.237 C  
HETATM   18  C   UNL     1      -8.705  17.222  68.359  1.00  0.00    -0.261 C  
ENDBRANCH  14  15
ENDBRANCH  13  14
ENDBRANCH  12  13
ENDBRANCH  11  12
ENDBRANCH  10  11
ENDBRANCH   9  10
ENDBRANCH   8   9
ENDBRANCH   7   8
ENDBRANCH   6   7
ENDBRANCH   5   6
ENDBRANCH   2   5
TORSDOF 11
ENDMDL
MODEL       25
REMARK 921   NORMALIZED FREE ENERGY PREDICTED BY IDOCK:   -3.89 KCAL/MOL
REMARK 922        TOTAL FREE ENERGY PREDICTED BY IDOCK:   -7.16 KCAL/MOL
REMARK 923 INTER-LIGAND FREE ENERGY PREDICTED BY IDOCK:   -6.66 KCAL/MOL
REMARK 924 INTRA-LIGAND FREE ENERGY PREDICTED BY IDOCK:   -0.50 KCAL/MOL
REMARK 927      BINDING AFFINITY PREDICTED BY RF-SCORE:    0.00 PKD
ROOT
HETATM    1  C   UNL     1     -10.820  16.008  67.479  1.00  0.00    -0.292 C  
HETATM    2  N   UNL     1     -10.160  16.598  66.226  1.00  0.00    -0.313 N  
HETATM    3  C   UNL     1      -8.712  16.128  66.171  1.00  0.00    -0.323 C  
HETATM    4  C   UNL     1     -10.210  18.114  66.331  1.00  0.00    -0.399 C  
ENDROOT
BRANCH   2   5
HETATM    5  C   UNL     1     -10.954  16.088  65.031  1.00  0.00    -0.380 C  
BRANCH   5   6
HETATM    6  C   UNL     1     -10.767  14.600  64.730  1.00  0.00    -0.399 C  
BRANCH   6   7
HETATM    7  C   UNL     1     -12.117  13.944  64.415  1.00  0.00    -0.477 C  
BRANCH   7   8
HETATM    8  C   UNL     1     -12.322  12.595  65.118  1.00  0.00    -0.547 C  
BRANCH   8   9
HETATM    9  C   UNL     1     -11.846  12.596  66.575  1.00  0.00    -0.463 C  
BRANCH   9  10
HETATM   10  C   UNL     1     -10.664  11.651  66.805  1.00  0.00    -0.299 C  
BRANCH  10  11
HETATM   11  C   UNL     1     -11.053  10.413  67.620  1.00  0.00    -0.361 C  
BRANCH  11  12
HETATM   12  C   UNL     1     -11.559  10.751  69.028  1.00  0.00    -0.370 C  
BRANCH  12  13
HETATM   13  C   UNL     1     -10.935   9.881  70.126  1.00  0.00    -0.356 C  
BRANCH  13  14
HETATM   14  C   UNL     1     -11.997   9.475  71.148  1.00  0.00    -0.348 C  
BRANCH  14  15
HETATM   15  N   UNL     1     -11.999   7.990  71.499  1.00  0.00    -0.288 N  
HETATM   16  C   UNL     1     -13.415   7.430  71.559  1.00  0.00    -0.372 C  
HETATM   17  C   UNL     1     -11.279   7.728  72.815  1.00  0.00    -0.398 C  
HETATM   18  C   UNL     1     -11.247   7.267  70.372  1.00  0.00    -0.276 C  
ENDBRANCH  14  15
ENDBRANCH  13  14
ENDBRANCH  12  13
ENDBRANCH  11  12
ENDBRANCH  10  11
ENDBRANCH   9  10
ENDBRANCH   8   9
ENDBRANCH   7   8
ENDBRANCH   6   7
ENDBRANCH   5   6
ENDBRANCH   2   5
TORSDOF 11
ENDMDL
MODEL       26
REMARK 921   NORMALIZED FREE ENERGY PREDICTED BY IDOCK:   -3.88 KCAL/MOL
REMARK 922        TOTAL FREE ENERGY PREDICTED BY IDOCK:   -7.14 KCAL/MOL
REMARK 923 INTER-LIGAND FREE ENERGY PREDICTED BY IDOCK:   -6.56 KCAL/MOL
REMARK 924 INTRA-LIGAND FREE ENERGY PREDICTED BY IDOCK:   -0.58 KCAL/MOL
REMARK 927      BINDING AFFINITY PREDICTED BY RF-SCORE:    0.00 PKD
ROOT
HETATM    1  C   UNL     1     -11.105   5.996  69.684  1.00  0.00    -0.404 C  
HETATM    2  N   UNL     1     -10.931   6.423  71.148  1.00  0.00    -0.263 N  
HETATM    3  C   UNL     1      -9.817   7.458  71.225  1.00  0.00    -0.176 C  
HETATM    4  C   UNL     1     -10.556   5.193  71.960  1.00  0.00    -0.200 C  
ENDROOT
BRANCH   2   5
HETATM    5  C   UNL     1     -12.265   7.008  71.594  1.00  0.00    -0.357 C  
BRANCH   5   6
HETATM    6  C   UNL     1     -12.151   8.269  72.452  1.00  0.00    -0.430 C  
BRANCH   6   7
HETATM    7  C   UNL     1     -13.296   9.238  72.132  1.00  0.00    -0.537 C  
BRANCH   7   8
HETATM    8  C   UNL     1     -12.818  10.603  71.617  1.00  0.00    -0.570 C  
BRANCH   8   9
HETATM    9  C   UNL     1     -11.764  10.494  70.510  1.00  0.00    -0.443 C  
BRANCH   9  10
HETATM   10  C   UNL     1     -11.446  11.847  69.869  1.00  0.00    -0.264 C  
BRANCH  10  11
HETATM   11  C   UNL     1     -12.273  12.988  70.468  1.00  0.00    -0.392 C  
BRANCH  11  12
HETATM   12  C   UNL     1     -12.147  14.302  69.686  1.00  0.00    -0.396 C  
BRANCH  12  13
HETATM   13  C   UNL     1     -11.311  14.172  68.407  1.00  0.00    -0.315 C  
BRANCH  13  14
HETATM   14  C   UNL     1     -12.210  14.273  67.175  1.00  0.00    -0.277 C  
BRANCH  14  15
HETATM   15  N   UNL     1     -11.553  13.816  65.875  1.00  0.00    -0.323 N  
HETATM   16  C   UNL     1     -11.334  14.982  64.917  1.00  0.00    -0.417 C  
HETATM   17  C   UNL     1     -12.369  12.727  65.192  1.00  0.00    -0.496 C  
HETATM   18  C   UNL     1     -10.179  13.243  66.251  1.00  0.00    -0.296 C  
ENDBRANCH  14  15
ENDBRANCH  13  14
ENDBRANCH  12  13
ENDBRANCH  11  12
ENDBRANCH  10  11
ENDBRANCH   9  10
ENDBRANCH   8   9
ENDBRANCH   7   8
ENDBRANCH   6   7
ENDBRANCH   5   6
ENDBRANCH   2   5
TORSDOF 11
ENDMDL
MODEL       27
REMARK 921   NORMALIZED FREE ENERGY PREDICTED BY IDOCK:   -3.85 KCAL/MOL
REMARK 922        TOTAL FREE ENERGY PREDICTED BY IDOCK:   -7.10 KCAL/MOL
REMARK 923 INTER-LIGAND FREE ENERGY PREDICTED BY IDOCK:   -6.11 KCAL/MOL
REMARK 924 INTRA-LIGAND FREE ENERGY PREDICTED BY IDOCK:   -0.99 KCAL/MOL
REMARK 927      BINDING AFFINITY PREDICTED BY RF-SCORE:    0.00 PKD
ROOT
HETATM    1  C   UNL     1     -11.228  10.280  70.003  1.00  0.00    -0.311 C  
HETATM    2  N   UNL     1     -10.486   8.940  69.928  1.00  0.00    -0.209 N  
HETATM    3  C   UNL     1     -11.313   7.883  70.648  1.00  0.00    -0.259 C  
HETATM    4  C   UNL     1      -9.139   9.103  70.617  1.00  0.00    -0.257 C  
ENDROOT
BRANCH   2   5
HETATM    5  C   UNL     1     -10.327   8.610  68.450  1.00  0.00    -0.201 C  
BRANCH   5   6
HETATM    6  C   UNL     1     -10.709   9.746  67.499  1.00  0.00    -0.327 C  
BRANCH   6   7
HETATM    7  C   UNL     1     -10.072   9.526  66.121  1.00  0.00    -0.326 C  
BRANCH   7   8
HETATM    8  C   UNL     1      -9.725  10.831  65.391  1.00  0.00    -0.297 C  
BRANCH   8   9
HETATM    9  C   UNL     1     -10.159  10.832  63.921  1.00  0.00    -0.397 C  
BRANCH   9  10
HETATM   10  C   UNL     1     -10.702  12.191  63.472  1.00  0.00    -0.509 C  
BRANCH  10  11
HETATM   11  C   UNL     1     -12.234  12.228  63.436  1.00  0.00    -0.630 C  
BRANCH  11  12
HETATM   12  C   UNL     1     -12.859  12.658  64.769  1.00  0.00    -0.349 C  
BRANCH  12  13
HETATM   13  C   UNL     1     -12.288  13.972  65.315  1.00  0.00    -0.480 C  
BRANCH  13  14
HETATM   14  C   UNL     1     -11.951  13.827  66.799  1.00  0.00    -0.426 C  
BRANCH  14  15
HETATM   15  N   UNL     1     -10.585  14.382  67.193  1.00  0.00    -0.275 N  
HETATM   16  C   UNL     1      -9.736  14.706  65.969  1.00  0.00    -0.312 C  
HETATM   17  C   UNL     1      -9.836  13.420  68.106  1.00  0.00    -0.234 C  
HETATM   18  C   UNL     1     -10.841  15.690  67.956  1.00  0.00    -0.308 C  
ENDBRANCH  14  15
ENDBRANCH  13  14
ENDBRANCH  12  13
ENDBRANCH  11  12
ENDBRANCH  10  11
ENDBRANCH   9  10
ENDBRANCH   8   9
ENDBRANCH   7   8
ENDBRANCH   6   7
ENDBRANCH   5   6
ENDBRANCH   2   5
TORSDOF 11
ENDMDL
MODEL       28
REMARK 921   NORMALIZED FREE ENERGY PREDICTED BY IDOCK:   -3.85 KCAL/MOL
REMARK 922        TOTAL FREE ENERGY PREDICTED BY IDOCK:   -7.09 KCAL/MOL
REMARK 923 INTER-LIGAND FREE ENERGY PREDICTED BY IDOCK:   -6.52 KCAL/MOL
REMARK 924 INTRA-LIGAND FREE ENERGY PREDICTED BY IDOCK:   -0.56 KCAL/MOL
REMARK 927      BINDING AFFINITY PREDICTED BY RF-SCORE:    0.00 PKD
ROOT
HETATM    1  C   UNL     1     -12.231  12.431  64.497  1.00  0.00    -0.431 C  
HETATM    2  N   UNL     1     -11.787  13.740  65.164  1.00  0.00    -0.336 N  
HETATM    3  C   UNL     1     -12.185  14.904  64.266  1.00  0.00    -0.344 C  
HETATM    4  C   UNL     1     -10.276  13.703  65.326  1.00  0.00    -0.323 C  
ENDROOT
BRANCH   2   5
HETATM    5  C   UNL     1     -12.498  13.808  66.509  1.00  0.00    -0.309 C  
BRANCH   5   6
HETATM    6  C   UNL     1     -11.565  13.862  67.721  1.00  0.00    -0.381 C  
BRANCH   6   7
HETATM    7  C   UNL     1     -11.774  15.167  68.498  1.00  0.00    -0.347 C  
BRANCH   7   8
HETATM    8  C   UNL     1     -12.136  14.950  69.974  1.00  0.00    -0.387 C  
BRANCH   8   9
HETATM    9  C   UNL     1     -12.209  13.469  70.365  1.00  0.00    -0.426 C  
BRANCH   9  10
HETATM   10  C   UNL     1     -13.026  13.240  71.639  1.00  0.00    -0.441 C  
BRANCH  10  11
HETATM   11  C   UNL     1     -13.179  11.753  71.978  1.00  0.00    -0.460 C  
BRANCH  11  12
HETATM   12  C   UNL     1     -12.779  10.826  70.824  1.00  0.00    -0.451 C  
BRANCH  12  13
HETATM   13  C   UNL     1     -11.547   9.965  71.131  1.00  0.00    -0.468 C  
BRANCH  13  14
HETATM   14  C   UNL     1     -11.949   8.737  71.947  1.00  0.00    -0.365 C  
BRANCH  14  15
HETATM   15  N   UNL     1     -11.001   7.550  71.810  1.00  0.00    -0.231 N  
HETATM   16  C   UNL     1      -9.655   7.970  71.231  1.00  0.00    -0.156 C  
HETATM   17  C   UNL     1     -11.612   6.445  70.958  1.00  0.00    -0.325 C  
HETATM   18  C   UNL     1     -10.763   7.006  73.226  1.00  0.00    -0.340 C  
ENDBRANCH  14  15
ENDBRANCH  13  14
ENDBRANCH  12  13
ENDBRANCH  11  12
ENDBRANCH  10  11
ENDBRANCH   9  10
ENDBRANCH   8   9
ENDBRANCH   7   8
ENDBRANCH   6   7
ENDBRANCH   5   6
ENDBRANCH   2   5
TORSDOF 11
ENDMDL
MODEL       29
REMARK 921   NORMALIZED FREE ENERGY PREDICTED BY IDOCK:   -3.84 KCAL/MOL
REMARK 922        TOTAL FREE ENERGY PREDICTED BY IDOCK:   -7.08 KCAL/MOL
REMARK 923 INTER-LIGAND FREE ENERGY PREDICTED BY IDOCK:   -6.51 KCAL/MOL
REMARK 924 INTRA-LIGAND FREE ENERGY PREDICTED BY IDOCK:   -0.57 KCAL/MOL
REMARK 927      BINDING AFFINITY PREDICTED BY RF-SCORE:    0.00 PKD
ROOT
HETATM    1  C   UNL     1     -11.879   6.786  70.530  1.00  0.00    -0.362 C  
HETATM    2  N   UNL     1     -12.118   8.029  71.397  1.00  0.00    -0.300 N  
HETATM    3  C   UNL     1     -11.387   7.849  72.720  1.00  0.00    -0.393 C  
HETATM    4  C   UNL     1     -13.614   8.156  71.643  1.00  0.00    -0.343 C  
ENDROOT
BRANCH   2   5
HETATM    5  C   UNL     1     -11.571   9.217  70.617  1.00  0.00    -0.252 C  
BRANCH   5   6
HETATM    6  C   UNL     1     -12.175  10.568  71.008  1.00  0.00    -0.505 C  
BRANCH   6   7
HETATM    7  C   UNL     1     -11.905  11.609  69.915  1.00  0.00    -0.434 C  
BRANCH   7   8
HETATM    8  C   UNL     1     -11.598  10.993  68.544  1.00  0.00    -0.380 C  
BRANCH   8   9
HETATM    9  C   UNL     1     -10.951  11.983  67.569  1.00  0.00    -0.303 C  
BRANCH   9  10
HETATM   10  C   UNL     1     -11.888  12.376  66.424  1.00  0.00    -0.421 C  
BRANCH  10  11
HETATM   11  C   UNL     1     -12.261  13.862  66.455  1.00  0.00    -0.482 C  
BRANCH  11  12
HETATM   12  C   UNL     1     -11.574  14.634  67.588  1.00  0.00    -0.383 C  
BRANCH  12  13
HETATM   13  C   UNL     1     -10.745  15.827  67.098  1.00  0.00    -0.312 C  
BRANCH  13  14
HETATM   14  C   UNL     1     -10.739  16.936  68.150  1.00  0.00    -0.375 C  
BRANCH  14  15
HETATM   15  N   UNL     1      -9.824  18.112  67.822  1.00  0.00    -0.298 N  
HETATM   16  C   UNL     1     -10.255  19.379  68.552  1.00  0.00    -0.398 C  
HETATM   17  C   UNL     1      -9.766  18.371  66.322  1.00  0.00    -0.294 C  
HETATM   18  C   UNL     1      -8.419  17.733  68.312  1.00  0.00    -0.277 C  
ENDBRANCH  14  15
ENDBRANCH  13  14
ENDBRANCH  12  13
ENDBRANCH  11  12
ENDBRANCH  10  11
ENDBRANCH   9  10
ENDBRANCH   8   9
ENDBRANCH   7   8
ENDBRANCH   6   7
ENDBRANCH   5   6
ENDBRANCH   2   5
TORSDOF 11
ENDMDL
MODEL       30
REMARK 921   NORMALIZED FREE ENERGY PREDICTED BY IDOCK:   -3.84 KCAL/MOL
REMARK 922        TOTAL FREE ENERGY PREDICTED BY IDOCK:   -7.07 KCAL/MOL
REMARK 923 INTER-LIGAND FREE ENERGY PREDICTED BY IDOCK:   -6.42 KCAL/MOL
REMARK 924 INTRA-LIGAND FREE ENERGY PREDICTED BY IDOCK:   -0.65 KCAL/MOL
REMARK 927      BINDING AFFINITY PREDICTED BY RF-SCORE:    0.00 PKD
ROOT
HETATM    1  C   UNL     1     -11.914   7.180  70.710  1.00  0.00    -0.310 C  
HETATM    2  N   UNL     1     -11.777   8.269  71.781  1.00  0.00    -0.284 N  
HETATM    3  C   UNL     1     -11.097   7.667  73.004  1.00  0.00    -0.381 C  
HETATM    4  C   UNL     1     -13.170   8.755  72.148  1.00  0.00    -0.414 C  
ENDROOT
BRANCH   2   5
HETATM    5  C   UNL     1     -10.935   9.382  71.169  1.00  0.00    -0.360 C  
BRANCH   5   6
HETATM    6  C   UNL     1     -11.741  10.502  70.511  1.00  0.00    -0.443 C  
BRANCH   6   7
HETATM    7  C   UNL     1     -10.992  11.053  69.291  1.00  0.00    -0.305 C  
BRANCH   7   8
HETATM    8  C   UNL     1     -11.365  10.355  67.976  1.00  0.00    -0.277 C  
BRANCH   8   9
HETATM    9  C   UNL     1     -10.384   9.243  67.585  1.00  0.00    -0.311 C  
BRANCH   9  10
HETATM   10  C   UNL     1     -10.003   9.293  66.103  1.00  0.00    -0.348 C  
BRANCH  10  11
HETATM   11  C   UNL     1      -9.985  10.722  65.550  1.00  0.00    -0.321 C  
BRANCH  11  12
HETATM   12  C   UNL     1     -10.083  10.779  64.021  1.00  0.00    -0.410 C  
BRANCH  12  13
HETATM   13  C   UNL     1     -10.488  12.158  63.486  1.00  0.00    -0.490 C  
BRANCH  13  14
HETATM   14  C   UNL     1     -11.776  12.630  64.159  1.00  0.00    -0.400 C  
BRANCH  14  15
HETATM   15  N   UNL     1     -11.637  13.931  64.946  1.00  0.00    -0.343 N  
HETATM   16  C   UNL     1     -12.361  15.082  64.259  1.00  0.00    -0.226 C  
HETATM   17  C   UNL     1     -10.175  14.294  65.167  1.00  0.00    -0.385 C  
HETATM   18  C   UNL     1     -12.301  13.696  66.311  1.00  0.00    -0.412 C  
ENDBRANCH  14  15
ENDBRANCH  13  14
ENDBRANCH  12  13
ENDBRANCH  11  12
ENDBRANCH  10  11
ENDBRANCH   9  10
ENDBRANCH   8   9
ENDBRANCH   7   8
ENDBRANCH   6   7
ENDBRANCH   5   6
ENDBRANCH   2   5
TORSDOF 11
ENDMDL
MODEL       31
REMARK 921   NORMALIZED FREE ENERGY PREDICTED BY IDOCK:   -3.83 KCAL/MOL
REMARK 922        TOTAL FREE ENERGY PREDICTED BY IDOCK:   -7.06 KCAL/MOL
REMARK 923 INTER-LIGAND FREE ENERGY PREDICTED BY IDOCK:   -6.30 KCAL/MOL
REMARK 924 INTRA-LIGAND FREE ENERGY PREDICTED BY IDOCK:   -0.75 KCAL/MOL
REMARK 927      BINDING AFFINITY PREDICTED BY RF-SCORE:    0.00 PKD
ROOT
HETATM    1  C   UNL     1      -9.559   8.246  69.738  1.00  0.00    -0.171 C  
HETATM    2  N   UNL     1      -9.987   6.958  70.453  1.00  0.00    -0.179 N  
HETATM    3  C   UNL     1      -8.792   6.016  70.520  1.00  0.00    -0.145 C  
HETATM    4  C   UNL     1     -11.109   6.318  69.650  1.00  0.00    -0.412 C  
ENDROOT
BRANCH   2   5
HETATM    5  C   UNL     1     -10.452   7.365  71.846  1.00  0.00    -0.201 C  
BRANCH   5   6
HETATM    6  C   UNL     1     -10.889   8.826  71.970  1.00  0.00    -0.428 C  
BRANCH   6   7
HETATM    7  C   UNL     1     -12.396   8.912  72.237  1.00  0.00    -0.430 C  
BRANCH   7   8
HETATM    8  C   UNL     1     -13.033  10.217  71.741  1.00  0.00    -0.567 C  
BRANCH   8   9
HETATM    9  C   UNL     1     -12.535  10.642  70.355  1.00  0.00    -0.421 C  
BRANCH   9  10
HETATM   10  C   UNL     1     -12.120  12.115  70.309  1.00  0.00    -0.385 C  
BRANCH  10  11
HETATM   11  C   UNL     1     -11.540  12.518  68.949  1.00  0.00    -0.364 C  
BRANCH  11  12
HETATM   12  C   UNL     1     -11.435  11.346  67.965  1.00  0.00    -0.377 C  
BRANCH  12  13
HETATM   13  C   UNL     1     -10.785  11.726  66.629  1.00  0.00    -0.300 C  
BRANCH  13  14
HETATM   14  C   UNL     1     -10.661  13.245  66.514  1.00  0.00    -0.285 C  
BRANCH  14  15
HETATM   15  N   UNL     1     -11.238  13.830  65.227  1.00  0.00    -0.300 N  
HETATM   16  C   UNL     1     -10.911  12.959  64.020  1.00  0.00    -0.411 C  
HETATM   17  C   UNL     1     -10.745  15.251  64.992  1.00  0.00    -0.439 C  
HETATM   18  C   UNL     1     -12.763  13.857  65.398  1.00  0.00    -0.490 C  
ENDBRANCH  14  15
ENDBRANCH  13  14
ENDBRANCH  12  13
ENDBRANCH  11  12
ENDBRANCH  10  11
ENDBRANCH   9  10
ENDBRANCH   8   9
ENDBRANCH   7   8
ENDBRANCH   6   7
ENDBRANCH   5   6
ENDBRANCH   2   5
TORSDOF 11
ENDMDL
MODEL       32
REMARK 921   NORMALIZED FREE ENERGY PREDICTED BY IDOCK:   -3.83 KCAL/MOL
REMARK 922        TOTAL FREE ENERGY PREDICTED BY IDOCK:   -7.05 KCAL/MOL
REMARK 923 INTER-LIGAND FREE ENERGY PREDICTED BY IDOCK:   -6.43 KCAL/MOL
REMARK 924 INTRA-LIGAND FREE ENERGY PREDICTED BY IDOCK:   -0.62 KCAL/MOL
REMARK 927      BINDING AFFINITY PREDICTED BY RF-SCORE:    0.00 PKD
ROOT
HETATM    1  C   UNL     1     -12.574  12.039  64.015  1.00  0.00    -0.359 C  
HETATM    2  N   UNL     1     -11.219  12.143  64.728  1.00  0.00    -0.314 N  
HETATM    3  C   UNL     1     -10.592  13.489  64.389  1.00  0.00    -0.377 C  
HETATM    4  C   UNL     1     -10.330  11.015  64.227  1.00  0.00    -0.364 C  
ENDROOT
BRANCH   2   5
HETATM    5  C   UNL     1     -11.499  12.021  66.220  1.00  0.00    -0.345 C  
BRANCH   5   6
HETATM    6  C   UNL     1     -10.920  13.153  67.071  1.00  0.00    -0.289 C  
BRANCH   6   7
HETATM    7  C   UNL     1     -11.990  13.713  68.015  1.00  0.00    -0.385 C  
BRANCH   7   8
HETATM    8  C   UNL     1     -11.754  15.178  68.408  1.00  0.00    -0.338 C  
BRANCH   8   9
HETATM    9  C   UNL     1     -10.622  15.840  67.615  1.00  0.00    -0.301 C  
BRANCH   9  10
HETATM   10  C   UNL     1     -10.587  17.359  67.800  1.00  0.00    -0.371 C  
BRANCH  10  11
HETATM   11  C   UNL     1     -10.345  18.105  66.484  1.00  0.00    -0.397 C  
BRANCH  11  12
HETATM   12  C   UNL     1     -10.649  19.606  66.576  1.00  0.00    -0.591 C  
BRANCH  12  13
HETATM   13  C   UNL     1      -9.491  20.430  67.150  1.00  0.00    -0.567 C  
BRANCH  13  14
HETATM   14  C   UNL     1      -8.161  19.948  66.573  1.00  0.00    -0.328 C  
BRANCH  14  15
HETATM   15  N   UNL     1      -7.066  19.724  67.613  1.00  0.00    -0.245 N  
HETATM   16  C   UNL     1      -6.085  18.645  67.172  1.00  0.00    -0.169 C  
HETATM   17  C   UNL     1      -7.654  19.369  68.972  1.00  0.00    -0.334 C  
HETATM   18  C   UNL     1      -6.296  21.047  67.738  1.00  0.00    -0.354 C  
ENDBRANCH  14  15
ENDBRANCH  13  14
ENDBRANCH  12  13
ENDBRANCH  11  12
ENDBRANCH  10  11
ENDBRANCH   9  10
ENDBRANCH   8   9
ENDBRANCH   7   8
ENDBRANCH   6   7
ENDBRANCH   5   6
ENDBRANCH   2   5
TORSDOF 11
ENDMDL
MODEL       33
REMARK 921   NORMALIZED FREE ENERGY PREDICTED BY IDOCK:   -3.81 KCAL/MOL
REMARK 922        TOTAL FREE ENERGY PREDICTED BY IDOCK:   -7.03 KCAL/MOL
REMARK 923 INTER-LIGAND FREE ENERGY PREDICTED BY IDOCK:   -6.15 KCAL/MOL
REMARK 924 INTRA-LIGAND FREE ENERGY PREDICTED BY IDOCK:   -0.89 KCAL/MOL
REMARK 927      BINDING AFFINITY PREDICTED BY RF-SCORE:    0.00 PKD
ROOT
HETATM    1  C   UNL     1      -8.912  15.854  67.882  1.00  0.00    -0.181 C  
HETATM    2  N   UNL     1     -10.340  15.956  67.331  1.00  0.00    -0.282 N  
HETATM    3  C   UNL     1     -10.435  17.193  66.448  1.00  0.00    -0.255 C  
HETATM    4  C   UNL     1     -11.296  16.082  68.507  1.00  0.00    -0.382 C  
ENDROOT
BRANCH   2   5
HETATM    5  C   UNL     1     -10.592  14.683  66.532  1.00  0.00    -0.300 C  
BRANCH   5   6
HETATM    6  C   UNL     1     -11.919  13.989  66.843  1.00  0.00    -0.479 C  
BRANCH   6   7
HETATM    7  C   UNL     1     -12.766  13.862  65.571  1.00  0.00    -0.536 C  
BRANCH   7   8
HETATM    8  C   UNL     1     -11.932  13.763  64.286  1.00  0.00    -0.481 C  
BRANCH   8   9
HETATM    9  C   UNL     1     -11.918  12.354  63.683  1.00  0.00    -0.626 C  
BRANCH   9  10
HETATM   10  C   UNL     1     -10.515  11.743  63.653  1.00  0.00    -0.490 C  
BRANCH  10  11
HETATM   11  C   UNL     1     -10.045  11.285  65.037  1.00  0.00    -0.331 C  
BRANCH  11  12
HETATM   12  C   UNL     1      -9.705   9.791  65.096  1.00  0.00    -0.338 C  
BRANCH  12  13
HETATM   13  C   UNL     1     -10.048   9.139  66.441  1.00  0.00    -0.345 C  
BRANCH  13  14
HETATM   14  C   UNL     1     -10.572  10.189  67.420  1.00  0.00    -0.272 C  
BRANCH  14  15
HETATM   15  N   UNL     1     -10.381   9.831  68.891  1.00  0.00    -0.201 N  
HETATM   16  C   UNL     1     -10.576   8.339  69.136  1.00  0.00    -0.165 C  
HETATM   17  C   UNL     1     -11.319  10.632  69.785  1.00  0.00    -0.301 C  
HETATM   18  C   UNL     1      -8.932  10.188  69.250  1.00  0.00    -0.183 C  
ENDBRANCH  14  15
ENDBRANCH  13  14
ENDBRANCH  12  13
ENDBRANCH  11  12
ENDBRANCH  10  11
ENDBRANCH   9  10
ENDBRANCH   8   9
ENDBRANCH   7   8
ENDBRANCH   6   7
ENDBRANCH   5   6
ENDBRANCH   2   5
TORSDOF 11
ENDMDL
MODEL       34
REMARK 921   NORMALIZED FREE ENERGY PREDICTED BY IDOCK:   -3.81 KCAL/MOL
REMARK 922        TOTAL FREE ENERGY PREDICTED BY IDOCK:   -7.03 KCAL/MOL
REMARK 923 INTER-LIGAND FREE ENERGY PREDICTED BY IDOCK:   -6.50 KCAL/MOL
REMARK 924 INTRA-LIGAND FREE ENERGY PREDICTED BY IDOCK:   -0.53 KCAL/MOL
REMARK 927      BINDING AFFINITY PREDICTED BY RF-SCORE:    0.00 PKD
ROOT
HETATM    1  C   UNL     1     -10.221   6.594  74.136  1.00  0.00    -0.363 C  
HETATM    2  N   UNL     1     -10.688   5.858  72.874  1.00  0.00    -0.233 N  
HETATM    3  C   UNL     1     -11.188   4.476  73.273  1.00  0.00    -0.298 C  
HETATM    4  C   UNL     1      -9.502   5.730  71.931  1.00  0.00    -0.151 C  
ENDROOT
BRANCH   2   5
HETATM    5  C   UNL     1     -11.804   6.698  72.266  1.00  0.00    -0.252 C  
BRANCH   5   6
HETATM    6  C   UNL     1     -11.577   8.209  72.339  1.00  0.00    -0.463 C  
BRANCH   6   7
HETATM    7  C   UNL     1     -12.919   8.949  72.393  1.00  0.00    -0.467 C  
BRANCH   7   8
HETATM    8  C   UNL     1     -12.996  10.147  71.436  1.00  0.00    -0.528 C  
BRANCH   8   9
HETATM    9  C   UNL     1     -11.683  10.408  70.689  1.00  0.00    -0.444 C  
BRANCH   9  10
HETATM   10  C   UNL     1     -11.743  11.670  69.825  1.00  0.00    -0.425 C  
BRANCH  10  11
HETATM   11  C   UNL     1     -12.225  12.896  70.607  1.00  0.00    -0.386 C  
BRANCH  11  12
HETATM   12  C   UNL     1     -12.095  14.205  69.820  1.00  0.00    -0.409 C  
BRANCH  12  13
HETATM   13  C   UNL     1     -11.167  14.097  68.603  1.00  0.00    -0.291 C  
BRANCH  13  14
HETATM   14  C   UNL     1     -11.944  14.380  67.318  1.00  0.00    -0.377 C  
BRANCH  14  15
HETATM   15  N   UNL     1     -11.371  13.709  66.073  1.00  0.00    -0.308 N  
HETATM   16  C   UNL     1     -10.530  12.489  66.430  1.00  0.00    -0.247 C  
HETATM   17  C   UNL     1     -10.546  14.685  65.244  1.00  0.00    -0.391 C  
HETATM   18  C   UNL     1     -12.566  13.235  65.234  1.00  0.00    -0.470 C  
ENDBRANCH  14  15
ENDBRANCH  13  14
ENDBRANCH  12  13
ENDBRANCH  11  12
ENDBRANCH  10  11
ENDBRANCH   9  10
ENDBRANCH   8   9
ENDBRANCH   7   8
ENDBRANCH   6   7
ENDBRANCH   5   6
ENDBRANCH   2   5
TORSDOF 11
ENDMDL
MODEL       35
REMARK 921   NORMALIZED FREE ENERGY PREDICTED BY IDOCK:   -3.81 KCAL/MOL
REMARK 922        TOTAL FREE ENERGY PREDICTED BY IDOCK:   -7.03 KCAL/MOL
REMARK 923 INTER-LIGAND FREE ENERGY PREDICTED BY IDOCK:   -6.36 KCAL/MOL
REMARK 924 INTRA-LIGAND FREE ENERGY PREDICTED BY IDOCK:   -0.66 KCAL/MOL
REMARK 927      BINDING AFFINITY PREDICTED BY RF-SCORE:    0.00 PKD
ROOT
HETATM    1  C   UNL     1     -10.647   5.381  72.105  1.00  0.00    -0.227 C  
HETATM    2  N   UNL     1     -10.829   6.539  71.115  1.00  0.00    -0.240 N  
HETATM    3  C   UNL     1     -10.792   5.979  69.699  1.00  0.00    -0.369 C  
HETATM    4  C   UNL     1      -9.685   7.521  71.315  1.00  0.00    -0.164 C  
ENDROOT
BRANCH   2   5
HETATM    5  C   UNL     1     -12.178   7.173  71.426  1.00  0.00    -0.362 C  
BRANCH   5   6
HETATM    6  C   UNL     1     -12.116   8.363  72.386  1.00  0.00    -0.443 C  
BRANCH   6   7
HETATM    7  C   UNL     1     -13.376   9.226  72.248  1.00  0.00    -0.547 C  
BRANCH   7   8
HETATM    8  C   UNL     1     -13.081  10.688  71.885  1.00  0.00    -0.563 C  
BRANCH   8   9
HETATM    9  C   UNL     1     -12.968  10.923  70.375  1.00  0.00    -0.172 C  
BRANCH   9  10
HETATM   10  C   UNL     1     -11.518  11.085  69.914  1.00  0.00    -0.400 C  
BRANCH  10  11
HETATM   11  C   UNL     1     -11.149  10.115  68.787  1.00  0.00    -0.250 C  
BRANCH  11  12
HETATM   12  C   UNL     1     -10.363  10.780  67.650  1.00  0.00    -0.236 C  
BRANCH  12  13
HETATM   13  C   UNL     1     -11.048  12.030  67.084  1.00  0.00    -0.344 C  
BRANCH  13  14
HETATM   14  C   UNL     1     -11.204  11.909  65.568  1.00  0.00    -0.299 C  
BRANCH  14  15
HETATM   15  N   UNL     1     -11.571  13.212  64.865  1.00  0.00    -0.312 N  
HETATM   16  C   UNL     1     -11.996  12.971  63.422  1.00  0.00    -0.520 C  
HETATM   17  C   UNL     1     -10.422  14.211  64.909  1.00  0.00    -0.438 C  
HETATM   18  C   UNL     1     -12.768  13.804  65.624  1.00  0.00    -0.478 C  
ENDBRANCH  14  15
ENDBRANCH  13  14
ENDBRANCH  12  13
ENDBRANCH  11  12
ENDBRANCH  10  11
ENDBRANCH   9  10
ENDBRANCH   8   9
ENDBRANCH   7   8
ENDBRANCH   6   7
ENDBRANCH   5   6
ENDBRANCH   2   5
TORSDOF 11
ENDMDL
MODEL       36
REMARK 921   NORMALIZED FREE ENERGY PREDICTED BY IDOCK:   -3.81 KCAL/MOL
REMARK 922        TOTAL FREE ENERGY PREDICTED BY IDOCK:   -7.02 KCAL/MOL
REMARK 923 INTER-LIGAND FREE ENERGY PREDICTED BY IDOCK:   -6.57 KCAL/MOL
REMARK 924 INTRA-LIGAND FREE ENERGY PREDICTED BY IDOCK:   -0.45 KCAL/MOL
REMARK 927      BINDING AFFINITY PREDICTED BY RF-SCORE:    0.00 PKD
ROOT
HETATM    1  C   UNL     1     -10.942  14.891  64.842  1.00  0.00    -0.408 C  
HETATM    2  N   UNL     1     -11.348  13.788  65.827  1.00  0.00    -0.301 N  
HETATM    3  C   UNL     1     -10.171  12.839  66.011  1.00  0.00    -0.278 C  
HETATM    4  C   UNL     1     -12.533  13.037  65.239  1.00  0.00    -0.499 C  
ENDROOT
BRANCH   2   5
HETATM    5  C   UNL     1     -11.712  14.480  67.134  1.00  0.00    -0.399 C  
BRANCH   5   6
HETATM    6  C   UNL     1     -11.644  13.583  68.371  1.00  0.00    -0.378 C  
BRANCH   6   7
HETATM    7  C   UNL     1     -12.245  14.300  69.586  1.00  0.00    -0.371 C  
BRANCH   7   8
HETATM    8  C   UNL     1     -12.440  13.386  70.803  1.00  0.00    -0.418 C  
BRANCH   8   9
HETATM    9  C   UNL     1     -12.283  11.898  70.471  1.00  0.00    -0.426 C  
BRANCH   9  10
HETATM   10  C   UNL     1     -12.947  10.992  71.511  1.00  0.00    -0.553 C  
BRANCH  10  11
HETATM   11  C   UNL     1     -12.247   9.635  71.639  1.00  0.00    -0.484 C  
BRANCH  11  12
HETATM   12  C   UNL     1     -13.217   8.479  71.915  1.00  0.00    -0.398 C  
BRANCH  12  13
HETATM   13  C   UNL     1     -12.648   7.104  71.548  1.00  0.00    -0.427 C  
BRANCH  13  14
HETATM   14  C   UNL     1     -11.121   7.153  71.518  1.00  0.00    -0.239 C  
BRANCH  14  15
HETATM   15  N   UNL     1     -10.440   6.221  72.516  1.00  0.00    -0.197 N  
HETATM   16  C   UNL     1      -9.156   5.630  71.947  1.00  0.00    -0.138 C  
HETATM   17  C   UNL     1     -11.374   5.104  72.962  1.00  0.00    -0.309 C  
HETATM   18  C   UNL     1     -10.072   7.074  73.739  1.00  0.00    -0.352 C  
ENDBRANCH  14  15
ENDBRANCH  13  14
ENDBRANCH  12  13
ENDBRANCH  11  12
ENDBRANCH  10  11
ENDBRANCH   9  10
ENDBRANCH   8   9
ENDBRANCH   7   8
ENDBRANCH   6   7
ENDBRANCH   5   6
ENDBRANCH   2   5
TORSDOF 11
ENDMDL
MODEL       37
REMARK 921   NORMALIZED FREE ENERGY PREDICTED BY IDOCK:   -3.81 KCAL/MOL
REMARK 922        TOTAL FREE ENERGY PREDICTED BY IDOCK:   -7.02 KCAL/MOL
REMARK 923 INTER-LIGAND FREE ENERGY PREDICTED BY IDOCK:   -6.27 KCAL/MOL
REMARK 924 INTRA-LIGAND FREE ENERGY PREDICTED BY IDOCK:   -0.75 KCAL/MOL
REMARK 927      BINDING AFFINITY PREDICTED BY RF-SCORE:    0.00 PKD
ROOT
HETATM    1  C   UNL     1     -10.774  16.007  67.584  1.00  0.00    -0.320 C  
HETATM    2  N   UNL     1     -10.799  14.917  66.504  1.00  0.00    -0.317 N  
HETATM    3  C   UNL     1      -9.460  14.191  66.513  1.00  0.00    -0.285 C  
HETATM    4  C   UNL     1     -11.017  15.588  65.156  1.00  0.00    -0.409 C  
ENDROOT
BRANCH   2   5
HETATM    5  C   UNL     1     -11.943  13.976  66.858  1.00  0.00    -0.447 C  
BRANCH   5   6
HETATM    6  C   UNL     1     -11.954  13.505  68.313  1.00  0.00    -0.377 C  
BRANCH   6   7
HETATM    7  C   UNL     1     -11.770  11.984  68.384  1.00  0.00    -0.390 C  
BRANCH   7   8
HETATM    8  C   UNL     1     -11.561  11.458  69.810  1.00  0.00    -0.407 C  
BRANCH   8   9
HETATM    9  C   UNL     1     -12.448  12.156  70.847  1.00  0.00    -0.374 C  
BRANCH   9  10
HETATM   10  C   UNL     1     -13.076  11.173  71.837  1.00  0.00    -0.513 C  
BRANCH  10  11
HETATM   11  C   UNL     1     -13.167   9.751  71.274  1.00  0.00    -0.452 C  
BRANCH  11  12
HETATM   12  C   UNL     1     -12.578   8.690  72.214  1.00  0.00    -0.457 C  
BRANCH  12  13
HETATM   13  C   UNL     1     -11.048   8.610  72.161  1.00  0.00    -0.434 C  
BRANCH  13  14
HETATM   14  C   UNL     1     -10.601   7.163  71.953  1.00  0.00    -0.213 C  
BRANCH  14  15
HETATM   15  N   UNL     1     -10.123   6.848  70.538  1.00  0.00    -0.187 N  
HETATM   16  C   UNL     1      -9.753   8.115  69.776  1.00  0.00    -0.173 C  
HETATM   17  C   UNL     1     -11.168   6.059  69.761  1.00  0.00    -0.369 C  
HETATM   18  C   UNL     1      -8.859   5.988  70.678  1.00  0.00    -0.142 C  
ENDBRANCH  14  15
ENDBRANCH  13  14
ENDBRANCH  12  13
ENDBRANCH  11  12
ENDBRANCH  10  11
ENDBRANCH   9  10
ENDBRANCH   8   9
ENDBRANCH   7   8
ENDBRANCH   6   7
ENDBRANCH   5   6
ENDBRANCH   2   5
TORSDOF 11
ENDMDL
MODEL       38
REMARK 921   NORMALIZED FREE ENERGY PREDICTED BY IDOCK:   -3.80 KCAL/MOL
REMARK 922        TOTAL FREE ENERGY PREDICTED BY IDOCK:   -7.02 KCAL/MOL
REMARK 923 INTER-LIGAND FREE ENERGY PREDICTED BY IDOCK:   -6.34 KCAL/MOL
REMARK 924 INTRA-LIGAND FREE ENERGY PREDICTED BY IDOCK:   -0.68 KCAL/MOL
REMARK 927      BINDING AFFINITY PREDICTED BY RF-SCORE:    0.00 PKD
ROOT
HETATM    1  C   UNL     1     -10.013  20.029  67.941  1.00  0.00    -0.422 C  
HETATM    2  N   UNL     1      -9.711  19.252  66.653  1.00  0.00    -0.332 N  
HETATM    3  C   UNL     1      -8.319  19.634  66.168  1.00  0.00    -0.335 C  
HETATM    4  C   UNL     1     -10.748  19.638  65.610  1.00  0.00    -0.329 C  
ENDROOT
BRANCH   2   5
HETATM    5  C   UNL     1      -9.789  17.773  67.006  1.00  0.00    -0.309 C  
BRANCH   5   6
HETATM    6  C   UNL     1      -8.793  16.885  66.257  1.00  0.00    -0.314 C  
BRANCH   6   7
HETATM    7  C   UNL     1      -9.458  15.565  65.846  1.00  0.00    -0.377 C  
BRANCH   7   8
HETATM    8  C   UNL     1     -10.753  15.755  65.045  1.00  0.00    -0.443 C  
BRANCH   8   9
HETATM    9  C   UNL     1     -11.437  14.432  64.682  1.00  0.00    -0.390 C  
BRANCH   9  10
HETATM   10  C   UNL     1     -11.183  13.337  65.721  1.00  0.00    -0.313 C  
BRANCH  10  11
HETATM   11  C   UNL     1     -12.097  13.466  66.944  1.00  0.00    -0.406 C  
BRANCH  11  12
HETATM   12  C   UNL     1     -11.328  13.544  68.268  1.00  0.00    -0.328 C  
BRANCH  12  13
HETATM   13  C   UNL     1     -12.230  13.457  69.505  1.00  0.00    -0.260 C  
BRANCH  13  14
HETATM   14  C   UNL     1     -11.927  14.609  70.463  1.00  0.00    -0.310 C  
BRANCH  14  15
HETATM   15  N   UNL     1     -12.919  14.749  71.615  1.00  0.00    -0.314 N  
HETATM   16  C   UNL     1     -13.059  13.448  72.397  1.00  0.00    -0.366 C  
HETATM   17  C   UNL     1     -14.285  15.208  71.120  1.00  0.00    -0.336 C  
HETATM   18  C   UNL     1     -12.352  15.817  72.561  1.00  0.00    -0.455 C  
ENDBRANCH  14  15
ENDBRANCH  13  14
ENDBRANCH  12  13
ENDBRANCH  11  12
ENDBRANCH  10  11
ENDBRANCH   9  10
ENDBRANCH   8   9
ENDBRANCH   7   8
ENDBRANCH   6   7
ENDBRANCH   5   6
ENDBRANCH   2   5
TORSDOF 11
ENDMDL
MODEL       39
REMARK 921   NORMALIZED FREE ENERGY PREDICTED BY IDOCK:   -3.80 KCAL/MOL
REMARK 922        TOTAL FREE ENERGY PREDICTED BY IDOCK:   -7.01 KCAL/MOL
REMARK 923 INTER-LIGAND FREE ENERGY PREDICTED BY IDOCK:   -6.11 KCAL/MOL
REMARK 924 INTRA-LIGAND FREE ENERGY PREDICTED BY IDOCK:   -0.90 KCAL/MOL
REMARK 927      BINDING AFFINITY PREDICTED BY RF-SCORE:    0.00 PKD
ROOT
HETATM    1  C   UNL     1     -11.376  10.608  69.635  1.00  0.00    -0.294 C  
HETATM    2  N   UNL     1     -10.523   9.338  69.520  1.00  0.00    -0.214 N  
HETATM    3  C   UNL     1     -11.158   8.245  70.370  1.00  0.00    -0.235 C  
HETATM    4  C   UNL     1      -9.128   9.653  70.037  1.00  0.00    -0.237 C  
ENDROOT
BRANCH   2   5
HETATM    5  C   UNL     1     -10.506   8.955  68.046  1.00  0.00    -0.208 C  
BRANCH   5   6
HETATM    6  C   UNL     1     -10.546  10.140  67.080  1.00  0.00    -0.290 C  
BRANCH   6   7
HETATM    7  C   UNL     1      -9.862   9.773  65.756  1.00  0.00    -0.360 C  
BRANCH   7   8
HETATM    8  C   UNL     1      -9.637  10.975  64.830  1.00  0.00    -0.292 C  
BRANCH   8   9
HETATM    9  C   UNL     1     -10.720  11.120  63.755  1.00  0.00    -0.399 C  
BRANCH   9  10
HETATM   10  C   UNL     1     -11.349  12.515  63.741  1.00  0.00    -0.534 C  
BRANCH  10  11
HETATM   11  C   UNL     1     -12.468  12.665  64.776  1.00  0.00    -0.555 C  
BRANCH  11  12
HETATM   12  C   UNL     1     -12.236  13.822  65.755  1.00  0.00    -0.495 C  
BRANCH  12  13
HETATM   13  C   UNL     1     -10.782  14.307  65.793  1.00  0.00    -0.308 C  
BRANCH  13  14
HETATM   14  C   UNL     1     -10.709  15.792  65.440  1.00  0.00    -0.404 C  
BRANCH  14  15
HETATM   15  N   UNL     1      -9.954  16.646  66.454  1.00  0.00    -0.287 N  
HETATM   16  C   UNL     1     -10.335  18.118  66.344  1.00  0.00    -0.394 C  
HETATM   17  C   UNL     1      -8.447  16.486  66.305  1.00  0.00    -0.328 C  
HETATM   18  C   UNL     1     -10.368  16.150  67.847  1.00  0.00    -0.277 C  
ENDBRANCH  14  15
ENDBRANCH  13  14
ENDBRANCH  12  13
ENDBRANCH  11  12
ENDBRANCH  10  11
ENDBRANCH   9  10
ENDBRANCH   8   9
ENDBRANCH   7   8
ENDBRANCH   6   7
ENDBRANCH   5   6
ENDBRANCH   2   5
TORSDOF 11
ENDMDL
MODEL       40
REMARK 921   NORMALIZED FREE ENERGY PREDICTED BY IDOCK:   -3.80 KCAL/MOL
REMARK 922        TOTAL FREE ENERGY PREDICTED BY IDOCK:   -7.01 KCAL/MOL
REMARK 923 INTER-LIGAND FREE ENERGY PREDICTED BY IDOCK:   -6.16 KCAL/MOL
REMARK 924 INTRA-LIGAND FREE ENERGY PREDICTED BY IDOCK:   -0.85 KCAL/MOL
REMARK 927      BINDING AFFINITY PREDICTED BY RF-SCORE:    0.00 PKD
ROOT
HETATM    1  C   UNL     1      -9.209   7.091  69.008  1.00  0.00    -0.137 C  
HETATM    2  N   UNL     1     -10.286   6.016  68.816  1.00  0.00    -0.191 N  
HETATM    3  C   UNL     1      -9.697   4.662  69.191  1.00  0.00    -0.185 C  
HETATM    4  C   UNL     1     -10.701   6.014  67.352  1.00  0.00    -0.310 C  
ENDROOT
BRANCH   2   5
HETATM    5  C   UNL     1     -11.446   6.389  69.730  1.00  0.00    -0.399 C  
BRANCH   5   6
HETATM    6  C   UNL     1     -11.191   6.136  71.217  1.00  0.00    -0.348 C  
BRANCH   6   7
HETATM    7  C   UNL     1     -12.134   6.991  72.073  1.00  0.00    -0.329 C  
BRANCH   7   8
HETATM    8  C   UNL     1     -13.545   7.124  71.484  1.00  0.00    -0.408 C  
BRANCH   8   9
HETATM    9  C   UNL     1     -14.165   8.507  71.710  1.00  0.00    -0.525 C  
BRANCH   9  10
HETATM   10  C   UNL     1     -13.221   9.459  72.448  1.00  0.00    -0.483 C  
BRANCH  10  11
HETATM   11  C   UNL     1     -12.885  10.707  71.625  1.00  0.00    -0.570 C  
BRANCH  11  12
HETATM   12  C   UNL     1     -11.701  10.503  70.673  1.00  0.00    -0.453 C  
BRANCH  12  13
HETATM   13  C   UNL     1     -11.949  11.052  69.262  1.00  0.00    -0.410 C  
BRANCH  13  14
HETATM   14  C   UNL     1     -10.721  11.814  68.767  1.00  0.00    -0.221 C  
BRANCH  14  15
HETATM   15  N   UNL     1     -11.005  13.245  68.317  1.00  0.00    -0.246 N  
HETATM   16  C   UNL     1     -11.966  13.951  69.266  1.00  0.00    -0.357 C  
HETATM   17  C   UNL     1     -11.555  13.282  66.897  1.00  0.00    -0.364 C  
HETATM   18  C   UNL     1      -9.666  13.994  68.348  1.00  0.00    -0.223 C  
ENDBRANCH  14  15
ENDBRANCH  13  14
ENDBRANCH  12  13
ENDBRANCH  11  12
ENDBRANCH  10  11
ENDBRANCH   9  10
ENDBRANCH   8   9
ENDBRANCH   7   8
ENDBRANCH   6   7
ENDBRANCH   5   6
ENDBRANCH   2   5
TORSDOF 11
ENDMDL
MODEL       41
REMARK 921   NORMALIZED FREE ENERGY PREDICTED BY IDOCK:   -3.80 KCAL/MOL
REMARK 922        TOTAL FREE ENERGY PREDICTED BY IDOCK:   -7.00 KCAL/MOL
REMARK 923 INTER-LIGAND FREE ENERGY PREDICTED BY IDOCK:   -6.31 KCAL/MOL
REMARK 924 INTRA-LIGAND FREE ENERGY PREDICTED BY IDOCK:   -0.69 KCAL/MOL
REMARK 927      BINDING AFFINITY PREDICTED BY RF-SCORE:    0.00 PKD
ROOT
HETATM    1  C   UNL     1     -10.648   7.156  67.270  1.00  0.00    -0.327 C  
HETATM    2  N   UNL     1     -10.128   6.659  68.625  1.00  0.00    -0.154 N  
HETATM    3  C   UNL     1      -9.299   7.765  69.264  1.00  0.00    -0.148 C  
HETATM    4  C   UNL     1      -9.261   5.434  68.382  1.00  0.00    -0.111 C  
ENDROOT
BRANCH   2   5
HETATM    5  C   UNL     1     -11.353   6.325  69.467  1.00  0.00    -0.404 C  
BRANCH   5   6
HETATM    6  C   UNL     1     -11.211   6.653  70.955  1.00  0.00    -0.352 C  
BRANCH   6   7
HETATM    7  C   UNL     1     -12.385   7.521  71.425  1.00  0.00    -0.374 C  
BRANCH   7   8
HETATM    8  C   UNL     1     -11.974   8.947  71.815  1.00  0.00    -0.429 C  
BRANCH   8   9
HETATM    9  C   UNL     1     -13.069   9.986  71.544  1.00  0.00    -0.531 C  
BRANCH   9  10
HETATM   10  C   UNL     1     -12.515  11.278  70.940  1.00  0.00    -0.493 C  
BRANCH  10  11
HETATM   11  C   UNL     1     -11.415  11.016  69.905  1.00  0.00    -0.400 C  
BRANCH  11  12
HETATM   12  C   UNL     1     -11.935  11.001  68.462  1.00  0.00    -0.206 C  
BRANCH  12  13
HETATM   13  C   UNL     1     -11.528  12.239  67.653  1.00  0.00    -0.401 C  
BRANCH  13  14
HETATM   14  C   UNL     1     -11.296  11.863  66.190  1.00  0.00    -0.324 C  
BRANCH  14  15
HETATM   15  N   UNL     1     -11.722  12.933  65.189  1.00  0.00    -0.331 N  
HETATM   16  C   UNL     1     -10.526  13.722  64.668  1.00  0.00    -0.412 C  
HETATM   17  C   UNL     1     -12.749  13.883  65.791  1.00  0.00    -0.461 C  
HETATM   18  C   UNL     1     -12.364  12.200  64.002  1.00  0.00    -0.451 C  
ENDBRANCH  14  15
ENDBRANCH  13  14
ENDBRANCH  12  13
ENDBRANCH  11  12
ENDBRANCH  10  11
ENDBRANCH   9  10
ENDBRANCH   8   9
ENDBRANCH   7   8
ENDBRANCH   6   7
ENDBRANCH   5   6
ENDBRANCH   2   5
TORSDOF 11
ENDMDL
MODEL       42
REMARK 921   NORMALIZED FREE ENERGY PREDICTED BY IDOCK:   -3.79 KCAL/MOL
REMARK 922        TOTAL FREE ENERGY PREDICTED BY IDOCK:   -6.99 KCAL/MOL
REMARK 923 INTER-LIGAND FREE ENERGY PREDICTED BY IDOCK:   -6.32 KCAL/MOL
REMARK 924 INTRA-LIGAND FREE ENERGY PREDICTED BY IDOCK:   -0.67 KCAL/MOL
REMARK 927      BINDING AFFINITY PREDICTED BY RF-SCORE:    0.00 PKD
ROOT
HETATM    1  C   UNL     1     -10.616  14.996  66.570  1.00  0.00    -0.305 C  
HETATM    2  N   UNL     1     -11.496  13.740  66.536  1.00  0.00    -0.334 N  
HETATM    3  C   UNL     1     -10.661  12.573  66.027  1.00  0.00    -0.262 C  
HETATM    4  C   UNL     1     -12.659  13.999  65.590  1.00  0.00    -0.512 C  
ENDROOT
BRANCH   2   5
HETATM    5  C   UNL     1     -11.972  13.501  67.963  1.00  0.00    -0.337 C  
BRANCH   5   6
HETATM    6  C   UNL     1     -11.808  12.062  68.457  1.00  0.00    -0.369 C  
BRANCH   6   7
HETATM    7  C   UNL     1     -12.018  11.991  69.974  1.00  0.00    -0.400 C  
BRANCH   7   8
HETATM    8  C   UNL     1     -12.554  10.636  70.456  1.00  0.00    -0.433 C  
BRANCH   8   9
HETATM    9  C   UNL     1     -13.190  10.700  71.849  1.00  0.00    -0.528 C  
BRANCH   9  10
HETATM   10  C   UNL     1     -13.315   9.320  72.499  1.00  0.00    -0.463 C  
BRANCH  10  11
HETATM   11  C   UNL     1     -13.624   8.218  71.481  1.00  0.00    -0.337 C  
BRANCH  11  12
HETATM   12  C   UNL     1     -12.686   7.009  71.596  1.00  0.00    -0.417 C  
BRANCH  12  13
HETATM   13  C   UNL     1     -11.370   7.182  70.829  1.00  0.00    -0.322 C  
BRANCH  13  14
HETATM   14  C   UNL     1     -11.387   6.345  69.550  1.00  0.00    -0.393 C  
BRANCH  14  15
HETATM   15  N   UNL     1     -10.453   6.848  68.453  1.00  0.00    -0.193 N  
HETATM   16  C   UNL     1     -11.013   6.564  67.065  1.00  0.00    -0.396 C  
HETATM   17  C   UNL     1      -9.062   6.243  68.586  1.00  0.00    -0.126 C  
HETATM   18  C   UNL     1     -10.348   8.370  68.624  1.00  0.00    -0.197 C  
ENDBRANCH  14  15
ENDBRANCH  13  14
ENDBRANCH  12  13
ENDBRANCH  11  12
ENDBRANCH  10  11
ENDBRANCH   9  10
ENDBRANCH   8   9
ENDBRANCH   7   8
ENDBRANCH   6   7
ENDBRANCH   5   6
ENDBRANCH   2   5
TORSDOF 11
ENDMDL
MODEL       43
REMARK 921   NORMALIZED FREE ENERGY PREDICTED BY IDOCK:   -3.78 KCAL/MOL
REMARK 922        TOTAL FREE ENERGY PREDICTED BY IDOCK:   -6.98 KCAL/MOL
REMARK 923 INTER-LIGAND FREE ENERGY PREDICTED BY IDOCK:   -6.04 KCAL/MOL
REMARK 924 INTRA-LIGAND FREE ENERGY PREDICTED BY IDOCK:   -0.95 KCAL/MOL
REMARK 927      BINDING AFFINITY PREDICTED BY RF-SCORE:    0.00 PKD
ROOT
HETATM    1  C   UNL     1     -10.818  15.948  65.272  1.00  0.00    -0.387 C  
HETATM    2  N   UNL     1     -10.740  15.208  66.613  1.00  0.00    -0.306 N  
HETATM    3  C   UNL     1     -10.860  16.226  67.740  1.00  0.00    -0.315 C  
HETATM    4  C   UNL     1      -9.393  14.505  66.691  1.00  0.00    -0.281 C  
ENDROOT
BRANCH   2   5
HETATM    5  C   UNL     1     -11.896  14.217  66.634  1.00  0.00    -0.421 C  
BRANCH   5   6
HETATM    6  C   UNL     1     -12.551  13.973  65.274  1.00  0.00    -0.495 C  
BRANCH   6   7
HETATM    7  C   UNL     1     -12.470  12.488  64.900  1.00  0.00    -0.524 C  
BRANCH   7   8
HETATM    8  C   UNL     1     -11.272  12.146  64.004  1.00  0.00    -0.458 C  
BRANCH   8   9
HETATM    9  C   UNL     1     -10.527  10.882  64.448  1.00  0.00    -0.403 C  
BRANCH   9  10
HETATM   10  C   UNL     1      -9.804  11.067  65.784  1.00  0.00    -0.282 C  
BRANCH  10  11
HETATM   11  C   UNL     1     -10.328  10.123  66.871  1.00  0.00    -0.298 C  
BRANCH  11  12
HETATM   12  C   UNL     1     -11.300  10.801  67.843  1.00  0.00    -0.372 C  
BRANCH  12  13
HETATM   13  C   UNL     1     -10.789  10.843  69.288  1.00  0.00    -0.286 C  
BRANCH  13  14
HETATM   14  C   UNL     1      -9.962   9.595  69.594  1.00  0.00    -0.221 C  
BRANCH  14  15
HETATM   15  N   UNL     1     -10.606   8.641  70.596  1.00  0.00    -0.204 N  
HETATM   16  C   UNL     1     -11.012   7.327  69.938  1.00  0.00    -0.243 C  
HETATM   17  C   UNL     1     -11.812   9.277  71.274  1.00  0.00    -0.343 C  
HETATM   18  C   UNL     1      -9.545   8.333  71.661  1.00  0.00    -0.198 C  
ENDBRANCH  14  15
ENDBRANCH  13  14
ENDBRANCH  12  13
ENDBRANCH  11  12
ENDBRANCH  10  11
ENDBRANCH   9  10
ENDBRANCH   8   9
ENDBRANCH   7   8
ENDBRANCH   6   7
ENDBRANCH   5   6
ENDBRANCH   2   5
TORSDOF 11
ENDMDL
MODEL       44
REMARK 921   NORMALIZED FREE ENERGY PREDICTED BY IDOCK:   -3.78 KCAL/MOL
REMARK 922        TOTAL FREE ENERGY PREDICTED BY IDOCK:   -6.97 KCAL/MOL
REMARK 923 INTER-LIGAND FREE ENERGY PREDICTED BY IDOCK:   -6.30 KCAL/MOL
REMARK 924 INTRA-LIGAND FREE ENERGY PREDICTED BY IDOCK:   -0.67 KCAL/MOL
REMARK 927      BINDING AFFINITY PREDICTED BY RF-SCORE:    0.00 PKD
ROOT
HETATM    1  C   UNL     1     -13.537  12.980  72.285  1.00  0.00    -0.547 C  
HETATM    2  N   UNL     1     -13.153  14.442  72.028  1.00  0.00    -0.339 N  
HETATM    3  C   UNL     1     -12.666  15.056  73.334  1.00  0.00    -0.530 C  
HETATM    4  C   UNL     1     -14.390  15.180  71.537  1.00  0.00    -0.559 C  
ENDROOT
BRANCH   2   5
HETATM    5  C   UNL     1     -12.051  14.427  70.976  1.00  0.00    -0.349 C  
BRANCH   5   6
HETATM    6  C   UNL     1     -11.509  15.808  70.602  1.00  0.00    -0.415 C  
BRANCH   6   7
HETATM    7  C   UNL     1     -10.305  15.672  69.661  1.00  0.00    -0.287 C  
BRANCH   7   8
HETATM    8  C   UNL     1      -9.901  16.991  68.989  1.00  0.00    -0.240 C  
BRANCH   8   9
HETATM    9  C   UNL     1     -10.804  17.370  67.810  1.00  0.00    -0.257 C  
BRANCH   9  10
HETATM   10  C   UNL     1     -10.093  17.238  66.462  1.00  0.00    -0.311 C  
BRANCH  10  11
HETATM   11  C   UNL     1      -9.864  15.778  66.059  1.00  0.00    -0.366 C  
BRANCH  11  12
HETATM   12  C   UNL     1     -11.153  15.055  65.649  1.00  0.00    -0.349 C  
BRANCH  12  13
HETATM   13  C   UNL     1     -11.728  14.158  66.753  1.00  0.00    -0.432 C  
BRANCH  13  14
HETATM   14  C   UNL     1     -11.441  12.689  66.445  1.00  0.00    -0.356 C  
BRANCH  14  15
HETATM   15  N   UNL     1     -10.676  11.953  67.541  1.00  0.00    -0.217 N  
HETATM   16  C   UNL     1     -11.606  11.478  68.652  1.00  0.00    -0.313 C  
HETATM   17  C   UNL     1      -9.567  12.819  68.125  1.00  0.00    -0.223 C  
HETATM   18  C   UNL     1     -10.044  10.715  66.887  1.00  0.00    -0.214 C  
ENDBRANCH  14  15
ENDBRANCH  13  14
ENDBRANCH  12  13
ENDBRANCH  11  12
ENDBRANCH  10  11
ENDBRANCH   9  10
ENDBRANCH   8   9
ENDBRANCH   7   8
ENDBRANCH   6   7
ENDBRANCH   5   6
ENDBRANCH   2   5
TORSDOF 11
ENDMDL
MODEL       45
REMARK 921   NORMALIZED FREE ENERGY PREDICTED BY IDOCK:   -3.78 KCAL/MOL
REMARK 922        TOTAL FREE ENERGY PREDICTED BY IDOCK:   -6.97 KCAL/MOL
REMARK 923 INTER-LIGAND FREE ENERGY PREDICTED BY IDOCK:   -6.46 KCAL/MOL
REMARK 924 INTRA-LIGAND FREE ENERGY PREDICTED BY IDOCK:   -0.51 KCAL/MOL
REMARK 927      BINDING AFFINITY PREDICTED BY RF-SCORE:    0.00 PKD
ROOT
HETATM    1  C   UNL     1     -13.080   9.013  72.209  1.00  0.00    -0.445 C  
HETATM    2  N   UNL     1     -11.844   8.221  71.762  1.00  0.00    -0.287 N  
HETATM    3  C   UNL     1     -12.304   7.001  70.976  1.00  0.00    -0.356 C  
HETATM    4  C   UNL     1     -11.085   7.783  73.005  1.00  0.00    -0.359 C  
ENDROOT
BRANCH   2   5
HETATM    5  C   UNL     1     -11.014   9.159  70.895  1.00  0.00    -0.282 C  
BRANCH   5   6
HETATM    6  C   UNL     1     -11.783  10.357  70.335  1.00  0.00    -0.419 C  
BRANCH   6   7
HETATM    7  C   UNL     1     -10.946  11.079  69.271  1.00  0.00    -0.305 C  
BRANCH   7   8
HETATM    8  C   UNL     1     -11.766  12.029  68.388  1.00  0.00    -0.390 C  
BRANCH   8   9
HETATM    9  C   UNL     1     -11.241  12.119  66.950  1.00  0.00    -0.375 C  
BRANCH   9  10
HETATM   10  C   UNL     1     -12.111  13.015  66.065  1.00  0.00    -0.493 C  
BRANCH  10  11
HETATM   11  C   UNL     1     -11.495  14.401  65.848  1.00  0.00    -0.341 C  
BRANCH  11  12
HETATM   12  C   UNL     1      -9.969  14.368  65.699  1.00  0.00    -0.365 C  
BRANCH  12  13
HETATM   13  C   UNL     1      -9.303  15.728  65.939  1.00  0.00    -0.356 C  
BRANCH  13  14
HETATM   14  C   UNL     1     -10.363  16.806  66.157  1.00  0.00    -0.330 C  
BRANCH  14  15
HETATM   15  N   UNL     1     -10.069  17.755  67.316  1.00  0.00    -0.324 N  
HETATM   16  C   UNL     1     -10.706  19.123  67.097  1.00  0.00    -0.471 C  
HETATM   17  C   UNL     1      -8.570  17.910  67.542  1.00  0.00    -0.239 C  
HETATM   18  C   UNL     1     -10.696  17.131  68.570  1.00  0.00    -0.326 C  
ENDBRANCH  14  15
ENDBRANCH  13  14
ENDBRANCH  12  13
ENDBRANCH  11  12
ENDBRANCH  10  11
ENDBRANCH   9  10
ENDBRANCH   8   9
ENDBRANCH   7   8
ENDBRANCH   6   7
ENDBRANCH   5   6
ENDBRANCH   2   5
TORSDOF 11
ENDMDL
MODEL       46
REMARK 921   NORMALIZED FREE ENERGY PREDICTED BY IDOCK:   -3.76 KCAL/MOL
REMARK 922        TOTAL FREE ENERGY PREDICTED BY IDOCK:   -6.95 KCAL/MOL
REMARK 923 INTER-LIGAND FREE ENERGY PREDICTED BY IDOCK:   -5.93 KCAL/MOL
REMARK 924 INTRA-LIGAND FREE ENERGY PREDICTED BY IDOCK:   -1.02 KCAL/MOL
REMARK 927      BINDING AFFINITY PREDICTED BY RF-SCORE:    0.00 PKD
ROOT
HETATM    1  C   UNL     1      -9.879   8.587  71.983  1.00  0.00    -0.312 C  
HETATM    2  N   UNL     1     -11.225   7.862  71.854  1.00  0.00    -0.258 N  
HETATM    3  C   UNL     1     -11.200   6.626  72.743  1.00  0.00    -0.227 C  
HETATM    4  C   UNL     1     -11.407   7.453  70.401  1.00  0.00    -0.249 C  
ENDROOT
BRANCH   2   5
HETATM    5  C   UNL     1     -12.297   8.846  72.302  1.00  0.00    -0.360 C  
BRANCH   5   6
HETATM    6  C   UNL     1     -12.950   9.638  71.167  1.00  0.00    -0.389 C  
BRANCH   6   7
HETATM    7  C   UNL     1     -12.604  11.128  71.288  1.00  0.00    -0.503 C  
BRANCH   7   8
HETATM    8  C   UNL     1     -12.152  11.761  69.965  1.00  0.00    -0.387 C  
BRANCH   8   9
HETATM    9  C   UNL     1     -11.005  10.997  69.292  1.00  0.00    -0.305 C  
BRANCH   9  10
HETATM   10  C   UNL     1     -11.386  10.472  67.906  1.00  0.00    -0.297 C  
BRANCH  10  11
HETATM   11  C   UNL     1     -10.664  11.217  66.778  1.00  0.00    -0.326 C  
BRANCH  11  12
HETATM   12  C   UNL     1     -11.548  12.258  66.079  1.00  0.00    -0.451 C  
BRANCH  12  13
HETATM   13  C   UNL     1     -10.991  13.685  66.161  1.00  0.00    -0.285 C  
BRANCH  13  14
HETATM   14  C   UNL     1     -11.802  14.514  67.155  1.00  0.00    -0.387 C  
BRANCH  14  15
HETATM   15  N   UNL     1     -10.961  15.287  68.167  1.00  0.00    -0.280 N  
HETATM   16  C   UNL     1     -10.521  16.638  67.615  1.00  0.00    -0.320 C  
HETATM   17  C   UNL     1      -9.745  14.484  68.609  1.00  0.00    -0.221 C  
HETATM   18  C   UNL     1     -11.857  15.540  69.388  1.00  0.00    -0.374 C  
ENDBRANCH  14  15
ENDBRANCH  13  14
ENDBRANCH  12  13
ENDBRANCH  11  12
ENDBRANCH  10  11
ENDBRANCH   9  10
ENDBRANCH   8   9
ENDBRANCH   7   8
ENDBRANCH   6   7
ENDBRANCH   5   6
ENDBRANCH   2   5
TORSDOF 11
ENDMDL
MODEL       47
REMARK 921   NORMALIZED FREE ENERGY PREDICTED BY IDOCK:   -3.74 KCAL/MOL
REMARK 922        TOTAL FREE ENERGY PREDICTED BY IDOCK:   -6.92 KCAL/MOL
REMARK 923 INTER-LIGAND FREE ENERGY PREDICTED BY IDOCK:   -5.96 KCAL/MOL
REMARK 924 INTRA-LIGAND FREE ENERGY PREDICTED BY IDOCK:   -0.96 KCAL/MOL
REMARK 927      BINDING AFFINITY PREDICTED BY RF-SCORE:    0.00 PKD
ROOT
HETATM    1  C   UNL     1     -10.516   8.685  69.306  1.00  0.00    -0.217 C  
HETATM    2  N   UNL     1     -10.391  10.111  68.755  1.00  0.00    -0.184 N  
HETATM    3  C   UNL     1      -8.942  10.562  68.891  1.00  0.00    -0.172 C  
HETATM    4  C   UNL     1     -11.296  11.019  69.573  1.00  0.00    -0.287 C  
ENDROOT
BRANCH   2   5
HETATM    5  C   UNL     1     -10.820  10.055  67.294  1.00  0.00    -0.217 C  
BRANCH   5   6
HETATM    6  C   UNL     1      -9.981   9.123  66.419  1.00  0.00    -0.358 C  
BRANCH   6   7
HETATM    7  C   UNL     1      -9.753   9.748  65.037  1.00  0.00    -0.303 C  
BRANCH   7   8
HETATM    8  C   UNL     1     -10.097  11.242  64.977  1.00  0.00    -0.331 C  
BRANCH   8   9
HETATM    9  C   UNL     1     -10.523  11.708  63.580  1.00  0.00    -0.498 C  
BRANCH   9  10
HETATM   10  C   UNL     1     -11.850  12.470  63.596  1.00  0.00    -0.610 C  
BRANCH  10  11
HETATM   11  C   UNL     1     -11.737  13.829  64.296  1.00  0.00    -0.426 C  
BRANCH  11  12
HETATM   12  C   UNL     1     -12.656  13.958  65.517  1.00  0.00    -0.560 C  
BRANCH  12  13
HETATM   13  C   UNL     1     -12.004  13.492  66.824  1.00  0.00    -0.453 C  
BRANCH  13  14
HETATM   14  C   UNL     1     -11.732  14.688  67.736  1.00  0.00    -0.359 C  
BRANCH  14  15
HETATM   15  N   UNL     1     -10.257  15.058  67.868  1.00  0.00    -0.227 N  
HETATM   16  C   UNL     1      -9.918  16.309  67.066  1.00  0.00    -0.255 C  
HETATM   17  C   UNL     1      -9.354  13.907  67.444  1.00  0.00    -0.228 C  
HETATM   18  C   UNL     1     -10.007  15.361  69.353  1.00  0.00    -0.272 C  
ENDBRANCH  14  15
ENDBRANCH  13  14
ENDBRANCH  12  13
ENDBRANCH  11  12
ENDBRANCH  10  11
ENDBRANCH   9  10
ENDBRANCH   8   9
ENDBRANCH   7   8
ENDBRANCH   6   7
ENDBRANCH   5   6
ENDBRANCH   2   5
TORSDOF 11
ENDMDL
MODEL       48
REMARK 921   NORMALIZED FREE ENERGY PREDICTED BY IDOCK:   -3.74 KCAL/MOL
REMARK 922        TOTAL FREE ENERGY PREDICTED BY IDOCK:   -6.92 KCAL/MOL
REMARK 923 INTER-LIGAND FREE ENERGY PREDICTED BY IDOCK:   -6.02 KCAL/MOL
REMARK 924 INTRA-LIGAND FREE ENERGY PREDICTED BY IDOCK:   -0.89 KCAL/MOL
REMARK 927      BINDING AFFINITY PREDICTED BY RF-SCORE:    0.00 PKD
ROOT
HETATM    1  C   UNL     1     -10.058   9.623  66.078  1.00  0.00    -0.248 C  
HETATM    2  N   UNL     1      -9.118  10.394  65.144  1.00  0.00    -0.184 N  
HETATM    3  C   UNL     1      -8.822   9.529  63.926  1.00  0.00    -0.210 C  
HETATM    4  C   UNL     1      -7.829  10.684  65.899  1.00  0.00    -0.150 C  
ENDROOT
BRANCH   2   5
HETATM    5  C   UNL     1      -9.843  11.675  64.753  1.00  0.00    -0.229 C  
BRANCH   5   6
HETATM    6  C   UNL     1     -10.784  11.534  63.555  1.00  0.00    -0.483 C  
BRANCH   6   7
HETATM    7  C   UNL     1     -12.005  12.446  63.725  1.00  0.00    -0.600 C  
BRANCH   7   8
HETATM    8  C   UNL     1     -12.449  12.610  65.185  1.00  0.00    -0.531 C  
BRANCH   8   9
HETATM    9  C   UNL     1     -12.530  14.075  65.630  1.00  0.00    -0.531 C  
BRANCH   9  10
HETATM   10  C   UNL     1     -11.842  15.024  64.647  1.00  0.00    -0.378 C  
BRANCH  10  11
HETATM   11  C   UNL     1     -10.567  15.647  65.227  1.00  0.00    -0.448 C  
BRANCH  11  12
HETATM   12  C   UNL     1     -10.530  15.630  66.760  1.00  0.00    -0.297 C  
BRANCH  12  13
HETATM   13  C   UNL     1     -10.487  17.029  67.386  1.00  0.00    -0.322 C  
BRANCH  13  14
HETATM   14  C   UNL     1      -9.126  17.277  68.036  1.00  0.00    -0.249 C  
BRANCH  14  15
HETATM   15  N   UNL     1      -8.365  18.472  67.469  1.00  0.00    -0.255 N  
HETATM   16  C   UNL     1      -7.733  19.311  68.574  1.00  0.00    -0.345 C  
HETATM   17  C   UNL     1      -9.263  19.345  66.603  1.00  0.00    -0.342 C  
HETATM   18  C   UNL     1      -7.237  17.905  66.595  1.00  0.00    -0.219 C  
ENDBRANCH  14  15
ENDBRANCH  13  14
ENDBRANCH  12  13
ENDBRANCH  11  12
ENDBRANCH  10  11
ENDBRANCH   9  10
ENDBRANCH   8   9
ENDBRANCH   7   8
ENDBRANCH   6   7
ENDBRANCH   5   6
ENDBRANCH   2   5
TORSDOF 11
ENDMDL
MODEL       49
REMARK 921   NORMALIZED FREE ENERGY PREDICTED BY IDOCK:   -3.74 KCAL/MOL
REMARK 922        TOTAL FREE ENERGY PREDICTED BY IDOCK:   -6.91 KCAL/MOL
REMARK 923 INTER-LIGAND FREE ENERGY PREDICTED BY IDOCK:   -6.12 KCAL/MOL
REMARK 924 INTRA-LIGAND FREE ENERGY PREDICTED BY IDOCK:   -0.79 KCAL/MOL
REMARK 927      BINDING AFFINITY PREDICTED BY RF-SCORE:    0.00 PKD
ROOT
HETATM    1  C   UNL     1      -8.162   9.713  67.022  1.00  0.00    -0.117 C  
HETATM    2  N   UNL     1      -9.547   9.301  66.507  1.00  0.00    -0.204 N  
HETATM    3  C   UNL     1     -10.607   9.915  67.413  1.00  0.00    -0.277 C  
HETATM    4  C   UNL     1      -9.640   7.784  66.553  1.00  0.00    -0.201 C  
ENDROOT
BRANCH   2   5
HETATM    5  C   UNL     1      -9.660   9.830  65.084  1.00  0.00    -0.287 C  
BRANCH   5   6
HETATM    6  C   UNL     1     -10.015  11.315  64.982  1.00  0.00    -0.323 C  
BRANCH   6   7
HETATM    7  C   UNL     1     -10.606  11.629  63.602  1.00  0.00    -0.493 C  
BRANCH   7   8
HETATM    8  C   UNL     1     -11.724  12.680  63.640  1.00  0.00    -0.597 C  
BRANCH   8   9
HETATM    9  C   UNL     1     -12.520  12.667  64.951  1.00  0.00    -0.564 C  
BRANCH   9  10
HETATM   10  C   UNL     1     -12.635  14.058  65.579  1.00  0.00    -0.543 C  
BRANCH  10  11
HETATM   11  C   UNL     1     -11.304  14.555  66.152  1.00  0.00    -0.348 C  
BRANCH  11  12
HETATM   12  C   UNL     1     -10.675  15.685  65.327  1.00  0.00    -0.444 C  
BRANCH  12  13
HETATM   13  C   UNL     1      -9.426  16.293  65.977  1.00  0.00    -0.369 C  
BRANCH  13  14
HETATM   14  C   UNL     1      -9.810  17.496  66.839  1.00  0.00    -0.302 C  
BRANCH  14  15
HETATM   15  N   UNL     1      -9.308  17.426  68.278  1.00  0.00    -0.270 N  
HETATM   16  C   UNL     1      -8.240  16.353  68.449  1.00  0.00    -0.190 C  
HETATM   17  C   UNL     1     -10.452  17.181  69.255  1.00  0.00    -0.267 C  
HETATM   18  C   UNL     1      -8.672  18.787  68.593  1.00  0.00    -0.325 C  
ENDBRANCH  14  15
ENDBRANCH  13  14
ENDBRANCH  12  13
ENDBRANCH  11  12
ENDBRANCH  10  11
ENDBRANCH   9  10
ENDBRANCH   8   9
ENDBRANCH   7   8
ENDBRANCH   6   7
ENDBRANCH   5   6
ENDBRANCH   2   5
TORSDOF 11
ENDMDL
MODEL       50
REMARK 921   NORMALIZED FREE ENERGY PREDICTED BY IDOCK:   -3.73 KCAL/MOL
REMARK 922        TOTAL FREE ENERGY PREDICTED BY IDOCK:   -6.89 KCAL/MOL
REMARK 923 INTER-LIGAND FREE ENERGY PREDICTED BY IDOCK:   -6.05 KCAL/MOL
REMARK 924 INTRA-LIGAND FREE ENERGY PREDICTED BY IDOCK:   -0.84 KCAL/MOL
REMARK 927      BINDING AFFINITY PREDICTED BY RF-SCORE:    0.00 PKD
ROOT
HETATM    1  C   UNL     1     -11.878  12.350  65.916  1.00  0.00    -0.405 C  
HETATM    2  N   UNL     1     -11.328  12.202  64.492  1.00  0.00    -0.322 N  
HETATM    3  C   UNL     1     -12.494  11.958  63.542  1.00  0.00    -0.492 C  
HETATM    4  C   UNL     1     -10.382  11.011  64.468  1.00  0.00    -0.354 C  
ENDROOT
BRANCH   2   5
HETATM    5  C   UNL     1     -10.607  13.502  64.163  1.00  0.00    -0.158 C  
BRANCH   5   6
HETATM    6  C   UNL     1     -10.871  14.643  65.147  1.00  0.00    -0.414 C  
BRANCH   6   7
HETATM    7  C   UNL     1      -9.584  15.011  65.896  1.00  0.00    -0.356 C  
BRANCH   7   8
HETATM    8  C   UNL     1      -9.753  15.052  67.421  1.00  0.00    -0.216 C  
BRANCH   8   9
HETATM    9  C   UNL     1     -11.175  15.419  67.861  1.00  0.00    -0.329 C  
BRANCH   9  10
HETATM   10  C   UNL     1     -11.192  16.497  68.947  1.00  0.00    -0.257 C  
BRANCH  10  11
HETATM   11  C   UNL     1     -10.247  17.661  68.633  1.00  0.00    -0.377 C  
BRANCH  11  12
HETATM   12  C   UNL     1     -10.817  18.641  67.600  1.00  0.00    -0.347 C  
BRANCH  12  13
HETATM   13  C   UNL     1      -9.949  19.889  67.398  1.00  0.00    -0.558 C  
BRANCH  13  14
HETATM   14  C   UNL     1      -9.102  19.747  66.133  1.00  0.00    -0.343 C  
BRANCH  14  15
HETATM   15  N   UNL     1      -7.622  19.483  66.392  1.00  0.00    -0.265 N  
HETATM   16  C   UNL     1      -7.213  19.905  67.798  1.00  0.00    -0.278 C  
HETATM   17  C   UNL     1      -6.743  20.182  65.363  1.00  0.00    -0.298 C  
HETATM   18  C   UNL     1      -7.414  17.966  66.270  1.00  0.00    -0.286 C  
ENDBRANCH  14  15
ENDBRANCH  13  14
ENDBRANCH  12  13
ENDBRANCH  11  12
ENDBRANCH  10  11
ENDBRANCH   9  10
ENDBRANCH   8   9
ENDBRANCH   7   8
ENDBRANCH   6   7
ENDBRANCH   5   6
ENDBRANCH   2   5
TORSDOF 11
ENDMDL
MODEL       51
REMARK 921   NORMALIZED FREE ENERGY PREDICTED BY IDOCK:   -3.72 KCAL/MOL
REMARK 922        TOTAL FREE ENERGY PREDICTED BY IDOCK:   -6.88 KCAL/MOL
REMARK 923 INTER-LIGAND FREE ENERGY PREDICTED BY IDOCK:   -6.44 KCAL/MOL
REMARK 924 INTRA-LIGAND FREE ENERGY PREDICTED BY IDOCK:   -0.43 KCAL/MOL
REMARK 927      BINDING AFFINITY PREDICTED BY RF-SCORE:    0.00 PKD
ROOT
HETATM    1  C   UNL     1     -13.436   7.530  71.610  1.00  0.00    -0.365 C  
HETATM    2  N   UNL     1     -11.937   7.611  71.296  1.00  0.00    -0.300 N  
HETATM    3  C   UNL     1     -11.608   6.587  70.218  1.00  0.00    -0.409 C  
HETATM    4  C   UNL     1     -11.166   7.292  72.568  1.00  0.00    -0.301 C  
ENDROOT
BRANCH   2   5
HETATM    5  C   UNL     1     -11.667   9.030  70.814  1.00  0.00    -0.242 C  
BRANCH   5   6
HETATM    6  C   UNL     1     -12.570  10.097  71.436  1.00  0.00    -0.526 C  
BRANCH   6   7
HETATM    7  C   UNL     1     -12.342  11.453  70.756  1.00  0.00    -0.483 C  
BRANCH   7   8
HETATM    8  C   UNL     1     -11.965  11.338  69.273  1.00  0.00    -0.411 C  
BRANCH   8   9
HETATM    9  C   UNL     1     -11.095  12.499  68.780  1.00  0.00    -0.314 C  
BRANCH   9  10
HETATM   10  C   UNL     1     -11.805  13.851  68.888  1.00  0.00    -0.393 C  
BRANCH  10  11
HETATM   11  C   UNL     1     -11.896  14.575  67.540  1.00  0.00    -0.404 C  
BRANCH  11  12
HETATM   12  C   UNL     1     -10.731  15.541  67.294  1.00  0.00    -0.308 C  
BRANCH  12  13
HETATM   13  C   UNL     1     -10.689  16.712  68.283  1.00  0.00    -0.351 C  
BRANCH  13  14
HETATM   14  C   UNL     1      -9.262  17.243  68.416  1.00  0.00    -0.268 C  
BRANCH  14  15
HETATM   15  N   UNL     1      -9.078  18.682  67.943  1.00  0.00    -0.289 N  
HETATM   16  C   UNL     1      -7.929  19.369  68.672  1.00  0.00    -0.368 C  
HETATM   17  C   UNL     1     -10.357  19.491  68.110  1.00  0.00    -0.433 C  
HETATM   18  C   UNL     1      -8.725  18.617  66.450  1.00  0.00    -0.276 C  
ENDBRANCH  14  15
ENDBRANCH  13  14
ENDBRANCH  12  13
ENDBRANCH  11  12
ENDBRANCH  10  11
ENDBRANCH   9  10
ENDBRANCH   8   9
ENDBRANCH   7   8
ENDBRANCH   6   7
ENDBRANCH   5   6
ENDBRANCH   2   5
TORSDOF 11
ENDMDL
MODEL       52
REMARK 921   NORMALIZED FREE ENERGY PREDICTED BY IDOCK:   -3.71 KCAL/MOL
REMARK 922        TOTAL FREE ENERGY PREDICTED BY IDOCK:   -6.87 KCAL/MOL
REMARK 923 INTER-LIGAND FREE ENERGY PREDICTED BY IDOCK:   -6.06 KCAL/MOL
REMARK 924 INTRA-LIGAND FREE ENERGY PREDICTED BY IDOCK:   -0.80 KCAL/MOL
REMARK 927      BINDING AFFINITY PREDICTED BY RF-SCORE:    0.00 PKD
ROOT
HETATM    1  C   UNL     1     -13.326   9.008  72.297  1.00  0.00    -0.467 C  
HETATM    2  N   UNL     1     -12.057   8.347  71.744  1.00  0.00    -0.307 N  
HETATM    3  C   UNL     1     -12.459   7.121  70.934  1.00  0.00    -0.258 C  
HETATM    4  C   UNL     1     -11.188   7.930  72.920  1.00  0.00    -0.366 C  
ENDROOT
BRANCH   2   5
HETATM    5  C   UNL     1     -11.366   9.387  70.872  1.00  0.00    -0.319 C  
BRANCH   5   6
HETATM    6  C   UNL     1     -12.235  10.593  70.510  1.00  0.00    -0.449 C  
BRANCH   6   7
HETATM    7  C   UNL     1     -11.894  11.091  69.100  1.00  0.00    -0.407 C  
BRANCH   7   8
HETATM    8  C   UNL     1     -10.653  10.420  68.495  1.00  0.00    -0.237 C  
BRANCH   8   9
HETATM    9  C   UNL     1     -10.739  10.253  66.974  1.00  0.00    -0.281 C  
BRANCH   9  10
HETATM   10  C   UNL     1     -10.134  11.440  66.220  1.00  0.00    -0.263 C  
BRANCH  10  11
HETATM   11  C   UNL     1     -11.083  12.007  65.159  1.00  0.00    -0.369 C  
BRANCH  11  12
HETATM   12  C   UNL     1     -12.183  12.899  65.748  1.00  0.00    -0.498 C  
BRANCH  12  13
HETATM   13  C   UNL     1     -11.760  14.365  65.906  1.00  0.00    -0.371 C  
BRANCH  13  14
HETATM   14  C   UNL     1     -11.516  14.689  67.380  1.00  0.00    -0.369 C  
BRANCH  14  15
HETATM   15  N   UNL     1     -10.258  15.512  67.645  1.00  0.00    -0.252 N  
HETATM   16  C   UNL     1      -9.617  15.145  68.978  1.00  0.00    -0.229 C  
HETATM   17  C   UNL     1     -10.551  17.006  67.603  1.00  0.00    -0.333 C  
HETATM   18  C   UNL     1      -9.262  15.172  66.526  1.00  0.00    -0.287 C  
ENDBRANCH  14  15
ENDBRANCH  13  14
ENDBRANCH  12  13
ENDBRANCH  11  12
ENDBRANCH  10  11
ENDBRANCH   9  10
ENDBRANCH   8   9
ENDBRANCH   7   8
ENDBRANCH   6   7
ENDBRANCH   5   6
ENDBRANCH   2   5
TORSDOF 11
ENDMDL
MODEL       53
REMARK 921   NORMALIZED FREE ENERGY PREDICTED BY IDOCK:   -3.70 KCAL/MOL
REMARK 922        TOTAL FREE ENERGY PREDICTED BY IDOCK:   -6.84 KCAL/MOL
REMARK 923 INTER-LIGAND FREE ENERGY PREDICTED BY IDOCK:   -6.19 KCAL/MOL
REMARK 924 INTRA-LIGAND FREE ENERGY PREDICTED BY IDOCK:   -0.65 KCAL/MOL
REMARK 927      BINDING AFFINITY PREDICTED BY RF-SCORE:    0.00 PKD
ROOT
HETATM    1  C   UNL     1      -9.509  17.483  66.687  1.00  0.00    -0.275 C  
HETATM    2  N   UNL     1     -10.012  16.056  66.942  1.00  0.00    -0.245 N  
HETATM    3  C   UNL     1     -11.113  16.107  67.993  1.00  0.00    -0.317 C  
HETATM    4  C   UNL     1      -8.845  15.225  67.454  1.00  0.00    -0.179 C  
ENDROOT
BRANCH   2   5
HETATM    5  C   UNL     1     -10.537  15.533  65.612  1.00  0.00    -0.373 C  
BRANCH   5   6
HETATM    6  C   UNL     1     -11.421  14.289  65.721  1.00  0.00    -0.335 C  
BRANCH   6   7
HETATM    7  C   UNL     1     -10.689  13.063  65.160  1.00  0.00    -0.324 C  
BRANCH   7   8
HETATM    8  C   UNL     1     -10.459  11.958  66.200  1.00  0.00    -0.272 C  
BRANCH   8   9
HETATM    9  C   UNL     1     -11.586  11.858  67.234  1.00  0.00    -0.364 C  
BRANCH   9  10
HETATM   10  C   UNL     1     -11.062  11.847  68.672  1.00  0.00    -0.295 C  
BRANCH  10  11
HETATM   11  C   UNL     1     -11.849  10.892  69.576  1.00  0.00    -0.404 C  
BRANCH  11  12
HETATM   12  C   UNL     1     -12.239  11.517  70.921  1.00  0.00    -0.425 C  
BRANCH  12  13
HETATM   13  C   UNL     1     -12.342  13.047  70.877  1.00  0.00    -0.376 C  
BRANCH  13  14
HETATM   14  C   UNL     1     -13.211  13.553  72.028  1.00  0.00    -0.439 C  
BRANCH  14  15
HETATM   15  N   UNL     1     -13.024  15.031  72.356  1.00  0.00    -0.331 N  
HETATM   16  C   UNL     1     -14.360  15.762  72.432  1.00  0.00    -0.242 C  
HETATM   17  C   UNL     1     -12.113  15.716  71.346  1.00  0.00    -0.418 C  
HETATM   18  C   UNL     1     -12.364  15.098  73.741  1.00  0.00    -0.578 C  
ENDBRANCH  14  15
ENDBRANCH  13  14
ENDBRANCH  12  13
ENDBRANCH  11  12
ENDBRANCH  10  11
ENDBRANCH   9  10
ENDBRANCH   8   9
ENDBRANCH   7   8
ENDBRANCH   6   7
ENDBRANCH   5   6
ENDBRANCH   2   5
TORSDOF 11
ENDMDL
MODEL       54
REMARK 921   NORMALIZED FREE ENERGY PREDICTED BY IDOCK:   -3.70 KCAL/MOL
REMARK 922        TOTAL FREE ENERGY PREDICTED BY IDOCK:   -6.84 KCAL/MOL
REMARK 923 INTER-LIGAND FREE ENERGY PREDICTED BY IDOCK:   -5.71 KCAL/MOL
REMARK 924 INTRA-LIGAND FREE ENERGY PREDICTED BY IDOCK:   -1.13 KCAL/MOL
REMARK 927      BINDING AFFINITY PREDICTED BY RF-SCORE:    0.00 PKD
ROOT
HETATM    1  C   UNL     1     -12.165  12.249  63.777  1.00  0.00    -0.546 C  
HETATM    2  N   UNL     1     -11.788  13.075  65.013  1.00  0.00    -0.342 N  
HETATM    3  C   UNL     1     -12.986  13.924  65.417  1.00  0.00    -0.326 C  
HETATM    4  C   UNL     1     -10.616  13.973  64.646  1.00  0.00    -0.395 C  
ENDROOT
BRANCH   2   5
HETATM    5  C   UNL     1     -11.417  12.082  66.106  1.00  0.00    -0.339 C  
BRANCH   5   6
HETATM    6  C   UNL     1     -10.022  12.283  66.703  1.00  0.00    -0.229 C  
BRANCH   6   7
HETATM    7  C   UNL     1     -10.127  12.807  68.141  1.00  0.00    -0.239 C  
BRANCH   7   8
HETATM    8  C   UNL     1     -11.560  12.804  68.691  1.00  0.00    -0.352 C  
BRANCH   8   9
HETATM    9  C   UNL     1     -12.079  14.205  69.031  1.00  0.00    -0.348 C  
BRANCH   9  10
HETATM   10  C   UNL     1     -11.126  14.976  69.948  1.00  0.00    -0.298 C  
BRANCH  10  11
HETATM   11  C   UNL     1     -10.705  16.325  69.355  1.00  0.00    -0.318 C  
BRANCH  11  12
HETATM   12  C   UNL     1     -10.912  16.409  67.837  1.00  0.00    -0.298 C  
BRANCH  12  13
HETATM   13  C   UNL     1      -9.641  16.788  67.067  1.00  0.00    -0.244 C  
BRANCH  13  14
HETATM   14  C   UNL     1      -8.724  17.639  67.945  1.00  0.00    -0.245 C  
BRANCH  14  15
HETATM   15  N   UNL     1      -8.181  18.891  67.262  1.00  0.00    -0.268 N  
HETATM   16  C   UNL     1      -9.293  19.695  66.597  1.00  0.00    -0.376 C  
HETATM   17  C   UNL     1      -7.107  18.546  66.239  1.00  0.00    -0.250 C  
HETATM   18  C   UNL     1      -7.555  19.760  68.362  1.00  0.00    -0.301 C  
ENDBRANCH  14  15
ENDBRANCH  13  14
ENDBRANCH  12  13
ENDBRANCH  11  12
ENDBRANCH  10  11
ENDBRANCH   9  10
ENDBRANCH   8   9
ENDBRANCH   7   8
ENDBRANCH   6   7
ENDBRANCH   5   6
ENDBRANCH   2   5
TORSDOF 11
ENDMDL
MODEL       55
REMARK 921   NORMALIZED FREE ENERGY PREDICTED BY IDOCK:   -3.69 KCAL/MOL
REMARK 922        TOTAL FREE ENERGY PREDICTED BY IDOCK:   -6.84 KCAL/MOL
REMARK 923 INTER-LIGAND FREE ENERGY PREDICTED BY IDOCK:   -6.03 KCAL/MOL
REMARK 924 INTRA-LIGAND FREE ENERGY PREDICTED BY IDOCK:   -0.81 KCAL/MOL
REMARK 927      BINDING AFFINITY PREDICTED BY RF-SCORE:    0.00 PKD
ROOT
HETATM    1  C   UNL     1     -10.735  15.744  65.495  1.00  0.00    -0.383 C  
HETATM    2  N   UNL     1     -10.820  14.991  66.829  1.00  0.00    -0.314 N  
HETATM    3  C   UNL     1     -10.942  16.008  67.956  1.00  0.00    -0.341 C  
HETATM    4  C   UNL     1      -9.545  14.180  66.999  1.00  0.00    -0.262 C  
ENDROOT
BRANCH   2   5
HETATM    5  C   UNL     1     -12.051  14.098  66.750  1.00  0.00    -0.442 C  
BRANCH   5   6
HETATM    6  C   UNL     1     -12.653  13.965  65.350  1.00  0.00    -0.538 C  
BRANCH   6   7
HETATM    7  C   UNL     1     -12.425  12.551  64.803  1.00  0.00    -0.532 C  
BRANCH   7   8
HETATM    8  C   UNL     1     -11.618  12.521  63.498  1.00  0.00    -0.584 C  
BRANCH   8   9
HETATM    9  C   UNL     1     -10.562  11.410  63.467  1.00  0.00    -0.468 C  
BRANCH   9  10
HETATM   10  C   UNL     1      -9.792  11.296  64.785  1.00  0.00    -0.312 C  
BRANCH  10  11
HETATM   11  C   UNL     1      -9.799   9.871  65.346  1.00  0.00    -0.384 C  
BRANCH  11  12
HETATM   12  C   UNL     1     -10.470   9.766  66.721  1.00  0.00    -0.259 C  
BRANCH  12  13
HETATM   13  C   UNL     1     -10.452   8.347  67.303  1.00  0.00    -0.373 C  
BRANCH  13  14
HETATM   14  C   UNL     1     -10.471   8.401  68.830  1.00  0.00    -0.189 C  
BRANCH  14  15
HETATM   15  N   UNL     1      -9.095   8.296  69.483  1.00  0.00    -0.153 N  
HETATM   16  C   UNL     1      -8.600   9.653  69.969  1.00  0.00    -0.215 C  
HETATM   17  C   UNL     1      -8.075   7.679  68.535  1.00  0.00    -0.124 C  
HETATM   18  C   UNL     1      -9.252   7.380  70.705  1.00  0.00    -0.157 C  
ENDBRANCH  14  15
ENDBRANCH  13  14
ENDBRANCH  12  13
ENDBRANCH  11  12
ENDBRANCH  10  11
ENDBRANCH   9  10
ENDBRANCH   8   9
ENDBRANCH   7   8
ENDBRANCH   6   7
ENDBRANCH   5   6
ENDBRANCH   2   5
TORSDOF 11
ENDMDL
MODEL       56
REMARK 921   NORMALIZED FREE ENERGY PREDICTED BY IDOCK:   -3.69 KCAL/MOL
REMARK 922        TOTAL FREE ENERGY PREDICTED BY IDOCK:   -6.83 KCAL/MOL
REMARK 923 INTER-LIGAND FREE ENERGY PREDICTED BY IDOCK:   -6.23 KCAL/MOL
REMARK 924 INTRA-LIGAND FREE ENERGY PREDICTED BY IDOCK:   -0.60 KCAL/MOL
REMARK 927      BINDING AFFINITY PREDICTED BY RF-SCORE:    0.00 PKD
ROOT
HETATM    1  C   UNL     1     -10.956  11.280  65.437  1.00  0.00    -0.132 C  
HETATM    2  N   UNL     1     -11.024  12.122  64.156  1.00  0.00    -0.330 N  
HETATM    3  C   UNL     1     -12.407  11.961  63.540  1.00  0.00    -0.490 C  
HETATM    4  C   UNL     1      -9.964  11.609  63.194  1.00  0.00    -0.375 C  
ENDROOT
BRANCH   2   5
HETATM    5  C   UNL     1     -10.763  13.565  64.567  1.00  0.00    -0.418 C  
BRANCH   5   6
HETATM    6  C   UNL     1     -11.753  14.125  65.590  1.00  0.00    -0.357 C  
BRANCH   6   7
HETATM    7  C   UNL     1     -11.040  15.080  66.555  1.00  0.00    -0.329 C  
BRANCH   7   8
HETATM    8  C   UNL     1     -10.749  14.459  67.928  1.00  0.00    -0.246 C  
BRANCH   8   9
HETATM    9  C   UNL     1     -11.781  13.404  68.344  1.00  0.00    -0.390 C  
BRANCH   9  10
HETATM   10  C   UNL     1     -11.137  12.182  69.002  1.00  0.00    -0.290 C  
BRANCH  10  11
HETATM   11  C   UNL     1     -12.161  11.097  69.352  1.00  0.00    -0.396 C  
BRANCH  11  12
HETATM   12  C   UNL     1     -12.646  11.169  70.805  1.00  0.00    -0.445 C  
BRANCH  12  13
HETATM   13  C   UNL     1     -12.331   9.908  71.618  1.00  0.00    -0.496 C  
BRANCH  13  14
HETATM   14  C   UNL     1     -11.688   8.848  70.723  1.00  0.00    -0.230 C  
BRANCH  14  15
HETATM   15  N   UNL     1     -11.915   7.411  71.185  1.00  0.00    -0.311 N  
HETATM   16  C   UNL     1     -11.517   6.407  70.109  1.00  0.00    -0.417 C  
HETATM   17  C   UNL     1     -13.362   7.182  71.601  1.00  0.00    -0.331 C  
HETATM   18  C   UNL     1     -11.009   7.189  72.405  1.00  0.00    -0.251 C  
ENDBRANCH  14  15
ENDBRANCH  13  14
ENDBRANCH  12  13
ENDBRANCH  11  12
ENDBRANCH  10  11
ENDBRANCH   9  10
ENDBRANCH   8   9
ENDBRANCH   7   8
ENDBRANCH   6   7
ENDBRANCH   5   6
ENDBRANCH   2   5
TORSDOF 11
ENDMDL
MODEL       57
REMARK 921   NORMALIZED FREE ENERGY PREDICTED BY IDOCK:   -3.69 KCAL/MOL
REMARK 922        TOTAL FREE ENERGY PREDICTED BY IDOCK:   -6.83 KCAL/MOL
REMARK 923 INTER-LIGAND FREE ENERGY PREDICTED BY IDOCK:   -5.77 KCAL/MOL
REMARK 924 INTRA-LIGAND FREE ENERGY PREDICTED BY IDOCK:   -1.05 KCAL/MOL
REMARK 927      BINDING AFFINITY PREDICTED BY RF-SCORE:    0.00 PKD
ROOT
HETATM    1  C   UNL     1      -8.611  14.125  67.662  1.00  0.00    -0.189 C  
HETATM    2  N   UNL     1      -8.297  15.611  67.451  1.00  0.00    -0.165 N  
HETATM    3  C   UNL     1      -6.785  15.786  67.383  1.00  0.00    -0.194 C  
HETATM    4  C   UNL     1      -8.857  16.388  68.632  1.00  0.00    -0.234 C  
ENDROOT
BRANCH   2   5
HETATM    5  C   UNL     1      -8.962  16.017  66.142  1.00  0.00    -0.345 C  
BRANCH   5   6
HETATM    6  C   UNL     1     -10.078  15.081  65.677  1.00  0.00    -0.390 C  
BRANCH   6   7
HETATM    7  C   UNL     1     -11.078  15.838  64.794  1.00  0.00    -0.413 C  
BRANCH   7   8
HETATM    8  C   UNL     1     -12.253  14.974  64.319  1.00  0.00    -0.312 C  
BRANCH   8   9
HETATM    9  C   UNL     1     -12.701  13.940  65.359  1.00  0.00    -0.525 C  
BRANCH   9  10
HETATM   10  C   UNL     1     -12.516  12.501  64.872  1.00  0.00    -0.524 C  
BRANCH  10  11
HETATM   11  C   UNL     1     -11.926  12.431  63.459  1.00  0.00    -0.627 C  
BRANCH  11  12
HETATM   12  C   UNL     1     -10.566  11.723  63.407  1.00  0.00    -0.479 C  
BRANCH  12  13
HETATM   13  C   UNL     1      -9.958  11.466  64.791  1.00  0.00    -0.313 C  
BRANCH  13  14
HETATM   14  C   UNL     1      -9.929   9.967  65.087  1.00  0.00    -0.280 C  
BRANCH  14  15
HETATM   15  N   UNL     1      -9.573   9.615  66.528  1.00  0.00    -0.182 N  
HETATM   16  C   UNL     1      -8.306  10.330  66.984  1.00  0.00    -0.126 C  
HETATM   17  C   UNL     1      -9.415   8.111  66.712  1.00  0.00    -0.198 C  
HETATM   18  C   UNL     1     -10.737  10.100  67.404  1.00  0.00    -0.277 C  
ENDBRANCH  14  15
ENDBRANCH  13  14
ENDBRANCH  12  13
ENDBRANCH  11  12
ENDBRANCH  10  11
ENDBRANCH   9  10
ENDBRANCH   8   9
ENDBRANCH   7   8
ENDBRANCH   6   7
ENDBRANCH   5   6
ENDBRANCH   2   5
TORSDOF 11
ENDMDL
MODEL       58
REMARK 921   NORMALIZED FREE ENERGY PREDICTED BY IDOCK:   -3.68 KCAL/MOL
REMARK 922        TOTAL FREE ENERGY PREDICTED BY IDOCK:   -6.82 KCAL/MOL
REMARK 923 INTER-LIGAND FREE ENERGY PREDICTED BY IDOCK:   -5.93 KCAL/MOL
REMARK 924 INTRA-LIGAND FREE ENERGY PREDICTED BY IDOCK:   -0.89 KCAL/MOL
REMARK 927      BINDING AFFINITY PREDICTED BY RF-SCORE:    0.00 PKD
ROOT
HETATM    1  C   UNL     1      -8.777  10.781  68.844  1.00  0.00    -0.152 C  
HETATM    2  N   UNL     1      -9.620   9.892  67.921  1.00  0.00    -0.138 N  
HETATM    3  C   UNL     1     -11.063  10.379  67.959  1.00  0.00    -0.298 C  
HETATM    4  C   UNL     1      -9.541   8.462  68.434  1.00  0.00    -0.148 C  
ENDROOT
BRANCH   2   5
HETATM    5  C   UNL     1      -9.026  10.024  66.524  1.00  0.00    -0.143 C  
BRANCH   5   6
HETATM    6  C   UNL     1     -10.052  10.276  65.417  1.00  0.00    -0.354 C  
BRANCH   6   7
HETATM    7  C   UNL     1      -9.350  10.741  64.135  1.00  0.00    -0.286 C  
BRANCH   7   8
HETATM    8  C   UNL     1     -10.271  11.511  63.179  1.00  0.00    -0.389 C  
BRANCH   8   9
HETATM    9  C   UNL     1     -11.634  11.848  63.794  1.00  0.00    -0.555 C  
BRANCH   9  10
HETATM   10  C   UNL     1     -12.165  13.207  63.333  1.00  0.00    -0.521 C  
BRANCH  10  11
HETATM   11  C   UNL     1     -12.035  14.285  64.414  1.00  0.00    -0.476 C  
BRANCH  11  12
HETATM   12  C   UNL     1     -12.761  13.925  65.716  1.00  0.00    -0.503 C  
BRANCH  12  13
HETATM   13  C   UNL     1     -11.836  13.874  66.938  1.00  0.00    -0.453 C  
BRANCH  13  14
HETATM   14  C   UNL     1     -10.672  14.849  66.762  1.00  0.00    -0.312 C  
BRANCH  14  15
HETATM   15  N   UNL     1     -10.546  15.888  67.872  1.00  0.00    -0.291 N  
HETATM   16  C   UNL     1     -11.688  15.779  68.875  1.00  0.00    -0.394 C  
HETATM   17  C   UNL     1     -10.482  17.301  67.307  1.00  0.00    -0.319 C  
HETATM   18  C   UNL     1      -9.233  15.591  68.610  1.00  0.00    -0.202 C  
ENDBRANCH  14  15
ENDBRANCH  13  14
ENDBRANCH  12  13
ENDBRANCH  11  12
ENDBRANCH  10  11
ENDBRANCH   9  10
ENDBRANCH   8   9
ENDBRANCH   7   8
ENDBRANCH   6   7
ENDBRANCH   5   6
ENDBRANCH   2   5
TORSDOF 11
ENDMDL
MODEL       59
REMARK 921   NORMALIZED FREE ENERGY PREDICTED BY IDOCK:   -3.68 KCAL/MOL
REMARK 922        TOTAL FREE ENERGY PREDICTED BY IDOCK:   -6.81 KCAL/MOL
REMARK 923 INTER-LIGAND FREE ENERGY PREDICTED BY IDOCK:   -6.05 KCAL/MOL
REMARK 924 INTRA-LIGAND FREE ENERGY PREDICTED BY IDOCK:   -0.75 KCAL/MOL
REMARK 927      BINDING AFFINITY PREDICTED BY RF-SCORE:    0.00 PKD
ROOT
HETATM    1  C   UNL     1     -11.903   6.072  72.555  1.00  0.00    -0.186 C  
HETATM    2  N   UNL     1     -12.446   7.140  71.597  1.00  0.00    -0.353 N  
HETATM    3  C   UNL     1     -13.965   7.031  71.556  1.00  0.00    -0.237 C  
HETATM    4  C   UNL     1     -11.869   6.878  70.214  1.00  0.00    -0.258 C  
ENDROOT
BRANCH   2   5
HETATM    5  C   UNL     1     -12.002   8.489  72.148  1.00  0.00    -0.383 C  
BRANCH   5   6
HETATM    6  C   UNL     1     -13.106   9.546  72.213  1.00  0.00    -0.492 C  
BRANCH   6   7
HETATM    7  C   UNL     1     -12.675  10.814  71.466  1.00  0.00    -0.536 C  
BRANCH   7   8
HETATM    8  C   UNL     1     -11.534  10.580  70.467  1.00  0.00    -0.433 C  
BRANCH   8   9
HETATM    9  C   UNL     1     -11.839  11.119  69.065  1.00  0.00    -0.418 C  
BRANCH   9  10
HETATM   10  C   UNL     1     -11.094  12.421  68.763  1.00  0.00    -0.307 C  
BRANCH  10  11
HETATM   11  C   UNL     1     -11.992  13.656  68.901  1.00  0.00    -0.392 C  
BRANCH  11  12
HETATM   12  C   UNL     1     -11.795  14.402  70.226  1.00  0.00    -0.382 C  
BRANCH  12  13
HETATM   13  C   UNL     1     -11.248  15.824  70.051  1.00  0.00    -0.346 C  
BRANCH  13  14
HETATM   14  C   UNL     1      -9.779  15.778  69.634  1.00  0.00    -0.248 C  
BRANCH  14  15
HETATM   15  N   UNL     1      -9.459  16.561  68.363  1.00  0.00    -0.217 N  
HETATM   16  C   UNL     1     -10.401  17.745  68.181  1.00  0.00    -0.391 C  
HETATM   17  C   UNL     1      -9.506  15.665  67.132  1.00  0.00    -0.217 C  
HETATM   18  C   UNL     1      -8.033  17.105  68.524  1.00  0.00    -0.259 C  
ENDBRANCH  14  15
ENDBRANCH  13  14
ENDBRANCH  12  13
ENDBRANCH  11  12
ENDBRANCH  10  11
ENDBRANCH   9  10
ENDBRANCH   8   9
ENDBRANCH   7   8
ENDBRANCH   6   7
ENDBRANCH   5   6
ENDBRANCH   2   5
TORSDOF 11
ENDMDL
MODEL       60
REMARK 921   NORMALIZED FREE ENERGY PREDICTED BY IDOCK:   -3.65 KCAL/MOL
REMARK 922        TOTAL FREE ENERGY PREDICTED BY IDOCK:   -6.76 KCAL/MOL
REMARK 923 INTER-LIGAND FREE ENERGY PREDICTED BY IDOCK:   -5.96 KCAL/MOL
REMARK 924 INTRA-LIGAND FREE ENERGY PREDICTED BY IDOCK:   -0.80 KCAL/MOL
REMARK 927      BINDING AFFINITY PREDICTED BY RF-SCORE:    0.00 PKD
ROOT
HETATM    1  C   UNL     1     -12.350  13.481  66.437  1.00  0.00    -0.357 C  
HETATM    2  N   UNL     1     -11.039  14.231  66.171  1.00  0.00    -0.319 N  
HETATM    3  C   UNL     1     -11.320  15.381  65.214  1.00  0.00    -0.243 C  
HETATM    4  C   UNL     1     -10.054  13.259  65.540  1.00  0.00    -0.263 C  
ENDROOT
BRANCH   2   5
HETATM    5  C   UNL     1     -10.544  14.739  67.519  1.00  0.00    -0.259 C  
BRANCH   5   6
HETATM    6  C   UNL     1     -11.623  15.384  68.392  1.00  0.00    -0.368 C  
BRANCH   6   7
HETATM    7  C   UNL     1     -10.981  16.160  69.548  1.00  0.00    -0.341 C  
BRANCH   7   8
HETATM    8  C   UNL     1     -11.344  15.608  70.933  1.00  0.00    -0.417 C  
BRANCH   8   9
HETATM    9  C   UNL     1     -12.854  15.577  71.193  1.00  0.00    -0.551 C  
BRANCH   9  10
HETATM   10  C   UNL     1     -13.340  14.203  71.660  1.00  0.00    -0.440 C  
BRANCH  10  11
HETATM   11  C   UNL     1     -12.621  13.053  70.946  1.00  0.00    -0.364 C  
BRANCH  11  12
HETATM   12  C   UNL     1     -13.001  11.671  71.492  1.00  0.00    -0.463 C  
BRANCH  12  13
HETATM   13  C   UNL     1     -12.188  10.526  70.875  1.00  0.00    -0.490 C  
BRANCH  13  14
HETATM   14  C   UNL     1     -11.767  10.883  69.450  1.00  0.00    -0.325 C  
BRANCH  14  15
HETATM   15  N   UNL     1     -10.474  10.217  68.989  1.00  0.00    -0.206 N  
HETATM   16  C   UNL     1      -9.893   9.311  70.068  1.00  0.00    -0.205 C  
HETATM   17  C   UNL     1      -9.437  11.248  68.562  1.00  0.00    -0.191 C  
HETATM   18  C   UNL     1     -10.832   9.346  67.776  1.00  0.00    -0.159 C  
ENDBRANCH  14  15
ENDBRANCH  13  14
ENDBRANCH  12  13
ENDBRANCH  11  12
ENDBRANCH  10  11
ENDBRANCH   9  10
ENDBRANCH   8   9
ENDBRANCH   7   8
ENDBRANCH   6   7
ENDBRANCH   5   6
ENDBRANCH   2   5
TORSDOF 11
ENDMDL
MODEL       61
REMARK 921   NORMALIZED FREE ENERGY PREDICTED BY IDOCK:   -3.65 KCAL/MOL
REMARK 922        TOTAL FREE ENERGY PREDICTED BY IDOCK:   -6.76 KCAL/MOL
REMARK 923 INTER-LIGAND FREE ENERGY PREDICTED BY IDOCK:   -6.00 KCAL/MOL
REMARK 924 INTRA-LIGAND FREE ENERGY PREDICTED BY IDOCK:   -0.76 KCAL/MOL
REMARK 927      BINDING AFFINITY PREDICTED BY RF-SCORE:    0.00 PKD
ROOT
HETATM    1  C   UNL     1     -11.154   7.876  72.775  1.00  0.00    -0.400 C  
HETATM    2  N   UNL     1     -12.024   8.318  71.591  1.00  0.00    -0.288 N  
HETATM    3  C   UNL     1     -13.260   9.026  72.132  1.00  0.00    -0.446 C  
HETATM    4  C   UNL     1     -12.436   7.077  70.814  1.00  0.00    -0.203 C  
ENDROOT
BRANCH   2   5
HETATM    5  C   UNL     1     -11.172   9.256  70.747  1.00  0.00    -0.288 C  
BRANCH   5   6
HETATM    6  C   UNL     1     -11.682  10.697  70.685  1.00  0.00    -0.454 C  
BRANCH   6   7
HETATM    7  C   UNL     1     -12.025  11.080  69.240  1.00  0.00    -0.410 C  
BRANCH   7   8
HETATM    8  C   UNL     1     -10.860  10.884  68.260  1.00  0.00    -0.272 C  
BRANCH   8   9
HETATM    9  C   UNL     1     -11.173  11.378  66.843  1.00  0.00    -0.331 C  
BRANCH   9  10
HETATM   10  C   UNL     1     -10.560  12.749  66.552  1.00  0.00    -0.270 C  
BRANCH  10  11
HETATM   11  C   UNL     1     -11.613  13.859  66.473  1.00  0.00    -0.385 C  
BRANCH  11  12
HETATM   12  C   UNL     1     -11.885  14.531  67.825  1.00  0.00    -0.390 C  
BRANCH  12  13
HETATM   13  C   UNL     1     -10.686  15.318  68.367  1.00  0.00    -0.250 C  
BRANCH  13  14
HETATM   14  C   UNL     1     -10.896  16.817  68.154  1.00  0.00    -0.353 C  
BRANCH  14  15
HETATM   15  N   UNL     1      -9.734  17.525  67.463  1.00  0.00    -0.272 N  
HETATM   16  C   UNL     1      -8.972  16.583  66.539  1.00  0.00    -0.278 C  
HETATM   17  C   UNL     1      -8.780  18.146  68.475  1.00  0.00    -0.296 C  
HETATM   18  C   UNL     1     -10.344  18.645  66.607  1.00  0.00    -0.415 C  
ENDBRANCH  14  15
ENDBRANCH  13  14
ENDBRANCH  12  13
ENDBRANCH  11  12
ENDBRANCH  10  11
ENDBRANCH   9  10
ENDBRANCH   8   9
ENDBRANCH   7   8
ENDBRANCH   6   7
ENDBRANCH   5   6
ENDBRANCH   2   5
TORSDOF 11
ENDMDL
MODEL       62
REMARK 921   NORMALIZED FREE ENERGY PREDICTED BY IDOCK:   -3.64 KCAL/MOL
REMARK 922        TOTAL FREE ENERGY PREDICTED BY IDOCK:   -6.75 KCAL/MOL
REMARK 923 INTER-LIGAND FREE ENERGY PREDICTED BY IDOCK:   -5.99 KCAL/MOL
REMARK 924 INTRA-LIGAND FREE ENERGY PREDICTED BY IDOCK:   -0.76 KCAL/MOL
REMARK 927      BINDING AFFINITY PREDICTED BY RF-SCORE:    0.00 PKD
ROOT
HETATM    1  C   UNL     1     -11.646  12.299  64.390  1.00  0.00    -0.360 C  
HETATM    2  N   UNL     1     -11.562  13.413  65.442  1.00  0.00    -0.307 N  
HETATM    3  C   UNL     1     -12.757  14.340  65.266  1.00  0.00    -0.343 C  
HETATM    4  C   UNL     1     -10.270  14.183  65.218  1.00  0.00    -0.375 C  
ENDROOT
BRANCH   2   5
HETATM    5  C   UNL     1     -11.584  12.731  66.804  1.00  0.00    -0.370 C  
BRANCH   5   6
HETATM    6  C   UNL     1     -10.809  11.413  66.869  1.00  0.00    -0.335 C  
BRANCH   6   7
HETATM    7  C   UNL     1     -11.433  10.478  67.912  1.00  0.00    -0.190 C  
BRANCH   7   8
HETATM    8  C   UNL     1     -10.442   9.461  68.493  1.00  0.00    -0.239 C  
BRANCH   8   9
HETATM    9  C   UNL     1     -10.893   8.880  69.838  1.00  0.00    -0.219 C  
BRANCH   9  10
HETATM   10  C   UNL     1     -10.867   9.918  70.963  1.00  0.00    -0.300 C  
BRANCH  10  11
HETATM   11  C   UNL     1     -12.142   9.895  71.812  1.00  0.00    -0.382 C  
BRANCH  11  12
HETATM   12  C   UNL     1     -13.170  10.951  71.388  1.00  0.00    -0.355 C  
BRANCH  12  13
HETATM   13  C   UNL     1     -12.936  12.324  72.030  1.00  0.00    -0.375 C  
BRANCH  13  14
HETATM   14  C   UNL     1     -12.465  13.328  70.978  1.00  0.00    -0.336 C  
BRANCH  14  15
HETATM   15  N   UNL     1     -12.668  14.790  71.365  1.00  0.00    -0.308 N  
HETATM   16  C   UNL     1     -14.136  15.100  71.635  1.00  0.00    -0.549 C  
HETATM   17  C   UNL     1     -12.125  15.729  70.297  1.00  0.00    -0.347 C  
HETATM   18  C   UNL     1     -11.886  15.017  72.667  1.00  0.00    -0.300 C  
ENDBRANCH  14  15
ENDBRANCH  13  14
ENDBRANCH  12  13
ENDBRANCH  11  12
ENDBRANCH  10  11
ENDBRANCH   9  10
ENDBRANCH   8   9
ENDBRANCH   7   8
ENDBRANCH   6   7
ENDBRANCH   5   6
ENDBRANCH   2   5
TORSDOF 11
ENDMDL
MODEL       63
REMARK 921   NORMALIZED FREE ENERGY PREDICTED BY IDOCK:   -3.64 KCAL/MOL
REMARK 922        TOTAL FREE ENERGY PREDICTED BY IDOCK:   -6.74 KCAL/MOL
REMARK 923 INTER-LIGAND FREE ENERGY PREDICTED BY IDOCK:   -5.90 KCAL/MOL
REMARK 924 INTRA-LIGAND FREE ENERGY PREDICTED BY IDOCK:   -0.84 KCAL/MOL
REMARK 927      BINDING AFFINITY PREDICTED BY RF-SCORE:    0.00 PKD
ROOT
HETATM    1  C   UNL     1      -9.525   9.256  68.416  1.00  0.00    -0.138 C  
HETATM    2  N   UNL     1      -9.515   7.768  68.044  1.00  0.00    -0.144 N  
HETATM    3  C   UNL     1      -8.204   7.451  67.335  1.00  0.00    -0.113 C  
HETATM    4  C   UNL     1     -10.686   7.502  67.111  1.00  0.00    -0.309 C  
ENDROOT
BRANCH   2   5
HETATM    5  C   UNL     1      -9.644   6.990  69.347  1.00  0.00    -0.155 C  
BRANCH   5   6
HETATM    6  C   UNL     1     -10.602   7.608  70.366  1.00  0.00    -0.233 C  
BRANCH   6   7
HETATM    7  C   UNL     1     -11.849   6.730  70.529  1.00  0.00    -0.418 C  
BRANCH   7   8
HETATM    8  C   UNL     1     -12.817   7.235  71.607  1.00  0.00    -0.415 C  
BRANCH   8   9
HETATM    9  C   UNL     1     -12.406   8.587  72.201  1.00  0.00    -0.444 C  
BRANCH   9  10
HETATM   10  C   UNL     1     -13.506   9.644  72.069  1.00  0.00    -0.514 C  
BRANCH  10  11
HETATM   11  C   UNL     1     -12.952  11.023  71.697  1.00  0.00    -0.561 C  
BRANCH  11  12
HETATM   12  C   UNL     1     -12.236  11.041  70.340  1.00  0.00    -0.461 C  
BRANCH  12  13
HETATM   13  C   UNL     1     -11.886  12.452  69.853  1.00  0.00    -0.376 C  
BRANCH  13  14
HETATM   14  C   UNL     1     -11.858  12.493  68.326  1.00  0.00    -0.309 C  
BRANCH  14  15
HETATM   15  N   UNL     1     -11.368  13.814  67.739  1.00  0.00    -0.288 N  
HETATM   16  C   UNL     1      -9.858  13.810  67.531  1.00  0.00    -0.230 C  
HETATM   17  C   UNL     1     -11.769  14.995  68.614  1.00  0.00    -0.337 C  
HETATM   18  C   UNL     1     -12.038  13.966  66.366  1.00  0.00    -0.455 C  
ENDBRANCH  14  15
ENDBRANCH  13  14
ENDBRANCH  12  13
ENDBRANCH  11  12
ENDBRANCH  10  11
ENDBRANCH   9  10
ENDBRANCH   8   9
ENDBRANCH   7   8
ENDBRANCH   6   7
ENDBRANCH   5   6
ENDBRANCH   2   5
TORSDOF 11
ENDMDL
MODEL       64
REMARK 921   NORMALIZED FREE ENERGY PREDICTED BY IDOCK:   -3.64 KCAL/MOL
REMARK 922        TOTAL FREE ENERGY PREDICTED BY IDOCK:   -6.74 KCAL/MOL
REMARK 923 INTER-LIGAND FREE ENERGY PREDICTED BY IDOCK:   -6.18 KCAL/MOL
REMARK 924 INTRA-LIGAND FREE ENERGY PREDICTED BY IDOCK:   -0.56 KCAL/MOL
REMARK 927      BINDING AFFINITY PREDICTED BY RF-SCORE:    0.00 PKD
ROOT
HETATM    1  C   UNL     1      -7.954   8.128  64.213  1.00  0.00    -0.144 C  
HETATM    2  N   UNL     1      -8.580   9.358  64.882  1.00  0.00    -0.165 N  
HETATM    3  C   UNL     1      -7.463  10.250  65.407  1.00  0.00    -0.145 C  
HETATM    4  C   UNL     1      -9.450   8.882  66.035  1.00  0.00    -0.252 C  
ENDROOT
BRANCH   2   5
HETATM    5  C   UNL     1      -9.401  10.068  63.813  1.00  0.00    -0.257 C  
BRANCH   5   6
HETATM    6  C   UNL     1     -10.495  10.989  64.356  1.00  0.00    -0.422 C  
BRANCH   6   7
HETATM    7  C   UNL     1     -11.093  11.834  63.224  1.00  0.00    -0.370 C  
BRANCH   7   8
HETATM    8  C   UNL     1     -11.988  12.977  63.720  1.00  0.00    -0.585 C  
BRANCH   8   9
HETATM    9  C   UNL     1     -12.493  12.769  65.153  1.00  0.00    -0.565 C  
BRANCH   9  10
HETATM   10  C   UNL     1     -12.068  13.899  66.093  1.00  0.00    -0.478 C  
BRANCH  10  11
HETATM   11  C   UNL     1     -10.615  14.332  65.870  1.00  0.00    -0.306 C  
BRANCH  11  12
HETATM   12  C   UNL     1     -10.482  15.793  65.424  1.00  0.00    -0.438 C  
BRANCH  12  13
HETATM   13  C   UNL     1     -10.491  16.791  66.588  1.00  0.00    -0.258 C  
BRANCH  13  14
HETATM   14  C   UNL     1      -9.218  17.637  66.571  1.00  0.00    -0.269 C  
BRANCH  14  15
HETATM   15  N   UNL     1      -9.445  19.123  66.838  1.00  0.00    -0.308 N  
HETATM   16  C   UNL     1     -10.615  19.667  66.026  1.00  0.00    -0.483 C  
HETATM   17  C   UNL     1      -8.190  19.937  66.552  1.00  0.00    -0.331 C  
HETATM   18  C   UNL     1      -9.792  19.258  68.327  1.00  0.00    -0.400 C  
ENDBRANCH  14  15
ENDBRANCH  13  14
ENDBRANCH  12  13
ENDBRANCH  11  12
ENDBRANCH  10  11
ENDBRANCH   9  10
ENDBRANCH   8   9
ENDBRANCH   7   8
ENDBRANCH   6   7
ENDBRANCH   5   6
ENDBRANCH   2   5
TORSDOF 11
ENDMDL
MODEL       65
REMARK 921   NORMALIZED FREE ENERGY PREDICTED BY IDOCK:   -3.60 KCAL/MOL
REMARK 922        TOTAL FREE ENERGY PREDICTED BY IDOCK:   -6.69 KCAL/MOL
REMARK 923 INTER-LIGAND FREE ENERGY PREDICTED BY IDOCK:   -6.16 KCAL/MOL
REMARK 924 INTRA-LIGAND FREE ENERGY PREDICTED BY IDOCK:   -0.52 KCAL/MOL
REMARK 927      BINDING AFFINITY PREDICTED BY RF-SCORE:    0.00 PKD
ROOT
HETATM    1  C   UNL     1      -9.894   4.399  70.344  1.00  0.00    -0.216 C  
HETATM    2  N   UNL     1     -10.254   5.888  70.430  1.00  0.00    -0.199 N  
HETATM    3  C   UNL     1     -11.052   6.269  69.190  1.00  0.00    -0.390 C  
HETATM    4  C   UNL     1      -8.962   6.688  70.482  1.00  0.00    -0.152 C  
ENDROOT
BRANCH   2   5
HETATM    5  C   UNL     1     -11.079   6.066  71.698  1.00  0.00    -0.275 C  
BRANCH   5   6
HETATM    6  C   UNL     1     -12.312   6.957  71.536  1.00  0.00    -0.420 C  
BRANCH   6   7
HETATM    7  C   UNL     1     -12.142   8.255  72.335  1.00  0.00    -0.430 C  
BRANCH   7   8
HETATM    8  C   UNL     1     -13.391   9.146  72.329  1.00  0.00    -0.540 C  
BRANCH   8   9
HETATM    9  C   UNL     1     -13.102  10.588  71.894  1.00  0.00    -0.567 C  
BRANCH   9  10
HETATM   10  C   UNL     1     -11.937  10.678  70.905  1.00  0.00    -0.469 C  
BRANCH  10  11
HETATM   11  C   UNL     1     -11.995  11.945  70.045  1.00  0.00    -0.409 C  
BRANCH  11  12
HETATM   12  C   UNL     1     -12.411  13.192  70.834  1.00  0.00    -0.407 C  
BRANCH  12  13
HETATM   13  C   UNL     1     -12.233  14.499  70.051  1.00  0.00    -0.396 C  
BRANCH  13  14
HETATM   14  C   UNL     1     -11.321  14.273  68.846  1.00  0.00    -0.274 C  
BRANCH  14  15
HETATM   15  N   UNL     1     -10.446  15.470  68.484  1.00  0.00    -0.233 N  
HETATM   16  C   UNL     1     -10.645  16.626  69.458  1.00  0.00    -0.308 C  
HETATM   17  C   UNL     1     -10.708  15.940  67.059  1.00  0.00    -0.292 C  
HETATM   18  C   UNL     1      -8.988  15.002  68.589  1.00  0.00    -0.186 C  
ENDBRANCH  14  15
ENDBRANCH  13  14
ENDBRANCH  12  13
ENDBRANCH  11  12
ENDBRANCH  10  11
ENDBRANCH   9  10
ENDBRANCH   8   9
ENDBRANCH   7   8
ENDBRANCH   6   7
ENDBRANCH   5   6
ENDBRANCH   2   5
TORSDOF 11
ENDMDL
MODEL       66
REMARK 921   NORMALIZED FREE ENERGY PREDICTED BY IDOCK:   -3.59 KCAL/MOL
REMARK 922        TOTAL FREE ENERGY PREDICTED BY IDOCK:   -6.67 KCAL/MOL
REMARK 923 INTER-LIGAND FREE ENERGY PREDICTED BY IDOCK:   -5.65 KCAL/MOL
REMARK 924 INTRA-LIGAND FREE ENERGY PREDICTED BY IDOCK:   -1.02 KCAL/MOL
REMARK 927      BINDING AFFINITY PREDICTED BY RF-SCORE:    0.00 PKD
ROOT
HETATM    1  C   UNL     1      -8.795  11.395  68.148  1.00  0.00    -0.162 C  
HETATM    2  N   UNL     1      -9.424  10.545  67.038  1.00  0.00    -0.161 N  
HETATM    3  C   UNL     1     -10.892  10.314  67.372  1.00  0.00    -0.277 C  
HETATM    4  C   UNL     1      -8.689   9.214  66.983  1.00  0.00    -0.123 C  
ENDROOT
BRANCH   2   5
HETATM    5  C   UNL     1      -9.267  11.330  65.742  1.00  0.00    -0.219 C  
BRANCH   5   6
HETATM    6  C   UNL     1     -10.180  10.871  64.604  1.00  0.00    -0.411 C  
BRANCH   6   7
HETATM    7  C   UNL     1     -10.228  11.932  63.497  1.00  0.00    -0.485 C  
BRANCH   7   8
HETATM    8  C   UNL     1     -11.621  12.541  63.293  1.00  0.00    -0.445 C  
BRANCH   8   9
HETATM    9  C   UNL     1     -12.527  12.401  64.521  1.00  0.00    -0.519 C  
BRANCH   9  10
HETATM   10  C   UNL     1     -12.681  13.716  65.289  1.00  0.00    -0.478 C  
BRANCH  10  11
HETATM   11  C   UNL     1     -12.017  13.672  66.669  1.00  0.00    -0.458 C  
BRANCH  11  12
HETATM   12  C   UNL     1     -10.934  14.742  66.853  1.00  0.00    -0.328 C  
BRANCH  12  13
HETATM   13  C   UNL     1     -11.066  15.525  68.165  1.00  0.00    -0.325 C  
BRANCH  13  14
HETATM   14  C   UNL     1     -12.344  15.117  68.899  1.00  0.00     0.014 C  
BRANCH  14  15
HETATM   15  N   UNL     1     -12.133  14.708  70.354  1.00  0.00    -0.297 N  
HETATM   16  C   UNL     1     -13.294  15.151  71.236  1.00  0.00    -0.477 C  
HETATM   17  C   UNL     1     -10.823  15.259  70.902  1.00  0.00    -0.179 C  
HETATM   18  C   UNL     1     -12.072  13.174  70.378  1.00  0.00    -0.317 C  
ENDBRANCH  14  15
ENDBRANCH  13  14
ENDBRANCH  12  13
ENDBRANCH  11  12
ENDBRANCH  10  11
ENDBRANCH   9  10
ENDBRANCH   8   9
ENDBRANCH   7   8
ENDBRANCH   6   7
ENDBRANCH   5   6
ENDBRANCH   2   5
TORSDOF 11
ENDMDL
MODEL       67
REMARK 921   NORMALIZED FREE ENERGY PREDICTED BY IDOCK:   -3.59 KCAL/MOL
REMARK 922        TOTAL FREE ENERGY PREDICTED BY IDOCK:   -6.66 KCAL/MOL
REMARK 923 INTER-LIGAND FREE ENERGY PREDICTED BY IDOCK:   -5.71 KCAL/MOL
REMARK 924 INTRA-LIGAND FREE ENERGY PREDICTED BY IDOCK:   -0.95 KCAL/MOL
REMARK 927      BINDING AFFINITY PREDICTED BY RF-SCORE:    0.00 PKD
ROOT
HETATM    1  C   UNL     1     -12.200  13.042  63.336  1.00  0.00    -0.472 C  
HETATM    2  N   UNL     1     -11.329  13.155  64.593  1.00  0.00    -0.319 N  
HETATM    3  C   UNL     1     -10.672  14.530  64.609  1.00  0.00    -0.310 C  
HETATM    4  C   UNL     1     -10.263  12.072  64.533  1.00  0.00    -0.286 C  
ENDROOT
BRANCH   2   5
HETATM    5  C   UNL     1     -12.256  12.969  65.787  1.00  0.00    -0.453 C  
BRANCH   5   6
HETATM    6  C   UNL     1     -12.144  14.058  66.856  1.00  0.00    -0.465 C  
BRANCH   6   7
HETATM    7  C   UNL     1     -11.676  13.454  68.186  1.00  0.00    -0.397 C  
BRANCH   7   8
HETATM    8  C   UNL     1     -10.369  14.065  68.709  1.00  0.00    -0.225 C  
BRANCH   8   9
HETATM    9  C   UNL     1      -9.122  13.512  68.008  1.00  0.00    -0.201 C  
BRANCH   9  10
HETATM   10  C   UNL     1      -7.829  14.144  68.529  1.00  0.00    -0.140 C  
BRANCH  10  11
HETATM   11  C   UNL     1      -7.062  14.895  67.436  1.00  0.00    -0.194 C  
BRANCH  11  12
HETATM   12  C   UNL     1      -7.944  15.858  66.631  1.00  0.00    -0.270 C  
BRANCH  12  13
HETATM   13  C   UNL     1      -8.361  17.106  67.418  1.00  0.00    -0.203 C  
BRANCH  13  14
HETATM   14  C   UNL     1      -9.621  17.720  66.808  1.00  0.00    -0.300 C  
BRANCH  14  15
HETATM   15  N   UNL     1      -9.749  19.227  67.009  1.00  0.00    -0.315 N  
HETATM   16  C   UNL     1     -10.277  19.565  68.398  1.00  0.00    -0.431 C  
HETATM   17  C   UNL     1     -10.640  19.857  65.947  1.00  0.00    -0.417 C  
HETATM   18  C   UNL     1      -8.336  19.814  66.879  1.00  0.00    -0.311 C  
ENDBRANCH  14  15
ENDBRANCH  13  14
ENDBRANCH  12  13
ENDBRANCH  11  12
ENDBRANCH  10  11
ENDBRANCH   9  10
ENDBRANCH   8   9
ENDBRANCH   7   8
ENDBRANCH   6   7
ENDBRANCH   5   6
ENDBRANCH   2   5
TORSDOF 11
ENDMDL
MODEL       68
REMARK 921   NORMALIZED FREE ENERGY PREDICTED BY IDOCK:   -3.58 KCAL/MOL
REMARK 922        TOTAL FREE ENERGY PREDICTED BY IDOCK:   -6.65 KCAL/MOL
REMARK 923 INTER-LIGAND FREE ENERGY PREDICTED BY IDOCK:   -6.06 KCAL/MOL
REMARK 924 INTRA-LIGAND FREE ENERGY PREDICTED BY IDOCK:   -0.59 KCAL/MOL
REMARK 927      BINDING AFFINITY PREDICTED BY RF-SCORE:    0.00 PKD
ROOT
HETATM    1  C   UNL     1     -10.550  13.693  65.000  1.00  0.00    -0.383 C  
HETATM    2  N   UNL     1     -11.381  12.468  65.403  1.00  0.00    -0.313 N  
HETATM    3  C   UNL     1     -10.513  11.224  65.266  1.00  0.00    -0.282 C  
HETATM    4  C   UNL     1     -12.575  12.374  64.465  1.00  0.00    -0.391 C  
ENDROOT
BRANCH   2   5
HETATM    5  C   UNL     1     -11.813  12.688  66.846  1.00  0.00    -0.355 C  
BRANCH   5   6
HETATM    6  C   UNL     1     -11.359  11.599  67.820  1.00  0.00    -0.356 C  
BRANCH   6   7
HETATM    7  C   UNL     1     -11.879  11.894  69.232  1.00  0.00    -0.379 C  
BRANCH   7   8
HETATM    8  C   UNL     1     -12.036  10.640  70.103  1.00  0.00    -0.417 C  
BRANCH   8   9
HETATM    9  C   UNL     1     -12.826  10.894  71.391  1.00  0.00    -0.554 C  
BRANCH   9  10
HETATM   10  C   UNL     1     -13.507   9.629  71.920  1.00  0.00    -0.496 C  
BRANCH  10  11
HETATM   11  C   UNL     1     -12.501   8.535  72.293  1.00  0.00    -0.448 C  
BRANCH  11  12
HETATM   12  C   UNL     1     -12.692   7.241  71.493  1.00  0.00    -0.422 C  
BRANCH  12  13
HETATM   13  C   UNL     1     -11.578   6.984  70.471  1.00  0.00    -0.364 C  
BRANCH  13  14
HETATM   14  C   UNL     1     -10.219   6.938  71.169  1.00  0.00    -0.195 C  
BRANCH  14  15
HETATM   15  N   UNL     1      -9.544   5.570  71.146  1.00  0.00    -0.159 N  
HETATM   16  C   UNL     1      -9.921   4.738  72.366  1.00  0.00    -0.174 C  
HETATM   17  C   UNL     1      -8.029   5.699  71.052  1.00  0.00    -0.111 C  
HETATM   18  C   UNL     1     -10.057   4.843  69.895  1.00  0.00    -0.262 C  
ENDBRANCH  14  15
ENDBRANCH  13  14
ENDBRANCH  12  13
ENDBRANCH  11  12
ENDBRANCH  10  11
ENDBRANCH   9  10
ENDBRANCH   8   9
ENDBRANCH   7   8
ENDBRANCH   6   7
ENDBRANCH   5   6
ENDBRANCH   2   5
TORSDOF 11
ENDMDL
MODEL       69
REMARK 921   NORMALIZED FREE ENERGY PREDICTED BY IDOCK:   -3.57 KCAL/MOL
REMARK 922        TOTAL FREE ENERGY PREDICTED BY IDOCK:   -6.63 KCAL/MOL
REMARK 923 INTER-LIGAND FREE ENERGY PREDICTED BY IDOCK:   -6.16 KCAL/MOL
REMARK 924 INTRA-LIGAND FREE ENERGY PREDICTED BY IDOCK:   -0.47 KCAL/MOL
REMARK 927      BINDING AFFINITY PREDICTED BY RF-SCORE:    0.00 PKD
ROOT
HETATM    1  C   UNL     1     -11.836   9.441  71.673  1.00  0.00    -0.394 C  
HETATM    2  N   UNL     1     -11.678   7.916  71.731  1.00  0.00    -0.274 N  
HETATM    3  C   UNL     1     -13.057   7.278  71.630  1.00  0.00    -0.369 C  
HETATM    4  C   UNL     1     -11.035   7.554  73.061  1.00  0.00    -0.390 C  
ENDROOT
BRANCH   2   5
HETATM    5  C   UNL     1     -10.797   7.523  70.552  1.00  0.00    -0.240 C  
BRANCH   5   6
HETATM    6  C   UNL     1     -11.447   6.548  69.569  1.00  0.00    -0.384 C  
BRANCH   6   7
HETATM    7  C   UNL     1     -10.450   5.455  69.162  1.00  0.00    -0.277 C  
BRANCH   7   8
HETATM    8  C   UNL     1      -9.877   5.644  67.751  1.00  0.00    -0.153 C  
BRANCH   8   9
HETATM    9  C   UNL     1     -10.443   6.873  67.029  1.00  0.00    -0.374 C  
BRANCH   9  10
HETATM   10  C   UNL     1      -9.415   7.999  66.899  1.00  0.00    -0.244 C  
BRANCH  10  11
HETATM   11  C   UNL     1     -10.041   9.311  66.414  1.00  0.00    -0.337 C  
BRANCH  11  12
HETATM   12  C   UNL     1      -9.496   9.776  65.058  1.00  0.00    -0.337 C  
BRANCH  12  13
HETATM   13  C   UNL     1     -10.339  10.880  64.407  1.00  0.00    -0.430 C  
BRANCH  13  14
HETATM   14  C   UNL     1     -10.743  11.922  65.449  1.00  0.00    -0.283 C  
BRANCH  14  15
HETATM   15  N   UNL     1     -11.431  13.156  64.873  1.00  0.00    -0.300 N  
HETATM   16  C   UNL     1     -10.476  14.341  64.784  1.00  0.00    -0.395 C  
HETATM   17  C   UNL     1     -12.661  13.539  65.685  1.00  0.00    -0.459 C  
HETATM   18  C   UNL     1     -11.874  12.793  63.448  1.00  0.00    -0.518 C  
ENDBRANCH  14  15
ENDBRANCH  13  14
ENDBRANCH  12  13
ENDBRANCH  11  12
ENDBRANCH  10  11
ENDBRANCH   9  10
ENDBRANCH   8   9
ENDBRANCH   7   8
ENDBRANCH   6   7
ENDBRANCH   5   6
ENDBRANCH   2   5
TORSDOF 11
ENDMDL
MODEL       70
REMARK 921   NORMALIZED FREE ENERGY PREDICTED BY IDOCK:   -3.57 KCAL/MOL
REMARK 922        TOTAL FREE ENERGY PREDICTED BY IDOCK:   -6.63 KCAL/MOL
REMARK 923 INTER-LIGAND FREE ENERGY PREDICTED BY IDOCK:   -5.62 KCAL/MOL
REMARK 924 INTRA-LIGAND FREE ENERGY PREDICTED BY IDOCK:   -1.01 KCAL/MOL
REMARK 927      BINDING AFFINITY PREDICTED BY RF-SCORE:    0.00 PKD
ROOT
HETATM    1  C   UNL     1      -9.464   9.971  68.737  1.00  0.00    -0.162 C  
HETATM    2  N   UNL     1     -10.043  11.268  68.158  1.00  0.00    -0.177 N  
HETATM    3  C   UNL     1      -8.938  12.315  68.105  1.00  0.00    -0.192 C  
HETATM    4  C   UNL     1     -11.162  11.741  69.073  1.00  0.00    -0.265 C  
ENDROOT
BRANCH   2   5
HETATM    5  C   UNL     1     -10.558  10.933  66.764  1.00  0.00    -0.259 C  
BRANCH   5   6
HETATM    6  C   UNL     1      -9.603  11.302  65.627  1.00  0.00    -0.260 C  
BRANCH   6   7
HETATM    7  C   UNL     1     -10.180  10.854  64.278  1.00  0.00    -0.430 C  
BRANCH   7   8
HETATM    8  C   UNL     1     -10.724  12.011  63.429  1.00  0.00    -0.475 C  
BRANCH   8   9
HETATM    9  C   UNL     1     -12.227  12.244  63.619  1.00  0.00    -0.665 C  
BRANCH   9  10
HETATM   10  C   UNL     1     -12.524  13.391  64.588  1.00  0.00    -0.385 C  
BRANCH  10  11
HETATM   11  C   UNL     1     -11.438  14.472  64.568  1.00  0.00    -0.349 C  
BRANCH  11  12
HETATM   12  C   UNL     1     -10.885  14.798  65.961  1.00  0.00    -0.318 C  
BRANCH  12  13
HETATM   13  C   UNL     1     -10.213  16.174  66.044  1.00  0.00    -0.374 C  
BRANCH  13  14
HETATM   14  C   UNL     1     -10.111  16.627  67.500  1.00  0.00    -0.273 C  
BRANCH  14  15
HETATM   15  N   UNL     1      -8.689  16.914  67.973  1.00  0.00    -0.210 N  
HETATM   16  C   UNL     1      -8.295  16.019  69.142  1.00  0.00    -0.244 C  
HETATM   17  C   UNL     1      -8.515  18.377  68.357  1.00  0.00    -0.326 C  
HETATM   18  C   UNL     1      -7.757  16.598  66.795  1.00  0.00    -0.257 C  
ENDBRANCH  14  15
ENDBRANCH  13  14
ENDBRANCH  12  13
ENDBRANCH  11  12
ENDBRANCH  10  11
ENDBRANCH   9  10
ENDBRANCH   8   9
ENDBRANCH   7   8
ENDBRANCH   6   7
ENDBRANCH   5   6
ENDBRANCH   2   5
TORSDOF 11
ENDMDL
MODEL       71
REMARK 921   NORMALIZED FREE ENERGY PREDICTED BY IDOCK:   -3.56 KCAL/MOL
REMARK 922        TOTAL FREE ENERGY PREDICTED BY IDOCK:   -6.62 KCAL/MOL
REMARK 923 INTER-LIGAND FREE ENERGY PREDICTED BY IDOCK:   -5.80 KCAL/MOL
REMARK 924 INTRA-LIGAND FREE ENERGY PREDICTED BY IDOCK:   -0.82 KCAL/MOL
REMARK 927      BINDING AFFINITY PREDICTED BY RF-SCORE:    0.00 PKD
ROOT
HETATM    1  C   UNL     1      -9.065  15.817  68.397  1.00  0.00    -0.188 C  
HETATM    2  N   UNL     1     -10.314  16.557  67.902  1.00  0.00    -0.284 N  
HETATM    3  C   UNL     1     -10.243  18.003  68.373  1.00  0.00    -0.391 C  
HETATM    4  C   UNL     1     -11.538  15.877  68.497  1.00  0.00    -0.349 C  
ENDROOT
BRANCH   2   5
HETATM    5  C   UNL     1     -10.302  16.467  66.382  1.00  0.00    -0.313 C  
BRANCH   5   6
HETATM    6  C   UNL     1     -10.443  15.049  65.826  1.00  0.00    -0.353 C  
BRANCH   6   7
HETATM    7  C   UNL     1     -11.615  14.975  64.840  1.00  0.00    -0.374 C  
BRANCH   7   8
HETATM    8  C   UNL     1     -12.711  13.988  65.264  1.00  0.00    -0.468 C  
BRANCH   8   9
HETATM    9  C   UNL     1     -12.501  12.576  64.704  1.00  0.00    -0.539 C  
BRANCH   9  10
HETATM   10  C   UNL     1     -11.805  12.585  63.341  1.00  0.00    -0.587 C  
BRANCH  10  11
HETATM   11  C   UNL     1     -10.468  11.835  63.361  1.00  0.00    -0.485 C  
BRANCH  11  12
HETATM   12  C   UNL     1     -10.409  10.733  64.426  1.00  0.00    -0.405 C  
BRANCH  12  13
HETATM   13  C   UNL     1      -8.988  10.441  64.924  1.00  0.00    -0.225 C  
BRANCH  13  14
HETATM   14  C   UNL     1      -8.990  10.228  66.437  1.00  0.00    -0.148 C  
BRANCH  14  15
HETATM   15  N   UNL     1      -9.066   8.766  66.868  1.00  0.00    -0.134 N  
HETATM   16  C   UNL     1      -8.576   7.830  65.769  1.00  0.00    -0.143 C  
HETATM   17  C   UNL     1     -10.479   8.381  67.287  1.00  0.00    -0.303 C  
HETATM   18  C   UNL     1      -8.132   8.611  68.077  1.00  0.00    -0.111 C  
ENDBRANCH  14  15
ENDBRANCH  13  14
ENDBRANCH  12  13
ENDBRANCH  11  12
ENDBRANCH  10  11
ENDBRANCH   9  10
ENDBRANCH   8   9
ENDBRANCH   7   8
ENDBRANCH   6   7
ENDBRANCH   5   6
ENDBRANCH   2   5
TORSDOF 11
ENDMDL
MODEL       72
REMARK 921   NORMALIZED FREE ENERGY PREDICTED BY IDOCK:   -3.56 KCAL/MOL
REMARK 922        TOTAL FREE ENERGY PREDICTED BY IDOCK:   -6.61 KCAL/MOL
REMARK 923 INTER-LIGAND FREE ENERGY PREDICTED BY IDOCK:   -5.77 KCAL/MOL
REMARK 924 INTRA-LIGAND FREE ENERGY PREDICTED BY IDOCK:   -0.84 KCAL/MOL
REMARK 927      BINDING AFFINITY PREDICTED BY RF-SCORE:    0.00 PKD
ROOT
HETATM    1  C   UNL     1      -8.430   6.844  66.396  1.00  0.00    -0.130 C  
HETATM    2  N   UNL     1      -8.958   8.265  66.632  1.00  0.00    -0.142 N  
HETATM    3  C   UNL     1      -8.061   8.956  67.651  1.00  0.00    -0.106 C  
HETATM    4  C   UNL     1     -10.375   8.163  67.173  1.00  0.00    -0.321 C  
ENDROOT
BRANCH   2   5
HETATM    5  C   UNL     1      -8.918   8.976  65.286  1.00  0.00    -0.183 C  
BRANCH   5   6
HETATM    6  C   UNL     1      -8.591  10.469  65.363  1.00  0.00    -0.188 C  
BRANCH   6   7
HETATM    7  C   UNL     1      -9.877  11.301  65.306  1.00  0.00    -0.291 C  
BRANCH   7   8
HETATM    8  C   UNL     1     -10.652  11.142  63.991  1.00  0.00    -0.436 C  
BRANCH   8   9
HETATM    9  C   UNL     1     -11.573  12.329  63.686  1.00  0.00    -0.581 C  
BRANCH   9  10
HETATM   10  C   UNL     1     -12.441  12.720  64.884  1.00  0.00    -0.563 C  
BRANCH  10  11
HETATM   11  C   UNL     1     -12.343  14.213  65.216  1.00  0.00    -0.469 C  
BRANCH  11  12
HETATM   12  C   UNL     1     -11.048  14.861  64.709  1.00  0.00    -0.395 C  
BRANCH  12  13
HETATM   13  C   UNL     1     -10.035  15.153  65.823  1.00  0.00    -0.375 C  
BRANCH  13  14
HETATM   14  C   UNL     1     -10.601  16.185  66.797  1.00  0.00    -0.277 C  
BRANCH  14  15
HETATM   15  N   UNL     1      -9.796  17.478  66.886  1.00  0.00    -0.289 N  
HETATM   16  C   UNL     1     -10.394  18.574  66.011  1.00  0.00    -0.393 C  
HETATM   17  C   UNL     1      -8.337  17.252  66.512  1.00  0.00    -0.277 C  
HETATM   18  C   UNL     1      -9.864  17.944  68.348  1.00  0.00    -0.355 C  
ENDBRANCH  14  15
ENDBRANCH  13  14
ENDBRANCH  12  13
ENDBRANCH  11  12
ENDBRANCH  10  11
ENDBRANCH   9  10
ENDBRANCH   8   9
ENDBRANCH   7   8
ENDBRANCH   6   7
ENDBRANCH   5   6
ENDBRANCH   2   5
TORSDOF 11
ENDMDL
MODEL       73
REMARK 921   NORMALIZED FREE ENERGY PREDICTED BY IDOCK:   -3.55 KCAL/MOL
REMARK 922        TOTAL FREE ENERGY PREDICTED BY IDOCK:   -6.60 KCAL/MOL
REMARK 923 INTER-LIGAND FREE ENERGY PREDICTED BY IDOCK:   -5.66 KCAL/MOL
REMARK 924 INTRA-LIGAND FREE ENERGY PREDICTED BY IDOCK:   -0.94 KCAL/MOL
REMARK 927      BINDING AFFINITY PREDICTED BY RF-SCORE:    0.00 PKD
ROOT
HETATM    1  C   UNL     1     -10.958  15.498  64.913  1.00  0.00    -0.436 C  
HETATM    2  N   UNL     1     -11.000  14.134  65.615  1.00  0.00    -0.300 N  
HETATM    3  C   UNL     1     -12.403  13.911  66.164  1.00  0.00    -0.465 C  
HETATM    4  C   UNL     1      -9.993  14.155  66.755  1.00  0.00    -0.267 C  
ENDROOT
BRANCH   2   5
HETATM    5  C   UNL     1     -10.642  13.091  64.565  1.00  0.00    -0.393 C  
BRANCH   5   6
HETATM    6  C   UNL     1     -11.059  11.662  64.919  1.00  0.00    -0.317 C  
BRANCH   6   7
HETATM    7  C   UNL     1      -9.822  10.782  65.134  1.00  0.00    -0.333 C  
BRANCH   7   8
HETATM    8  C   UNL     1      -9.665  10.287  66.579  1.00  0.00    -0.243 C  
BRANCH   8   9
HETATM    9  C   UNL     1     -10.987  10.265  67.355  1.00  0.00    -0.317 C  
BRANCH   9  10
HETATM   10  C   UNL     1     -10.883  10.970  68.709  1.00  0.00    -0.253 C  
BRANCH  10  11
HETATM   11  C   UNL     1     -12.246  11.143  69.387  1.00  0.00    -0.329 C  
BRANCH  11  12
HETATM   12  C   UNL     1     -12.305  10.529  70.791  1.00  0.00    -0.474 C  
BRANCH  12  13
HETATM   13  C   UNL     1     -11.087   9.663  71.131  1.00  0.00    -0.444 C  
BRANCH  13  14
HETATM   14  C   UNL     1     -11.439   8.181  71.006  1.00  0.00    -0.279 C  
BRANCH  14  15
HETATM   15  N   UNL     1     -10.373   7.334  70.318  1.00  0.00    -0.207 N  
HETATM   16  C   UNL     1      -9.121   8.148  70.012  1.00  0.00    -0.151 C  
HETATM   17  C   UNL     1     -10.906   6.699  69.040  1.00  0.00    -0.277 C  
HETATM   18  C   UNL     1      -9.989   6.219  71.301  1.00  0.00    -0.180 C  
ENDBRANCH  14  15
ENDBRANCH  13  14
ENDBRANCH  12  13
ENDBRANCH  11  12
ENDBRANCH  10  11
ENDBRANCH   9  10
ENDBRANCH   8   9
ENDBRANCH   7   8
ENDBRANCH   6   7
ENDBRANCH   5   6
ENDBRANCH   2   5
TORSDOF 11
ENDMDL
MODEL       74
REMARK 921   NORMALIZED FREE ENERGY PREDICTED BY IDOCK:   -3.54 KCAL/MOL
REMARK 922        TOTAL FREE ENERGY PREDICTED BY IDOCK:   -6.58 KCAL/MOL
REMARK 923 INTER-LIGAND FREE ENERGY PREDICTED BY IDOCK:   -5.78 KCAL/MOL
REMARK 924 INTRA-LIGAND FREE ENERGY PREDICTED BY IDOCK:   -0.81 KCAL/MOL
REMARK 927      BINDING AFFINITY PREDICTED BY RF-SCORE:    0.00 PKD
ROOT
HETATM    1  C   UNL     1     -13.632  12.881  72.270  1.00  0.00    -0.515 C  
HETATM    2  N   UNL     1     -13.241  14.348  72.053  1.00  0.00    -0.343 N  
HETATM    3  C   UNL     1     -12.986  14.991  73.411  1.00  0.00    -0.498 C  
HETATM    4  C   UNL     1     -14.396  15.051  71.356  1.00  0.00    -0.497 C  
ENDROOT
BRANCH   2   5
HETATM    5  C   UNL     1     -11.982  14.344  71.196  1.00  0.00    -0.316 C  
BRANCH   5   6
HETATM    6  C   UNL     1     -12.219  14.645  69.715  1.00  0.00    -0.347 C  
BRANCH   6   7
HETATM    7  C   UNL     1     -10.966  14.312  68.895  1.00  0.00    -0.275 C  
BRANCH   7   8
HETATM    8  C   UNL     1     -11.092  14.675  67.410  1.00  0.00    -0.331 C  
BRANCH   8   9
HETATM    9  C   UNL     1     -11.919  13.662  66.609  1.00  0.00    -0.458 C  
BRANCH   9  10
HETATM   10  C   UNL     1     -11.095  12.953  65.532  1.00  0.00    -0.306 C  
BRANCH  10  11
HETATM   11  C   UNL     1     -10.101  11.947  66.122  1.00  0.00    -0.257 C  
BRANCH  11  12
HETATM   12  C   UNL     1     -10.758  10.628  66.548  1.00  0.00    -0.218 C  
BRANCH  12  13
HETATM   13  C   UNL     1     -10.883  10.471  68.068  1.00  0.00    -0.312 C  
BRANCH  13  14
HETATM   14  C   UNL     1     -10.556   9.036  68.481  1.00  0.00    -0.155 C  
BRANCH  14  15
HETATM   15  N   UNL     1     -10.416   8.829  69.986  1.00  0.00    -0.207 N  
HETATM   16  C   UNL     1      -8.955   8.704  70.403  1.00  0.00    -0.158 C  
HETATM   17  C   UNL     1     -11.196   7.608  70.455  1.00  0.00    -0.261 C  
HETATM   18  C   UNL     1     -11.000  10.078  70.662  1.00  0.00    -0.322 C  
ENDBRANCH  14  15
ENDBRANCH  13  14
ENDBRANCH  12  13
ENDBRANCH  11  12
ENDBRANCH  10  11
ENDBRANCH   9  10
ENDBRANCH   8   9
ENDBRANCH   7   8
ENDBRANCH   6   7
ENDBRANCH   5   6
ENDBRANCH   2   5
TORSDOF 11
ENDMDL
MODEL       75
REMARK 921   NORMALIZED FREE ENERGY PREDICTED BY IDOCK:   -3.54 KCAL/MOL
REMARK 922        TOTAL FREE ENERGY PREDICTED BY IDOCK:   -6.58 KCAL/MOL
REMARK 923 INTER-LIGAND FREE ENERGY PREDICTED BY IDOCK:   -5.79 KCAL/MOL
REMARK 924 INTRA-LIGAND FREE ENERGY PREDICTED BY IDOCK:   -0.78 KCAL/MOL
REMARK 927      BINDING AFFINITY PREDICTED BY RF-SCORE:    0.00 PKD
ROOT
HETATM    1  C   UNL     1      -9.291   7.074  68.949  1.00  0.00    -0.139 C  
HETATM    2  N   UNL     1     -10.394   6.044  68.676  1.00  0.00    -0.191 N  
HETATM    3  C   UNL     1      -9.784   4.649  68.735  1.00  0.00    -0.160 C  
HETATM    4  C   UNL     1     -10.958   6.306  67.289  1.00  0.00    -0.366 C  
ENDROOT
BRANCH   2   5
HETATM    5  C   UNL     1     -11.448   6.234  69.759  1.00  0.00    -0.379 C  
BRANCH   5   6
HETATM    6  C   UNL     1     -10.949   5.987  71.184  1.00  0.00    -0.341 C  
BRANCH   6   7
HETATM    7  C   UNL     1     -11.766   6.811  72.187  1.00  0.00    -0.332 C  
BRANCH   7   8
HETATM    8  C   UNL     1     -12.718   7.815  71.523  1.00  0.00    -0.355 C  
BRANCH   8   9
HETATM    9  C   UNL     1     -13.111   8.974  72.446  1.00  0.00    -0.487 C  
BRANCH   9  10
HETATM   10  C   UNL     1     -13.042  10.332  71.742  1.00  0.00    -0.570 C  
BRANCH  10  11
HETATM   11  C   UNL     1     -12.011  10.353  70.608  1.00  0.00    -0.448 C  
BRANCH  11  12
HETATM   12  C   UNL     1     -11.761  11.757  70.045  1.00  0.00    -0.386 C  
BRANCH  12  13
HETATM   13  C   UNL     1     -11.863  11.829  68.517  1.00  0.00    -0.365 C  
BRANCH  13  14
HETATM   14  C   UNL     1     -11.210  10.601  67.884  1.00  0.00    -0.308 C  
BRANCH  14  15
HETATM   15  N   UNL     1     -10.251  10.915  66.740  1.00  0.00    -0.223 N  
HETATM   16  C   UNL     1      -9.845   9.655  65.985  1.00  0.00    -0.274 C  
HETATM   17  C   UNL     1      -9.010  11.645  67.238  1.00  0.00    -0.169 C  
HETATM   18  C   UNL     1     -11.005  11.833  65.767  1.00  0.00    -0.301 C  
ENDBRANCH  14  15
ENDBRANCH  13  14
ENDBRANCH  12  13
ENDBRANCH  11  12
ENDBRANCH  10  11
ENDBRANCH   9  10
ENDBRANCH   8   9
ENDBRANCH   7   8
ENDBRANCH   6   7
ENDBRANCH   5   6
ENDBRANCH   2   5
TORSDOF 11
ENDMDL
MODEL       76
REMARK 921   NORMALIZED FREE ENERGY PREDICTED BY IDOCK:   -3.53 KCAL/MOL
REMARK 922        TOTAL FREE ENERGY PREDICTED BY IDOCK:   -6.57 KCAL/MOL
REMARK 923 INTER-LIGAND FREE ENERGY PREDICTED BY IDOCK:   -6.01 KCAL/MOL
REMARK 924 INTRA-LIGAND FREE ENERGY PREDICTED BY IDOCK:   -0.57 KCAL/MOL
REMARK 927      BINDING AFFINITY PREDICTED BY RF-SCORE:    0.00 PKD
ROOT
HETATM    1  C   UNL     1     -11.268  11.647  65.729  1.00  0.00    -0.230 C  
HETATM    2  N   UNL     1     -11.123  12.039  64.253  1.00  0.00    -0.328 N  
HETATM    3  C   UNL     1     -12.468  11.847  63.564  1.00  0.00    -0.492 C  
HETATM    4  C   UNL     1     -10.081  11.130  63.620  1.00  0.00    -0.379 C  
ENDROOT
BRANCH   2   5
HETATM    5  C   UNL     1     -10.689  13.498  64.228  1.00  0.00    -0.308 C  
BRANCH   5   6
HETATM    6  C   UNL     1     -11.573  14.440  65.049  1.00  0.00    -0.374 C  
BRANCH   6   7
HETATM    7  C   UNL     1     -11.045  15.878  64.963  1.00  0.00    -0.370 C  
BRANCH   7   8
HETATM    8  C   UNL     1     -10.630  16.460  66.321  1.00  0.00    -0.243 C  
BRANCH   8   9
HETATM    9  C   UNL     1      -9.111  16.490  66.525  1.00  0.00    -0.307 C  
BRANCH   9  10
HETATM   10  C   UNL     1      -8.718  16.480  68.004  1.00  0.00    -0.189 C  
BRANCH  10  11
HETATM   11  C   UNL     1      -9.926  16.306  68.930  1.00  0.00    -0.248 C  
BRANCH  11  12
HETATM   12  C   UNL     1     -10.281  14.837  69.192  1.00  0.00    -0.224 C  
BRANCH  12  13
HETATM   13  C   UNL     1     -11.745  14.624  69.594  1.00  0.00    -0.358 C  
BRANCH  13  14
HETATM   14  C   UNL     1     -12.074  15.437  70.846  1.00  0.00    -0.364 C  
BRANCH  14  15
HETATM   15  N   UNL     1     -12.987  14.723  71.839  1.00  0.00    -0.311 N  
HETATM   16  C   UNL     1     -12.479  14.864  73.270  1.00  0.00    -0.427 C  
HETATM   17  C   UNL     1     -13.149  13.250  71.487  1.00  0.00    -0.328 C  
HETATM   18  C   UNL     1     -14.359  15.407  71.750  1.00  0.00    -0.531 C  
ENDBRANCH  14  15
ENDBRANCH  13  14
ENDBRANCH  12  13
ENDBRANCH  11  12
ENDBRANCH  10  11
ENDBRANCH   9  10
ENDBRANCH   8   9
ENDBRANCH   7   8
ENDBRANCH   6   7
ENDBRANCH   5   6
ENDBRANCH   2   5
TORSDOF 11
ENDMDL
MODEL       77
REMARK 921   NORMALIZED FREE ENERGY PREDICTED BY IDOCK:   -3.53 KCAL/MOL
REMARK 922        TOTAL FREE ENERGY PREDICTED BY IDOCK:   -6.57 KCAL/MOL
REMARK 923 INTER-LIGAND FREE ENERGY PREDICTED BY IDOCK:   -5.55 KCAL/MOL
REMARK 924 INTRA-LIGAND FREE ENERGY PREDICTED BY IDOCK:   -1.01 KCAL/MOL
REMARK 927      BINDING AFFINITY PREDICTED BY RF-SCORE:    0.00 PKD
ROOT
HETATM    1  C   UNL     1     -10.576  17.091  68.779  1.00  0.00    -0.346 C  
HETATM    2  N   UNL     1      -9.950  18.024  67.734  1.00  0.00    -0.311 N  
HETATM    3  C   UNL     1      -8.583  18.471  68.236  1.00  0.00    -0.318 C  
HETATM    4  C   UNL     1     -10.861  19.230  67.565  1.00  0.00    -0.415 C  
ENDROOT
BRANCH   2   5
HETATM    5  C   UNL     1      -9.832  17.221  66.445  1.00  0.00    -0.299 C  
BRANCH   5   6
HETATM    6  C   UNL     1     -10.848  16.086  66.306  1.00  0.00    -0.166 C  
BRANCH   6   7
HETATM    7  C   UNL     1     -11.093  15.767  64.826  1.00  0.00    -0.413 C  
BRANCH   7   8
HETATM    8  C   UNL     1     -11.920  14.493  64.603  1.00  0.00    -0.478 C  
BRANCH   8   9
HETATM    9  C   UNL     1     -12.469  13.895  65.903  1.00  0.00    -0.519 C  
BRANCH   9  10
HETATM   10  C   UNL     1     -12.000  12.456  66.130  1.00  0.00    -0.397 C  
BRANCH  10  11
HETATM   11  C   UNL     1     -10.633  12.178  65.495  1.00  0.00    -0.314 C  
BRANCH  11  12
HETATM   12  C   UNL     1      -9.458  12.663  66.353  1.00  0.00    -0.231 C  
BRANCH  12  13
HETATM   13  C   UNL     1      -9.720  12.561  67.861  1.00  0.00    -0.205 C  
BRANCH  13  14
HETATM   14  C   UNL     1      -9.059  11.306  68.430  1.00  0.00    -0.170 C  
BRANCH  14  15
HETATM   15  N   UNL     1     -10.037  10.257  68.949  1.00  0.00    -0.193 N  
HETATM   16  C   UNL     1     -11.414  10.856  69.214  1.00  0.00    -0.302 C  
HETATM   17  C   UNL     1      -9.513   9.582  70.210  1.00  0.00    -0.259 C  
HETATM   18  C   UNL     1     -10.181   9.199  67.846  1.00  0.00    -0.216 C  
ENDBRANCH  14  15
ENDBRANCH  13  14
ENDBRANCH  12  13
ENDBRANCH  11  12
ENDBRANCH  10  11
ENDBRANCH   9  10
ENDBRANCH   8   9
ENDBRANCH   7   8
ENDBRANCH   6   7
ENDBRANCH   5   6
ENDBRANCH   2   5
TORSDOF 11
ENDMDL
MODEL       78
REMARK 921   NORMALIZED FREE ENERGY PREDICTED BY IDOCK:   -3.53 KCAL/MOL
REMARK 922        TOTAL FREE ENERGY PREDICTED BY IDOCK:   -6.56 KCAL/MOL
REMARK 923 INTER-LIGAND FREE ENERGY PREDICTED BY IDOCK:   -6.12 KCAL/MOL
REMARK 924 INTRA-LIGAND FREE ENERGY PREDICTED BY IDOCK:   -0.44 KCAL/MOL
REMARK 927      BINDING AFFINITY PREDICTED BY RF-SCORE:    0.00 PKD
ROOT
HETATM    1  C   UNL     1      -9.425   4.096  69.352  1.00  0.00    -0.190 C  
HETATM    2  N   UNL     1      -9.663   5.529  69.843  1.00  0.00    -0.162 N  
HETATM    3  C   UNL     1     -11.021   5.999  69.339  1.00  0.00    -0.385 C  
HETATM    4  C   UNL     1      -8.564   6.415  69.277  1.00  0.00    -0.125 C  
ENDROOT
BRANCH   2   5
HETATM    5  C   UNL     1      -9.622   5.483  71.365  1.00  0.00    -0.154 C  
BRANCH   5   6
HETATM    6  C   UNL     1     -10.902   5.963  72.052  1.00  0.00    -0.303 C  
BRANCH   6   7
HETATM    7  C   UNL     1     -10.569   6.976  73.154  1.00  0.00    -0.350 C  
BRANCH   7   8
HETATM    8  C   UNL     1      -9.691   8.139  72.673  1.00  0.00    -0.360 C  
BRANCH   8   9
HETATM    9  C   UNL     1     -10.308   8.917  71.504  1.00  0.00    -0.394 C  
BRANCH   9  10
HETATM   10  C   UNL     1     -11.783   9.250  71.737  1.00  0.00    -0.456 C  
BRANCH  10  11
HETATM   11  C   UNL     1     -12.173  10.616  71.163  1.00  0.00    -0.479 C  
BRANCH  11  12
HETATM   12  C   UNL     1     -13.397  11.233  71.851  1.00  0.00    -0.413 C  
BRANCH  12  13
HETATM   13  C   UNL     1     -13.190  12.694  72.270  1.00  0.00    -0.465 C  
BRANCH  13  14
HETATM   14  C   UNL     1     -12.602  13.499  71.111  1.00  0.00    -0.355 C  
BRANCH  14  15
HETATM   15  N   UNL     1     -12.712  15.012  71.274  1.00  0.00    -0.319 N  
HETATM   16  C   UNL     1     -14.111  15.429  71.712  1.00  0.00    -0.527 C  
HETATM   17  C   UNL     1     -12.331  15.739  69.991  1.00  0.00    -0.219 C  
HETATM   18  C   UNL     1     -11.726  15.412  72.380  1.00  0.00    -0.466 C  
ENDBRANCH  14  15
ENDBRANCH  13  14
ENDBRANCH  12  13
ENDBRANCH  11  12
ENDBRANCH  10  11
ENDBRANCH   9  10
ENDBRANCH   8   9
ENDBRANCH   7   8
ENDBRANCH   6   7
ENDBRANCH   5   6
ENDBRANCH   2   5
TORSDOF 11
ENDMDL
MODEL       79
REMARK 921   NORMALIZED FREE ENERGY PREDICTED BY IDOCK:   -3.51 KCAL/MOL
REMARK 922        TOTAL FREE ENERGY PREDICTED BY IDOCK:   -6.54 KCAL/MOL
REMARK 923 INTER-LIGAND FREE ENERGY PREDICTED BY IDOCK:   -5.76 KCAL/MOL
REMARK 924 INTRA-LIGAND FREE ENERGY PREDICTED BY IDOCK:   -0.77 KCAL/MOL
REMARK 927      BINDING AFFINITY PREDICTED BY RF-SCORE:    0.00 PKD
ROOT
HETATM    1  C   UNL     1     -13.321   7.449  71.613  1.00  0.00    -0.364 C  
HETATM    2  N   UNL     1     -11.886   7.987  71.555  1.00  0.00    -0.283 N  
HETATM    3  C   UNL     1     -11.152   7.554  72.817  1.00  0.00    -0.366 C  
HETATM    4  C   UNL     1     -11.950   9.505  71.487  1.00  0.00    -0.399 C  
ENDROOT
BRANCH   2   5
HETATM    5  C   UNL     1     -11.245   7.393  70.308  1.00  0.00    -0.247 C  
BRANCH   5   6
HETATM    6  C   UNL     1      -9.721   7.516  70.255  1.00  0.00    -0.179 C  
BRANCH   6   7
HETATM    7  C   UNL     1      -9.304   8.503  69.157  1.00  0.00    -0.153 C  
BRANCH   7   8
HETATM    8  C   UNL     1     -10.304   8.588  67.996  1.00  0.00    -0.272 C  
BRANCH   8   9
HETATM    9  C   UNL     1     -10.399   9.989  67.382  1.00  0.00    -0.292 C  
BRANCH   9  10
HETATM   10  C   UNL     1     -10.538  11.085  68.441  1.00  0.00    -0.224 C  
BRANCH  10  11
HETATM   11  C   UNL     1     -11.851  11.864  68.310  1.00  0.00    -0.343 C  
BRANCH  11  12
HETATM   12  C   UNL     1     -11.651  13.384  68.286  1.00  0.00    -0.379 C  
BRANCH  12  13
HETATM   13  C   UNL     1     -12.133  14.043  66.988  1.00  0.00    -0.455 C  
BRANCH  13  14
HETATM   14  C   UNL     1     -12.356  12.985  65.908  1.00  0.00    -0.368 C  
BRANCH  14  15
HETATM   15  N   UNL     1     -11.477  13.149  64.672  1.00  0.00    -0.319 N  
HETATM   16  C   UNL     1     -12.221  12.763  63.399  1.00  0.00    -0.504 C  
HETATM   17  C   UNL     1     -10.193  12.339  64.790  1.00  0.00    -0.282 C  
HETATM   18  C   UNL     1     -11.114  14.638  64.580  1.00  0.00    -0.334 C  
ENDBRANCH  14  15
ENDBRANCH  13  14
ENDBRANCH  12  13
ENDBRANCH  11  12
ENDBRANCH  10  11
ENDBRANCH   9  10
ENDBRANCH   8   9
ENDBRANCH   7   8
ENDBRANCH   6   7
ENDBRANCH   5   6
ENDBRANCH   2   5
TORSDOF 11
ENDMDL
MODEL       80
REMARK 921   NORMALIZED FREE ENERGY PREDICTED BY IDOCK:   -3.51 KCAL/MOL
REMARK 922        TOTAL FREE ENERGY PREDICTED BY IDOCK:   -6.53 KCAL/MOL
REMARK 923 INTER-LIGAND FREE ENERGY PREDICTED BY IDOCK:   -5.50 KCAL/MOL
REMARK 924 INTRA-LIGAND FREE ENERGY PREDICTED BY IDOCK:   -1.03 KCAL/MOL
REMARK 927      BINDING AFFINITY PREDICTED BY RF-SCORE:    0.00 PKD
ROOT
HETATM    1  C   UNL     1     -12.275  12.570  63.500  1.00  0.00    -0.558 C  
HETATM    2  N   UNL     1     -11.270  12.678  64.654  1.00  0.00    -0.298 N  
HETATM    3  C   UNL     1     -10.714  14.096  64.686  1.00  0.00    -0.389 C  
HETATM    4  C   UNL     1     -10.146  11.685  64.401  1.00  0.00    -0.279 C  
ENDROOT
BRANCH   2   5
HETATM    5  C   UNL     1     -12.034  12.353  65.931  1.00  0.00    -0.367 C  
BRANCH   5   6
HETATM    6  C   UNL     1     -11.674  13.232  67.130  1.00  0.00    -0.425 C  
BRANCH   6   7
HETATM    7  C   UNL     1     -11.063  12.382  68.251  1.00  0.00    -0.283 C  
BRANCH   7   8
HETATM    8  C   UNL     1     -11.797  12.518  69.592  1.00  0.00    -0.382 C  
BRANCH   8   9
HETATM    9  C   UNL     1     -12.709  11.326  69.905  1.00  0.00    -0.033 C  
BRANCH   9  10
HETATM   10  C   UNL     1     -12.321  10.616  71.203  1.00  0.00    -0.505 C  
BRANCH  10  11
HETATM   11  C   UNL     1     -11.636   9.268  70.952  1.00  0.00    -0.364 C  
BRANCH  11  12
HETATM   12  C   UNL     1     -10.114   9.382  70.805  1.00  0.00    -0.366 C  
BRANCH  12  13
HETATM   13  C   UNL     1      -9.615   9.103  69.382  1.00  0.00    -0.165 C  
BRANCH  13  14
HETATM   14  C   UNL     1     -10.670   8.326  68.594  1.00  0.00    -0.027 C  
BRANCH  14  15
HETATM   15  N   UNL     1     -10.352   6.846  68.404  1.00  0.00    -0.180 N  
HETATM   16  C   UNL     1     -10.733   6.364  67.009  1.00  0.00    -0.363 C  
HETATM   17  C   UNL     1     -11.043   5.989  69.456  1.00  0.00    -0.398 C  
HETATM   18  C   UNL     1      -8.832   6.694  68.563  1.00  0.00    -0.122 C  
ENDBRANCH  14  15
ENDBRANCH  13  14
ENDBRANCH  12  13
ENDBRANCH  11  12
ENDBRANCH  10  11
ENDBRANCH   9  10
ENDBRANCH   8   9
ENDBRANCH   7   8
ENDBRANCH   6   7
ENDBRANCH   5   6
ENDBRANCH   2   5
TORSDOF 11
ENDMDL
MODEL       81
REMARK 921   NORMALIZED FREE ENERGY PREDICTED BY IDOCK:   -3.51 KCAL/MOL
REMARK 922        TOTAL FREE ENERGY PREDICTED BY IDOCK:   -6.53 KCAL/MOL
REMARK 923 INTER-LIGAND FREE ENERGY PREDICTED BY IDOCK:   -5.73 KCAL/MOL
REMARK 924 INTRA-LIGAND FREE ENERGY PREDICTED BY IDOCK:   -0.80 KCAL/MOL
REMARK 927      BINDING AFFINITY PREDICTED BY RF-SCORE:    0.00 PKD
ROOT
HETATM    1  C   UNL     1     -13.581   8.348  71.840  1.00  0.00    -0.379 C  
HETATM    2  N   UNL     1     -12.106   8.177  71.453  1.00  0.00    -0.293 N  
HETATM    3  C   UNL     1     -11.290   7.976  72.723  1.00  0.00    -0.374 C  
HETATM    4  C   UNL     1     -11.652   9.441  70.739  1.00  0.00    -0.298 C  
ENDROOT
BRANCH   2   5
HETATM    5  C   UNL     1     -12.031   6.957  70.545  1.00  0.00    -0.305 C  
BRANCH   5   6
HETATM    6  C   UNL     1     -10.737   6.150  70.669  1.00  0.00    -0.336 C  
BRANCH   6   7
HETATM    7  C   UNL     1     -10.185   5.809  69.280  1.00  0.00    -0.292 C  
BRANCH   7   8
HETATM    8  C   UNL     1     -11.077   6.295  68.129  1.00  0.00    -0.364 C  
BRANCH   8   9
HETATM    9  C   UNL     1     -10.317   7.124  67.086  1.00  0.00    -0.359 C  
BRANCH   9  10
HETATM   10  C   UNL     1      -9.148   7.902  67.695  1.00  0.00    -0.139 C  
BRANCH  10  11
HETATM   11  C   UNL     1      -9.438   9.402  67.807  1.00  0.00    -0.152 C  
BRANCH  11  12
HETATM   12  C   UNL     1     -10.379   9.920  66.712  1.00  0.00    -0.285 C  
BRANCH  12  13
HETATM   13  C   UNL     1     -10.913  11.331  66.983  1.00  0.00    -0.352 C  
BRANCH  13  14
HETATM   14  C   UNL     1     -10.793  12.194  65.727  1.00  0.00    -0.281 C  
BRANCH  14  15
HETATM   15  N   UNL     1     -11.320  13.617  65.886  1.00  0.00    -0.306 N  
HETATM   16  C   UNL     1     -12.758  13.741  65.397  1.00  0.00    -0.472 C  
HETATM   17  C   UNL     1     -10.435  14.622  65.161  1.00  0.00    -0.416 C  
HETATM   18  C   UNL     1     -11.298  13.933  67.388  1.00  0.00    -0.326 C  
ENDBRANCH  14  15
ENDBRANCH  13  14
ENDBRANCH  12  13
ENDBRANCH  11  12
ENDBRANCH  10  11
ENDBRANCH   9  10
ENDBRANCH   8   9
ENDBRANCH   7   8
ENDBRANCH   6   7
ENDBRANCH   5   6
ENDBRANCH   2   5
TORSDOF 11
ENDMDL
MODEL       82
REMARK 921   NORMALIZED FREE ENERGY PREDICTED BY IDOCK:   -3.50 KCAL/MOL
REMARK 922        TOTAL FREE ENERGY PREDICTED BY IDOCK:   -6.52 KCAL/MOL
REMARK 923 INTER-LIGAND FREE ENERGY PREDICTED BY IDOCK:   -6.00 KCAL/MOL
REMARK 924 INTRA-LIGAND FREE ENERGY PREDICTED BY IDOCK:   -0.53 KCAL/MOL
REMARK 927      BINDING AFFINITY PREDICTED BY RF-SCORE:    0.00 PKD
ROOT
HETATM    1  C   UNL     1     -11.342   6.973  70.382  1.00  0.00    -0.310 C  
HETATM    2  N   UNL     1     -11.782   7.955  71.475  1.00  0.00    -0.274 N  
HETATM    3  C   UNL     1     -11.168   7.519  72.799  1.00  0.00    -0.352 C  
HETATM    4  C   UNL     1     -13.299   7.915  71.568  1.00  0.00    -0.303 C  
ENDROOT
BRANCH   2   5
HETATM    5  C   UNL     1     -11.278   9.330  71.056  1.00  0.00    -0.321 C  
BRANCH   5   6
HETATM    6  C   UNL     1     -12.380  10.357  70.788  1.00  0.00    -0.463 C  
BRANCH   6   7
HETATM    7  C   UNL     1     -11.964  11.304  69.655  1.00  0.00    -0.423 C  
BRANCH   7   8
HETATM    8  C   UNL     1     -12.037  12.788  70.039  1.00  0.00    -0.355 C  
BRANCH   8   9
HETATM    9  C   UNL     1     -12.018  13.726  68.827  1.00  0.00    -0.400 C  
BRANCH   9  10
HETATM   10  C   UNL     1     -11.611  13.009  67.538  1.00  0.00    -0.405 C  
BRANCH  10  11
HETATM   11  C   UNL     1     -12.372  13.528  66.313  1.00  0.00    -0.440 C  
BRANCH  11  12
HETATM   12  C   UNL     1     -11.536  14.467  65.435  1.00  0.00    -0.348 C  
BRANCH  12  13
HETATM   13  C   UNL     1     -10.040  14.451  65.775  1.00  0.00    -0.361 C  
BRANCH  13  14
HETATM   14  C   UNL     1      -9.472  15.869  65.733  1.00  0.00    -0.281 C  
BRANCH  14  15
HETATM   15  N   UNL     1      -8.450  16.171  66.826  1.00  0.00    -0.225 N  
HETATM   16  C   UNL     1      -7.707  14.914  67.263  1.00  0.00    -0.197 C  
HETATM   17  C   UNL     1      -9.103  16.835  68.031  1.00  0.00    -0.228 C  
HETATM   18  C   UNL     1      -7.427  17.143  66.219  1.00  0.00    -0.309 C  
ENDBRANCH  14  15
ENDBRANCH  13  14
ENDBRANCH  12  13
ENDBRANCH  11  12
ENDBRANCH  10  11
ENDBRANCH   9  10
ENDBRANCH   8   9
ENDBRANCH   7   8
ENDBRANCH   6   7
ENDBRANCH   5   6
ENDBRANCH   2   5
TORSDOF 11
ENDMDL
MODEL       83
REMARK 921   NORMALIZED FREE ENERGY PREDICTED BY IDOCK:   -3.50 KCAL/MOL
REMARK 922        TOTAL FREE ENERGY PREDICTED BY IDOCK:   -6.51 KCAL/MOL
REMARK 923 INTER-LIGAND FREE ENERGY PREDICTED BY IDOCK:   -6.06 KCAL/MOL
REMARK 924 INTRA-LIGAND FREE ENERGY PREDICTED BY IDOCK:   -0.46 KCAL/MOL
REMARK 927      BINDING AFFINITY PREDICTED BY RF-SCORE:    0.00 PKD
ROOT
HETATM    1  C   UNL     1     -10.333  19.829  68.344  1.00  0.00    -0.391 C  
HETATM    2  N   UNL     1      -9.832  19.202  67.037  1.00  0.00    -0.321 N  
HETATM    3  C   UNL     1      -8.309  19.197  67.050  1.00  0.00    -0.276 C  
HETATM    4  C   UNL     1     -10.338  20.048  65.878  1.00  0.00    -0.424 C  
ENDROOT
BRANCH   2   5
HETATM    5  C   UNL     1     -10.391  17.786  66.988  1.00  0.00    -0.344 C  
BRANCH   5   6
HETATM    6  C   UNL     1     -10.354  17.040  68.323  1.00  0.00    -0.347 C  
BRANCH   6   7
HETATM    7  C   UNL     1      -9.597  15.714  68.173  1.00  0.00    -0.196 C  
BRANCH   7   8
HETATM    8  C   UNL     1     -10.156  14.813  67.063  1.00  0.00    -0.245 C  
BRANCH   8   9
HETATM    9  C   UNL     1     -11.537  14.235  67.392  1.00  0.00    -0.394 C  
BRANCH   9  10
HETATM   10  C   UNL     1     -11.522  13.366  68.652  1.00  0.00    -0.345 C  
BRANCH  10  11
HETATM   11  C   UNL     1     -11.740  11.881  68.342  1.00  0.00    -0.387 C  
BRANCH  11  12
HETATM   12  C   UNL     1     -12.150  11.061  69.572  1.00  0.00    -0.400 C  
BRANCH  12  13
HETATM   13  C   UNL     1     -11.100  10.025  69.993  1.00  0.00    -0.350 C  
BRANCH  13  14
HETATM   14  C   UNL     1     -11.327   9.601  71.444  1.00  0.00    -0.374 C  
BRANCH  14  15
HETATM   15  N   UNL     1     -11.803   8.161  71.613  1.00  0.00    -0.278 N  
HETATM   16  C   UNL     1     -11.267   7.259  70.507  1.00  0.00    -0.279 C  
HETATM   17  C   UNL     1     -13.323   8.079  71.660  1.00  0.00    -0.332 C  
HETATM   18  C   UNL     1     -11.239   7.662  72.951  1.00  0.00    -0.372 C  
ENDBRANCH  14  15
ENDBRANCH  13  14
ENDBRANCH  12  13
ENDBRANCH  11  12
ENDBRANCH  10  11
ENDBRANCH   9  10
ENDBRANCH   8   9
ENDBRANCH   7   8
ENDBRANCH   6   7
ENDBRANCH   5   6
ENDBRANCH   2   5
TORSDOF 11
ENDMDL
MODEL       84
REMARK 921   NORMALIZED FREE ENERGY PREDICTED BY IDOCK:   -3.50 KCAL/MOL
REMARK 922        TOTAL FREE ENERGY PREDICTED BY IDOCK:   -6.51 KCAL/MOL
REMARK 923 INTER-LIGAND FREE ENERGY PREDICTED BY IDOCK:   -5.91 KCAL/MOL
REMARK 924 INTRA-LIGAND FREE ENERGY PREDICTED BY IDOCK:   -0.60 KCAL/MOL
REMARK 927      BINDING AFFINITY PREDICTED BY RF-SCORE:    0.00 PKD
ROOT
HETATM    1  C   UNL     1      -8.216  16.012  68.152  1.00  0.00    -0.152 C  
HETATM    2  N   UNL     1      -8.910  17.224  67.519  1.00  0.00    -0.217 N  
HETATM    3  C   UNL     1      -8.168  17.599  66.242  1.00  0.00    -0.229 C  
HETATM    4  C   UNL     1      -8.851  18.377  68.509  1.00  0.00    -0.314 C  
ENDROOT
BRANCH   2   5
HETATM    5  C   UNL     1     -10.344  16.804  67.225  1.00  0.00    -0.304 C  
BRANCH   5   6
HETATM    6  C   UNL     1     -10.476  15.599  66.293  1.00  0.00    -0.313 C  
BRANCH   6   7
HETATM    7  C   UNL     1     -11.520  14.615  66.837  1.00  0.00    -0.372 C  
BRANCH   7   8
HETATM    8  C   UNL     1     -11.880  14.857  68.310  1.00  0.00    -0.308 C  
BRANCH   8   9
HETATM    9  C   UNL     1     -11.734  13.603  69.180  1.00  0.00    -0.376 C  
BRANCH   9  10
HETATM   10  C   UNL     1     -11.585  12.327  68.348  1.00  0.00    -0.377 C  
BRANCH  10  11
HETATM   11  C   UNL     1     -12.025  11.074  69.112  1.00  0.00    -0.394 C  
BRANCH  11  12
HETATM   12  C   UNL     1     -12.159  11.303  70.622  1.00  0.00    -0.480 C  
BRANCH  12  13
HETATM   13  C   UNL     1     -12.260  10.004  71.431  1.00  0.00    -0.510 C  
BRANCH  13  14
HETATM   14  C   UNL     1     -11.374   8.924  70.811  1.00  0.00    -0.278 C  
BRANCH  14  15
HETATM   15  N   UNL     1     -11.636   7.515  71.333  1.00  0.00    -0.268 N  
HETATM   16  C   UNL     1     -11.131   7.342  72.761  1.00  0.00    -0.346 C  
HETATM   17  C   UNL     1     -11.012   6.460  70.430  1.00  0.00    -0.308 C  
HETATM   18  C   UNL     1     -13.160   7.321  71.339  1.00  0.00    -0.361 C  
ENDBRANCH  14  15
ENDBRANCH  13  14
ENDBRANCH  12  13
ENDBRANCH  11  12
ENDBRANCH  10  11
ENDBRANCH   9  10
ENDBRANCH   8   9
ENDBRANCH   7   8
ENDBRANCH   6   7
ENDBRANCH   5   6
ENDBRANCH   2   5
TORSDOF 11
ENDMDL
MODEL       85
REMARK 921   NORMALIZED FREE ENERGY PREDICTED BY IDOCK:   -3.49 KCAL/MOL
REMARK 922        TOTAL FREE ENERGY PREDICTED BY IDOCK:   -6.50 KCAL/MOL
REMARK 923 INTER-LIGAND FREE ENERGY PREDICTED BY IDOCK:   -5.64 KCAL/MOL
REMARK 924 INTRA-LIGAND FREE ENERGY PREDICTED BY IDOCK:   -0.86 KCAL/MOL
REMARK 927      BINDING AFFINITY PREDICTED BY RF-SCORE:    0.00 PKD
ROOT
HETATM    1  C   UNL     1     -10.055  19.651  68.509  1.00  0.00    -0.453 C  
HETATM    2  N   UNL     1      -9.381  19.007  67.291  1.00  0.00    -0.300 N  
HETATM    3  C   UNL     1      -9.242  20.057  66.197  1.00  0.00    -0.303 C  
HETATM    4  C   UNL     1     -10.263  17.866  66.807  1.00  0.00    -0.360 C  
ENDROOT
BRANCH   2   5
HETATM    5  C   UNL     1      -8.019  18.508  67.757  1.00  0.00    -0.250 C  
BRANCH   5   6
HETATM    6  C   UNL     1      -7.857  16.987  67.737  1.00  0.00    -0.188 C  
BRANCH   6   7
HETATM    7  C   UNL     1      -7.961  16.420  69.159  1.00  0.00    -0.204 C  
BRANCH   7   8
HETATM    8  C   UNL     1      -9.126  15.438  69.342  1.00  0.00    -0.258 C  
BRANCH   8   9
HETATM    9  C   UNL     1     -10.377  16.091  69.941  1.00  0.00    -0.249 C  
BRANCH   9  10
HETATM   10  C   UNL     1     -11.666  15.383  69.518  1.00  0.00    -0.364 C  
BRANCH  10  11
HETATM   11  C   UNL     1     -11.720  13.928  69.993  1.00  0.00    -0.338 C  
BRANCH  11  12
HETATM   12  C   UNL     1     -11.679  12.914  68.842  1.00  0.00    -0.370 C  
BRANCH  12  13
HETATM   13  C   UNL     1     -11.891  13.549  67.462  1.00  0.00    -0.406 C  
BRANCH  13  14
HETATM   14  C   UNL     1     -11.921  12.468  66.382  1.00  0.00    -0.318 C  
BRANCH  14  15
HETATM   15  N   UNL     1     -11.037  12.760  65.172  1.00  0.00    -0.285 N  
HETATM   16  C   UNL     1     -11.824  13.428  64.051  1.00  0.00    -0.445 C  
HETATM   17  C   UNL     1     -10.367  11.495  64.655  1.00  0.00    -0.297 C  
HETATM   18  C   UNL     1      -9.951  13.738  65.642  1.00  0.00    -0.255 C  
ENDBRANCH  14  15
ENDBRANCH  13  14
ENDBRANCH  12  13
ENDBRANCH  11  12
ENDBRANCH  10  11
ENDBRANCH   9  10
ENDBRANCH   8   9
ENDBRANCH   7   8
ENDBRANCH   6   7
ENDBRANCH   5   6
ENDBRANCH   2   5
TORSDOF 11
ENDMDL
MODEL       86
REMARK 921   NORMALIZED FREE ENERGY PREDICTED BY IDOCK:   -3.48 KCAL/MOL
REMARK 922        TOTAL FREE ENERGY PREDICTED BY IDOCK:   -6.49 KCAL/MOL
REMARK 923 INTER-LIGAND FREE ENERGY PREDICTED BY IDOCK:   -5.55 KCAL/MOL
REMARK 924 INTRA-LIGAND FREE ENERGY PREDICTED BY IDOCK:   -0.93 KCAL/MOL
REMARK 927      BINDING AFFINITY PREDICTED BY RF-SCORE:    0.00 PKD
ROOT
HETATM    1  C   UNL     1     -10.195   8.601  68.663  1.00  0.00    -0.194 C  
HETATM    2  N   UNL     1      -9.925   9.725  69.672  1.00  0.00    -0.209 N  
HETATM    3  C   UNL     1      -8.665   9.384  70.456  1.00  0.00    -0.231 C  
HETATM    4  C   UNL     1     -11.115   9.813  70.615  1.00  0.00    -0.332 C  
ENDROOT
BRANCH   2   5
HETATM    5  C   UNL     1      -9.748  11.004  68.865  1.00  0.00    -0.172 C  
BRANCH   5   6
HETATM    6  C   UNL     1     -10.990  11.897  68.806  1.00  0.00    -0.280 C  
BRANCH   6   7
HETATM    7  C   UNL     1     -11.468  12.052  67.357  1.00  0.00    -0.406 C  
BRANCH   7   8
HETATM    8  C   UNL     1     -10.511  11.435  66.328  1.00  0.00    -0.301 C  
BRANCH   8   9
HETATM    9  C   UNL     1     -11.033  11.526  64.889  1.00  0.00    -0.319 C  
BRANCH   9  10
HETATM   10  C   UNL     1     -10.615  12.825  64.196  1.00  0.00    -0.441 C  
BRANCH  10  11
HETATM   11  C   UNL     1     -11.715  13.892  64.236  1.00  0.00    -0.406 C  
BRANCH  11  12
HETATM   12  C   UNL     1     -11.247  15.219  64.844  1.00  0.00    -0.422 C  
BRANCH  12  13
HETATM   13  C   UNL     1     -10.106  15.059  65.856  1.00  0.00    -0.343 C  
BRANCH  13  14
HETATM   14  C   UNL     1      -9.474  16.417  66.161  1.00  0.00    -0.329 C  
BRANCH  14  15
HETATM   15  N   UNL     1      -9.807  16.971  67.543  1.00  0.00    -0.252 N  
HETATM   16  C   UNL     1     -10.601  15.970  68.374  1.00  0.00    -0.270 C  
HETATM   17  C   UNL     1     -10.570  18.286  67.446  1.00  0.00    -0.401 C  
HETATM   18  C   UNL     1      -8.470  17.227  68.253  1.00  0.00    -0.243 C  
ENDBRANCH  14  15
ENDBRANCH  13  14
ENDBRANCH  12  13
ENDBRANCH  11  12
ENDBRANCH  10  11
ENDBRANCH   9  10
ENDBRANCH   8   9
ENDBRANCH   7   8
ENDBRANCH   6   7
ENDBRANCH   5   6
ENDBRANCH   2   5
TORSDOF 11
ENDMDL
MODEL       87
REMARK 921   NORMALIZED FREE ENERGY PREDICTED BY IDOCK:   -3.48 KCAL/MOL
REMARK 922        TOTAL FREE ENERGY PREDICTED BY IDOCK:   -6.48 KCAL/MOL
REMARK 923 INTER-LIGAND FREE ENERGY PREDICTED BY IDOCK:   -5.54 KCAL/MOL
REMARK 924 INTRA-LIGAND FREE ENERGY PREDICTED BY IDOCK:   -0.94 KCAL/MOL
REMARK 927      BINDING AFFINITY PREDICTED BY RF-SCORE:    0.00 PKD
ROOT
HETATM    1  C   UNL     1     -12.280  13.282  63.841  1.00  0.00    -0.425 C  
HETATM    2  N   UNL     1     -11.020  13.061  64.687  1.00  0.00    -0.323 N  
HETATM    3  C   UNL     1     -10.079  12.135  63.927  1.00  0.00    -0.361 C  
HETATM    4  C   UNL     1     -11.434  12.416  66.000  1.00  0.00    -0.382 C  
ENDROOT
BRANCH   2   5
HETATM    5  C   UNL     1     -10.393  14.432  64.905  1.00  0.00    -0.389 C  
BRANCH   5   6
HETATM    6  C   UNL     1     -10.871  15.158  66.163  1.00  0.00    -0.330 C  
BRANCH   6   7
HETATM    7  C   UNL     1     -10.327  16.592  66.192  1.00  0.00    -0.344 C  
BRANCH   7   8
HETATM    8  C   UNL     1     -10.655  17.346  67.488  1.00  0.00    -0.330 C  
BRANCH   8   9
HETATM    9  C   UNL     1     -10.663  18.869  67.314  1.00  0.00    -0.523 C  
BRANCH   9  10
HETATM   10  C   UNL     1      -9.345  19.514  67.749  1.00  0.00    -0.405 C  
BRANCH  10  11
HETATM   11  C   UNL     1      -8.524  20.029  66.562  1.00  0.00    -0.359 C  
BRANCH  11  12
HETATM   12  C   UNL     1      -7.525  18.996  66.026  1.00  0.00    -0.279 C  
BRANCH  12  13
HETATM   13  C   UNL     1      -6.556  18.472  67.092  1.00  0.00    -0.206 C  
BRANCH  13  14
HETATM   14  C   UNL     1      -6.661  16.951  67.202  1.00  0.00    -0.189 C  
BRANCH  14  15
HETATM   15  N   UNL     1      -6.503  16.408  68.619  1.00  0.00    -0.131 N  
HETATM   16  C   UNL     1      -5.348  15.418  68.715  1.00  0.00    -0.094 C  
HETATM   17  C   UNL     1      -7.788  15.757  69.112  1.00  0.00    -0.227 C  
HETATM   18  C   UNL     1      -6.179  17.608  69.521  1.00  0.00    -0.245 C  
ENDBRANCH  14  15
ENDBRANCH  13  14
ENDBRANCH  12  13
ENDBRANCH  11  12
ENDBRANCH  10  11
ENDBRANCH   9  10
ENDBRANCH   8   9
ENDBRANCH   7   8
ENDBRANCH   6   7
ENDBRANCH   5   6
ENDBRANCH   2   5
TORSDOF 11
ENDMDL
MODEL       88
REMARK 921   NORMALIZED FREE ENERGY PREDICTED BY IDOCK:   -3.47 KCAL/MOL
REMARK 922        TOTAL FREE ENERGY PREDICTED BY IDOCK:   -6.47 KCAL/MOL
REMARK 923 INTER-LIGAND FREE ENERGY PREDICTED BY IDOCK:   -5.79 KCAL/MOL
REMARK 924 INTRA-LIGAND FREE ENERGY PREDICTED BY IDOCK:   -0.68 KCAL/MOL
REMARK 927      BINDING AFFINITY PREDICTED BY RF-SCORE:    0.00 PKD
ROOT
HETATM    1  C   UNL     1     -10.997   7.791  70.369  1.00  0.00    -0.249 C  
HETATM    2  N   UNL     1     -11.849   8.152  71.592  1.00  0.00    -0.278 N  
HETATM    3  C   UNL     1     -11.129   7.676  72.846  1.00  0.00    -0.393 C  
HETATM    4  C   UNL     1     -13.190   7.446  71.463  1.00  0.00    -0.372 C  
ENDROOT
BRANCH   2   5
HETATM    5  C   UNL     1     -12.006   9.667  71.583  1.00  0.00    -0.394 C  
BRANCH   5   6
HETATM    6  C   UNL     1     -11.248  10.380  70.462  1.00  0.00    -0.395 C  
BRANCH   6   7
HETATM    7  C   UNL     1     -11.930  11.710  70.118  1.00  0.00    -0.441 C  
BRANCH   7   8
HETATM    8  C   UNL     1     -11.828  12.084  68.633  1.00  0.00    -0.366 C  
BRANCH   8   9
HETATM    9  C   UNL     1     -11.881  13.597  68.387  1.00  0.00    -0.407 C  
BRANCH   9  10
HETATM   10  C   UNL     1     -11.673  13.958  66.914  1.00  0.00    -0.425 C  
BRANCH  10  11
HETATM   11  C   UNL     1     -10.584  13.110  66.250  1.00  0.00    -0.292 C  
BRANCH  11  12
HETATM   12  C   UNL     1     -10.825  12.882  64.752  1.00  0.00    -0.350 C  
BRANCH  12  13
HETATM   13  C   UNL     1     -10.864  11.400  64.358  1.00  0.00    -0.397 C  
BRANCH  13  14
HETATM   14  C   UNL     1      -9.454  10.897  64.051  1.00  0.00    -0.262 C  
BRANCH  14  15
HETATM   15  N   UNL     1      -8.908   9.891  65.061  1.00  0.00    -0.174 N  
HETATM   16  C   UNL     1      -8.266   8.694  64.371  1.00  0.00    -0.162 C  
HETATM   17  C   UNL     1      -9.995   9.419  66.018  1.00  0.00    -0.281 C  
HETATM   18  C   UNL     1      -7.822  10.618  65.867  1.00  0.00    -0.150 C  
ENDBRANCH  14  15
ENDBRANCH  13  14
ENDBRANCH  12  13
ENDBRANCH  11  12
ENDBRANCH  10  11
ENDBRANCH   9  10
ENDBRANCH   8   9
ENDBRANCH   7   8
ENDBRANCH   6   7
ENDBRANCH   5   6
ENDBRANCH   2   5
TORSDOF 11
ENDMDL
MODEL       89
REMARK 921   NORMALIZED FREE ENERGY PREDICTED BY IDOCK:   -3.46 KCAL/MOL
REMARK 922        TOTAL FREE ENERGY PREDICTED BY IDOCK:   -6.46 KCAL/MOL
REMARK 923 INTER-LIGAND FREE ENERGY PREDICTED BY IDOCK:   -5.62 KCAL/MOL
REMARK 924 INTRA-LIGAND FREE ENERGY PREDICTED BY IDOCK:   -0.84 KCAL/MOL
REMARK 927      BINDING AFFINITY PREDICTED BY RF-SCORE:    0.00 PKD
ROOT
HETATM    1  C   UNL     1     -12.168  13.203  64.446  1.00  0.00    -0.398 C  
HETATM    2  N   UNL     1     -11.290  13.155  65.703  1.00  0.00    -0.298 N  
HETATM    3  C   UNL     1     -10.161  14.165  65.547  1.00  0.00    -0.336 C  
HETATM    4  C   UNL     1     -10.718  11.752  65.831  1.00  0.00    -0.282 C  
ENDROOT
BRANCH   2   5
HETATM    5  C   UNL     1     -12.190  13.507  66.880  1.00  0.00    -0.327 C  
BRANCH   5   6
HETATM    6  C   UNL     1     -11.630  14.583  67.812  1.00  0.00    -0.390 C  
BRANCH   6   7
HETATM    7  C   UNL     1     -11.536  14.051  69.247  1.00  0.00    -0.356 C  
BRANCH   7   8
HETATM    8  C   UNL     1     -11.727  12.531  69.350  1.00  0.00    -0.383 C  
BRANCH   8   9
HETATM    9  C   UNL     1     -12.290  12.085  70.705  1.00  0.00    -0.394 C  
BRANCH   9  10
HETATM   10  C   UNL     1     -12.956  10.709  70.637  1.00  0.00    -0.343 C  
BRANCH  10  11
HETATM   11  C   UNL     1     -12.987  10.005  71.998  1.00  0.00    -0.514 C  
BRANCH  11  12
HETATM   12  C   UNL     1     -11.872   8.965  72.166  1.00  0.00    -0.417 C  
BRANCH  12  13
HETATM   13  C   UNL     1     -11.209   8.561  70.844  1.00  0.00    -0.304 C  
BRANCH  13  14
HETATM   14  C   UNL     1      -9.726   8.931  70.859  1.00  0.00    -0.239 C  
BRANCH  14  15
HETATM   15  N   UNL     1      -9.105   9.102  69.476  1.00  0.00    -0.149 N  
HETATM   16  C   UNL     1      -8.184  10.316  69.420  1.00  0.00    -0.165 C  
HETATM   17  C   UNL     1     -10.172   9.209  68.395  1.00  0.00    -0.200 C  
HETATM   18  C   UNL     1      -8.258   7.849  69.212  1.00  0.00    -0.128 C  
ENDBRANCH  14  15
ENDBRANCH  13  14
ENDBRANCH  12  13
ENDBRANCH  11  12
ENDBRANCH  10  11
ENDBRANCH   9  10
ENDBRANCH   8   9
ENDBRANCH   7   8
ENDBRANCH   6   7
ENDBRANCH   5   6
ENDBRANCH   2   5
TORSDOF 11
ENDMDL
MODEL       90
REMARK 921   NORMALIZED FREE ENERGY PREDICTED BY IDOCK:   -3.46 KCAL/MOL
REMARK 922        TOTAL FREE ENERGY PREDICTED BY IDOCK:   -6.45 KCAL/MOL
REMARK 923 INTER-LIGAND FREE ENERGY PREDICTED BY IDOCK:   -5.82 KCAL/MOL
REMARK 924 INTRA-LIGAND FREE ENERGY PREDICTED BY IDOCK:   -0.63 KCAL/MOL
REMARK 927      BINDING AFFINITY PREDICTED BY RF-SCORE:    0.00 PKD
ROOT
HETATM    1  C   UNL     1      -9.029   6.794  71.539  1.00  0.00    -0.137 C  
HETATM    2  N   UNL     1     -10.237   5.849  71.571  1.00  0.00    -0.199 N  
HETATM    3  C   UNL     1      -9.824   4.554  72.259  1.00  0.00    -0.170 C  
HETATM    4  C   UNL     1     -10.657   5.564  70.138  1.00  0.00    -0.297 C  
ENDROOT
BRANCH   2   5
HETATM    5  C   UNL     1     -11.333   6.565  72.349  1.00  0.00    -0.279 C  
BRANCH   5   6
HETATM    6  C   UNL     1     -12.299   7.379  71.485  1.00  0.00    -0.385 C  
BRANCH   6   7
HETATM    7  C   UNL     1     -12.540   8.759  72.109  1.00  0.00    -0.463 C  
BRANCH   7   8
HETATM    8  C   UNL     1     -12.164   9.924  71.182  1.00  0.00    -0.468 C  
BRANCH   8   9
HETATM    9  C   UNL     1     -11.056   9.567  70.185  1.00  0.00    -0.294 C  
BRANCH   9  10
HETATM   10  C   UNL     1     -10.804  10.681  69.166  1.00  0.00    -0.279 C  
BRANCH  10  11
HETATM   11  C   UNL     1     -12.021  11.595  68.984  1.00  0.00    -0.368 C  
BRANCH  11  12
HETATM   12  C   UNL     1     -11.659  13.085  68.958  1.00  0.00    -0.367 C  
BRANCH  12  13
HETATM   13  C   UNL     1     -10.557  13.428  67.948  1.00  0.00    -0.253 C  
BRANCH  13  14
HETATM   14  C   UNL     1     -10.917  14.702  67.183  1.00  0.00    -0.316 C  
BRANCH  14  15
HETATM   15  N   UNL     1     -11.246  14.481  65.710  1.00  0.00    -0.328 N  
HETATM   16  C   UNL     1     -12.686  14.019  65.519  1.00  0.00    -0.486 C  
HETATM   17  C   UNL     1     -10.291  13.482  65.070  1.00  0.00    -0.362 C  
HETATM   18  C   UNL     1     -11.083  15.838  65.010  1.00  0.00    -0.370 C  
ENDBRANCH  14  15
ENDBRANCH  13  14
ENDBRANCH  12  13
ENDBRANCH  11  12
ENDBRANCH  10  11
ENDBRANCH   9  10
ENDBRANCH   8   9
ENDBRANCH   7   8
ENDBRANCH   6   7
ENDBRANCH   5   6
ENDBRANCH   2   5
TORSDOF 11
ENDMDL
MODEL       91
REMARK 921   NORMALIZED FREE ENERGY PREDICTED BY IDOCK:   -3.46 KCAL/MOL
REMARK 922        TOTAL FREE ENERGY PREDICTED BY IDOCK:   -6.45 KCAL/MOL
REMARK 923 INTER-LIGAND FREE ENERGY PREDICTED BY IDOCK:   -5.75 KCAL/MOL
REMARK 924 INTRA-LIGAND FREE ENERGY PREDICTED BY IDOCK:   -0.70 KCAL/MOL
REMARK 927      BINDING AFFINITY PREDICTED BY RF-SCORE:    0.00 PKD
ROOT
HETATM    1  C   UNL     1      -8.163  15.546  69.246  1.00  0.00    -0.255 C  
HETATM    2  N   UNL     1      -8.451  16.628  68.197  1.00  0.00    -0.193 N  
HETATM    3  C   UNL     1      -7.975  16.129  66.839  1.00  0.00    -0.244 C  
HETATM    4  C   UNL     1      -7.686  17.883  68.586  1.00  0.00    -0.289 C  
ENDROOT
BRANCH   2   5
HETATM    5  C   UNL     1      -9.956  16.858  68.208  1.00  0.00    -0.282 C  
BRANCH   5   6
HETATM    6  C   UNL     1     -10.677  16.304  69.439  1.00  0.00    -0.318 C  
BRANCH   6   7
HETATM    7  C   UNL     1     -12.073  15.798  69.058  1.00  0.00    -0.190 C  
BRANCH   7   8
HETATM    8  C   UNL     1     -12.841  15.176  70.233  1.00  0.00    -0.284 C  
BRANCH   8   9
HETATM    9  C   UNL     1     -12.045  14.089  70.965  1.00  0.00    -0.383 C  
BRANCH   9  10
HETATM   10  C   UNL     1     -12.247  12.702  70.351  1.00  0.00    -0.368 C  
BRANCH  10  11
HETATM   11  C   UNL     1     -11.226  12.393  69.251  1.00  0.00    -0.264 C  
BRANCH  11  12
HETATM   12  C   UNL     1     -11.760  11.428  68.185  1.00  0.00    -0.355 C  
BRANCH  12  13
HETATM   13  C   UNL     1     -11.075  11.583  66.822  1.00  0.00    -0.361 C  
BRANCH  13  14
HETATM   14  C   UNL     1     -11.832  12.592  65.960  1.00  0.00    -0.436 C  
BRANCH  14  15
HETATM   15  N   UNL     1     -11.177  12.891  64.615  1.00  0.00    -0.306 N  
HETATM   16  C   UNL     1     -12.198  12.904  63.484  1.00  0.00    -0.512 C  
HETATM   17  C   UNL     1     -10.068  11.895  64.303  1.00  0.00    -0.295 C  
HETATM   18  C   UNL     1     -10.565  14.295  64.722  1.00  0.00    -0.412 C  
ENDBRANCH  14  15
ENDBRANCH  13  14
ENDBRANCH  12  13
ENDBRANCH  11  12
ENDBRANCH  10  11
ENDBRANCH   9  10
ENDBRANCH   8   9
ENDBRANCH   7   8
ENDBRANCH   6   7
ENDBRANCH   5   6
ENDBRANCH   2   5
TORSDOF 11
ENDMDL
MODEL       92
REMARK 921   NORMALIZED FREE ENERGY PREDICTED BY IDOCK:   -3.42 KCAL/MOL
REMARK 922        TOTAL FREE ENERGY PREDICTED BY IDOCK:   -6.39 KCAL/MOL
REMARK 923 INTER-LIGAND FREE ENERGY PREDICTED BY IDOCK:   -5.67 KCAL/MOL
REMARK 924 INTRA-LIGAND FREE ENERGY PREDICTED BY IDOCK:   -0.72 KCAL/MOL
REMARK 927      BINDING AFFINITY PREDICTED BY RF-SCORE:    0.00 PKD
ROOT
HETATM    1  C   UNL     1     -13.890  13.471  72.515  1.00  0.00    -0.519 C  
HETATM    2  N   UNL     1     -13.040  14.331  71.570  1.00  0.00    -0.326 N  
HETATM    3  C   UNL     1     -11.995  15.073  72.393  1.00  0.00    -0.348 C  
HETATM    4  C   UNL     1     -13.957  15.326  70.877  1.00  0.00    -0.167 C  
ENDROOT
BRANCH   2   5
HETATM    5  C   UNL     1     -12.389  13.377  70.577  1.00  0.00    -0.329 C  
BRANCH   5   6
HETATM    6  C   UNL     1     -12.307  11.924  71.050  1.00  0.00    -0.362 C  
BRANCH   6   7
HETATM    7  C   UNL     1     -12.085  10.986  69.857  1.00  0.00    -0.435 C  
BRANCH   7   8
HETATM    8  C   UNL     1     -11.204   9.773  70.187  1.00  0.00    -0.324 C  
BRANCH   8   9
HETATM    9  C   UNL     1      -9.749   9.944  69.736  1.00  0.00    -0.266 C  
BRANCH   9  10
HETATM   10  C   UNL     1      -9.397   9.051  68.543  1.00  0.00    -0.141 C  
BRANCH  10  11
HETATM   11  C   UNL     1     -10.172   9.432  67.277  1.00  0.00    -0.308 C  
BRANCH  11  12
HETATM   12  C   UNL     1      -9.298  10.110  66.215  1.00  0.00    -0.214 C  
BRANCH  12  13
HETATM   13  C   UNL     1      -9.494  11.629  66.142  1.00  0.00    -0.240 C  
BRANCH  13  14
HETATM   14  C   UNL     1     -10.211  12.009  64.847  1.00  0.00    -0.270 C  
BRANCH  14  15
HETATM   15  N   UNL     1     -11.456  12.870  65.045  1.00  0.00    -0.305 N  
HETATM   16  C   UNL     1     -11.841  12.971  66.516  1.00  0.00    -0.403 C  
HETATM   17  C   UNL     1     -12.632  12.342  64.235  1.00  0.00    -0.401 C  
HETATM   18  C   UNL     1     -11.104  14.279  64.546  1.00  0.00    -0.312 C  
ENDBRANCH  14  15
ENDBRANCH  13  14
ENDBRANCH  12  13
ENDBRANCH  11  12
ENDBRANCH  10  11
ENDBRANCH   9  10
ENDBRANCH   8   9
ENDBRANCH   7   8
ENDBRANCH   6   7
ENDBRANCH   5   6
ENDBRANCH   2   5
TORSDOF 11
ENDMDL
MODEL       93
REMARK 921   NORMALIZED FREE ENERGY PREDICTED BY IDOCK:   -3.41 KCAL/MOL
REMARK 922        TOTAL FREE ENERGY PREDICTED BY IDOCK:   -6.37 KCAL/MOL
REMARK 923 INTER-LIGAND FREE ENERGY PREDICTED BY IDOCK:   -5.75 KCAL/MOL
REMARK 924 INTRA-LIGAND FREE ENERGY PREDICTED BY IDOCK:   -0.62 KCAL/MOL
REMARK 927      BINDING AFFINITY PREDICTED BY RF-SCORE:    0.00 PKD
ROOT
HETATM    1  C   UNL     1     -10.186  19.617  68.306  1.00  0.00    -0.452 C  
HETATM    2  N   UNL     1      -9.836  18.888  67.002  1.00  0.00    -0.310 N  
HETATM    3  C   UNL     1      -8.322  18.879  66.840  1.00  0.00    -0.280 C  
HETATM    4  C   UNL     1     -10.478  19.642  65.848  1.00  0.00    -0.493 C  
ENDROOT
BRANCH   2   5
HETATM    5  C   UNL     1     -10.390  17.475  67.130  1.00  0.00    -0.330 C  
BRANCH   5   6
HETATM    6  C   UNL     1      -9.330  16.372  67.112  1.00  0.00    -0.228 C  
BRANCH   6   7
HETATM    7  C   UNL     1      -9.508  15.480  65.876  1.00  0.00    -0.377 C  
BRANCH   7   8
HETATM    8  C   UNL     1     -10.759  15.816  65.054  1.00  0.00    -0.443 C  
BRANCH   8   9
HETATM    9  C   UNL     1     -11.561  14.576  64.642  1.00  0.00    -0.413 C  
BRANCH   9  10
HETATM   10  C   UNL     1     -10.708  13.306  64.624  1.00  0.00    -0.415 C  
BRANCH  10  11
HETATM   11  C   UNL     1     -11.263  12.214  65.544  1.00  0.00    -0.381 C  
BRANCH  11  12
HETATM   12  C   UNL     1     -10.195  11.214  66.007  1.00  0.00    -0.300 C  
BRANCH  12  13
HETATM   13  C   UNL     1     -10.685  10.263  67.105  1.00  0.00    -0.303 C  
BRANCH  13  14
HETATM   14  C   UNL     1      -9.667  10.199  68.244  1.00  0.00    -0.141 C  
BRANCH  14  15
HETATM   15  N   UNL     1     -10.206   9.597  69.539  1.00  0.00    -0.204 N  
HETATM   16  C   UNL     1     -11.329  10.444  70.126  1.00  0.00    -0.323 C  
HETATM   17  C   UNL     1      -9.100   9.413  70.569  1.00  0.00    -0.256 C  
HETATM   18  C   UNL     1     -10.783   8.220  69.182  1.00  0.00    -0.101 C  
ENDBRANCH  14  15
ENDBRANCH  13  14
ENDBRANCH  12  13
ENDBRANCH  11  12
ENDBRANCH  10  11
ENDBRANCH   9  10
ENDBRANCH   8   9
ENDBRANCH   7   8
ENDBRANCH   6   7
ENDBRANCH   5   6
ENDBRANCH   2   5
TORSDOF 11
ENDMDL
MODEL       94
REMARK 921   NORMALIZED FREE ENERGY PREDICTED BY IDOCK:   -3.40 KCAL/MOL
REMARK 922        TOTAL FREE ENERGY PREDICTED BY IDOCK:   -6.36 KCAL/MOL
REMARK 923 INTER-LIGAND FREE ENERGY PREDICTED BY IDOCK:   -5.56 KCAL/MOL
REMARK 924 INTRA-LIGAND FREE ENERGY PREDICTED BY IDOCK:   -0.80 KCAL/MOL
REMARK 927      BINDING AFFINITY PREDICTED BY RF-SCORE:    0.00 PKD
ROOT
HETATM    1  C   UNL     1      -9.295  15.329  68.860  1.00  0.00    -0.213 C  
HETATM    2  N   UNL     1      -8.572  14.923  67.570  1.00  0.00    -0.173 N  
HETATM    3  C   UNL     1      -7.262  14.240  67.939  1.00  0.00    -0.158 C  
HETATM    4  C   UNL     1      -8.292  16.183  66.764  1.00  0.00    -0.264 C  
ENDROOT
BRANCH   2   5
HETATM    5  C   UNL     1      -9.503  13.974  66.827  1.00  0.00    -0.282 C  
BRANCH   5   6
HETATM    6  C   UNL     1     -10.878  14.558  66.497  1.00  0.00    -0.314 C  
BRANCH   6   7
HETATM    7  C   UNL     1     -11.146  14.474  64.989  1.00  0.00    -0.393 C  
BRANCH   7   8
HETATM    8  C   UNL     1     -12.289  13.517  64.623  1.00  0.00    -0.419 C  
BRANCH   8   9
HETATM    9  C   UNL     1     -11.916  12.533  63.508  1.00  0.00    -0.629 C  
BRANCH   9  10
HETATM   10  C   UNL     1     -10.429  12.172  63.518  1.00  0.00    -0.490 C  
BRANCH  10  11
HETATM   11  C   UNL     1     -10.178  10.734  63.983  1.00  0.00    -0.390 C  
BRANCH  11  12
HETATM   12  C   UNL     1      -9.928  10.622  65.492  1.00  0.00    -0.333 C  
BRANCH  12  13
HETATM   13  C   UNL     1      -9.653   9.188  65.961  1.00  0.00    -0.342 C  
BRANCH  13  14
HETATM   14  C   UNL     1     -10.151   8.994  67.393  1.00  0.00    -0.230 C  
BRANCH  14  15
HETATM   15  N   UNL     1     -10.048   7.561  67.908  1.00  0.00    -0.173 N  
HETATM   16  C   UNL     1      -8.616   7.042  67.843  1.00  0.00    -0.126 C  
HETATM   17  C   UNL     1     -10.975   6.626  67.142  1.00  0.00    -0.408 C  
HETATM   18  C   UNL     1     -10.480   7.587  69.381  1.00  0.00    -0.222 C  
ENDBRANCH  14  15
ENDBRANCH  13  14
ENDBRANCH  12  13
ENDBRANCH  11  12
ENDBRANCH  10  11
ENDBRANCH   9  10
ENDBRANCH   8   9
ENDBRANCH   7   8
ENDBRANCH   6   7
ENDBRANCH   5   6
ENDBRANCH   2   5
TORSDOF 11
ENDMDL
MODEL       95
REMARK 921   NORMALIZED FREE ENERGY PREDICTED BY IDOCK:   -3.38 KCAL/MOL
REMARK 922        TOTAL FREE ENERGY PREDICTED BY IDOCK:   -6.31 KCAL/MOL
REMARK 923 INTER-LIGAND FREE ENERGY PREDICTED BY IDOCK:   -5.69 KCAL/MOL
REMARK 924 INTRA-LIGAND FREE ENERGY PREDICTED BY IDOCK:   -0.62 KCAL/MOL
REMARK 927      BINDING AFFINITY PREDICTED BY RF-SCORE:    0.00 PKD
ROOT
HETATM    1  C   UNL     1      -8.099   5.152  67.207  1.00  0.00    -0.104 C  
HETATM    2  N   UNL     1      -9.096   5.668  66.162  1.00  0.00    -0.150 N  
HETATM    3  C   UNL     1     -10.502   5.275  66.593  1.00  0.00    -0.290 C  
HETATM    4  C   UNL     1      -8.762   5.022  64.826  1.00  0.00    -0.149 C  
ENDROOT
BRANCH   2   5
HETATM    5  C   UNL     1      -8.933   7.182  66.112  1.00  0.00    -0.140 C  
BRANCH   5   6
HETATM    6  C   UNL     1      -9.996   7.962  66.887  1.00  0.00    -0.332 C  
BRANCH   6   7
HETATM    7  C   UNL     1     -10.082   9.405  66.373  1.00  0.00    -0.332 C  
BRANCH   7   8
HETATM    8  C   UNL     1      -9.470   9.594  64.978  1.00  0.00    -0.312 C  
BRANCH   8   9
HETATM    9  C   UNL     1      -9.307  11.068  64.586  1.00  0.00    -0.235 C  
BRANCH   9  10
HETATM   10  C   UNL     1     -10.268  11.486  63.471  1.00  0.00    -0.462 C  
BRANCH  10  11
HETATM   11  C   UNL     1     -11.636  11.921  64.007  1.00  0.00    -0.476 C  
BRANCH  11  12
HETATM   12  C   UNL     1     -12.158  13.209  63.358  1.00  0.00    -0.558 C  
BRANCH  12  13
HETATM   13  C   UNL     1     -12.234  14.394  64.328  1.00  0.00    -0.450 C  
BRANCH  13  14
HETATM   14  C   UNL     1     -11.920  13.936  65.751  1.00  0.00    -0.400 C  
BRANCH  14  15
HETATM   15  N   UNL     1     -10.877  14.785  66.472  1.00  0.00    -0.313 N  
HETATM   16  C   UNL     1     -10.500  16.020  65.661  1.00  0.00    -0.397 C  
HETATM   17  C   UNL     1      -9.629  13.977  66.799  1.00  0.00    -0.286 C  
HETATM   18  C   UNL     1     -11.520  15.255  67.786  1.00  0.00    -0.303 C  
ENDBRANCH  14  15
ENDBRANCH  13  14
ENDBRANCH  12  13
ENDBRANCH  11  12
ENDBRANCH  10  11
ENDBRANCH   9  10
ENDBRANCH   8   9
ENDBRANCH   7   8
ENDBRANCH   6   7
ENDBRANCH   5   6
ENDBRANCH   2   5
TORSDOF 11
ENDMDL
MODEL       96
REMARK 921   NORMALIZED FREE ENERGY PREDICTED BY IDOCK:   -3.36 KCAL/MOL
REMARK 922        TOTAL FREE ENERGY PREDICTED BY IDOCK:   -6.30 KCAL/MOL
REMARK 923 INTER-LIGAND FREE ENERGY PREDICTED BY IDOCK:   -5.57 KCAL/MOL
REMARK 924 INTRA-LIGAND FREE ENERGY PREDICTED BY IDOCK:   -0.72 KCAL/MOL
REMARK 927      BINDING AFFINITY PREDICTED BY RF-SCORE:    0.00 PKD
ROOT
HETATM    1  C   UNL     1     -11.257   9.669  71.402  1.00  0.00    -0.356 C  
HETATM    2  N   UNL     1     -10.384   9.257  70.210  1.00  0.00    -0.211 N  
HETATM    3  C   UNL     1     -10.651   7.791  69.894  1.00  0.00    -0.239 C  
HETATM    4  C   UNL     1      -8.927   9.447  70.599  1.00  0.00    -0.228 C  
ENDROOT
BRANCH   2   5
HETATM    5  C   UNL     1     -10.780  10.156  69.046  1.00  0.00    -0.221 C  
BRANCH   5   6
HETATM    6  C   UNL     1     -10.261   9.697  67.682  1.00  0.00    -0.267 C  
BRANCH   6   7
HETATM    7  C   UNL     1      -9.722  10.893  66.886  1.00  0.00    -0.210 C  
BRANCH   7   8
HETATM    8  C   UNL     1     -10.368  11.049  65.502  1.00  0.00    -0.321 C  
BRANCH   8   9
HETATM    9  C   UNL     1     -10.967  12.441  65.270  1.00  0.00    -0.335 C  
BRANCH   9  10
HETATM   10  C   UNL     1     -10.274  13.523  66.102  1.00  0.00    -0.303 C  
BRANCH  10  11
HETATM   11  C   UNL     1     -11.211  14.684  66.451  1.00  0.00    -0.336 C  
BRANCH  11  12
HETATM   12  C   UNL     1     -10.936  15.287  67.834  1.00  0.00    -0.306 C  
BRANCH  12  13
HETATM   13  C   UNL     1     -11.641  14.544  68.975  1.00  0.00    -0.330 C  
BRANCH  13  14
HETATM   14  C   UNL     1     -12.004  15.518  70.096  1.00  0.00    -0.366 C  
BRANCH  14  15
HETATM   15  N   UNL     1     -12.605  14.858  71.334  1.00  0.00    -0.309 N  
HETATM   16  C   UNL     1     -11.912  15.323  72.610  1.00  0.00    -0.431 C  
HETATM   17  C   UNL     1     -12.551  13.339  71.238  1.00  0.00    -0.308 C  
HETATM   18  C   UNL     1     -14.074  15.298  71.402  1.00  0.00    -0.495 C  
ENDBRANCH  14  15
ENDBRANCH  13  14
ENDBRANCH  12  13
ENDBRANCH  11  12
ENDBRANCH  10  11
ENDBRANCH   9  10
ENDBRANCH   8   9
ENDBRANCH   7   8
ENDBRANCH   6   7
ENDBRANCH   5   6
ENDBRANCH   2   5
TORSDOF 11
ENDMDL
MODEL       97
REMARK 921   NORMALIZED FREE ENERGY PREDICTED BY IDOCK:   -3.36 KCAL/MOL
REMARK 922        TOTAL FREE ENERGY PREDICTED BY IDOCK:   -6.29 KCAL/MOL
REMARK 923 INTER-LIGAND FREE ENERGY PREDICTED BY IDOCK:   -5.51 KCAL/MOL
REMARK 924 INTRA-LIGAND FREE ENERGY PREDICTED BY IDOCK:   -0.79 KCAL/MOL
REMARK 927      BINDING AFFINITY PREDICTED BY RF-SCORE:    0.00 PKD
ROOT
HETATM    1  C   UNL     1     -10.953  11.515  65.601  1.00  0.00    -0.236 C  
HETATM    2  N   UNL     1     -11.081  12.244  64.257  1.00  0.00    -0.323 N  
HETATM    3  C   UNL     1     -12.488  12.026  63.716  1.00  0.00    -0.485 C  
HETATM    4  C   UNL     1     -10.058  11.655  63.297  1.00  0.00    -0.423 C  
ENDROOT
BRANCH   2   5
HETATM    5  C   UNL     1     -10.814  13.718  64.532  1.00  0.00    -0.387 C  
BRANCH   5   6
HETATM    6  C   UNL     1     -10.387  14.032  65.967  1.00  0.00    -0.312 C  
BRANCH   6   7
HETATM    7  C   UNL     1     -11.373  15.011  66.616  1.00  0.00    -0.289 C  
BRANCH   7   8
HETATM    8  C   UNL     1     -10.743  16.361  66.984  1.00  0.00    -0.217 C  
BRANCH   8   9
HETATM    9  C   UNL     1     -10.332  17.188  65.760  1.00  0.00    -0.253 C  
BRANCH   9  10
HETATM   10  C   UNL     1     -10.819  18.637  65.842  1.00  0.00    -0.125 C  
BRANCH  10  11
HETATM   11  C   UNL     1     -10.984  19.119  67.287  1.00  0.00    -0.417 C  
BRANCH  11  12
HETATM   12  C   UNL     1      -9.781  19.923  67.797  1.00  0.00    -0.516 C  
BRANCH  12  13
HETATM   13  C   UNL     1      -8.888  19.138  68.766  1.00  0.00    -0.372 C  
BRANCH  13  14
HETATM   14  C   UNL     1      -7.415  19.349  68.417  1.00  0.00    -0.320 C  
BRANCH  14  15
HETATM   15  N   UNL     1      -6.723  18.121  67.833  1.00  0.00    -0.200 N  
HETATM   16  C   UNL     1      -5.234  18.108  68.158  1.00  0.00    -0.164 C  
HETATM   17  C   UNL     1      -6.928  18.030  66.326  1.00  0.00    -0.264 C  
HETATM   18  C   UNL     1      -7.367  16.893  68.493  1.00  0.00    -0.206 C  
ENDBRANCH  14  15
ENDBRANCH  13  14
ENDBRANCH  12  13
ENDBRANCH  11  12
ENDBRANCH  10  11
ENDBRANCH   9  10
ENDBRANCH   8   9
ENDBRANCH   7   8
ENDBRANCH   6   7
ENDBRANCH   5   6
ENDBRANCH   2   5
TORSDOF 11
ENDMDL
MODEL       98
REMARK 921   NORMALIZED FREE ENERGY PREDICTED BY IDOCK:   -3.36 KCAL/MOL
REMARK 922        TOTAL FREE ENERGY PREDICTED BY IDOCK:   -6.29 KCAL/MOL
REMARK 923 INTER-LIGAND FREE ENERGY PREDICTED BY IDOCK:   -5.83 KCAL/MOL
REMARK 924 INTRA-LIGAND FREE ENERGY PREDICTED BY IDOCK:   -0.46 KCAL/MOL
REMARK 927      BINDING AFFINITY PREDICTED BY RF-SCORE:    0.00 PKD
ROOT
HETATM    1  C   UNL     1     -10.321  17.177  68.038  1.00  0.00    -0.353 C  
HETATM    2  N   UNL     1     -10.653  15.680  68.090  1.00  0.00    -0.266 N  
HETATM    3  C   UNL     1     -11.736  15.457  69.136  1.00  0.00    -0.345 C  
HETATM    4  C   UNL     1      -9.391  14.926  68.479  1.00  0.00    -0.196 C  
ENDROOT
BRANCH   2   5
HETATM    5  C   UNL     1     -11.136  15.291  66.699  1.00  0.00    -0.276 C  
BRANCH   5   6
HETATM    6  C   UNL     1     -11.935  13.988  66.643  1.00  0.00    -0.473 C  
BRANCH   6   7
HETATM    7  C   UNL     1     -11.051  12.840  66.141  1.00  0.00    -0.322 C  
BRANCH   7   8
HETATM    8  C   UNL     1     -11.144  11.573  67.002  1.00  0.00    -0.365 C  
BRANCH   8   9
HETATM    9  C   UNL     1     -11.269  11.870  68.501  1.00  0.00    -0.308 C  
BRANCH   9  10
HETATM   10  C   UNL     1     -11.950  10.734  69.268  1.00  0.00    -0.334 C  
BRANCH  10  11
HETATM   11  C   UNL     1     -12.139  11.061  70.753  1.00  0.00    -0.467 C  
BRANCH  11  12
HETATM   12  C   UNL     1     -12.336   9.814  71.625  1.00  0.00    -0.495 C  
BRANCH  12  13
HETATM   13  C   UNL     1     -11.068   8.965  71.774  1.00  0.00    -0.433 C  
BRANCH  13  14
HETATM   14  C   UNL     1     -11.271   7.893  72.844  1.00  0.00    -0.366 C  
BRANCH  14  15
HETATM   15  N   UNL     1     -10.176   6.830  72.887  1.00  0.00    -0.190 N  
HETATM   16  C   UNL     1     -10.753   5.440  73.129  1.00  0.00    -0.266 C  
HETATM   17  C   UNL     1      -9.131   7.152  73.948  1.00  0.00    -0.214 C  
HETATM   18  C   UNL     1      -9.499   6.834  71.509  1.00  0.00    -0.156 C  
ENDBRANCH  14  15
ENDBRANCH  13  14
ENDBRANCH  12  13
ENDBRANCH  11  12
ENDBRANCH  10  11
ENDBRANCH   9  10
ENDBRANCH   8   9
ENDBRANCH   7   8
ENDBRANCH   6   7
ENDBRANCH   5   6
ENDBRANCH   2   5
TORSDOF 11
ENDMDL
MODEL       99
REMARK 921   NORMALIZED FREE ENERGY PREDICTED BY IDOCK:   -3.36 KCAL/MOL
REMARK 922        TOTAL FREE ENERGY PREDICTED BY IDOCK:   -6.29 KCAL/MOL
REMARK 923 INTER-LIGAND FREE ENERGY PREDICTED BY IDOCK:   -5.61 KCAL/MOL
REMARK 924 INTRA-LIGAND FREE ENERGY PREDICTED BY IDOCK:   -0.67 KCAL/MOL
REMARK 927      BINDING AFFINITY PREDICTED BY RF-SCORE:    0.00 PKD
ROOT
HETATM    1  C   UNL     1      -8.860   7.271  71.947  1.00  0.00    -0.122 C  
HETATM    2  N   UNL     1     -10.384   7.174  72.084  1.00  0.00    -0.194 N  
HETATM    3  C   UNL     1     -11.006   8.445  71.520  1.00  0.00    -0.262 C  
HETATM    4  C   UNL     1     -10.723   7.042  73.561  1.00  0.00    -0.332 C  
ENDROOT
BRANCH   2   5
HETATM    5  C   UNL     1     -10.818   5.946  71.294  1.00  0.00    -0.270 C  
BRANCH   5   6
HETATM    6  C   UNL     1     -11.092   6.207  69.812  1.00  0.00    -0.486 C  
BRANCH   6   7
HETATM    7  C   UNL     1     -10.120   5.403  68.939  1.00  0.00    -0.265 C  
BRANCH   7   8
HETATM    8  C   UNL     1     -10.205   5.751  67.447  1.00  0.00    -0.243 C  
BRANCH   8   9
HETATM    9  C   UNL     1     -11.017   7.022  67.169  1.00  0.00    -0.393 C  
BRANCH   9  10
HETATM   10  C   UNL     1     -10.133   8.207  66.774  1.00  0.00    -0.365 C  
BRANCH  10  11
HETATM   11  C   UNL     1     -10.110   9.305  67.842  1.00  0.00    -0.246 C  
BRANCH  11  12
HETATM   12  C   UNL     1     -11.050  10.475  67.526  1.00  0.00    -0.358 C  
BRANCH  12  13
HETATM   13  C   UNL     1     -10.647  11.260  66.272  1.00  0.00    -0.315 C  
BRANCH  13  14
HETATM   14  C   UNL     1     -11.780  12.193  65.845  1.00  0.00    -0.328 C  
BRANCH  14  15
HETATM   15  N   UNL     1     -11.465  13.679  65.999  1.00  0.00    -0.317 N  
HETATM   16  C   UNL     1      -9.997  13.974  65.718  1.00  0.00    -0.298 C  
HETATM   17  C   UNL     1     -11.842  14.186  67.385  1.00  0.00    -0.413 C  
HETATM   18  C   UNL     1     -12.310  14.422  64.954  1.00  0.00    -0.405 C  
ENDBRANCH  14  15
ENDBRANCH  13  14
ENDBRANCH  12  13
ENDBRANCH  11  12
ENDBRANCH  10  11
ENDBRANCH   9  10
ENDBRANCH   8   9
ENDBRANCH   7   8
ENDBRANCH   6   7
ENDBRANCH   5   6
ENDBRANCH   2   5
TORSDOF 11
ENDMDL
MODEL      100
REMARK 921   NORMALIZED FREE ENERGY PREDICTED BY IDOCK:   -3.35 KCAL/MOL
REMARK 922        TOTAL FREE ENERGY PREDICTED BY IDOCK:   -6.27 KCAL/MOL
REMARK 923 INTER-LIGAND FREE ENERGY PREDICTED BY IDOCK:   -5.53 KCAL/MOL
REMARK 924 INTRA-LIGAND FREE ENERGY PREDICTED BY IDOCK:   -0.74 KCAL/MOL
REMARK 927      BINDING AFFINITY PREDICTED BY RF-SCORE:    0.00 PKD
ROOT
HETATM    1  C   UNL     1      -8.807   9.941  67.464  1.00  0.00    -0.128 C  
HETATM    2  N   UNL     1      -9.319   9.046  66.329  1.00  0.00    -0.205 N  
HETATM    3  C   UNL     1     -10.418   8.144  66.877  1.00  0.00    -0.309 C  
HETATM    4  C   UNL     1      -8.158   8.202  65.826  1.00  0.00    -0.115 C  
ENDROOT
BRANCH   2   5
HETATM    5  C   UNL     1      -9.852   9.974  65.246  1.00  0.00    -0.318 C  
BRANCH   5   6
HETATM    6  C   UNL     1     -10.007  11.434  65.677  1.00  0.00    -0.282 C  
BRANCH   6   7
HETATM    7  C   UNL     1     -11.160  12.097  64.914  1.00  0.00    -0.367 C  
BRANCH   7   8
HETATM    8  C   UNL     1     -12.160  12.823  65.825  1.00  0.00    -0.505 C  
BRANCH   8   9
HETATM    9  C   UNL     1     -11.903  12.580  67.317  1.00  0.00    -0.381 C  
BRANCH   9  10
HETATM   10  C   UNL     1     -11.752  13.884  68.104  1.00  0.00    -0.388 C  
BRANCH  10  11
HETATM   11  C   UNL     1     -10.322  14.099  68.613  1.00  0.00    -0.243 C  
BRANCH  11  12
HETATM   12  C   UNL     1      -9.605  15.266  67.924  1.00  0.00    -0.199 C  
BRANCH  12  13
HETATM   13  C   UNL     1      -9.884  16.625  68.577  1.00  0.00    -0.252 C  
BRANCH  13  14
HETATM   14  C   UNL     1     -10.476  17.594  67.553  1.00  0.00    -0.365 C  
BRANCH  14  15
HETATM   15  N   UNL     1      -9.737  18.925  67.443  1.00  0.00    -0.305 N  
HETATM   16  C   UNL     1     -10.491  19.913  66.561  1.00  0.00    -0.471 C  
HETATM   17  C   UNL     1      -8.321  18.733  66.917  1.00  0.00    -0.270 C  
HETATM   18  C   UNL     1      -9.663  19.510  68.861  1.00  0.00    -0.426 C  
ENDBRANCH  14  15
ENDBRANCH  13  14
ENDBRANCH  12  13
ENDBRANCH  11  12
ENDBRANCH  10  11
ENDBRANCH   9  10
ENDBRANCH   8   9
ENDBRANCH   7   8
ENDBRANCH   6   7
ENDBRANCH   5   6
ENDBRANCH   2   5
TORSDOF 11
ENDMDL
MODEL      101
REMARK 921   NORMALIZED FREE ENERGY PREDICTED BY IDOCK:   -3.33 KCAL/MOL
REMARK 922        TOTAL FREE ENERGY PREDICTED BY IDOCK:   -6.24 KCAL/MOL
REMARK 923 INTER-LIGAND FREE ENERGY PREDICTED BY IDOCK:   -5.42 KCAL/MOL
REMARK 924 INTRA-LIGAND FREE ENERGY PREDICTED BY IDOCK:   -0.83 KCAL/MOL
REMARK 927      BINDING AFFINITY PREDICTED BY RF-SCORE:    0.00 PKD
ROOT
HETATM    1  C   UNL     1     -10.880   6.692  67.308  1.00  0.00    -0.385 C  
HETATM    2  N   UNL     1     -10.415   7.073  68.719  1.00  0.00    -0.200 N  
HETATM    3  C   UNL     1      -9.014   6.517  68.937  1.00  0.00    -0.128 C  
HETATM    4  C   UNL     1     -11.380   6.457  69.720  1.00  0.00    -0.427 C  
ENDROOT
BRANCH   2   5
HETATM    5  C   UNL     1     -10.425   8.594  68.787  1.00  0.00    -0.185 C  
BRANCH   5   6
HETATM    6  C   UNL     1     -10.552   9.292  67.431  1.00  0.00    -0.324 C  
BRANCH   6   7
HETATM    7  C   UNL     1     -10.984  10.752  67.620  1.00  0.00    -0.365 C  
BRANCH   7   8
HETATM    8  C   UNL     1     -10.111  11.753  66.850  1.00  0.00    -0.231 C  
BRANCH   8   9
HETATM    9  C   UNL     1     -10.638  12.053  65.442  1.00  0.00    -0.319 C  
BRANCH   9  10
HETATM   10  C   UNL     1     -12.085  12.551  65.452  1.00  0.00    -0.494 C  
BRANCH  10  11
HETATM   11  C   UNL     1     -12.180  14.080  65.398  1.00  0.00    -0.453 C  
BRANCH  11  12
HETATM   12  C   UNL     1     -10.890  14.748  64.906  1.00  0.00    -0.433 C  
BRANCH  12  13
HETATM   13  C   UNL     1     -10.343  15.806  65.873  1.00  0.00    -0.372 C  
BRANCH  13  14
HETATM   14  C   UNL     1      -9.030  15.329  66.492  1.00  0.00    -0.305 C  
BRANCH  14  15
HETATM   15  N   UNL     1      -8.998  15.377  68.017  1.00  0.00    -0.170 N  
HETATM   16  C   UNL     1     -10.340  14.978  68.620  1.00  0.00    -0.236 C  
HETATM   17  C   UNL     1      -8.589  16.754  68.522  1.00  0.00    -0.245 C  
HETATM   18  C   UNL     1      -7.948  14.353  68.471  1.00  0.00    -0.144 C  
ENDBRANCH  14  15
ENDBRANCH  13  14
ENDBRANCH  12  13
ENDBRANCH  11  12
ENDBRANCH  10  11
ENDBRANCH   9  10
ENDBRANCH   8   9
ENDBRANCH   7   8
ENDBRANCH   6   7
ENDBRANCH   5   6
ENDBRANCH   2   5
TORSDOF 11
ENDMDL
MODEL      102
REMARK 921   NORMALIZED FREE ENERGY PREDICTED BY IDOCK:   -3.33 KCAL/MOL
REMARK 922        TOTAL FREE ENERGY PREDICTED BY IDOCK:   -6.24 KCAL/MOL
REMARK 923 INTER-LIGAND FREE ENERGY PREDICTED BY IDOCK:   -5.42 KCAL/MOL
REMARK 924 INTRA-LIGAND FREE ENERGY PREDICTED BY IDOCK:   -0.82 KCAL/MOL
REMARK 927      BINDING AFFINITY PREDICTED BY RF-SCORE:    0.00 PKD
ROOT
HETATM    1  C   UNL     1      -5.796  10.608  62.533  1.00  0.00    -0.148 C  
HETATM    2  N   UNL     1      -6.418   9.792  63.673  1.00  0.00    -0.112 N  
HETATM    3  C   UNL     1      -5.943  10.368  65.001  1.00  0.00    -0.128 C  
HETATM    4  C   UNL     1      -5.954   8.351  63.537  1.00  0.00    -0.072 C  
ENDROOT
BRANCH   2   5
HETATM    5  C   UNL     1      -7.929   9.915  63.525  1.00  0.00    -0.155 C  
BRANCH   5   6
HETATM    6  C   UNL     1      -8.652  10.434  64.770  1.00  0.00    -0.190 C  
BRANCH   6   7
HETATM    7  C   UNL     1     -10.148  10.609  64.484  1.00  0.00    -0.421 C  
BRANCH   7   8
HETATM    8  C   UNL     1     -10.454  11.732  63.483  1.00  0.00    -0.500 C  
BRANCH   8   9
HETATM    9  C   UNL     1     -11.859  12.322  63.650  1.00  0.00    -0.610 C  
BRANCH   9  10
HETATM   10  C   UNL     1     -11.833  13.747  64.208  1.00  0.00    -0.451 C  
BRANCH  10  11
HETATM   11  C   UNL     1     -12.531  13.857  65.568  1.00  0.00    -0.541 C  
BRANCH  11  12
HETATM   12  C   UNL     1     -11.954  12.905  66.622  1.00  0.00    -0.436 C  
BRANCH  12  13
HETATM   13  C   UNL     1     -11.016  13.596  67.620  1.00  0.00    -0.283 C  
BRANCH  13  14
HETATM   14  C   UNL     1     -11.345  15.085  67.713  1.00  0.00    -0.330 C  
BRANCH  14  15
HETATM   15  N   UNL     1     -10.148  16.010  67.509  1.00  0.00    -0.242 N  
HETATM   16  C   UNL     1      -9.516  16.410  68.837  1.00  0.00    -0.254 C  
HETATM   17  C   UNL     1     -10.534  17.255  66.721  1.00  0.00    -0.261 C  
HETATM   18  C   UNL     1      -9.108  15.218  66.704  1.00  0.00    -0.282 C  
ENDBRANCH  14  15
ENDBRANCH  13  14
ENDBRANCH  12  13
ENDBRANCH  11  12
ENDBRANCH  10  11
ENDBRANCH   9  10
ENDBRANCH   8   9
ENDBRANCH   7   8
ENDBRANCH   6   7
ENDBRANCH   5   6
ENDBRANCH   2   5
TORSDOF 11
ENDMDL
MODEL      103
REMARK 921   NORMALIZED FREE ENERGY PREDICTED BY IDOCK:   -3.33 KCAL/MOL
REMARK 922        TOTAL FREE ENERGY PREDICTED BY IDOCK:   -6.23 KCAL/MOL
REMARK 923 INTER-LIGAND FREE ENERGY PREDICTED BY IDOCK:   -5.62 KCAL/MOL
REMARK 924 INTRA-LIGAND FREE ENERGY PREDICTED BY IDOCK:   -0.62 KCAL/MOL
REMARK 927      BINDING AFFINITY PREDICTED BY RF-SCORE:    0.00 PKD
ROOT
HETATM    1  C   UNL     1     -11.923   8.289  71.258  1.00  0.00    -0.287 C  
HETATM    2  N   UNL     1     -10.542   7.784  71.693  1.00  0.00    -0.212 N  
HETATM    3  C   UNL     1     -10.639   7.267  73.122  1.00  0.00    -0.355 C  
HETATM    4  C   UNL     1      -9.567   8.949  71.628  1.00  0.00    -0.293 C  
ENDROOT
BRANCH   2   5
HETATM    5  C   UNL     1     -10.158   6.672  70.725  1.00  0.00    -0.184 C  
BRANCH   5   6
HETATM    6  C   UNL     1     -11.226   6.338  69.682  1.00  0.00    -0.506 C  
BRANCH   6   7
HETATM    7  C   UNL     1     -10.578   6.095  68.313  1.00  0.00    -0.324 C  
BRANCH   7   8
HETATM    8  C   UNL     1      -9.694   7.257  67.839  1.00  0.00    -0.161 C  
BRANCH   8   9
HETATM    9  C   UNL     1     -10.400   8.183  66.842  1.00  0.00    -0.401 C  
BRANCH   9  10
HETATM   10  C   UNL     1     -10.639   9.583  67.412  1.00  0.00    -0.337 C  
BRANCH  10  11
HETATM   11  C   UNL     1     -10.264  10.691  66.423  1.00  0.00    -0.291 C  
BRANCH  11  12
HETATM   12  C   UNL     1     -11.351  11.763  66.274  1.00  0.00    -0.350 C  
BRANCH  12  13
HETATM   13  C   UNL     1     -10.804  13.195  66.296  1.00  0.00    -0.292 C  
BRANCH  13  14
HETATM   14  C   UNL     1     -11.756  14.114  67.061  1.00  0.00    -0.405 C  
BRANCH  14  15
HETATM   15  N   UNL     1     -11.310  14.441  68.484  1.00  0.00    -0.267 N  
HETATM   16  C   UNL     1     -11.935  13.491  69.499  1.00  0.00    -0.334 C  
HETATM   17  C   UNL     1     -11.634  15.883  68.851  1.00  0.00    -0.388 C  
HETATM   18  C   UNL     1      -9.787  14.250  68.526  1.00  0.00    -0.231 C  
ENDBRANCH  14  15
ENDBRANCH  13  14
ENDBRANCH  12  13
ENDBRANCH  11  12
ENDBRANCH  10  11
ENDBRANCH   9  10
ENDBRANCH   8   9
ENDBRANCH   7   8
ENDBRANCH   6   7
ENDBRANCH   5   6
ENDBRANCH   2   5
TORSDOF 11
ENDMDL
MODEL      104
REMARK 921   NORMALIZED FREE ENERGY PREDICTED BY IDOCK:   -3.33 KCAL/MOL
REMARK 922        TOTAL FREE ENERGY PREDICTED BY IDOCK:   -6.23 KCAL/MOL
REMARK 923 INTER-LIGAND FREE ENERGY PREDICTED BY IDOCK:   -5.24 KCAL/MOL
REMARK 924 INTRA-LIGAND FREE ENERGY PREDICTED BY IDOCK:   -1.00 KCAL/MOL
REMARK 927      BINDING AFFINITY PREDICTED BY RF-SCORE:    0.00 PKD
ROOT
HETATM    1  C   UNL     1     -13.485  13.054  72.285  1.00  0.00    -0.547 C  
HETATM    2  N   UNL     1     -13.023  14.375  71.656  1.00  0.00    -0.324 N  
HETATM    3  C   UNL     1     -12.079  15.074  72.627  1.00  0.00    -0.333 C  
HETATM    4  C   UNL     1     -14.249  15.240  71.411  1.00  0.00    -0.485 C  
ENDROOT
BRANCH   2   5
HETATM    5  C   UNL     1     -12.316  14.017  70.356  1.00  0.00    -0.359 C  
BRANCH   5   6
HETATM    6  C   UNL     1     -11.975  12.533  70.204  1.00  0.00    -0.377 C  
BRANCH   6   7
HETATM    7  C   UNL     1     -12.161  12.089  68.747  1.00  0.00    -0.166 C  
BRANCH   7   8
HETATM    8  C   UNL     1     -11.162  11.012  68.303  1.00  0.00    -0.340 C  
BRANCH   8   9
HETATM    9  C   UNL     1      -9.738  11.262  68.815  1.00  0.00    -0.184 C  
BRANCH   9  10
HETATM   10  C   UNL     1      -8.831  11.875  67.745  1.00  0.00    -0.166 C  
BRANCH  10  11
HETATM   11  C   UNL     1      -9.075  13.376  67.557  1.00  0.00    -0.215 C  
BRANCH  11  12
HETATM   12  C   UNL     1      -8.188  14.249  68.453  1.00  0.00    -0.144 C  
BRANCH  12  13
HETATM   13  C   UNL     1      -8.944  15.403  69.122  1.00  0.00    -0.245 C  
BRANCH  13  14
HETATM   14  C   UNL     1      -8.654  16.717  68.397  1.00  0.00    -0.235 C  
BRANCH  14  15
HETATM   15  N   UNL     1      -9.820  17.253  67.571  1.00  0.00    -0.268 N  
HETATM   16  C   UNL     1      -9.844  18.777  67.556  1.00  0.00    -0.320 C  
HETATM   17  C   UNL     1     -11.153  16.716  68.076  1.00  0.00    -0.255 C  
HETATM   18  C   UNL     1      -9.605  16.765  66.131  1.00  0.00    -0.274 C  
ENDBRANCH  14  15
ENDBRANCH  13  14
ENDBRANCH  12  13
ENDBRANCH  11  12
ENDBRANCH  10  11
ENDBRANCH   9  10
ENDBRANCH   8   9
ENDBRANCH   7   8
ENDBRANCH   6   7
ENDBRANCH   5   6
ENDBRANCH   2   5
TORSDOF 11
ENDMDL
MODEL      105
REMARK 921   NORMALIZED FREE ENERGY PREDICTED BY IDOCK:   -3.32 KCAL/MOL
REMARK 922        TOTAL FREE ENERGY PREDICTED BY IDOCK:   -6.23 KCAL/MOL
REMARK 923 INTER-LIGAND FREE ENERGY PREDICTED BY IDOCK:   -5.67 KCAL/MOL
REMARK 924 INTRA-LIGAND FREE ENERGY PREDICTED BY IDOCK:   -0.56 KCAL/MOL
REMARK 927      BINDING AFFINITY PREDICTED BY RF-SCORE:    0.00 PKD
ROOT
HETATM    1  C   UNL     1      -9.587  19.937  68.070  1.00  0.00    -0.370 C  
HETATM    2  N   UNL     1      -9.851  18.896  66.975  1.00  0.00    -0.310 N  
HETATM    3  C   UNL     1      -8.514  18.384  66.456  1.00  0.00    -0.270 C  
HETATM    4  C   UNL     1     -10.619  19.573  65.850  1.00  0.00    -0.476 C  
ENDROOT
BRANCH   2   5
HETATM    5  C   UNL     1     -10.661  17.779  67.619  1.00  0.00    -0.322 C  
BRANCH   5   6
HETATM    6  C   UNL     1     -10.099  16.374  67.397  1.00  0.00    -0.262 C  
BRANCH   6   7
HETATM    7  C   UNL     1     -11.030  15.564  66.486  1.00  0.00    -0.243 C  
BRANCH   7   8
HETATM    8  C   UNL     1     -11.670  14.356  67.183  1.00  0.00    -0.424 C  
BRANCH   8   9
HETATM    9  C   UNL     1     -12.146  13.277  66.204  1.00  0.00    -0.477 C  
BRANCH   9  10
HETATM   10  C   UNL     1     -12.075  13.736  64.746  1.00  0.00    -0.438 C  
BRANCH  10  11
HETATM   11  C   UNL     1     -11.637  12.615  63.798  1.00  0.00    -0.550 C  
BRANCH  11  12
HETATM   12  C   UNL     1     -10.230  12.083  64.101  1.00  0.00    -0.367 C  
BRANCH  12  13
HETATM   13  C   UNL     1     -10.230  10.727  64.816  1.00  0.00    -0.403 C  
BRANCH  13  14
HETATM   14  C   UNL     1      -9.073   9.864  64.316  1.00  0.00    -0.253 C  
BRANCH  14  15
HETATM   15  N   UNL     1      -8.471   8.942  65.373  1.00  0.00    -0.151 N  
HETATM   16  C   UNL     1      -7.557   7.894  64.748  1.00  0.00    -0.110 C  
HETATM   17  C   UNL     1      -9.553   8.261  66.199  1.00  0.00    -0.147 C  
HETATM   18  C   UNL     1      -7.622   9.824  66.300  1.00  0.00    -0.100 C  
ENDBRANCH  14  15
ENDBRANCH  13  14
ENDBRANCH  12  13
ENDBRANCH  11  12
ENDBRANCH  10  11
ENDBRANCH   9  10
ENDBRANCH   8   9
ENDBRANCH   7   8
ENDBRANCH   6   7
ENDBRANCH   5   6
ENDBRANCH   2   5
TORSDOF 11
ENDMDL
MODEL      106
REMARK 921   NORMALIZED FREE ENERGY PREDICTED BY IDOCK:   -3.32 KCAL/MOL
REMARK 922        TOTAL FREE ENERGY PREDICTED BY IDOCK:   -6.22 KCAL/MOL
REMARK 923 INTER-LIGAND FREE ENERGY PREDICTED BY IDOCK:   -5.38 KCAL/MOL
REMARK 924 INTRA-LIGAND FREE ENERGY PREDICTED BY IDOCK:   -0.85 KCAL/MOL
REMARK 927      BINDING AFFINITY PREDICTED BY RF-SCORE:    0.00 PKD
ROOT
HETATM    1  C   UNL     1     -12.527  10.441  69.877  1.00  0.00    -0.056 C  
HETATM    2  N   UNL     1     -12.702   9.910  71.306  1.00  0.00    -0.355 N  
HETATM    3  C   UNL     1     -11.393   9.275  71.754  1.00  0.00    -0.367 C  
HETATM    4  C   UNL     1     -13.809   8.867  71.294  1.00  0.00    -0.171 C  
ENDROOT
BRANCH   2   5
HETATM    5  C   UNL     1     -13.065  11.107  72.176  1.00  0.00    -0.183 C  
BRANCH   5   6
HETATM    6  C   UNL     1     -12.983  12.459  71.465  1.00  0.00    -0.385 C  
BRANCH   6   7
HETATM    7  C   UNL     1     -13.570  13.565  72.352  1.00  0.00    -0.709 C  
BRANCH   7   8
HETATM    8  C   UNL     1     -13.422  14.971  71.755  1.00  0.00    -0.504 C  
BRANCH   8   9
HETATM    9  C   UNL     1     -11.982  15.308  71.353  1.00  0.00    -0.428 C  
BRANCH   9  10
HETATM   10  C   UNL     1     -11.838  15.567  69.852  1.00  0.00    -0.380 C  
BRANCH  10  11
HETATM   11  C   UNL     1     -11.085  14.443  69.132  1.00  0.00    -0.290 C  
BRANCH  11  12
HETATM   12  C   UNL     1     -11.924  13.747  68.053  1.00  0.00    -0.390 C  
BRANCH  12  13
HETATM   13  C   UNL     1     -11.140  12.704  67.248  1.00  0.00    -0.320 C  
BRANCH  13  14
HETATM   14  C   UNL     1      -9.657  13.071  67.208  1.00  0.00    -0.225 C  
BRANCH  14  15
HETATM   15  N   UNL     1      -8.710  11.904  67.476  1.00  0.00    -0.156 N  
HETATM   16  C   UNL     1      -7.383  12.379  68.055  1.00  0.00    -0.108 C  
HETATM   17  C   UNL     1      -8.465  11.086  66.214  1.00  0.00    -0.165 C  
HETATM   18  C   UNL     1      -9.394  11.009  68.519  1.00  0.00    -0.188 C  
ENDBRANCH  14  15
ENDBRANCH  13  14
ENDBRANCH  12  13
ENDBRANCH  11  12
ENDBRANCH  10  11
ENDBRANCH   9  10
ENDBRANCH   8   9
ENDBRANCH   7   8
ENDBRANCH   6   7
ENDBRANCH   5   6
ENDBRANCH   2   5
TORSDOF 11
ENDMDL
MODEL      107
REMARK 921   NORMALIZED FREE ENERGY PREDICTED BY IDOCK:   -3.31 KCAL/MOL
REMARK 922        TOTAL FREE ENERGY PREDICTED BY IDOCK:   -6.21 KCAL/MOL
REMARK 923 INTER-LIGAND FREE ENERGY PREDICTED BY IDOCK:   -5.34 KCAL/MOL
REMARK 924 INTRA-LIGAND FREE ENERGY PREDICTED BY IDOCK:   -0.87 KCAL/MOL
REMARK 927      BINDING AFFINITY PREDICTED BY RF-SCORE:    0.00 PKD
ROOT
HETATM    1  C   UNL     1      -8.843   6.155  68.754  1.00  0.00    -0.121 C  
HETATM    2  N   UNL     1      -9.082   4.922  69.635  1.00  0.00    -0.102 N  
HETATM    3  C   UNL     1      -7.830   4.664  70.463  1.00  0.00    -0.054 C  
HETATM    4  C   UNL     1      -9.357   3.733  68.726  1.00  0.00    -0.164 C  
ENDROOT
BRANCH   2   5
HETATM    5  C   UNL     1     -10.278   5.242  70.522  1.00  0.00    -0.264 C  
BRANCH   5   6
HETATM    6  C   UNL     1     -11.253   6.264  69.932  1.00  0.00    -0.498 C  
BRANCH   6   7
HETATM    7  C   UNL     1     -12.149   6.844  71.033  1.00  0.00    -0.429 C  
BRANCH   7   8
HETATM    8  C   UNL     1     -11.365   7.427  72.217  1.00  0.00    -0.323 C  
BRANCH   8   9
HETATM    9  C   UNL     1     -11.050   8.919  72.056  1.00  0.00    -0.421 C  
BRANCH   9  10
HETATM   10  C   UNL     1     -12.292   9.745  71.711  1.00  0.00    -0.470 C  
BRANCH  10  11
HETATM   11  C   UNL     1     -12.060  10.682  70.520  1.00  0.00    -0.448 C  
BRANCH  11  12
HETATM   12  C   UNL     1     -10.718  10.445  69.817  1.00  0.00    -0.325 C  
BRANCH  12  13
HETATM   13  C   UNL     1     -10.721  10.858  68.340  1.00  0.00    -0.240 C  
BRANCH  13  14
HETATM   14  C   UNL     1     -10.115  12.252  68.179  1.00  0.00    -0.211 C  
BRANCH  14  15
HETATM   15  N   UNL     1     -11.027  13.259  67.484  1.00  0.00    -0.258 N  
HETATM   16  C   UNL     1     -10.227  14.322  66.741  1.00  0.00    -0.272 C  
HETATM   17  C   UNL     1     -11.980  13.920  68.471  1.00  0.00    -0.359 C  
HETATM   18  C   UNL     1     -11.851  12.474  66.452  1.00  0.00    -0.381 C  
ENDBRANCH  14  15
ENDBRANCH  13  14
ENDBRANCH  12  13
ENDBRANCH  11  12
ENDBRANCH  10  11
ENDBRANCH   9  10
ENDBRANCH   8   9
ENDBRANCH   7   8
ENDBRANCH   6   7
ENDBRANCH   5   6
ENDBRANCH   2   5
TORSDOF 11
ENDMDL
MODEL      108
REMARK 921   NORMALIZED FREE ENERGY PREDICTED BY IDOCK:   -3.31 KCAL/MOL
REMARK 922        TOTAL FREE ENERGY PREDICTED BY IDOCK:   -6.21 KCAL/MOL
REMARK 923 INTER-LIGAND FREE ENERGY PREDICTED BY IDOCK:   -5.35 KCAL/MOL
REMARK 924 INTRA-LIGAND FREE ENERGY PREDICTED BY IDOCK:   -0.86 KCAL/MOL
REMARK 927      BINDING AFFINITY PREDICTED BY RF-SCORE:    0.00 PKD
ROOT
HETATM    1  C   UNL     1      -8.163   5.766  66.507  1.00  0.00    -0.106 C  
HETATM    2  N   UNL     1      -9.266   6.377  67.381  1.00  0.00    -0.117 N  
HETATM    3  C   UNL     1      -9.072   5.901  68.815  1.00  0.00    -0.116 C  
HETATM    4  C   UNL     1     -10.610   5.901  66.853  1.00  0.00    -0.315 C  
ENDROOT
BRANCH   2   5
HETATM    5  C   UNL     1      -9.121   7.890  67.274  1.00  0.00    -0.135 C  
BRANCH   5   6
HETATM    6  C   UNL     1     -10.399   8.625  66.867  1.00  0.00    -0.355 C  
BRANCH   6   7
HETATM    7  C   UNL     1     -10.722   9.734  67.876  1.00  0.00    -0.312 C  
BRANCH   7   8
HETATM    8  C   UNL     1     -10.534   9.306  69.338  1.00  0.00    -0.229 C  
BRANCH   8   9
HETATM    9  C   UNL     1     -11.399  10.107  70.318  1.00  0.00    -0.387 C  
BRANCH   9  10
HETATM   10  C   UNL     1     -12.229  11.186  69.618  1.00  0.00    -0.360 C  
BRANCH  10  11
HETATM   11  C   UNL     1     -11.977  12.584  70.191  1.00  0.00    -0.377 C  
BRANCH  11  12
HETATM   12  C   UNL     1     -12.033  13.691  69.131  1.00  0.00    -0.394 C  
BRANCH  12  13
HETATM   13  C   UNL     1     -11.123  13.427  67.924  1.00  0.00    -0.289 C  
BRANCH  13  14
HETATM   14  C   UNL     1     -11.930  13.497  66.628  1.00  0.00    -0.404 C  
BRANCH  14  15
HETATM   15  N   UNL     1     -11.128  13.944  65.409  1.00  0.00    -0.302 N  
HETATM   16  C   UNL     1     -10.496  12.759  64.688  1.00  0.00    -0.350 C  
HETATM   17  C   UNL     1     -10.054  14.954  65.789  1.00  0.00    -0.341 C  
HETATM   18  C   UNL     1     -12.119  14.615  64.447  1.00  0.00    -0.462 C  
ENDBRANCH  14  15
ENDBRANCH  13  14
ENDBRANCH  12  13
ENDBRANCH  11  12
ENDBRANCH  10  11
ENDBRANCH   9  10
ENDBRANCH   8   9
ENDBRANCH   7   8
ENDBRANCH   6   7
ENDBRANCH   5   6
ENDBRANCH   2   5
TORSDOF 11
ENDMDL
MODEL      109
REMARK 921   NORMALIZED FREE ENERGY PREDICTED BY IDOCK:   -3.31 KCAL/MOL
REMARK 922        TOTAL FREE ENERGY PREDICTED BY IDOCK:   -6.21 KCAL/MOL
REMARK 923 INTER-LIGAND FREE ENERGY PREDICTED BY IDOCK:   -5.65 KCAL/MOL
REMARK 924 INTRA-LIGAND FREE ENERGY PREDICTED BY IDOCK:   -0.56 KCAL/MOL
REMARK 927      BINDING AFFINITY PREDICTED BY RF-SCORE:    0.00 PKD
ROOT
HETATM    1  C   UNL     1     -10.389   4.973  71.357  1.00  0.00    -0.181 C  
HETATM    2  N   UNL     1      -9.642   5.314  72.653  1.00  0.00    -0.147 N  
HETATM    3  C   UNL     1      -8.326   5.991  72.294  1.00  0.00    -0.113 C  
HETATM    4  C   UNL     1      -9.372   4.018  73.402  1.00  0.00    -0.107 C  
ENDROOT
BRANCH   2   5
HETATM    5  C   UNL     1     -10.547   6.247  73.447  1.00  0.00    -0.273 C  
BRANCH   5   6
HETATM    6  C   UNL     1     -10.427   7.725  73.070  1.00  0.00    -0.432 C  
BRANCH   6   7
HETATM    7  C   UNL     1     -11.753   8.239  72.495  1.00  0.00    -0.451 C  
BRANCH   7   8
HETATM    8  C   UNL     1     -11.576   9.295  71.396  1.00  0.00    -0.437 C  
BRANCH   8   9
HETATM    9  C   UNL     1     -10.193   9.252  70.735  1.00  0.00    -0.353 C  
BRANCH   9  10
HETATM   10  C   UNL     1     -10.066  10.245  69.578  1.00  0.00    -0.260 C  
BRANCH  10  11
HETATM   11  C   UNL     1     -11.282  11.170  69.463  1.00  0.00    -0.341 C  
BRANCH  11  12
HETATM   12  C   UNL     1     -11.736  11.396  68.015  1.00  0.00    -0.324 C  
BRANCH  12  13
HETATM   13  C   UNL     1     -11.866  12.877  67.640  1.00  0.00    -0.400 C  
BRANCH  13  14
HETATM   14  C   UNL     1     -10.781  13.266  66.636  1.00  0.00    -0.280 C  
BRANCH  14  15
HETATM   15  N   UNL     1     -11.311  13.803  65.310  1.00  0.00    -0.299 N  
HETATM   16  C   UNL     1     -12.832  13.905  65.313  1.00  0.00    -0.398 C  
HETATM   17  C   UNL     1     -10.850  12.946  64.138  1.00  0.00    -0.416 C  
HETATM   18  C   UNL     1     -10.738  15.218  65.143  1.00  0.00    -0.436 C  
ENDBRANCH  14  15
ENDBRANCH  13  14
ENDBRANCH  12  13
ENDBRANCH  11  12
ENDBRANCH  10  11
ENDBRANCH   9  10
ENDBRANCH   8   9
ENDBRANCH   7   8
ENDBRANCH   6   7
ENDBRANCH   5   6
ENDBRANCH   2   5
TORSDOF 11
ENDMDL
MODEL      110
REMARK 921   NORMALIZED FREE ENERGY PREDICTED BY IDOCK:   -3.29 KCAL/MOL
REMARK 922        TOTAL FREE ENERGY PREDICTED BY IDOCK:   -6.18 KCAL/MOL
REMARK 923 INTER-LIGAND FREE ENERGY PREDICTED BY IDOCK:   -5.38 KCAL/MOL
REMARK 924 INTRA-LIGAND FREE ENERGY PREDICTED BY IDOCK:   -0.80 KCAL/MOL
REMARK 927      BINDING AFFINITY PREDICTED BY RF-SCORE:    0.00 PKD
ROOT
HETATM    1  C   UNL     1      -9.139   5.896  71.816  1.00  0.00    -0.142 C  
HETATM    2  N   UNL     1     -10.355   6.630  72.394  1.00  0.00    -0.192 N  
HETATM    3  C   UNL     1      -9.943   7.311  73.693  1.00  0.00    -0.330 C  
HETATM    4  C   UNL     1     -11.444   5.604  72.670  1.00  0.00    -0.285 C  
ENDROOT
BRANCH   2   5
HETATM    5  C   UNL     1     -10.791   7.648  71.348  1.00  0.00    -0.225 C  
BRANCH   5   6
HETATM    6  C   UNL     1     -10.044   8.981  71.407  1.00  0.00    -0.399 C  
BRANCH   6   7
HETATM    7  C   UNL     1      -9.160   9.154  70.165  1.00  0.00    -0.229 C  
BRANCH   7   8
HETATM    8  C   UNL     1      -9.626  10.282  69.234  1.00  0.00    -0.239 C  
BRANCH   8   9
HETATM    9  C   UNL     1     -10.966   9.985  68.550  1.00  0.00    -0.255 C  
BRANCH   9  10
HETATM   10  C   UNL     1     -11.989  11.104  68.755  1.00  0.00    -0.337 C  
BRANCH  10  11
HETATM   11  C   UNL     1     -11.478  12.201  69.695  1.00  0.00    -0.308 C  
BRANCH  11  12
HETATM   12  C   UNL     1     -11.913  13.610  69.273  1.00  0.00    -0.384 C  
BRANCH  12  13
HETATM   13  C   UNL     1     -11.149  14.146  68.057  1.00  0.00    -0.285 C  
BRANCH  13  14
HETATM   14  C   UNL     1     -12.110  14.391  66.893  1.00  0.00    -0.356 C  
BRANCH  14  15
HETATM   15  N   UNL     1     -11.610  13.882  65.544  1.00  0.00    -0.318 N  
HETATM   16  C   UNL     1     -10.247  13.210  65.668  1.00  0.00    -0.286 C  
HETATM   17  C   UNL     1     -11.546  15.003  64.515  1.00  0.00    -0.343 C  
HETATM   18  C   UNL     1     -12.620  12.829  65.066  1.00  0.00    -0.468 C  
ENDBRANCH  14  15
ENDBRANCH  13  14
ENDBRANCH  12  13
ENDBRANCH  11  12
ENDBRANCH  10  11
ENDBRANCH   9  10
ENDBRANCH   8   9
ENDBRANCH   7   8
ENDBRANCH   6   7
ENDBRANCH   5   6
ENDBRANCH   2   5
TORSDOF 11
ENDMDL
MODEL      111
REMARK 921   NORMALIZED FREE ENERGY PREDICTED BY IDOCK:   -3.29 KCAL/MOL
REMARK 922        TOTAL FREE ENERGY PREDICTED BY IDOCK:   -6.17 KCAL/MOL
REMARK 923 INTER-LIGAND FREE ENERGY PREDICTED BY IDOCK:   -5.44 KCAL/MOL
REMARK 924 INTRA-LIGAND FREE ENERGY PREDICTED BY IDOCK:   -0.73 KCAL/MOL
REMARK 927      BINDING AFFINITY PREDICTED BY RF-SCORE:    0.00 PKD
ROOT
HETATM    1  C   UNL     1     -10.426  13.596  64.355  1.00  0.00    -0.300 C  
HETATM    2  N   UNL     1     -10.439  12.070  64.200  1.00  0.00    -0.322 N  
HETATM    3  C   UNL     1      -9.769  11.707  62.882  1.00  0.00    -0.200 C  
HETATM    4  C   UNL     1     -11.888  11.605  64.191  1.00  0.00    -0.172 C  
ENDROOT
BRANCH   2   5
HETATM    5  C   UNL     1      -9.673  11.502  65.388  1.00  0.00    -0.233 C  
BRANCH   5   6
HETATM    6  C   UNL     1     -10.279  10.234  65.990  1.00  0.00    -0.298 C  
BRANCH   6   7
HETATM    7  C   UNL     1     -10.431  10.384  67.509  1.00  0.00    -0.292 C  
BRANCH   7   8
HETATM    8  C   UNL     1     -10.274  11.830  68.001  1.00  0.00    -0.202 C  
BRANCH   8   9
HETATM    9  C   UNL     1     -11.565  12.411  68.587  1.00  0.00    -0.365 C  
BRANCH   9  10
HETATM   10  C   UNL     1     -12.198  13.467  67.678  1.00  0.00    -0.215 C  
BRANCH  10  11
HETATM   11  C   UNL     1     -11.541  14.843  67.832  1.00  0.00    -0.364 C  
BRANCH  11  12
HETATM   12  C   UNL     1     -11.159  15.171  69.281  1.00  0.00    -0.279 C  
BRANCH  12  13
HETATM   13  C   UNL     1     -12.368  15.322  70.212  1.00  0.00    -0.407 C  
BRANCH  13  14
HETATM   14  C   UNL     1     -12.019  14.829  71.616  1.00  0.00    -0.345 C  
BRANCH  14  15
HETATM   15  N   UNL     1     -13.220  14.667  72.544  1.00  0.00    -0.392 N  
HETATM   16  C   UNL     1     -14.395  15.528  72.097  1.00  0.00    -0.499 C  
HETATM   17  C   UNL     1     -12.856  14.993  73.987  1.00  0.00    -0.065 C  
HETATM   18  C   UNL     1     -13.648  13.195  72.464  1.00  0.00    -0.491 C  
ENDBRANCH  14  15
ENDBRANCH  13  14
ENDBRANCH  12  13
ENDBRANCH  11  12
ENDBRANCH  10  11
ENDBRANCH   9  10
ENDBRANCH   8   9
ENDBRANCH   7   8
ENDBRANCH   6   7
ENDBRANCH   5   6
ENDBRANCH   2   5
TORSDOF 11
ENDMDL
MODEL      112
REMARK 921   NORMALIZED FREE ENERGY PREDICTED BY IDOCK:   -3.29 KCAL/MOL
REMARK 922        TOTAL FREE ENERGY PREDICTED BY IDOCK:   -6.17 KCAL/MOL
REMARK 923 INTER-LIGAND FREE ENERGY PREDICTED BY IDOCK:   -5.07 KCAL/MOL
REMARK 924 INTRA-LIGAND FREE ENERGY PREDICTED BY IDOCK:   -1.10 KCAL/MOL
REMARK 927      BINDING AFFINITY PREDICTED BY RF-SCORE:    0.00 PKD
ROOT
HETATM    1  C   UNL     1      -8.294  10.862  66.350  1.00  0.00    -0.162 C  
HETATM    2  N   UNL     1      -9.340  10.198  65.446  1.00  0.00    -0.196 N  
HETATM    3  C   UNL     1      -8.722   9.963  64.074  1.00  0.00    -0.212 C  
HETATM    4  C   UNL     1     -10.530  11.138  65.325  1.00  0.00    -0.263 C  
ENDROOT
BRANCH   2   5
HETATM    5  C   UNL     1      -9.725   8.884  66.114  1.00  0.00    -0.268 C  
BRANCH   5   6
HETATM    6  C   UNL     1      -9.390   8.805  67.605  1.00  0.00    -0.157 C  
BRANCH   6   7
HETATM    7  C   UNL     1     -10.387   7.891  68.328  1.00  0.00    -0.239 C  
BRANCH   7   8
HETATM    8  C   UNL     1     -10.060   7.684  69.813  1.00  0.00    -0.196 C  
BRANCH   8   9
HETATM    9  C   UNL     1     -11.148   8.221  70.751  1.00  0.00    -0.280 C  
BRANCH   9  10
HETATM   10  C   UNL     1     -10.910   9.679  71.150  1.00  0.00    -0.404 C  
BRANCH  10  11
HETATM   11  C   UNL     1     -12.104  10.580  70.820  1.00  0.00    -0.470 C  
BRANCH  11  12
HETATM   12  C   UNL     1     -12.151  11.006  69.347  1.00  0.00    -0.389 C  
BRANCH  12  13
HETATM   13  C   UNL     1     -11.246  12.202  69.028  1.00  0.00    -0.314 C  
BRANCH  13  14
HETATM   14  C   UNL     1     -11.993  13.213  68.158  1.00  0.00    -0.294 C  
BRANCH  14  15
HETATM   15  N   UNL     1     -11.161  14.422  67.740  1.00  0.00    -0.278 N  
HETATM   16  C   UNL     1     -11.523  15.661  68.550  1.00  0.00    -0.375 C  
HETATM   17  C   UNL     1     -11.309  14.712  66.252  1.00  0.00    -0.347 C  
HETATM   18  C   UNL     1      -9.694  14.073  68.031  1.00  0.00    -0.221 C  
ENDBRANCH  14  15
ENDBRANCH  13  14
ENDBRANCH  12  13
ENDBRANCH  11  12
ENDBRANCH  10  11
ENDBRANCH   9  10
ENDBRANCH   8   9
ENDBRANCH   7   8
ENDBRANCH   6   7
ENDBRANCH   5   6
ENDBRANCH   2   5
TORSDOF 11
ENDMDL
MODEL      113
REMARK 921   NORMALIZED FREE ENERGY PREDICTED BY IDOCK:   -3.28 KCAL/MOL
REMARK 922        TOTAL FREE ENERGY PREDICTED BY IDOCK:   -6.16 KCAL/MOL
REMARK 923 INTER-LIGAND FREE ENERGY PREDICTED BY IDOCK:   -5.04 KCAL/MOL
REMARK 924 INTRA-LIGAND FREE ENERGY PREDICTED BY IDOCK:   -1.12 KCAL/MOL
REMARK 927      BINDING AFFINITY PREDICTED BY RF-SCORE:    0.00 PKD
ROOT
HETATM    1  C   UNL     1      -8.169   9.128  70.337  1.00  0.00    -0.171 C  
HETATM    2  N   UNL     1      -9.534   8.533  70.706  1.00  0.00    -0.168 N  
HETATM    3  C   UNL     1      -9.402   7.797  72.033  1.00  0.00    -0.152 C  
HETATM    4  C   UNL     1      -9.941   7.560  69.611  1.00  0.00    -0.184 C  
ENDROOT
BRANCH   2   5
HETATM    5  C   UNL     1     -10.505   9.701  70.814  1.00  0.00    -0.305 C  
BRANCH   5   6
HETATM    6  C   UNL     1     -10.678  10.508  69.526  1.00  0.00    -0.291 C  
BRANCH   6   7
HETATM    7  C   UNL     1     -12.087  11.108  69.456  1.00  0.00    -0.396 C  
BRANCH   7   8
HETATM    8  C   UNL     1     -12.206  12.474  70.146  1.00  0.00    -0.307 C  
BRANCH   8   9
HETATM    9  C   UNL     1     -12.096  13.653  69.172  1.00  0.00    -0.361 C  
BRANCH   9  10
HETATM   10  C   UNL     1     -11.065  14.690  69.624  1.00  0.00    -0.284 C  
BRANCH  10  11
HETATM   11  C   UNL     1     -10.006  14.970  68.551  1.00  0.00    -0.219 C  
BRANCH  11  12
HETATM   12  C   UNL     1      -9.055  13.790  68.319  1.00  0.00    -0.195 C  
BRANCH  12  13
HETATM   13  C   UNL     1      -9.132  13.214  66.900  1.00  0.00    -0.231 C  
BRANCH  13  14
HETATM   14  C   UNL     1     -10.060  14.064  66.033  1.00  0.00    -0.315 C  
BRANCH  14  15
HETATM   15  N   UNL     1     -11.188  13.284  65.363  1.00  0.00    -0.286 N  
HETATM   16  C   UNL     1     -10.931  13.091  63.873  1.00  0.00    -0.339 C  
HETATM   17  C   UNL     1     -12.536  13.961  65.575  1.00  0.00    -0.511 C  
HETATM   18  C   UNL     1     -11.223  11.898  66.025  1.00  0.00    -0.324 C  
ENDBRANCH  14  15
ENDBRANCH  13  14
ENDBRANCH  12  13
ENDBRANCH  11  12
ENDBRANCH  10  11
ENDBRANCH   9  10
ENDBRANCH   8   9
ENDBRANCH   7   8
ENDBRANCH   6   7
ENDBRANCH   5   6
ENDBRANCH   2   5
TORSDOF 11
ENDMDL
MODEL      114
REMARK 921   NORMALIZED FREE ENERGY PREDICTED BY IDOCK:   -3.28 KCAL/MOL
REMARK 922        TOTAL FREE ENERGY PREDICTED BY IDOCK:   -6.16 KCAL/MOL
REMARK 923 INTER-LIGAND FREE ENERGY PREDICTED BY IDOCK:   -5.65 KCAL/MOL
REMARK 924 INTRA-LIGAND FREE ENERGY PREDICTED BY IDOCK:   -0.51 KCAL/MOL
REMARK 927      BINDING AFFINITY PREDICTED BY RF-SCORE:    0.00 PKD
ROOT
HETATM    1  C   UNL     1     -11.284   8.743  71.978  1.00  0.00    -0.373 C  
HETATM    2  N   UNL     1     -10.523   9.013  70.674  1.00  0.00    -0.214 N  
HETATM    3  C   UNL     1     -10.739   7.836  69.731  1.00  0.00    -0.236 C  
HETATM    4  C   UNL     1      -9.045   9.149  71.004  1.00  0.00    -0.237 C  
ENDROOT
BRANCH   2   5
HETATM    5  C   UNL     1     -11.092  10.301  70.094  1.00  0.00    -0.319 C  
BRANCH   5   6
HETATM    6  C   UNL     1     -11.146  10.342  68.565  1.00  0.00    -0.294 C  
BRANCH   6   7
HETATM    7  C   UNL     1     -10.746  11.731  68.053  1.00  0.00    -0.244 C  
BRANCH   7   8
HETATM    8  C   UNL     1     -11.657  12.258  66.936  1.00  0.00    -0.427 C  
BRANCH   8   9
HETATM    9  C   UNL     1     -11.983  13.749  67.076  1.00  0.00    -0.452 C  
BRANCH   9  10
HETATM   10  C   UNL     1     -10.937  14.502  67.902  1.00  0.00    -0.277 C  
BRANCH  10  11
HETATM   11  C   UNL     1     -11.565  15.532  68.846  1.00  0.00    -0.384 C  
BRANCH  11  12
HETATM   12  C   UNL     1     -10.597  16.651  69.250  1.00  0.00    -0.343 C  
BRANCH  12  13
HETATM   13  C   UNL     1      -9.443  16.847  68.260  1.00  0.00    -0.250 C  
BRANCH  13  14
HETATM   14  C   UNL     1      -8.781  18.207  68.481  1.00  0.00    -0.296 C  
BRANCH  14  15
HETATM   15  N   UNL     1      -9.175  19.273  67.463  1.00  0.00    -0.295 N  
HETATM   16  C   UNL     1      -9.829  18.659  66.230  1.00  0.00    -0.342 C  
HETATM   17  C   UNL     1      -7.977  20.118  67.049  1.00  0.00    -0.323 C  
HETATM   18  C   UNL     1     -10.207  20.181  68.148  1.00  0.00    -0.339 C  
ENDBRANCH  14  15
ENDBRANCH  13  14
ENDBRANCH  12  13
ENDBRANCH  11  12
ENDBRANCH  10  11
ENDBRANCH   9  10
ENDBRANCH   8   9
ENDBRANCH   7   8
ENDBRANCH   6   7
ENDBRANCH   5   6
ENDBRANCH   2   5
TORSDOF 11
ENDMDL
MODEL      115
REMARK 921   NORMALIZED FREE ENERGY PREDICTED BY IDOCK:   -3.28 KCAL/MOL
REMARK 922        TOTAL FREE ENERGY PREDICTED BY IDOCK:   -6.15 KCAL/MOL
REMARK 923 INTER-LIGAND FREE ENERGY PREDICTED BY IDOCK:   -5.50 KCAL/MOL
REMARK 924 INTRA-LIGAND FREE ENERGY PREDICTED BY IDOCK:   -0.65 KCAL/MOL
REMARK 927      BINDING AFFINITY PREDICTED BY RF-SCORE:    0.00 PKD
ROOT
HETATM    1  C   UNL     1     -10.409  16.832  68.309  1.00  0.00    -0.319 C  
HETATM    2  N   UNL     1      -8.920  16.573  68.043  1.00  0.00    -0.201 N  
HETATM    3  C   UNL     1      -8.421  15.532  69.036  1.00  0.00    -0.229 C  
HETATM    4  C   UNL     1      -8.168  17.880  68.239  1.00  0.00    -0.290 C  
ENDROOT
BRANCH   2   5
HETATM    5  C   UNL     1      -8.813  16.070  66.610  1.00  0.00    -0.272 C  
BRANCH   5   6
HETATM    6  C   UNL     1     -10.149  15.709  65.959  1.00  0.00    -0.355 C  
BRANCH   6   7
HETATM    7  C   UNL     1     -10.085  14.303  65.350  1.00  0.00    -0.379 C  
BRANCH   7   8
HETATM    8  C   UNL     1     -11.099  13.324  65.957  1.00  0.00    -0.298 C  
BRANCH   8   9
HETATM    9  C   UNL     1     -10.769  12.933  67.402  1.00  0.00    -0.252 C  
BRANCH   9  10
HETATM   10  C   UNL     1     -11.926  13.215  68.364  1.00  0.00    -0.324 C  
BRANCH  10  11
HETATM   11  C   UNL     1     -11.790  12.451  69.685  1.00  0.00    -0.380 C  
BRANCH  11  12
HETATM   12  C   UNL     1     -11.928  10.932  69.521  1.00  0.00    -0.401 C  
BRANCH  12  13
HETATM   13  C   UNL     1     -11.238  10.132  70.633  1.00  0.00    -0.418 C  
BRANCH  13  14
HETATM   14  C   UNL     1     -10.700   8.813  70.080  1.00  0.00    -0.224 C  
BRANCH  14  15
HETATM   15  N   UNL     1     -10.914   7.611  70.996  1.00  0.00    -0.244 N  
HETATM   16  C   UNL     1     -11.583   6.456  70.260  1.00  0.00    -0.383 C  
HETATM   17  C   UNL     1     -11.730   7.987  72.226  1.00  0.00    -0.371 C  
HETATM   18  C   UNL     1      -9.522   7.146  71.450  1.00  0.00    -0.161 C  
ENDBRANCH  14  15
ENDBRANCH  13  14
ENDBRANCH  12  13
ENDBRANCH  11  12
ENDBRANCH  10  11
ENDBRANCH   9  10
ENDBRANCH   8   9
ENDBRANCH   7   8
ENDBRANCH   6   7
ENDBRANCH   5   6
ENDBRANCH   2   5
TORSDOF 11
ENDMDL
MODEL      116
REMARK 921   NORMALIZED FREE ENERGY PREDICTED BY IDOCK:   -3.26 KCAL/MOL
REMARK 922        TOTAL FREE ENERGY PREDICTED BY IDOCK:   -6.12 KCAL/MOL
REMARK 923 INTER-LIGAND FREE ENERGY PREDICTED BY IDOCK:   -5.12 KCAL/MOL
REMARK 924 INTRA-LIGAND FREE ENERGY PREDICTED BY IDOCK:   -1.00 KCAL/MOL
REMARK 927      BINDING AFFINITY PREDICTED BY RF-SCORE:    0.00 PKD
ROOT
HETATM    1  C   UNL     1     -12.450   7.153  70.886  1.00  0.00    -0.258 C  
HETATM    2  N   UNL     1     -12.048   8.448  71.604  1.00  0.00    -0.297 N  
HETATM    3  C   UNL     1     -10.944   8.128  72.604  1.00  0.00    -0.370 C  
HETATM    4  C   UNL     1     -13.269   8.986  72.335  1.00  0.00    -0.447 C  
ENDROOT
BRANCH   2   5
HETATM    5  C   UNL     1     -11.562   9.412  70.530  1.00  0.00    -0.235 C  
BRANCH   5   6
HETATM    6  C   UNL     1     -12.286  10.759  70.510  1.00  0.00    -0.457 C  
BRANCH   6   7
HETATM    7  C   UNL     1     -12.153  11.416  69.130  1.00  0.00    -0.331 C  
BRANCH   7   8
HETATM    8  C   UNL     1     -11.266  12.669  69.130  1.00  0.00    -0.300 C  
BRANCH   8   9
HETATM    9  C   UNL     1     -10.709  13.014  67.744  1.00  0.00    -0.242 C  
BRANCH   9  10
HETATM   10  C   UNL     1     -11.121  11.997  66.678  1.00  0.00    -0.358 C  
BRANCH  10  11
HETATM   11  C   UNL     1      -9.925  11.473  65.875  1.00  0.00    -0.267 C  
BRANCH  11  12
HETATM   12  C   UNL     1      -9.853   9.941  65.829  1.00  0.00    -0.356 C  
BRANCH  12  13
HETATM   13  C   UNL     1     -10.050   9.280  67.198  1.00  0.00    -0.299 C  
BRANCH  13  14
HETATM   14  C   UNL     1     -10.512   7.833  67.026  1.00  0.00    -0.349 C  
BRANCH  14  15
HETATM   15  N   UNL     1      -9.534   6.790  67.559  1.00  0.00    -0.126 N  
HETATM   16  C   UNL     1      -8.474   6.433  66.523  1.00  0.00    -0.118 C  
HETATM   17  C   UNL     1     -10.258   5.531  68.019  1.00  0.00    -0.181 C  
HETATM   18  C   UNL     1      -8.827   7.422  68.767  1.00  0.00    -0.130 C  
ENDBRANCH  14  15
ENDBRANCH  13  14
ENDBRANCH  12  13
ENDBRANCH  11  12
ENDBRANCH  10  11
ENDBRANCH   9  10
ENDBRANCH   8   9
ENDBRANCH   7   8
ENDBRANCH   6   7
ENDBRANCH   5   6
ENDBRANCH   2   5
TORSDOF 11
ENDMDL
MODEL      117
REMARK 921   NORMALIZED FREE ENERGY PREDICTED BY IDOCK:   -3.26 KCAL/MOL
REMARK 922        TOTAL FREE ENERGY PREDICTED BY IDOCK:   -6.12 KCAL/MOL
REMARK 923 INTER-LIGAND FREE ENERGY PREDICTED BY IDOCK:   -5.29 KCAL/MOL
REMARK 924 INTRA-LIGAND FREE ENERGY PREDICTED BY IDOCK:   -0.83 KCAL/MOL
REMARK 927      BINDING AFFINITY PREDICTED BY RF-SCORE:    0.00 PKD
ROOT
HETATM    1  C   UNL     1      -7.101  11.593  68.709  1.00  0.00    -0.106 C  
HETATM    2  N   UNL     1      -8.309  10.896  68.070  1.00  0.00    -0.119 N  
HETATM    3  C   UNL     1      -8.815   9.823  69.025  1.00  0.00    -0.153 C  
HETATM    4  C   UNL     1      -7.855  10.258  66.766  1.00  0.00    -0.114 C  
ENDROOT
BRANCH   2   5
HETATM    5  C   UNL     1      -9.361  11.972  67.835  1.00  0.00    -0.190 C  
BRANCH   5   6
HETATM    6  C   UNL     1      -9.976  11.967  66.435  1.00  0.00    -0.237 C  
BRANCH   6   7
HETATM    7  C   UNL     1     -11.507  12.024  66.524  1.00  0.00    -0.413 C  
BRANCH   7   8
HETATM    8  C   UNL     1     -12.086  13.411  66.215  1.00  0.00    -0.475 C  
BRANCH   8   9
HETATM    9  C   UNL     1     -11.731  13.915  64.811  1.00  0.00    -0.399 C  
BRANCH   9  10
HETATM   10  C   UNL     1     -10.882  15.188  64.843  1.00  0.00    -0.437 C  
BRANCH  10  11
HETATM   11  C   UNL     1     -10.509  15.608  66.269  1.00  0.00    -0.313 C  
BRANCH  11  12
HETATM   12  C   UNL     1      -8.996  15.617  66.520  1.00  0.00    -0.343 C  
BRANCH  12  13
HETATM   13  C   UNL     1      -8.342  16.980  66.266  1.00  0.00    -0.308 C  
BRANCH  13  14
HETATM   14  C   UNL     1      -9.304  18.107  66.642  1.00  0.00    -0.297 C  
BRANCH  14  15
HETATM   15  N   UNL     1      -8.623  19.372  67.156  1.00  0.00    -0.286 N  
HETATM   16  C   UNL     1      -7.901  19.125  68.475  1.00  0.00    -0.345 C  
HETATM   17  C   UNL     1      -9.618  20.515  67.313  1.00  0.00    -0.440 C  
HETATM   18  C   UNL     1      -7.575  19.770  66.106  1.00  0.00    -0.320 C  
ENDBRANCH  14  15
ENDBRANCH  13  14
ENDBRANCH  12  13
ENDBRANCH  11  12
ENDBRANCH  10  11
ENDBRANCH   9  10
ENDBRANCH   8   9
ENDBRANCH   7   8
ENDBRANCH   6   7
ENDBRANCH   5   6
ENDBRANCH   2   5
TORSDOF 11
ENDMDL
MODEL      118
REMARK 921   NORMALIZED FREE ENERGY PREDICTED BY IDOCK:   -3.25 KCAL/MOL
REMARK 922        TOTAL FREE ENERGY PREDICTED BY IDOCK:   -6.11 KCAL/MOL
REMARK 923 INTER-LIGAND FREE ENERGY PREDICTED BY IDOCK:   -5.04 KCAL/MOL
REMARK 924 INTRA-LIGAND FREE ENERGY PREDICTED BY IDOCK:   -1.07 KCAL/MOL
REMARK 927      BINDING AFFINITY PREDICTED BY RF-SCORE:    0.00 PKD
ROOT
HETATM    1  C   UNL     1     -12.713  13.882  65.546  1.00  0.00    -0.499 C  
HETATM    2  N   UNL     1     -11.495  13.292  66.268  1.00  0.00    -0.313 N  
HETATM    3  C   UNL     1     -10.289  14.183  65.998  1.00  0.00    -0.309 C  
HETATM    4  C   UNL     1     -11.243  11.898  65.714  1.00  0.00    -0.312 C  
ENDROOT
BRANCH   2   5
HETATM    5  C   UNL     1     -11.839  13.257  67.751  1.00  0.00    -0.353 C  
BRANCH   5   6
HETATM    6  C   UNL     1     -11.890  11.855  68.360  1.00  0.00    -0.352 C  
BRANCH   6   7
HETATM    7  C   UNL     1     -11.699  11.925  69.880  1.00  0.00    -0.383 C  
BRANCH   7   8
HETATM    8  C   UNL     1     -12.741  11.117  70.666  1.00  0.00    -0.350 C  
BRANCH   8   9
HETATM    9  C   UNL     1     -12.120  10.216  71.740  1.00  0.00    -0.259 C  
BRANCH   9  10
HETATM   10  C   UNL     1     -12.210   8.731  71.380  1.00  0.00    -0.359 C  
BRANCH  10  11
HETATM   11  C   UNL     1     -10.861   8.151  70.941  1.00  0.00    -0.254 C  
BRANCH  11  12
HETATM   12  C   UNL     1      -9.661   8.873  71.564  1.00  0.00    -0.362 C  
BRANCH  12  13
HETATM   13  C   UNL     1      -8.460   8.991  70.618  1.00  0.00    -0.229 C  
BRANCH  13  14
HETATM   14  C   UNL     1      -8.896   9.587  69.280  1.00  0.00    -0.153 C  
BRANCH  14  15
HETATM   15  N   UNL     1      -8.616   8.697  68.072  1.00  0.00    -0.136 N  
HETATM   16  C   UNL     1      -9.885   8.416  67.275  1.00  0.00    -0.203 C  
HETATM   17  C   UNL     1      -7.960   7.387  68.485  1.00  0.00    -0.124 C  
HETATM   18  C   UNL     1      -7.646   9.471  67.167  1.00  0.00    -0.091 C  
ENDBRANCH  14  15
ENDBRANCH  13  14
ENDBRANCH  12  13
ENDBRANCH  11  12
ENDBRANCH  10  11
ENDBRANCH   9  10
ENDBRANCH   8   9
ENDBRANCH   7   8
ENDBRANCH   6   7
ENDBRANCH   5   6
ENDBRANCH   2   5
TORSDOF 11
ENDMDL
MODEL      119
REMARK 921   NORMALIZED FREE ENERGY PREDICTED BY IDOCK:   -3.25 KCAL/MOL
REMARK 922        TOTAL FREE ENERGY PREDICTED BY IDOCK:   -6.10 KCAL/MOL
REMARK 923 INTER-LIGAND FREE ENERGY PREDICTED BY IDOCK:   -5.72 KCAL/MOL
REMARK 924 INTRA-LIGAND FREE ENERGY PREDICTED BY IDOCK:   -0.38 KCAL/MOL
REMARK 927      BINDING AFFINITY PREDICTED BY RF-SCORE:    0.00 PKD
ROOT
HETATM    1  C   UNL     1      -8.657   8.832  69.547  1.00  0.00    -0.130 C  
HETATM    2  N   UNL     1     -10.186   8.915  69.453  1.00  0.00    -0.203 N  
HETATM    3  C   UNL     1     -10.705   9.721  70.637  1.00  0.00    -0.326 C  
HETATM    4  C   UNL     1     -10.744   7.501  69.504  1.00  0.00    -0.217 C  
ENDROOT
BRANCH   2   5
HETATM    5  C   UNL     1     -10.507   9.601  68.132  1.00  0.00    -0.222 C  
BRANCH   5   6
HETATM    6  C   UNL     1      -9.714   9.077  66.933  1.00  0.00    -0.260 C  
BRANCH   6   7
HETATM    7  C   UNL     1     -10.126   9.818  65.655  1.00  0.00    -0.282 C  
BRANCH   7   8
HETATM    8  C   UNL     1     -10.483  11.292  65.889  1.00  0.00    -0.314 C  
BRANCH   8   9
HETATM    9  C   UNL     1     -11.240  11.923  64.716  1.00  0.00    -0.356 C  
BRANCH   9  10
HETATM   10  C   UNL     1     -11.566  13.399  64.955  1.00  0.00    -0.354 C  
BRANCH  10  11
HETATM   11  C   UNL     1     -10.315  14.236  65.244  1.00  0.00    -0.417 C  
BRANCH  11  12
HETATM   12  C   UNL     1     -10.597  15.743  65.306  1.00  0.00    -0.446 C  
BRANCH  12  13
HETATM   13  C   UNL     1      -9.556  16.526  66.115  1.00  0.00    -0.344 C  
BRANCH  13  14
HETATM   14  C   UNL     1     -10.243  17.356  67.199  1.00  0.00    -0.323 C  
BRANCH  14  15
HETATM   15  N   UNL     1      -9.732  18.789  67.315  1.00  0.00    -0.295 N  
HETATM   16  C   UNL     1      -8.253  18.888  66.959  1.00  0.00    -0.270 C  
HETATM   17  C   UNL     1      -9.970  19.354  68.709  1.00  0.00    -0.444 C  
HETATM   18  C   UNL     1     -10.524  19.627  66.301  1.00  0.00    -0.519 C  
ENDBRANCH  14  15
ENDBRANCH  13  14
ENDBRANCH  12  13
ENDBRANCH  11  12
ENDBRANCH  10  11
ENDBRANCH   9  10
ENDBRANCH   8   9
ENDBRANCH   7   8
ENDBRANCH   6   7
ENDBRANCH   5   6
ENDBRANCH   2   5
TORSDOF 11
ENDMDL
MODEL      120
REMARK 921   NORMALIZED FREE ENERGY PREDICTED BY IDOCK:   -3.24 KCAL/MOL
REMARK 922        TOTAL FREE ENERGY PREDICTED BY IDOCK:   -6.09 KCAL/MOL
REMARK 923 INTER-LIGAND FREE ENERGY PREDICTED BY IDOCK:   -5.63 KCAL/MOL
REMARK 924 INTRA-LIGAND FREE ENERGY PREDICTED BY IDOCK:   -0.46 KCAL/MOL
REMARK 927      BINDING AFFINITY PREDICTED BY RF-SCORE:    0.00 PKD
ROOT
HETATM    1  C   UNL     1      -9.237   4.850  70.637  1.00  0.00    -0.136 C  
HETATM    2  N   UNL     1      -8.872   6.338  70.566  1.00  0.00    -0.143 N  
HETATM    3  C   UNL     1      -7.628   6.494  69.702  1.00  0.00    -0.098 C  
HETATM    4  C   UNL     1      -8.588   6.827  71.978  1.00  0.00    -0.122 C  
ENDROOT
BRANCH   2   5
HETATM    5  C   UNL     1     -10.068   7.053  69.951  1.00  0.00    -0.193 C  
BRANCH   5   6
HETATM    6  C   UNL     1     -11.411   6.355  70.174  1.00  0.00    -0.484 C  
BRANCH   6   7
HETATM    7  C   UNL     1     -12.011   6.770  71.524  1.00  0.00    -0.396 C  
BRANCH   7   8
HETATM    8  C   UNL     1     -13.287   7.613  71.394  1.00  0.00    -0.340 C  
BRANCH   8   9
HETATM    9  C   UNL     1     -13.172   8.987  72.063  1.00  0.00    -0.486 C  
BRANCH   9  10
HETATM   10  C   UNL     1     -11.989   9.800  71.532  1.00  0.00    -0.488 C  
BRANCH  10  11
HETATM   11  C   UNL     1     -12.398  10.775  70.423  1.00  0.00    -0.438 C  
BRANCH  11  12
HETATM   12  C   UNL     1     -11.446  10.757  69.221  1.00  0.00    -0.369 C  
BRANCH  12  13
HETATM   13  C   UNL     1     -11.735  11.861  68.196  1.00  0.00    -0.388 C  
BRANCH  13  14
HETATM   14  C   UNL     1     -10.821  13.062  68.439  1.00  0.00    -0.258 C  
BRANCH  14  15
HETATM   15  N   UNL     1     -11.189  14.307  67.637  1.00  0.00    -0.292 N  
HETATM   16  C   UNL     1     -12.217  13.995  66.556  1.00  0.00    -0.451 C  
HETATM   17  C   UNL     1      -9.958  14.952  67.014  1.00  0.00    -0.240 C  
HETATM   18  C   UNL     1     -11.820  15.299  68.624  1.00  0.00    -0.305 C  
ENDBRANCH  14  15
ENDBRANCH  13  14
ENDBRANCH  12  13
ENDBRANCH  11  12
ENDBRANCH  10  11
ENDBRANCH   9  10
ENDBRANCH   8   9
ENDBRANCH   7   8
ENDBRANCH   6   7
ENDBRANCH   5   6
ENDBRANCH   2   5
TORSDOF 11
ENDMDL
MODEL      121
REMARK 921   NORMALIZED FREE ENERGY PREDICTED BY IDOCK:   -3.22 KCAL/MOL
REMARK 922        TOTAL FREE ENERGY PREDICTED BY IDOCK:   -6.06 KCAL/MOL
REMARK 923 INTER-LIGAND FREE ENERGY PREDICTED BY IDOCK:   -5.42 KCAL/MOL
REMARK 924 INTRA-LIGAND FREE ENERGY PREDICTED BY IDOCK:   -0.64 KCAL/MOL
REMARK 927      BINDING AFFINITY PREDICTED BY RF-SCORE:    0.00 PKD
ROOT
HETATM    1  C   UNL     1     -10.344   6.376  71.634  1.00  0.00    -0.205 C  
HETATM    2  N   UNL     1     -11.385   7.210  70.875  1.00  0.00    -0.275 N  
HETATM    3  C   UNL     1     -10.941   8.667  70.881  1.00  0.00    -0.253 C  
HETATM    4  C   UNL     1     -12.719   7.071  71.591  1.00  0.00    -0.377 C  
ENDROOT
BRANCH   2   5
HETATM    5  C   UNL     1     -11.443   6.652  69.459  1.00  0.00    -0.263 C  
BRANCH   5   6
HETATM    6  C   UNL     1     -10.245   7.016  68.581  1.00  0.00    -0.182 C  
BRANCH   6   7
HETATM    7  C   UNL     1     -10.717   7.679  67.281  1.00  0.00    -0.344 C  
BRANCH   7   8
HETATM    8  C   UNL     1      -9.705   8.675  66.698  1.00  0.00    -0.315 C  
BRANCH   8   9
HETATM    9  C   UNL     1     -10.290  10.077  66.492  1.00  0.00    -0.268 C  
BRANCH   9  10
HETATM   10  C   UNL     1     -11.056  10.578  67.718  1.00  0.00    -0.382 C  
BRANCH  10  11
HETATM   11  C   UNL     1     -11.564  12.014  67.546  1.00  0.00    -0.401 C  
BRANCH  11  12
HETATM   12  C   UNL     1     -11.684  12.440  66.077  1.00  0.00    -0.469 C  
BRANCH  12  13
HETATM   13  C   UNL     1     -11.086  13.823  65.792  1.00  0.00    -0.290 C  
BRANCH  13  14
HETATM   14  C   UNL     1     -11.311  14.753  66.984  1.00  0.00    -0.353 C  
BRANCH  14  15
HETATM   15  N   UNL     1     -10.151  15.702  67.272  1.00  0.00    -0.251 N  
HETATM   16  C   UNL     1      -9.730  15.646  68.736  1.00  0.00    -0.212 C  
HETATM   17  C   UNL     1     -10.494  17.134  66.884  1.00  0.00    -0.274 C  
HETATM   18  C   UNL     1      -8.967  15.228  66.417  1.00  0.00    -0.304 C  
ENDBRANCH  14  15
ENDBRANCH  13  14
ENDBRANCH  12  13
ENDBRANCH  11  12
ENDBRANCH  10  11
ENDBRANCH   9  10
ENDBRANCH   8   9
ENDBRANCH   7   8
ENDBRANCH   6   7
ENDBRANCH   5   6
ENDBRANCH   2   5
TORSDOF 11
ENDMDL
MODEL      122
REMARK 921   NORMALIZED FREE ENERGY PREDICTED BY IDOCK:   -3.20 KCAL/MOL
REMARK 922        TOTAL FREE ENERGY PREDICTED BY IDOCK:   -6.03 KCAL/MOL
REMARK 923 INTER-LIGAND FREE ENERGY PREDICTED BY IDOCK:   -5.27 KCAL/MOL
REMARK 924 INTRA-LIGAND FREE ENERGY PREDICTED BY IDOCK:   -0.76 KCAL/MOL
REMARK 927      BINDING AFFINITY PREDICTED BY RF-SCORE:    0.00 PKD
ROOT
HETATM    1  C   UNL     1      -8.033  10.918  65.904  1.00  0.00    -0.105 C  
HETATM    2  N   UNL     1      -9.168  10.004  65.426  1.00  0.00    -0.192 N  
HETATM    3  C   UNL     1      -8.827   8.568  65.798  1.00  0.00    -0.190 C  
HETATM    4  C   UNL     1      -9.280  10.136  63.915  1.00  0.00    -0.280 C  
ENDROOT
BRANCH   2   5
HETATM    5  C   UNL     1     -10.434  10.474  66.129  1.00  0.00    -0.168 C  
BRANCH   5   6
HETATM    6  C   UNL     1     -10.380  11.914  66.644  1.00  0.00    -0.242 C  
BRANCH   6   7
HETATM    7  C   UNL     1     -11.565  12.192  67.578  1.00  0.00    -0.413 C  
BRANCH   7   8
HETATM    8  C   UNL     1     -11.757  11.120  68.659  1.00  0.00    -0.389 C  
BRANCH   8   9
HETATM    9  C   UNL     1     -12.092  11.706  70.036  1.00  0.00    -0.395 C  
BRANCH   9  10
HETATM   10  C   UNL     1     -11.629  13.158  70.183  1.00  0.00    -0.147 C  
BRANCH  10  11
HETATM   11  C   UNL     1     -12.713  14.061  70.781  1.00  0.00    -0.396 C  
BRANCH  11  12
HETATM   12  C   UNL     1     -12.554  15.535  70.389  1.00  0.00    -0.421 C  
BRANCH  12  13
HETATM   13  C   UNL     1     -11.726  15.743  69.115  1.00  0.00    -0.398 C  
BRANCH  13  14
HETATM   14  C   UNL     1     -10.721  16.876  69.315  1.00  0.00    -0.288 C  
BRANCH  14  15
HETATM   15  N   UNL     1     -10.034  17.344  68.036  1.00  0.00    -0.287 N  
HETATM   16  C   UNL     1      -8.516  17.264  68.151  1.00  0.00    -0.238 C  
HETATM   17  C   UNL     1     -10.453  18.761  67.665  1.00  0.00    -0.435 C  
HETATM   18  C   UNL     1     -10.479  16.390  66.919  1.00  0.00    -0.289 C  
ENDBRANCH  14  15
ENDBRANCH  13  14
ENDBRANCH  12  13
ENDBRANCH  11  12
ENDBRANCH  10  11
ENDBRANCH   9  10
ENDBRANCH   8   9
ENDBRANCH   7   8
ENDBRANCH   6   7
ENDBRANCH   5   6
ENDBRANCH   2   5
TORSDOF 11
ENDMDL
MODEL      123
REMARK 921   NORMALIZED FREE ENERGY PREDICTED BY IDOCK:   -3.19 KCAL/MOL
REMARK 922        TOTAL FREE ENERGY PREDICTED BY IDOCK:   -6.01 KCAL/MOL
REMARK 923 INTER-LIGAND FREE ENERGY PREDICTED BY IDOCK:   -5.37 KCAL/MOL
REMARK 924 INTRA-LIGAND FREE ENERGY PREDICTED BY IDOCK:   -0.64 KCAL/MOL
REMARK 927      BINDING AFFINITY PREDICTED BY RF-SCORE:    0.00 PKD
ROOT
HETATM    1  C   UNL     1      -8.339   8.100  65.022  1.00  0.00    -0.136 C  
HETATM    2  N   UNL     1      -8.161   9.534  64.508  1.00  0.00    -0.132 N  
HETATM    3  C   UNL     1      -8.933   9.684  63.204  1.00  0.00    -0.232 C  
HETATM    4  C   UNL     1      -6.679   9.772  64.264  1.00  0.00    -0.120 C  
ENDROOT
BRANCH   2   5
HETATM    5  C   UNL     1      -8.711  10.457  65.588  1.00  0.00    -0.171 C  
BRANCH   5   6
HETATM    6  C   UNL     1     -10.175  10.857  65.399  1.00  0.00    -0.339 C  
BRANCH   6   7
HETATM    7  C   UNL     1     -10.808  11.221  66.748  1.00  0.00    -0.334 C  
BRANCH   7   8
HETATM    8  C   UNL     1     -11.742  12.437  66.678  1.00  0.00    -0.438 C  
BRANCH   8   9
HETATM    9  C   UNL     1     -11.870  13.177  68.014  1.00  0.00    -0.398 C  
BRANCH   9  10
HETATM   10  C   UNL     1     -11.126  12.469  69.149  1.00  0.00    -0.254 C  
BRANCH  10  11
HETATM   11  C   UNL     1     -12.044  12.126  70.327  1.00  0.00    -0.385 C  
BRANCH  11  12
HETATM   12  C   UNL     1     -12.658  10.724  70.225  1.00  0.00    -0.350 C  
BRANCH  12  13
HETATM   13  C   UNL     1     -12.539   9.910  71.519  1.00  0.00    -0.513 C  
BRANCH  13  14
HETATM   14  C   UNL     1     -11.166   9.244  71.602  1.00  0.00    -0.379 C  
BRANCH  14  15
HETATM   15  N   UNL     1     -11.209   7.733  71.814  1.00  0.00    -0.249 N  
HETATM   16  C   UNL     1     -10.900   7.360  73.259  1.00  0.00    -0.368 C  
HETATM   17  C   UNL     1     -10.253   7.012  70.874  1.00  0.00    -0.197 C  
HETATM   18  C   UNL     1     -12.643   7.282  71.501  1.00  0.00    -0.379 C  
ENDBRANCH  14  15
ENDBRANCH  13  14
ENDBRANCH  12  13
ENDBRANCH  11  12
ENDBRANCH  10  11
ENDBRANCH   9  10
ENDBRANCH   8   9
ENDBRANCH   7   8
ENDBRANCH   6   7
ENDBRANCH   5   6
ENDBRANCH   2   5
TORSDOF 11
ENDMDL
MODEL      124
REMARK 921   NORMALIZED FREE ENERGY PREDICTED BY IDOCK:   -3.18 KCAL/MOL
REMARK 922        TOTAL FREE ENERGY PREDICTED BY IDOCK:   -5.99 KCAL/MOL
REMARK 923 INTER-LIGAND FREE ENERGY PREDICTED BY IDOCK:   -5.35 KCAL/MOL
REMARK 924 INTRA-LIGAND FREE ENERGY PREDICTED BY IDOCK:   -0.64 KCAL/MOL
REMARK 927      BINDING AFFINITY PREDICTED BY RF-SCORE:    0.00 PKD
ROOT
HETATM    1  C   UNL     1      -8.657   6.071  70.252  1.00  0.00    -0.143 C  
HETATM    2  N   UNL     1     -10.124   6.209  70.680  1.00  0.00    -0.188 N  
HETATM    3  C   UNL     1     -10.328   7.594  71.281  1.00  0.00    -0.198 C  
HETATM    4  C   UNL     1     -10.418   5.142  71.723  1.00  0.00    -0.200 C  
ENDROOT
BRANCH   2   5
HETATM    5  C   UNL     1     -10.966   6.019  69.425  1.00  0.00    -0.385 C  
BRANCH   5   6
HETATM    6  C   UNL     1     -10.181   6.098  68.114  1.00  0.00    -0.208 C  
BRANCH   6   7
HETATM    7  C   UNL     1     -10.886   7.035  67.125  1.00  0.00    -0.427 C  
BRANCH   7   8
HETATM    8  C   UNL     1     -10.079   8.298  66.796  1.00  0.00    -0.373 C  
BRANCH   8   9
HETATM    9  C   UNL     1      -9.828   9.188  68.019  1.00  0.00    -0.197 C  
BRANCH   9  10
HETATM   10  C   UNL     1      -9.984  10.677  67.702  1.00  0.00    -0.197 C  
BRANCH  10  11
HETATM   11  C   UNL     1     -11.444  11.140  67.764  1.00  0.00    -0.349 C  
BRANCH  11  12
HETATM   12  C   UNL     1     -11.630  12.448  68.543  1.00  0.00    -0.358 C  
BRANCH  12  13
HETATM   13  C   UNL     1     -11.046  13.673  67.829  1.00  0.00    -0.293 C  
BRANCH  13  14
HETATM   14  C   UNL     1     -11.931  14.069  66.648  1.00  0.00    -0.445 C  
BRANCH  14  15
HETATM   15  N   UNL     1     -11.165  14.449  65.384  1.00  0.00    -0.323 N  
HETATM   16  C   UNL     1     -12.109  14.770  64.231  1.00  0.00    -0.394 C  
HETATM   17  C   UNL     1     -10.194  13.351  64.971  1.00  0.00    -0.307 C  
HETATM   18  C   UNL     1     -10.366  15.718  65.714  1.00  0.00    -0.369 C  
ENDBRANCH  14  15
ENDBRANCH  13  14
ENDBRANCH  12  13
ENDBRANCH  11  12
ENDBRANCH  10  11
ENDBRANCH   9  10
ENDBRANCH   8   9
ENDBRANCH   7   8
ENDBRANCH   6   7
ENDBRANCH   5   6
ENDBRANCH   2   5
TORSDOF 11
ENDMDL
MODEL      125
REMARK 921   NORMALIZED FREE ENERGY PREDICTED BY IDOCK:   -3.18 KCAL/MOL
REMARK 922        TOTAL FREE ENERGY PREDICTED BY IDOCK:   -5.98 KCAL/MOL
REMARK 923 INTER-LIGAND FREE ENERGY PREDICTED BY IDOCK:   -5.27 KCAL/MOL
REMARK 924 INTRA-LIGAND FREE ENERGY PREDICTED BY IDOCK:   -0.71 KCAL/MOL
REMARK 927      BINDING AFFINITY PREDICTED BY RF-SCORE:    0.00 PKD
ROOT
HETATM    1  C   UNL     1      -7.008  10.525  65.888  1.00  0.00    -0.131 C  
HETATM    2  N   UNL     1      -8.476  10.113  66.054  1.00  0.00    -0.128 N  
HETATM    3  C   UNL     1      -8.681   9.596  67.472  1.00  0.00    -0.125 C  
HETATM    4  C   UNL     1      -8.777   9.009  65.051  1.00  0.00    -0.183 C  
ENDROOT
BRANCH   2   5
HETATM    5  C   UNL     1      -9.313  11.358  65.791  1.00  0.00    -0.228 C  
BRANCH   5   6
HETATM    6  C   UNL     1     -10.684  11.359  66.471  1.00  0.00    -0.325 C  
BRANCH   6   7
HETATM    7  C   UNL     1     -11.458  12.633  66.108  1.00  0.00    -0.413 C  
BRANCH   7   8
HETATM    8  C   UNL     1     -12.080  13.338  67.322  1.00  0.00    -0.341 C  
BRANCH   8   9
HETATM    9  C   UNL     1     -11.328  13.064  68.629  1.00  0.00    -0.329 C  
BRANCH   9  10
HETATM   10  C   UNL     1     -11.834  13.926  69.788  1.00  0.00    -0.390 C  
BRANCH  10  11
HETATM   11  C   UNL     1     -12.058  15.386  69.378  1.00  0.00    -0.308 C  
BRANCH  11  12
HETATM   12  C   UNL     1     -10.760  16.198  69.300  1.00  0.00    -0.295 C  
BRANCH  12  13
HETATM   13  C   UNL     1     -10.491  16.787  67.910  1.00  0.00    -0.335 C  
BRANCH  13  14
HETATM   14  C   UNL     1      -9.265  17.699  67.950  1.00  0.00    -0.267 C  
BRANCH  14  15
HETATM   15  N   UNL     1      -9.520  19.120  67.456  1.00  0.00    -0.303 N  
HETATM   16  C   UNL     1      -8.226  19.810  67.039  1.00  0.00    -0.303 C  
HETATM   17  C   UNL     1     -10.238  19.955  68.508  1.00  0.00    -0.409 C  
HETATM   18  C   UNL     1     -10.420  19.005  66.218  1.00  0.00    -0.457 C  
ENDBRANCH  14  15
ENDBRANCH  13  14
ENDBRANCH  12  13
ENDBRANCH  11  12
ENDBRANCH  10  11
ENDBRANCH   9  10
ENDBRANCH   8   9
ENDBRANCH   7   8
ENDBRANCH   6   7
ENDBRANCH   5   6
ENDBRANCH   2   5
TORSDOF 11
ENDMDL
MODEL      126
REMARK 921   NORMALIZED FREE ENERGY PREDICTED BY IDOCK:   -3.18 KCAL/MOL
REMARK 922        TOTAL FREE ENERGY PREDICTED BY IDOCK:   -5.98 KCAL/MOL
REMARK 923 INTER-LIGAND FREE ENERGY PREDICTED BY IDOCK:   -5.43 KCAL/MOL
REMARK 924 INTRA-LIGAND FREE ENERGY PREDICTED BY IDOCK:   -0.56 KCAL/MOL
REMARK 927      BINDING AFFINITY PREDICTED BY RF-SCORE:    0.00 PKD
ROOT
HETATM    1  C   UNL     1      -9.098   6.689  71.448  1.00  0.00    -0.143 C  
HETATM    2  N   UNL     1     -10.102   6.585  72.603  1.00  0.00    -0.172 N  
HETATM    3  C   UNL     1      -9.360   6.145  73.858  1.00  0.00    -0.135 C  
HETATM    4  C   UNL     1     -11.150   5.547  72.230  1.00  0.00    -0.237 C  
ENDROOT
BRANCH   2   5
HETATM    5  C   UNL     1     -10.715   7.968  72.776  1.00  0.00    -0.362 C  
BRANCH   5   6
HETATM    6  C   UNL     1     -11.688   8.378  71.669  1.00  0.00    -0.354 C  
BRANCH   6   7
HETATM    7  C   UNL     1     -11.610   9.889  71.421  1.00  0.00    -0.428 C  
BRANCH   7   8
HETATM    8  C   UNL     1     -11.501  10.262  69.936  1.00  0.00    -0.340 C  
BRANCH   8   9
HETATM    9  C   UNL     1     -10.520   9.374  69.162  1.00  0.00    -0.230 C  
BRANCH   9  10
HETATM   10  C   UNL     1     -10.653   9.537  67.646  1.00  0.00    -0.329 C  
BRANCH  10  11
HETATM   11  C   UNL     1      -9.836  10.717  67.109  1.00  0.00    -0.208 C  
BRANCH  11  12
HETATM   12  C   UNL     1     -10.077  10.991  65.619  1.00  0.00    -0.310 C  
BRANCH  12  13
HETATM   13  C   UNL     1     -11.198  12.004  65.358  1.00  0.00    -0.374 C  
BRANCH  13  14
HETATM   14  C   UNL     1     -10.640  13.244  64.660  1.00  0.00    -0.404 C  
BRANCH  14  15
HETATM   15  N   UNL     1     -10.746  14.529  65.476  1.00  0.00    -0.320 N  
HETATM   16  C   UNL     1     -11.086  15.726  64.596  1.00  0.00    -0.361 C  
HETATM   17  C   UNL     1      -9.466  14.802  66.254  1.00  0.00    -0.303 C  
HETATM   18  C   UNL     1     -11.897  14.327  66.473  1.00  0.00    -0.415 C  
ENDBRANCH  14  15
ENDBRANCH  13  14
ENDBRANCH  12  13
ENDBRANCH  11  12
ENDBRANCH  10  11
ENDBRANCH   9  10
ENDBRANCH   8   9
ENDBRANCH   7   8
ENDBRANCH   6   7
ENDBRANCH   5   6
ENDBRANCH   2   5
TORSDOF 11
ENDMDL
MODEL      127
REMARK 921   NORMALIZED FREE ENERGY PREDICTED BY IDOCK:   -3.16 KCAL/MOL
REMARK 922        TOTAL FREE ENERGY PREDICTED BY IDOCK:   -5.97 KCAL/MOL
REMARK 923 INTER-LIGAND FREE ENERGY PREDICTED BY IDOCK:   -5.11 KCAL/MOL
REMARK 924 INTRA-LIGAND FREE ENERGY PREDICTED BY IDOCK:   -0.85 KCAL/MOL
REMARK 927      BINDING AFFINITY PREDICTED BY RF-SCORE:    0.00 PKD
ROOT
HETATM    1  C   UNL     1      -8.735   9.981  69.392  1.00  0.00    -0.186 C  
HETATM    2  N   UNL     1      -8.047  10.958  68.431  1.00  0.00    -0.123 N  
HETATM    3  C   UNL     1      -7.631  10.199  67.178  1.00  0.00    -0.092 C  
HETATM    4  C   UNL     1      -6.819  11.525  69.127  1.00  0.00    -0.112 C  
ENDROOT
BRANCH   2   5
HETATM    5  C   UNL     1      -9.065  12.045  68.110  1.00  0.00    -0.191 C  
BRANCH   5   6
HETATM    6  C   UNL     1     -10.125  11.641  67.083  1.00  0.00    -0.227 C  
BRANCH   6   7
HETATM    7  C   UNL     1     -11.464  12.318  67.404  1.00  0.00    -0.422 C  
BRANCH   7   8
HETATM    8  C   UNL     1     -11.801  12.331  68.901  1.00  0.00    -0.355 C  
BRANCH   8   9
HETATM    9  C   UNL     1     -12.282  10.972  69.423  1.00  0.00    -0.329 C  
BRANCH   9  10
HETATM   10  C   UNL     1     -12.429  10.949  70.946  1.00  0.00    -0.507 C  
BRANCH  10  11
HETATM   11  C   UNL     1     -11.913   9.646  71.566  1.00  0.00    -0.485 C  
BRANCH  11  12
HETATM   12  C   UNL     1     -13.035   8.734  72.076  1.00  0.00    -0.437 C  
BRANCH  12  13
HETATM   13  C   UNL     1     -12.964   7.307  71.518  1.00  0.00    -0.434 C  
BRANCH  13  14
HETATM   14  C   UNL     1     -11.695   7.128  70.684  1.00  0.00    -0.307 C  
BRANCH  14  15
HETATM   15  N   UNL     1     -10.690   6.139  71.269  1.00  0.00    -0.246 N  
HETATM   16  C   UNL     1     -10.330   5.047  70.269  1.00  0.00    -0.229 C  
HETATM   17  C   UNL     1     -11.209   5.515  72.558  1.00  0.00    -0.274 C  
HETATM   18  C   UNL     1      -9.417   6.937  71.585  1.00  0.00    -0.157 C  
ENDBRANCH  14  15
ENDBRANCH  13  14
ENDBRANCH  12  13
ENDBRANCH  11  12
ENDBRANCH  10  11
ENDBRANCH   9  10
ENDBRANCH   8   9
ENDBRANCH   7   8
ENDBRANCH   6   7
ENDBRANCH   5   6
ENDBRANCH   2   5
TORSDOF 11
ENDMDL
MODEL      128
REMARK 921   NORMALIZED FREE ENERGY PREDICTED BY IDOCK:   -3.16 KCAL/MOL
REMARK 922        TOTAL FREE ENERGY PREDICTED BY IDOCK:   -5.96 KCAL/MOL
REMARK 923 INTER-LIGAND FREE ENERGY PREDICTED BY IDOCK:   -5.07 KCAL/MOL
REMARK 924 INTRA-LIGAND FREE ENERGY PREDICTED BY IDOCK:   -0.90 KCAL/MOL
REMARK 927      BINDING AFFINITY PREDICTED BY RF-SCORE:    0.00 PKD
ROOT
HETATM    1  C   UNL     1      -8.936   9.391  70.345  1.00  0.00    -0.250 C  
HETATM    2  N   UNL     1     -10.079   8.496  70.840  1.00  0.00    -0.193 N  
HETATM    3  C   UNL     1      -9.518   7.498  71.845  1.00  0.00    -0.144 C  
HETATM    4  C   UNL     1     -10.659   7.758  69.644  1.00  0.00    -0.242 C  
ENDROOT
BRANCH   2   5
HETATM    5  C   UNL     1     -11.106   9.417  71.487  1.00  0.00    -0.376 C  
BRANCH   5   6
HETATM    6  C   UNL     1     -11.419  10.683  70.689  1.00  0.00    -0.374 C  
BRANCH   6   7
HETATM    7  C   UNL     1     -12.906  11.037  70.809  1.00  0.00    -0.354 C  
BRANCH   7   8
HETATM    8  C   UNL     1     -13.258  11.775  72.108  1.00  0.00    -0.342 C  
BRANCH   8   9
HETATM    9  C   UNL     1     -13.641  13.242  71.884  1.00  0.00    -0.473 C  
BRANCH   9  10
HETATM   10  C   UNL     1     -12.423  14.133  71.632  1.00  0.00    -0.395 C  
BRANCH  10  11
HETATM   11  C   UNL     1     -12.522  14.903  70.311  1.00  0.00    -0.386 C  
BRANCH  11  12
HETATM   12  C   UNL     1     -12.248  14.030  69.080  1.00  0.00    -0.299 C  
BRANCH  12  13
HETATM   13  C   UNL     1     -10.964  14.412  68.334  1.00  0.00    -0.261 C  
BRANCH  13  14
HETATM   14  C   UNL     1      -9.992  13.232  68.313  1.00  0.00    -0.236 C  
BRANCH  14  15
HETATM   15  N   UNL     1      -9.380  12.942  66.946  1.00  0.00    -0.234 N  
HETATM   16  C   UNL     1     -10.002  11.708  66.303  1.00  0.00    -0.217 C  
HETATM   17  C   UNL     1      -7.869  12.776  67.036  1.00  0.00    -0.014 C  
HETATM   18  C   UNL     1      -9.692  14.154  66.055  1.00  0.00    -0.274 C  
ENDBRANCH  14  15
ENDBRANCH  13  14
ENDBRANCH  12  13
ENDBRANCH  11  12
ENDBRANCH  10  11
ENDBRANCH   9  10
ENDBRANCH   8   9
ENDBRANCH   7   8
ENDBRANCH   6   7
ENDBRANCH   5   6
ENDBRANCH   2   5
TORSDOF 11
ENDMDL
MODEL      129
REMARK 921   NORMALIZED FREE ENERGY PREDICTED BY IDOCK:   -3.16 KCAL/MOL
REMARK 922        TOTAL FREE ENERGY PREDICTED BY IDOCK:   -5.96 KCAL/MOL
REMARK 923 INTER-LIGAND FREE ENERGY PREDICTED BY IDOCK:   -5.57 KCAL/MOL
REMARK 924 INTRA-LIGAND FREE ENERGY PREDICTED BY IDOCK:   -0.39 KCAL/MOL
REMARK 927      BINDING AFFINITY PREDICTED BY RF-SCORE:    0.00 PKD
ROOT
HETATM    1  C   UNL     1      -8.373   4.597  73.132  1.00  0.00    -0.100 C  
HETATM    2  N   UNL     1      -9.757   5.167  73.469  1.00  0.00    -0.146 N  
HETATM    3  C   UNL     1      -9.574   6.496  74.189  1.00  0.00    -0.236 C  
HETATM    4  C   UNL     1     -10.470   4.178  74.379  1.00  0.00    -0.235 C  
ENDROOT
BRANCH   2   5
HETATM    5  C   UNL     1     -10.490   5.348  72.147  1.00  0.00    -0.218 C  
BRANCH   5   6
HETATM    6  C   UNL     1     -10.674   6.804  71.714  1.00  0.00    -0.250 C  
BRANCH   6   7
HETATM    7  C   UNL     1     -11.976   6.965  70.921  1.00  0.00    -0.430 C  
BRANCH   7   8
HETATM    8  C   UNL     1     -12.962   7.955  71.556  1.00  0.00    -0.338 C  
BRANCH   8   9
HETATM    9  C   UNL     1     -12.363   9.350  71.770  1.00  0.00    -0.471 C  
BRANCH   9  10
HETATM   10  C   UNL     1     -13.036  10.416  70.901  1.00  0.00    -0.475 C  
BRANCH  10  11
HETATM   11  C   UNL     1     -12.038  11.442  70.354  1.00  0.00    -0.473 C  
BRANCH  11  12
HETATM   12  C   UNL     1     -12.418  12.890  70.687  1.00  0.00    -0.333 C  
BRANCH  12  13
HETATM   13  C   UNL     1     -12.016  13.893  69.599  1.00  0.00    -0.399 C  
BRANCH  13  14
HETATM   14  C   UNL     1     -11.012  13.258  68.638  1.00  0.00    -0.264 C  
BRANCH  14  15
HETATM   15  N   UNL     1     -10.738  14.076  67.379  1.00  0.00    -0.281 N  
HETATM   16  C   UNL     1     -11.649  13.662  66.230  1.00  0.00    -0.348 C  
HETATM   17  C   UNL     1      -9.280  13.968  66.952  1.00  0.00    -0.260 C  
HETATM   18  C   UNL     1     -11.043  15.540  67.727  1.00  0.00    -0.315 C  
ENDBRANCH  14  15
ENDBRANCH  13  14
ENDBRANCH  12  13
ENDBRANCH  11  12
ENDBRANCH  10  11
ENDBRANCH   9  10
ENDBRANCH   8   9
ENDBRANCH   7   8
ENDBRANCH   6   7
ENDBRANCH   5   6
ENDBRANCH   2   5
TORSDOF 11
ENDMDL
MODEL      130
REMARK 921   NORMALIZED FREE ENERGY PREDICTED BY IDOCK:   -3.16 KCAL/MOL
REMARK 922        TOTAL FREE ENERGY PREDICTED BY IDOCK:   -5.96 KCAL/MOL
REMARK 923 INTER-LIGAND FREE ENERGY PREDICTED BY IDOCK:   -5.16 KCAL/MOL
REMARK 924 INTRA-LIGAND FREE ENERGY PREDICTED BY IDOCK:   -0.79 KCAL/MOL
REMARK 927      BINDING AFFINITY PREDICTED BY RF-SCORE:    0.00 PKD
ROOT
HETATM    1  C   UNL     1     -11.206   9.654  71.047  1.00  0.00    -0.375 C  
HETATM    2  N   UNL     1     -10.090   9.409  70.023  1.00  0.00    -0.210 N  
HETATM    3  C   UNL     1     -10.456   8.193  69.183  1.00  0.00    -0.206 C  
HETATM    4  C   UNL     1      -8.798   9.147  70.781  1.00  0.00    -0.239 C  
ENDROOT
BRANCH   2   5
HETATM    5  C   UNL     1      -9.997  10.667  69.169  1.00  0.00    -0.211 C  
BRANCH   5   6
HETATM    6  C   UNL     1     -11.191  11.615  69.298  1.00  0.00    -0.328 C  
BRANCH   6   7
HETATM    7  C   UNL     1     -11.749  11.962  67.912  1.00  0.00    -0.368 C  
BRANCH   7   8
HETATM    8  C   UNL     1     -12.027  13.460  67.721  1.00  0.00    -0.363 C  
BRANCH   8   9
HETATM    9  C   UNL     1     -11.647  13.970  66.327  1.00  0.00    -0.379 C  
BRANCH   9  10
HETATM   10  C   UNL     1     -11.990  12.967  65.223  1.00  0.00    -0.446 C  
BRANCH  10  11
HETATM   11  C   UNL     1     -10.976  12.992  64.073  1.00  0.00    -0.422 C  
BRANCH  11  12
HETATM   12  C   UNL     1     -10.724  11.608  63.461  1.00  0.00    -0.495 C  
BRANCH  12  13
HETATM   13  C   UNL     1     -10.112  10.606  64.448  1.00  0.00    -0.418 C  
BRANCH  13  14
HETATM   14  C   UNL     1      -9.043   9.764  63.752  1.00  0.00    -0.230 C  
BRANCH  14  15
HETATM   15  N   UNL     1      -7.921   9.286  64.670  1.00  0.00    -0.118 N  
HETATM   16  C   UNL     1      -7.775   7.769  64.634  1.00  0.00    -0.121 C  
HETATM   17  C   UNL     1      -8.137   9.753  66.103  1.00  0.00    -0.109 C  
HETATM   18  C   UNL     1      -6.619   9.904  64.139  1.00  0.00    -0.126 C  
ENDBRANCH  14  15
ENDBRANCH  13  14
ENDBRANCH  12  13
ENDBRANCH  11  12
ENDBRANCH  10  11
ENDBRANCH   9  10
ENDBRANCH   8   9
ENDBRANCH   7   8
ENDBRANCH   6   7
ENDBRANCH   5   6
ENDBRANCH   2   5
TORSDOF 11
ENDMDL
MODEL      131
REMARK 921   NORMALIZED FREE ENERGY PREDICTED BY IDOCK:   -3.14 KCAL/MOL
REMARK 922        TOTAL FREE ENERGY PREDICTED BY IDOCK:   -5.93 KCAL/MOL
REMARK 923 INTER-LIGAND FREE ENERGY PREDICTED BY IDOCK:   -5.16 KCAL/MOL
REMARK 924 INTRA-LIGAND FREE ENERGY PREDICTED BY IDOCK:   -0.76 KCAL/MOL
REMARK 927      BINDING AFFINITY PREDICTED BY RF-SCORE:    0.00 PKD
ROOT
HETATM    1  C   UNL     1      -8.945  15.520  69.570  1.00  0.00    -0.244 C  
HETATM    2  N   UNL     1     -10.164  15.980  68.761  1.00  0.00    -0.215 N  
HETATM    3  C   UNL     1      -9.906  17.390  68.249  1.00  0.00    -0.310 C  
HETATM    4  C   UNL     1     -11.375  15.975  69.682  1.00  0.00    -0.332 C  
ENDROOT
BRANCH   2   5
HETATM    5  C   UNL     1     -10.325  14.993  67.613  1.00  0.00    -0.243 C  
BRANCH   5   6
HETATM    6  C   UNL     1     -11.758  14.510  67.383  1.00  0.00    -0.425 C  
BRANCH   6   7
HETATM    7  C   UNL     1     -11.807  12.977  67.356  1.00  0.00    -0.411 C  
BRANCH   7   8
HETATM    8  C   UNL     1     -11.893  12.392  65.940  1.00  0.00    -0.467 C  
BRANCH   8   9
HETATM    9  C   UNL     1     -10.703  11.492  65.587  1.00  0.00    -0.323 C  
BRANCH   9  10
HETATM   10  C   UNL     1      -9.650  11.451  66.696  1.00  0.00    -0.211 C  
BRANCH  10  11
HETATM   11  C   UNL     1      -9.406  10.033  67.222  1.00  0.00    -0.170 C  
BRANCH  11  12
HETATM   12  C   UNL     1     -10.374   9.628  68.341  1.00  0.00    -0.233 C  
BRANCH  12  13
HETATM   13  C   UNL     1      -9.842   8.498  69.230  1.00  0.00    -0.185 C  
BRANCH  13  14
HETATM   14  C   UNL     1     -10.998   7.792  69.938  1.00  0.00    -0.190 C  
BRANCH  14  15
HETATM   15  N   UNL     1     -11.180   8.190  71.400  1.00  0.00    -0.248 N  
HETATM   16  C   UNL     1     -11.528   6.987  72.270  1.00  0.00    -0.270 C  
HETATM   17  C   UNL     1     -12.243   9.270  71.556  1.00  0.00    -0.362 C  
HETATM   18  C   UNL     1      -9.833   8.750  71.878  1.00  0.00    -0.324 C  
ENDBRANCH  14  15
ENDBRANCH  13  14
ENDBRANCH  12  13
ENDBRANCH  11  12
ENDBRANCH  10  11
ENDBRANCH   9  10
ENDBRANCH   8   9
ENDBRANCH   7   8
ENDBRANCH   6   7
ENDBRANCH   5   6
ENDBRANCH   2   5
TORSDOF 11
ENDMDL
MODEL      132
REMARK 921   NORMALIZED FREE ENERGY PREDICTED BY IDOCK:   -3.14 KCAL/MOL
REMARK 922        TOTAL FREE ENERGY PREDICTED BY IDOCK:   -5.92 KCAL/MOL
REMARK 923 INTER-LIGAND FREE ENERGY PREDICTED BY IDOCK:   -5.17 KCAL/MOL
REMARK 924 INTRA-LIGAND FREE ENERGY PREDICTED BY IDOCK:   -0.76 KCAL/MOL
REMARK 927      BINDING AFFINITY PREDICTED BY RF-SCORE:    0.00 PKD
ROOT
HETATM    1  C   UNL     1     -10.104  19.572  68.578  1.00  0.00    -0.445 C  
HETATM    2  N   UNL     1      -9.146  19.226  67.432  1.00  0.00    -0.291 N  
HETATM    3  C   UNL     1      -8.539  20.517  66.897  1.00  0.00    -0.176 C  
HETATM    4  C   UNL     1      -9.944  18.535  66.337  1.00  0.00    -0.379 C  
ENDROOT
BRANCH   2   5
HETATM    5  C   UNL     1      -8.078  18.311  68.015  1.00  0.00    -0.270 C  
BRANCH   5   6
HETATM    6  C   UNL     1      -8.245  16.831  67.663  1.00  0.00    -0.191 C  
BRANCH   6   7
HETATM    7  C   UNL     1      -8.236  15.976  68.936  1.00  0.00    -0.223 C  
BRANCH   7   8
HETATM    8  C   UNL     1      -9.509  15.138  69.120  1.00  0.00    -0.221 C  
BRANCH   8   9
HETATM    9  C   UNL     1     -10.609  15.875  69.893  1.00  0.00    -0.327 C  
BRANCH   9  10
HETATM   10  C   UNL     1     -12.002  15.307  69.614  1.00  0.00    -0.364 C  
BRANCH  10  11
HETATM   11  C   UNL     1     -12.528  14.448  70.768  1.00  0.00    -0.423 C  
BRANCH  11  12
HETATM   12  C   UNL     1     -12.204  12.957  70.607  1.00  0.00    -0.386 C  
BRANCH  12  13
HETATM   13  C   UNL     1     -12.015  12.527  69.147  1.00  0.00    -0.287 C  
BRANCH  13  14
HETATM   14  C   UNL     1     -11.036  11.357  69.063  1.00  0.00    -0.243 C  
BRANCH  14  15
HETATM   15  N   UNL     1     -10.407  11.158  67.687  1.00  0.00    -0.186 N  
HETATM   16  C   UNL     1     -10.327   9.683  67.313  1.00  0.00    -0.249 C  
HETATM   17  C   UNL     1      -9.023  11.790  67.611  1.00  0.00    -0.169 C  
HETATM   18  C   UNL     1     -11.325  11.858  66.674  1.00  0.00    -0.337 C  
ENDBRANCH  14  15
ENDBRANCH  13  14
ENDBRANCH  12  13
ENDBRANCH  11  12
ENDBRANCH  10  11
ENDBRANCH   9  10
ENDBRANCH   8   9
ENDBRANCH   7   8
ENDBRANCH   6   7
ENDBRANCH   5   6
ENDBRANCH   2   5
TORSDOF 11
ENDMDL
MODEL      133
REMARK 921   NORMALIZED FREE ENERGY PREDICTED BY IDOCK:   -3.13 KCAL/MOL
REMARK 922        TOTAL FREE ENERGY PREDICTED BY IDOCK:   -5.91 KCAL/MOL
REMARK 923 INTER-LIGAND FREE ENERGY PREDICTED BY IDOCK:   -5.15 KCAL/MOL
REMARK 924 INTRA-LIGAND FREE ENERGY PREDICTED BY IDOCK:   -0.76 KCAL/MOL
REMARK 927      BINDING AFFINITY PREDICTED BY RF-SCORE:    0.00 PKD
ROOT
HETATM    1  C   UNL     1     -10.228  20.086  68.482  1.00  0.00    -0.357 C  
HETATM    2  N   UNL     1      -9.907  19.113  67.340  1.00  0.00    -0.317 N  
HETATM    3  C   UNL     1     -10.379  19.727  66.029  1.00  0.00    -0.511 C  
HETATM    4  C   UNL     1     -10.650  17.812  67.600  1.00  0.00    -0.379 C  
ENDROOT
BRANCH   2   5
HETATM    5  C   UNL     1      -8.397  18.912  67.348  1.00  0.00    -0.275 C  
BRANCH   5   6
HETATM    6  C   UNL     1      -7.932  17.559  66.807  1.00  0.00    -0.273 C  
BRANCH   6   7
HETATM    7  C   UNL     1      -7.243  16.750  67.914  1.00  0.00    -0.159 C  
BRANCH   7   8
HETATM    8  C   UNL     1      -6.185  15.770  67.388  1.00  0.00    -0.144 C  
BRANCH   8   9
HETATM    9  C   UNL     1      -6.458  14.316  67.789  1.00  0.00    -0.181 C  
BRANCH   9  10
HETATM   10  C   UNL     1      -7.856  13.847  67.378  1.00  0.00    -0.177 C  
BRANCH  10  11
HETATM   11  C   UNL     1      -8.192  12.454  67.921  1.00  0.00    -0.163 C  
BRANCH  11  12
HETATM   12  C   UNL     1      -8.946  11.579  66.914  1.00  0.00    -0.179 C  
BRANCH  12  13
HETATM   13  C   UNL     1     -10.459  11.829  66.900  1.00  0.00    -0.256 C  
BRANCH  13  14
HETATM   14  C   UNL     1     -10.863  12.558  65.619  1.00  0.00    -0.277 C  
BRANCH  14  15
HETATM   15  N   UNL     1     -11.496  13.928  65.846  1.00  0.00    -0.318 N  
HETATM   16  C   UNL     1     -10.715  15.031  65.142  1.00  0.00    -0.415 C  
HETATM   17  C   UNL     1     -11.621  14.245  67.331  1.00  0.00    -0.369 C  
HETATM   18  C   UNL     1     -12.903  13.874  65.233  1.00  0.00    -0.398 C  
ENDBRANCH  14  15
ENDBRANCH  13  14
ENDBRANCH  12  13
ENDBRANCH  11  12
ENDBRANCH  10  11
ENDBRANCH   9  10
ENDBRANCH   8   9
ENDBRANCH   7   8
ENDBRANCH   6   7
ENDBRANCH   5   6
ENDBRANCH   2   5
TORSDOF 11
ENDMDL
MODEL      134
REMARK 921   NORMALIZED FREE ENERGY PREDICTED BY IDOCK:   -3.13 KCAL/MOL
REMARK 922        TOTAL FREE ENERGY PREDICTED BY IDOCK:   -5.90 KCAL/MOL
REMARK 923 INTER-LIGAND FREE ENERGY PREDICTED BY IDOCK:   -5.36 KCAL/MOL
REMARK 924 INTRA-LIGAND FREE ENERGY PREDICTED BY IDOCK:   -0.54 KCAL/MOL
REMARK 927      BINDING AFFINITY PREDICTED BY RF-SCORE:    0.00 PKD
ROOT
HETATM    1  C   UNL     1      -7.736   5.006  72.816  1.00  0.00    -0.097 C  
HETATM    2  N   UNL     1      -8.983   4.691  71.981  1.00  0.00    -0.125 N  
HETATM    3  C   UNL     1      -9.958   3.898  72.842  1.00  0.00    -0.146 C  
HETATM    4  C   UNL     1      -8.556   3.859  70.781  1.00  0.00    -0.071 C  
ENDROOT
BRANCH   2   5
HETATM    5  C   UNL     1      -9.577   6.028  71.558  1.00  0.00    -0.156 C  
BRANCH   5   6
HETATM    6  C   UNL     1     -11.097   6.023  71.381  1.00  0.00    -0.336 C  
BRANCH   6   7
HETATM    7  C   UNL     1     -11.561   7.325  70.716  1.00  0.00    -0.334 C  
BRANCH   7   8
HETATM    8  C   UNL     1     -10.438   8.076  69.988  1.00  0.00    -0.228 C  
BRANCH   8   9
HETATM    9  C   UNL     1     -10.337   9.551  70.394  1.00  0.00    -0.334 C  
BRANCH   9  10
HETATM   10  C   UNL     1     -11.693  10.146  70.779  1.00  0.00    -0.446 C  
BRANCH  10  11
HETATM   11  C   UNL     1     -12.018  11.422  69.996  1.00  0.00    -0.442 C  
BRANCH  11  12
HETATM   12  C   UNL     1     -11.544  11.373  68.538  1.00  0.00    -0.384 C  
BRANCH  12  13
HETATM   13  C   UNL     1     -11.634  12.726  67.821  1.00  0.00    -0.405 C  
BRANCH  13  14
HETATM   14  C   UNL     1     -10.609  12.794  66.689  1.00  0.00    -0.256 C  
BRANCH  14  15
HETATM   15  N   UNL     1     -11.062  13.602  65.476  1.00  0.00    -0.293 N  
HETATM   16  C   UNL     1     -10.873  12.822  64.180  1.00  0.00    -0.406 C  
HETATM   17  C   UNL     1     -10.331  14.936  65.391  1.00  0.00    -0.388 C  
HETATM   18  C   UNL     1     -12.563  13.871  65.657  1.00  0.00    -0.517 C  
ENDBRANCH  14  15
ENDBRANCH  13  14
ENDBRANCH  12  13
ENDBRANCH  11  12
ENDBRANCH  10  11
ENDBRANCH   9  10
ENDBRANCH   8   9
ENDBRANCH   7   8
ENDBRANCH   6   7
ENDBRANCH   5   6
ENDBRANCH   2   5
TORSDOF 11
ENDMDL
MODEL      135
REMARK 921   NORMALIZED FREE ENERGY PREDICTED BY IDOCK:   -3.12 KCAL/MOL
REMARK 922        TOTAL FREE ENERGY PREDICTED BY IDOCK:   -5.89 KCAL/MOL
REMARK 923 INTER-LIGAND FREE ENERGY PREDICTED BY IDOCK:   -5.33 KCAL/MOL
REMARK 924 INTRA-LIGAND FREE ENERGY PREDICTED BY IDOCK:   -0.55 KCAL/MOL
REMARK 927      BINDING AFFINITY PREDICTED BY RF-SCORE:    0.00 PKD
ROOT
HETATM    1  C   UNL     1     -10.896   7.383  73.019  1.00  0.00    -0.375 C  
HETATM    2  N   UNL     1     -10.104   6.079  72.864  1.00  0.00    -0.178 N  
HETATM    3  C   UNL     1     -10.883   4.953  73.531  1.00  0.00    -0.305 C  
HETATM    4  C   UNL     1      -8.758   6.256  73.550  1.00  0.00    -0.124 C  
ENDROOT
BRANCH   2   5
HETATM    5  C   UNL     1      -9.948   5.837  71.369  1.00  0.00    -0.185 C  
BRANCH   5   6
HETATM    6  C   UNL     1     -11.086   6.393  70.511  1.00  0.00    -0.388 C  
BRANCH   6   7
HETATM    7  C   UNL     1     -10.936   5.928  69.057  1.00  0.00    -0.359 C  
BRANCH   7   8
HETATM    8  C   UNL     1     -10.892   7.082  68.046  1.00  0.00    -0.229 C  
BRANCH   8   9
HETATM    9  C   UNL     1     -10.384   8.395  68.653  1.00  0.00    -0.222 C  
BRANCH   9  10
HETATM   10  C   UNL     1     -10.101   9.459  67.590  1.00  0.00    -0.262 C  
BRANCH  10  11
HETATM   11  C   UNL     1     -11.148  10.578  67.586  1.00  0.00    -0.375 C  
BRANCH  11  12
HETATM   12  C   UNL     1     -11.331  11.240  68.957  1.00  0.00    -0.344 C  
BRANCH  12  13
HETATM   13  C   UNL     1     -11.399  12.770  68.893  1.00  0.00    -0.344 C  
BRANCH  13  14
HETATM   14  C   UNL     1     -10.412  13.301  67.853  1.00  0.00    -0.240 C  
BRANCH  14  15
HETATM   15  N   UNL     1     -10.933  14.477  67.032  1.00  0.00    -0.305 N  
HETATM   16  C   UNL     1     -11.120  15.722  67.891  1.00  0.00    -0.326 C  
HETATM   17  C   UNL     1     -12.238  14.130  66.327  1.00  0.00    -0.449 C  
HETATM   18  C   UNL     1      -9.865  14.785  65.972  1.00  0.00    -0.324 C  
ENDBRANCH  14  15
ENDBRANCH  13  14
ENDBRANCH  12  13
ENDBRANCH  11  12
ENDBRANCH  10  11
ENDBRANCH   9  10
ENDBRANCH   8   9
ENDBRANCH   7   8
ENDBRANCH   6   7
ENDBRANCH   5   6
ENDBRANCH   2   5
TORSDOF 11
ENDMDL
MODEL      136
REMARK 921   NORMALIZED FREE ENERGY PREDICTED BY IDOCK:   -3.11 KCAL/MOL
REMARK 922        TOTAL FREE ENERGY PREDICTED BY IDOCK:   -5.88 KCAL/MOL
REMARK 923 INTER-LIGAND FREE ENERGY PREDICTED BY IDOCK:   -5.39 KCAL/MOL
REMARK 924 INTRA-LIGAND FREE ENERGY PREDICTED BY IDOCK:   -0.49 KCAL/MOL
REMARK 927      BINDING AFFINITY PREDICTED BY RF-SCORE:    0.00 PKD
ROOT
HETATM    1  C   UNL     1     -10.631   8.044  70.570  1.00  0.00    -0.220 C  
HETATM    2  N   UNL     1     -11.223   6.640  70.744  1.00  0.00    -0.293 N  
HETATM    3  C   UNL     1     -12.715   6.770  71.021  1.00  0.00    -0.132 C  
HETATM    4  C   UNL     1     -10.532   5.975  71.925  1.00  0.00    -0.218 C  
ENDROOT
BRANCH   2   5
HETATM    5  C   UNL     1     -10.964   5.891  69.444  1.00  0.00    -0.350 C  
BRANCH   5   6
HETATM    6  C   UNL     1     -11.284   6.685  68.176  1.00  0.00    -0.207 C  
BRANCH   6   7
HETATM    7  C   UNL     1     -10.683   5.994  66.946  1.00  0.00    -0.407 C  
BRANCH   7   8
HETATM    8  C   UNL     1      -9.593   6.821  66.251  1.00  0.00    -0.087 C  
BRANCH   8   9
HETATM    9  C   UNL     1      -9.666   8.316  66.582  1.00  0.00    -0.321 C  
BRANCH   9  10
HETATM   10  C   UNL     1      -9.144   9.194  65.443  1.00  0.00    -0.271 C  
BRANCH  10  11
HETATM   11  C   UNL     1      -9.805  10.576  65.418  1.00  0.00    -0.335 C  
BRANCH  11  12
HETATM   12  C   UNL     1     -10.286  10.992  64.023  1.00  0.00    -0.436 C  
BRANCH  12  13
HETATM   13  C   UNL     1     -11.008  12.345  64.003  1.00  0.00    -0.442 C  
BRANCH  13  14
HETATM   14  C   UNL     1     -10.448  13.259  65.092  1.00  0.00    -0.333 C  
BRANCH  14  15
HETATM   15  N   UNL     1     -11.476  14.200  65.715  1.00  0.00    -0.321 N  
HETATM   16  C   UNL     1     -11.195  14.438  67.194  1.00  0.00    -0.328 C  
HETATM   17  C   UNL     1     -12.894  13.675  65.532  1.00  0.00    -0.392 C  
HETATM   18  C   UNL     1     -11.348  15.544  64.982  1.00  0.00    -0.299 C  
ENDBRANCH  14  15
ENDBRANCH  13  14
ENDBRANCH  12  13
ENDBRANCH  11  12
ENDBRANCH  10  11
ENDBRANCH   9  10
ENDBRANCH   8   9
ENDBRANCH   7   8
ENDBRANCH   6   7
ENDBRANCH   5   6
ENDBRANCH   2   5
TORSDOF 11
ENDMDL
MODEL      137
REMARK 921   NORMALIZED FREE ENERGY PREDICTED BY IDOCK:   -3.11 KCAL/MOL
REMARK 922        TOTAL FREE ENERGY PREDICTED BY IDOCK:   -5.87 KCAL/MOL
REMARK 923 INTER-LIGAND FREE ENERGY PREDICTED BY IDOCK:   -4.94 KCAL/MOL
REMARK 924 INTRA-LIGAND FREE ENERGY PREDICTED BY IDOCK:   -0.93 KCAL/MOL
REMARK 927      BINDING AFFINITY PREDICTED BY RF-SCORE:    0.00 PKD
ROOT
HETATM    1  C   UNL     1      -8.020   5.798  66.523  1.00  0.00    -0.102 C  
HETATM    2  N   UNL     1      -9.057   6.343  67.513  1.00  0.00    -0.115 N  
HETATM    3  C   UNL     1      -8.722   5.826  68.905  1.00  0.00    -0.111 C  
HETATM    4  C   UNL     1     -10.429   5.841  67.089  1.00  0.00    -0.273 C  
ENDROOT
BRANCH   2   5
HETATM    5  C   UNL     1      -8.967   7.862  67.448  1.00  0.00    -0.127 C  
BRANCH   5   6
HETATM    6  C   UNL     1     -10.100   8.535  66.671  1.00  0.00    -0.364 C  
BRANCH   6   7
HETATM    7  C   UNL     1     -10.437   9.898  67.289  1.00  0.00    -0.319 C  
BRANCH   7   8
HETATM    8  C   UNL     1     -10.795  10.970  66.250  1.00  0.00    -0.234 C  
BRANCH   8   9
HETATM    9  C   UNL     1     -10.871  12.382  66.842  1.00  0.00    -0.286 C  
BRANCH   9  10
HETATM   10  C   UNL     1     -10.665  12.393  68.359  1.00  0.00    -0.254 C  
BRANCH  10  11
HETATM   11  C   UNL     1     -11.899  12.898  69.114  1.00  0.00    -0.353 C  
BRANCH  11  12
HETATM   12  C   UNL     1     -12.151  12.150  70.429  1.00  0.00    -0.395 C  
BRANCH  12  13
HETATM   13  C   UNL     1     -12.334  10.639  70.247  1.00  0.00    -0.406 C  
BRANCH  13  14
HETATM   14  C   UNL     1     -11.223   9.879  70.973  1.00  0.00    -0.364 C  
BRANCH  14  15
HETATM   15  N   UNL     1     -11.650   8.529  71.541  1.00  0.00    -0.275 N  
HETATM   16  C   UNL     1     -11.645   7.443  70.471  1.00  0.00    -0.229 C  
HETATM   17  C   UNL     1     -13.023   8.608  72.195  1.00  0.00    -0.387 C  
HETATM   18  C   UNL     1     -10.614   8.150  72.609  1.00  0.00    -0.344 C  
ENDBRANCH  14  15
ENDBRANCH  13  14
ENDBRANCH  12  13
ENDBRANCH  11  12
ENDBRANCH  10  11
ENDBRANCH   9  10
ENDBRANCH   8   9
ENDBRANCH   7   8
ENDBRANCH   6   7
ENDBRANCH   5   6
ENDBRANCH   2   5
TORSDOF 11
ENDMDL
MODEL      138
REMARK 921   NORMALIZED FREE ENERGY PREDICTED BY IDOCK:   -3.10 KCAL/MOL
REMARK 922        TOTAL FREE ENERGY PREDICTED BY IDOCK:   -5.87 KCAL/MOL
REMARK 923 INTER-LIGAND FREE ENERGY PREDICTED BY IDOCK:   -5.31 KCAL/MOL
REMARK 924 INTRA-LIGAND FREE ENERGY PREDICTED BY IDOCK:   -0.56 KCAL/MOL
REMARK 927      BINDING AFFINITY PREDICTED BY RF-SCORE:    0.00 PKD
ROOT
HETATM    1  C   UNL     1     -10.248   9.571  66.906  1.00  0.00    -0.249 C  
HETATM    2  N   UNL     1      -9.758  10.734  66.035  1.00  0.00    -0.208 N  
HETATM    3  C   UNL     1     -10.212  10.493  64.601  1.00  0.00    -0.294 C  
HETATM    4  C   UNL     1      -8.239  10.770  66.099  1.00  0.00    -0.163 C  
ENDROOT
BRANCH   2   5
HETATM    5  C   UNL     1     -10.378  12.002  66.607  1.00  0.00    -0.208 C  
BRANCH   5   6
HETATM    6  C   UNL     1     -10.262  12.137  68.127  1.00  0.00    -0.203 C  
BRANCH   6   7
HETATM    7  C   UNL     1     -11.653  12.280  68.758  1.00  0.00    -0.380 C  
BRANCH   7   8
HETATM    8  C   UNL     1     -12.155  13.729  68.813  1.00  0.00    -0.344 C  
BRANCH   8   9
HETATM    9  C   UNL     1     -12.038  14.355  70.208  1.00  0.00    -0.396 C  
BRANCH   9  10
HETATM   10  C   UNL     1     -10.912  15.388  70.293  1.00  0.00    -0.336 C  
BRANCH  10  11
HETATM   11  C   UNL     1     -10.465  15.883  68.914  1.00  0.00    -0.233 C  
BRANCH  11  12
HETATM   12  C   UNL     1     -10.360  17.411  68.826  1.00  0.00    -0.357 C  
BRANCH  12  13
HETATM   13  C   UNL     1     -10.393  17.943  67.388  1.00  0.00    -0.383 C  
BRANCH  13  14
HETATM   14  C   UNL     1      -8.971  18.109  66.852  1.00  0.00    -0.271 C  
BRANCH  14  15
HETATM   15  N   UNL     1      -8.418  19.527  66.958  1.00  0.00    -0.285 N  
HETATM   16  C   UNL     1      -9.529  20.548  67.177  1.00  0.00    -0.404 C  
HETATM   17  C   UNL     1      -7.604  19.900  65.726  1.00  0.00    -0.297 C  
HETATM   18  C   UNL     1      -7.496  19.553  68.185  1.00  0.00    -0.300 C  
ENDBRANCH  14  15
ENDBRANCH  13  14
ENDBRANCH  12  13
ENDBRANCH  11  12
ENDBRANCH  10  11
ENDBRANCH   9  10
ENDBRANCH   8   9
ENDBRANCH   7   8
ENDBRANCH   6   7
ENDBRANCH   5   6
ENDBRANCH   2   5
TORSDOF 11
ENDMDL
MODEL      139
REMARK 921   NORMALIZED FREE ENERGY PREDICTED BY IDOCK:   -3.08 KCAL/MOL
REMARK 922        TOTAL FREE ENERGY PREDICTED BY IDOCK:   -5.83 KCAL/MOL
REMARK 923 INTER-LIGAND FREE ENERGY PREDICTED BY IDOCK:   -4.78 KCAL/MOL
REMARK 924 INTRA-LIGAND FREE ENERGY PREDICTED BY IDOCK:   -1.06 KCAL/MOL
REMARK 927      BINDING AFFINITY PREDICTED BY RF-SCORE:    0.00 PKD
ROOT
HETATM    1  C   UNL     1      -6.868  12.900  68.576  1.00  0.00    -0.095 C  
HETATM    2  N   UNL     1      -6.593  14.402  68.714  1.00  0.00    -0.085 N  
HETATM    3  C   UNL     1      -5.313  14.736  67.958  1.00  0.00    -0.115 C  
HETATM    4  C   UNL     1      -6.421  14.722  70.191  1.00  0.00    -0.163 C  
ENDROOT
BRANCH   2   5
HETATM    5  C   UNL     1      -7.794  15.123  68.117  1.00  0.00    -0.125 C  
BRANCH   5   6
HETATM    6  C   UNL     1      -8.591  15.967  69.114  1.00  0.00    -0.252 C  
BRANCH   6   7
HETATM    7  C   UNL     1      -8.642  17.429  68.656  1.00  0.00    -0.259 C  
BRANCH   7   8
HETATM    8  C   UNL     1     -10.038  18.058  68.768  1.00  0.00    -0.388 C  
BRANCH   8   9
HETATM    9  C   UNL     1     -10.313  19.112  67.688  1.00  0.00    -0.521 C  
BRANCH   9  10
HETATM   10  C   UNL     1      -9.920  18.633  66.289  1.00  0.00    -0.398 C  
BRANCH  10  11
HETATM   11  C   UNL     1     -10.881  17.573  65.740  1.00  0.00     0.012 C  
BRANCH  11  12
HETATM   12  C   UNL     1     -10.229  16.195  65.573  1.00  0.00    -0.360 C  
BRANCH  12  13
HETATM   13  C   UNL     1     -11.007  15.064  66.257  1.00  0.00    -0.338 C  
BRANCH  13  14
HETATM   14  C   UNL     1     -10.274  13.735  66.081  1.00  0.00    -0.301 C  
BRANCH  14  15
HETATM   15  N   UNL     1     -11.090  12.652  65.380  1.00  0.00    -0.285 N  
HETATM   16  C   UNL     1     -10.465  12.252  64.049  1.00  0.00    -0.399 C  
HETATM   17  C   UNL     1     -12.532  13.092  65.167  1.00  0.00    -0.483 C  
HETATM   18  C   UNL     1     -11.079  11.423  66.301  1.00  0.00    -0.221 C  
ENDBRANCH  14  15
ENDBRANCH  13  14
ENDBRANCH  12  13
ENDBRANCH  11  12
ENDBRANCH  10  11
ENDBRANCH   9  10
ENDBRANCH   8   9
ENDBRANCH   7   8
ENDBRANCH   6   7
ENDBRANCH   5   6
ENDBRANCH   2   5
TORSDOF 11
ENDMDL
MODEL      140
REMARK 921   NORMALIZED FREE ENERGY PREDICTED BY IDOCK:   -3.08 KCAL/MOL
REMARK 922        TOTAL FREE ENERGY PREDICTED BY IDOCK:   -5.82 KCAL/MOL
REMARK 923 INTER-LIGAND FREE ENERGY PREDICTED BY IDOCK:   -5.37 KCAL/MOL
REMARK 924 INTRA-LIGAND FREE ENERGY PREDICTED BY IDOCK:   -0.45 KCAL/MOL
REMARK 927      BINDING AFFINITY PREDICTED BY RF-SCORE:    0.00 PKD
ROOT
HETATM    1  C   UNL     1     -13.572  12.853  72.291  1.00  0.00    -0.515 C  
HETATM    2  N   UNL     1     -13.213  14.340  72.173  1.00  0.00    -0.369 N  
HETATM    3  C   UNL     1     -12.902  14.878  73.564  1.00  0.00    -0.463 C  
HETATM    4  C   UNL     1     -14.410  15.074  71.589  1.00  0.00    -0.584 C  
ENDROOT
BRANCH   2   5
HETATM    5  C   UNL     1     -11.997  14.427  71.260  1.00  0.00    -0.291 C  
BRANCH   5   6
HETATM    6  C   UNL     1     -12.312  14.822  69.816  1.00  0.00    -0.291 C  
BRANCH   6   7
HETATM    7  C   UNL     1     -11.048  14.737  68.952  1.00  0.00    -0.264 C  
BRANCH   7   8
HETATM    8  C   UNL     1     -11.279  15.134  67.488  1.00  0.00    -0.331 C  
BRANCH   8   9
HETATM    9  C   UNL     1     -12.210  14.171  66.741  1.00  0.00    -0.429 C  
BRANCH   9  10
HETATM   10  C   UNL     1     -11.626  13.713  65.402  1.00  0.00    -0.334 C  
BRANCH  10  11
HETATM   11  C   UNL     1     -10.369  12.855  65.573  1.00  0.00    -0.304 C  
BRANCH  11  12
HETATM   12  C   UNL     1     -10.601  11.372  65.256  1.00  0.00    -0.336 C  
BRANCH  12  13
HETATM   13  C   UNL     1      -9.468  10.459  65.738  1.00  0.00    -0.247 C  
BRANCH  13  14
HETATM   14  C   UNL     1      -9.139   9.415  64.672  1.00  0.00    -0.173 C  
BRANCH  14  15
HETATM   15  N   UNL     1      -7.656   9.312  64.326  1.00  0.00    -0.108 N  
HETATM   16  C   UNL     1      -7.372   9.819  62.917  1.00  0.00    -0.115 C  
HETATM   17  C   UNL     1      -7.146   7.884  64.478  1.00  0.00    -0.073 C  
HETATM   18  C   UNL     1      -6.905  10.212  65.319  1.00  0.00    -0.137 C  
ENDBRANCH  14  15
ENDBRANCH  13  14
ENDBRANCH  12  13
ENDBRANCH  11  12
ENDBRANCH  10  11
ENDBRANCH   9  10
ENDBRANCH   8   9
ENDBRANCH   7   8
ENDBRANCH   6   7
ENDBRANCH   5   6
ENDBRANCH   2   5
TORSDOF 11
ENDMDL
MODEL      141
REMARK 921   NORMALIZED FREE ENERGY PREDICTED BY IDOCK:   -3.07 KCAL/MOL
REMARK 922        TOTAL FREE ENERGY PREDICTED BY IDOCK:   -5.81 KCAL/MOL
REMARK 923 INTER-LIGAND FREE ENERGY PREDICTED BY IDOCK:   -4.93 KCAL/MOL
REMARK 924 INTRA-LIGAND FREE ENERGY PREDICTED BY IDOCK:   -0.88 KCAL/MOL
REMARK 927      BINDING AFFINITY PREDICTED BY RF-SCORE:    0.00 PKD
ROOT
HETATM    1  C   UNL     1     -10.376   7.959  67.023  1.00  0.00    -0.341 C  
HETATM    2  N   UNL     1      -9.041   8.631  67.369  1.00  0.00    -0.132 N  
HETATM    3  C   UNL     1      -8.199   8.724  66.104  1.00  0.00    -0.117 C  
HETATM    4  C   UNL     1      -8.330   7.772  68.404  1.00  0.00    -0.125 C  
ENDROOT
BRANCH   2   5
HETATM    5  C   UNL     1      -9.376  10.012  67.916  1.00  0.00    -0.140 C  
BRANCH   5   6
HETATM    6  C   UNL     1      -9.748  10.038  69.399  1.00  0.00    -0.240 C  
BRANCH   6   7
HETATM    7  C   UNL     1     -11.163  10.599  69.586  1.00  0.00    -0.351 C  
BRANCH   7   8
HETATM    8  C   UNL     1     -11.833  10.149  70.892  1.00  0.00    -0.468 C  
BRANCH   8   9
HETATM    9  C   UNL     1     -13.111  10.931  71.214  1.00  0.00    -0.405 C  
BRANCH   9  10
HETATM   10  C   UNL     1     -12.826  12.241  71.952  1.00  0.00    -0.318 C  
BRANCH  10  11
HETATM   11  C   UNL     1     -13.134  13.475  71.098  1.00  0.00    -0.285 C  
BRANCH  11  12
HETATM   12  C   UNL     1     -11.875  14.168  70.562  1.00  0.00    -0.352 C  
BRANCH  12  13
HETATM   13  C   UNL     1     -11.959  14.522  69.073  1.00  0.00    -0.334 C  
BRANCH  13  14
HETATM   14  C   UNL     1     -10.590  14.364  68.412  1.00  0.00    -0.247 C  
BRANCH  14  15
HETATM   15  N   UNL     1      -9.868  15.680  68.135  1.00  0.00    -0.212 N  
HETATM   16  C   UNL     1      -8.687  15.882  69.078  1.00  0.00    -0.236 C  
HETATM   17  C   UNL     1     -10.818  16.867  68.231  1.00  0.00    -0.357 C  
HETATM   18  C   UNL     1      -9.326  15.595  66.701  1.00  0.00    -0.265 C  
ENDBRANCH  14  15
ENDBRANCH  13  14
ENDBRANCH  12  13
ENDBRANCH  11  12
ENDBRANCH  10  11
ENDBRANCH   9  10
ENDBRANCH   8   9
ENDBRANCH   7   8
ENDBRANCH   6   7
ENDBRANCH   5   6
ENDBRANCH   2   5
TORSDOF 11
ENDMDL
MODEL      142
REMARK 921   NORMALIZED FREE ENERGY PREDICTED BY IDOCK:   -3.07 KCAL/MOL
REMARK 922        TOTAL FREE ENERGY PREDICTED BY IDOCK:   -5.81 KCAL/MOL
REMARK 923 INTER-LIGAND FREE ENERGY PREDICTED BY IDOCK:   -4.72 KCAL/MOL
REMARK 924 INTRA-LIGAND FREE ENERGY PREDICTED BY IDOCK:   -1.08 KCAL/MOL
REMARK 927      BINDING AFFINITY PREDICTED BY RF-SCORE:    0.00 PKD
ROOT
HETATM    1  C   UNL     1     -11.266  12.189  65.836  1.00  0.00    -0.339 C  
HETATM    2  N   UNL     1     -10.735  12.934  67.067  1.00  0.00    -0.255 N  
HETATM    3  C   UNL     1     -11.681  14.084  67.387  1.00  0.00    -0.388 C  
HETATM    4  C   UNL     1      -9.353  13.476  66.736  1.00  0.00    -0.257 C  
ENDROOT
BRANCH   2   5
HETATM    5  C   UNL     1     -10.687  11.922  68.204  1.00  0.00    -0.215 C  
BRANCH   5   6
HETATM    6  C   UNL     1     -11.078  10.498  67.806  1.00  0.00    -0.382 C  
BRANCH   6   7
HETATM    7  C   UNL     1      -9.833   9.607  67.718  1.00  0.00    -0.192 C  
BRANCH   7   8
HETATM    8  C   UNL     1      -9.975   8.452  66.717  1.00  0.00    -0.354 C  
BRANCH   8   9
HETATM    9  C   UNL     1     -10.802   7.281  67.260  1.00  0.00    -0.354 C  
BRANCH   9  10
HETATM   10  C   UNL     1     -10.175   6.649  68.505  1.00  0.00    -0.185 C  
BRANCH  10  11
HETATM   11  C   UNL     1     -11.214   5.969  69.403  1.00  0.00    -0.397 C  
BRANCH  11  12
HETATM   12  C   UNL     1     -12.053   6.963  70.216  1.00  0.00    -0.182 C  
BRANCH  12  13
HETATM   13  C   UNL     1     -11.215   8.031  70.928  1.00  0.00    -0.282 C  
BRANCH  13  14
HETATM   14  C   UNL     1     -10.615   7.464  72.214  1.00  0.00    -0.232 C  
BRANCH  14  15
HETATM   15  N   UNL     1      -9.100   7.612  72.322  1.00  0.00    -0.133 N  
HETATM   16  C   UNL     1      -8.674   8.009  73.731  1.00  0.00    -0.265 C  
HETATM   17  C   UNL     1      -8.566   8.621  71.313  1.00  0.00    -0.187 C  
HETATM   18  C   UNL     1      -8.496   6.235  72.010  1.00  0.00    -0.123 C  
ENDBRANCH  14  15
ENDBRANCH  13  14
ENDBRANCH  12  13
ENDBRANCH  11  12
ENDBRANCH  10  11
ENDBRANCH   9  10
ENDBRANCH   8   9
ENDBRANCH   7   8
ENDBRANCH   6   7
ENDBRANCH   5   6
ENDBRANCH   2   5
TORSDOF 11
ENDMDL
MODEL      143
REMARK 921   NORMALIZED FREE ENERGY PREDICTED BY IDOCK:   -3.07 KCAL/MOL
REMARK 922        TOTAL FREE ENERGY PREDICTED BY IDOCK:   -5.80 KCAL/MOL
REMARK 923 INTER-LIGAND FREE ENERGY PREDICTED BY IDOCK:   -5.09 KCAL/MOL
REMARK 924 INTRA-LIGAND FREE ENERGY PREDICTED BY IDOCK:   -0.71 KCAL/MOL
REMARK 927      BINDING AFFINITY PREDICTED BY RF-SCORE:    0.00 PKD
ROOT
HETATM    1  C   UNL     1     -10.804   8.119  72.699  1.00  0.00    -0.359 C  
HETATM    2  N   UNL     1     -11.583   8.435  71.416  1.00  0.00    -0.273 N  
HETATM    3  C   UNL     1     -12.918   9.062  71.798  1.00  0.00    -0.377 C  
HETATM    4  C   UNL     1     -11.818   7.132  70.668  1.00  0.00    -0.291 C  
ENDROOT
BRANCH   2   5
HETATM    5  C   UNL     1     -10.726   9.402  70.611  1.00  0.00    -0.290 C  
BRANCH   5   6
HETATM    6  C   UNL     1     -11.498  10.558  69.973  1.00  0.00    -0.393 C  
BRANCH   6   7
HETATM    7  C   UNL     1     -11.318  10.545  68.449  1.00  0.00    -0.328 C  
BRANCH   7   8
HETATM    8  C   UNL     1     -11.289  11.946  67.824  1.00  0.00    -0.361 C  
BRANCH   8   9
HETATM    9  C   UNL     1     -10.166  12.831  68.377  1.00  0.00    -0.237 C  
BRANCH   9  10
HETATM   10  C   UNL     1      -8.775  12.282  68.055  1.00  0.00    -0.181 C  
BRANCH  10  11
HETATM   11  C   UNL     1      -7.928  13.269  67.245  1.00  0.00    -0.134 C  
BRANCH  11  12
HETATM   12  C   UNL     1      -7.687  14.597  67.972  1.00  0.00    -0.136 C  
BRANCH  12  13
HETATM   13  C   UNL     1      -8.034  15.828  67.126  1.00  0.00    -0.250 C  
BRANCH  13  14
HETATM   14  C   UNL     1      -8.881  16.807  67.938  1.00  0.00    -0.218 C  
BRANCH  14  15
HETATM   15  N   UNL     1     -10.355  16.843  67.544  1.00  0.00    -0.310 N  
HETATM   16  C   UNL     1     -11.251  16.364  68.681  1.00  0.00    -0.332 C  
HETATM   17  C   UNL     1     -10.617  16.016  66.292  1.00  0.00    -0.285 C  
HETATM   18  C   UNL     1     -10.700  18.309  67.249  1.00  0.00    -0.337 C  
ENDBRANCH  14  15
ENDBRANCH  13  14
ENDBRANCH  12  13
ENDBRANCH  11  12
ENDBRANCH  10  11
ENDBRANCH   9  10
ENDBRANCH   8   9
ENDBRANCH   7   8
ENDBRANCH   6   7
ENDBRANCH   5   6
ENDBRANCH   2   5
TORSDOF 11
ENDMDL
MODEL      144
REMARK 921   NORMALIZED FREE ENERGY PREDICTED BY IDOCK:   -3.04 KCAL/MOL
REMARK 922        TOTAL FREE ENERGY PREDICTED BY IDOCK:   -5.76 KCAL/MOL
REMARK 923 INTER-LIGAND FREE ENERGY PREDICTED BY IDOCK:   -5.01 KCAL/MOL
REMARK 924 INTRA-LIGAND FREE ENERGY PREDICTED BY IDOCK:   -0.74 KCAL/MOL
REMARK 927      BINDING AFFINITY PREDICTED BY RF-SCORE:    0.00 PKD
ROOT
HETATM    1  C   UNL     1      -9.224   5.600  70.141  1.00  0.00    -0.142 C  
HETATM    2  N   UNL     1      -9.869   6.840  70.773  1.00  0.00    -0.183 N  
HETATM    3  C   UNL     1      -8.783   7.658  71.460  1.00  0.00    -0.120 C  
HETATM    4  C   UNL     1     -10.894   6.375  71.796  1.00  0.00    -0.241 C  
ENDROOT
BRANCH   2   5
HETATM    5  C   UNL     1     -10.519   7.622  69.639  1.00  0.00    -0.235 C  
BRANCH   5   6
HETATM    6  C   UNL     1     -10.009   9.055  69.479  1.00  0.00    -0.193 C  
BRANCH   6   7
HETATM    7  C   UNL     1     -11.108  10.058  69.854  1.00  0.00    -0.336 C  
BRANCH   7   8
HETATM    8  C   UNL     1     -11.162  11.281  68.928  1.00  0.00    -0.315 C  
BRANCH   8   9
HETATM    9  C   UNL     1     -11.375  10.914  67.455  1.00  0.00    -0.309 C  
BRANCH   9  10
HETATM   10  C   UNL     1     -10.283  11.482  66.546  1.00  0.00    -0.253 C  
BRANCH  10  11
HETATM   11  C   UNL     1     -10.847  12.396  65.453  1.00  0.00    -0.320 C  
BRANCH  11  12
HETATM   12  C   UNL     1     -12.180  13.049  65.839  1.00  0.00    -0.493 C  
BRANCH  12  13
HETATM   13  C   UNL     1     -12.017  14.332  66.663  1.00  0.00    -0.454 C  
BRANCH  13  14
HETATM   14  C   UNL     1     -10.888  15.189  66.090  1.00  0.00    -0.330 C  
BRANCH  14  15
HETATM   15  N   UNL     1      -9.930  15.751  67.136  1.00  0.00    -0.238 N  
HETATM   16  C   UNL     1      -8.635  16.247  66.503  1.00  0.00    -0.297 C  
HETATM   17  C   UNL     1      -9.620  14.722  68.216  1.00  0.00    -0.215 C  
HETATM   18  C   UNL     1     -10.635  16.951  67.785  1.00  0.00    -0.340 C  
ENDBRANCH  14  15
ENDBRANCH  13  14
ENDBRANCH  12  13
ENDBRANCH  11  12
ENDBRANCH  10  11
ENDBRANCH   9  10
ENDBRANCH   8   9
ENDBRANCH   7   8
ENDBRANCH   6   7
ENDBRANCH   5   6
ENDBRANCH   2   5
TORSDOF 11
ENDMDL
MODEL      145
REMARK 921   NORMALIZED FREE ENERGY PREDICTED BY IDOCK:   -3.03 KCAL/MOL
REMARK 922        TOTAL FREE ENERGY PREDICTED BY IDOCK:   -5.74 KCAL/MOL
REMARK 923 INTER-LIGAND FREE ENERGY PREDICTED BY IDOCK:   -5.37 KCAL/MOL
REMARK 924 INTRA-LIGAND FREE ENERGY PREDICTED BY IDOCK:   -0.38 KCAL/MOL
REMARK 927      BINDING AFFINITY PREDICTED BY RF-SCORE:    0.00 PKD
ROOT
HETATM    1  C   UNL     1     -10.462   7.073  68.264  1.00  0.00    -0.202 C  
HETATM    2  N   UNL     1     -10.283   7.128  69.786  1.00  0.00    -0.202 N  
HETATM    3  C   UNL     1      -9.002   6.391  70.154  1.00  0.00    -0.154 C  
HETATM    4  C   UNL     1     -11.479   6.445  70.431  1.00  0.00    -0.393 C  
ENDROOT
BRANCH   2   5
HETATM    5  C   UNL     1     -10.204   8.602  70.164  1.00  0.00    -0.192 C  
BRANCH   5   6
HETATM    6  C   UNL     1     -10.738   9.562  69.100  1.00  0.00    -0.228 C  
BRANCH   6   7
HETATM    7  C   UNL     1     -10.614  11.013  69.579  1.00  0.00    -0.182 C  
BRANCH   7   8
HETATM    8  C   UNL     1     -10.468  12.026  68.435  1.00  0.00    -0.231 C  
BRANCH   8   9
HETATM    9  C   UNL     1     -11.785  12.723  68.074  1.00  0.00    -0.405 C  
BRANCH   9  10
HETATM   10  C   UNL     1     -12.109  13.887  69.013  1.00  0.00    -0.365 C  
BRANCH  10  11
HETATM   11  C   UNL     1     -11.610  15.232  68.474  1.00  0.00    -0.368 C  
BRANCH  11  12
HETATM   12  C   UNL     1     -11.128  15.158  67.019  1.00  0.00    -0.328 C  
BRANCH  12  13
HETATM   13  C   UNL     1     -10.508  16.467  66.515  1.00  0.00    -0.282 C  
BRANCH  13  14
HETATM   14  C   UNL     1     -10.350  17.457  67.668  1.00  0.00    -0.355 C  
BRANCH  14  15
HETATM   15  N   UNL     1      -9.819  18.827  67.255  1.00  0.00    -0.307 N  
HETATM   16  C   UNL     1     -10.429  19.292  65.938  1.00  0.00    -0.451 C  
HETATM   17  C   UNL     1      -8.300  18.828  67.154  1.00  0.00    -0.271 C  
HETATM   18  C   UNL     1     -10.242  19.816  68.352  1.00  0.00    -0.449 C  
ENDBRANCH  14  15
ENDBRANCH  13  14
ENDBRANCH  12  13
ENDBRANCH  11  12
ENDBRANCH  10  11
ENDBRANCH   9  10
ENDBRANCH   8   9
ENDBRANCH   7   8
ENDBRANCH   6   7
ENDBRANCH   5   6
ENDBRANCH   2   5
TORSDOF 11
ENDMDL
MODEL      146
REMARK 921   NORMALIZED FREE ENERGY PREDICTED BY IDOCK:   -3.02 KCAL/MOL
REMARK 922        TOTAL FREE ENERGY PREDICTED BY IDOCK:   -5.73 KCAL/MOL
REMARK 923 INTER-LIGAND FREE ENERGY PREDICTED BY IDOCK:   -5.17 KCAL/MOL
REMARK 924 INTRA-LIGAND FREE ENERGY PREDICTED BY IDOCK:   -0.56 KCAL/MOL
REMARK 927      BINDING AFFINITY PREDICTED BY RF-SCORE:    0.00 PKD
ROOT
HETATM    1  C   UNL     1     -10.137   6.438  74.402  1.00  0.00    -0.348 C  
HETATM    2  N   UNL     1     -10.383   5.711  73.073  1.00  0.00    -0.192 N  
HETATM    3  C   UNL     1     -10.862   4.296  73.373  1.00  0.00    -0.253 C  
HETATM    4  C   UNL     1      -9.071   5.663  72.306  1.00  0.00    -0.139 C  
ENDROOT
BRANCH   2   5
HETATM    5  C   UNL     1     -11.444   6.510  72.328  1.00  0.00    -0.289 C  
BRANCH   5   6
HETATM    6  C   UNL     1     -11.391   8.020  72.567  1.00  0.00    -0.469 C  
BRANCH   6   7
HETATM    7  C   UNL     1     -11.351   8.772  71.231  1.00  0.00    -0.357 C  
BRANCH   7   8
HETATM    8  C   UNL     1     -10.944   7.889  70.044  1.00  0.00    -0.208 C  
BRANCH   8   9
HETATM    9  C   UNL     1     -10.329   8.683  68.885  1.00  0.00    -0.228 C  
BRANCH   9  10
HETATM   10  C   UNL     1      -9.729  10.015  69.341  1.00  0.00    -0.240 C  
BRANCH  10  11
HETATM   11  C   UNL     1     -10.031  11.158  68.366  1.00  0.00    -0.193 C  
BRANCH  11  12
HETATM   12  C   UNL     1      -8.900  12.190  68.277  1.00  0.00    -0.182 C  
BRANCH  12  13
HETATM   13  C   UNL     1      -9.021  13.126  67.068  1.00  0.00    -0.228 C  
BRANCH  13  14
HETATM   14  C   UNL     1     -10.402  13.780  67.042  1.00  0.00    -0.260 C  
BRANCH  14  15
HETATM   15  N   UNL     1     -10.972  13.994  65.642  1.00  0.00    -0.295 N  
HETATM   16  C   UNL     1     -10.534  12.894  64.683  1.00  0.00    -0.363 C  
HETATM   17  C   UNL     1     -10.581  15.357  65.085  1.00  0.00    -0.434 C  
HETATM   18  C   UNL     1     -12.501  13.934  65.772  1.00  0.00    -0.495 C  
ENDBRANCH  14  15
ENDBRANCH  13  14
ENDBRANCH  12  13
ENDBRANCH  11  12
ENDBRANCH  10  11
ENDBRANCH   9  10
ENDBRANCH   8   9
ENDBRANCH   7   8
ENDBRANCH   6   7
ENDBRANCH   5   6
ENDBRANCH   2   5
TORSDOF 11
ENDMDL
MODEL      147
REMARK 921   NORMALIZED FREE ENERGY PREDICTED BY IDOCK:   -3.02 KCAL/MOL
REMARK 922        TOTAL FREE ENERGY PREDICTED BY IDOCK:   -5.73 KCAL/MOL
REMARK 923 INTER-LIGAND FREE ENERGY PREDICTED BY IDOCK:   -5.10 KCAL/MOL
REMARK 924 INTRA-LIGAND FREE ENERGY PREDICTED BY IDOCK:   -0.63 KCAL/MOL
REMARK 927      BINDING AFFINITY PREDICTED BY RF-SCORE:    0.00 PKD
ROOT
HETATM    1  C   UNL     1      -6.691  11.387  69.452  1.00  0.00    -0.122 C  
HETATM    2  N   UNL     1      -7.321  10.006  69.235  1.00  0.00    -0.081 N  
HETATM    3  C   UNL     1      -7.849   9.496  70.569  1.00  0.00    -0.157 C  
HETATM    4  C   UNL     1      -6.245   9.069  68.710  1.00  0.00    -0.045 C  
ENDROOT
BRANCH   2   5
HETATM    5  C   UNL     1      -8.448  10.193  68.227  1.00  0.00    -0.115 C  
BRANCH   5   6
HETATM    6  C   UNL     1      -8.347   9.302  66.987  1.00  0.00    -0.120 C  
BRANCH   6   7
HETATM    7  C   UNL     1      -9.730   9.115  66.350  1.00  0.00    -0.330 C  
BRANCH   7   8
HETATM    8  C   UNL     1     -10.194  10.325  65.529  1.00  0.00    -0.308 C  
BRANCH   8   9
HETATM    9  C   UNL     1      -9.612  10.351  64.111  1.00  0.00    -0.381 C  
BRANCH   9  10
HETATM   10  C   UNL     1     -10.301  11.382  63.213  1.00  0.00    -0.422 C  
BRANCH  10  11
HETATM   11  C   UNL     1     -10.543  12.715  63.930  1.00  0.00    -0.460 C  
BRANCH  11  12
HETATM   12  C   UNL     1     -12.030  13.033  64.127  1.00  0.00    -0.494 C  
BRANCH  12  13
HETATM   13  C   UNL     1     -12.279  14.296  64.961  1.00  0.00    -0.438 C  
BRANCH  13  14
HETATM   14  C   UNL     1     -11.034  15.183  64.963  1.00  0.00    -0.430 C  
BRANCH  14  15
HETATM   15  N   UNL     1     -10.488  15.500  66.353  1.00  0.00    -0.298 N  
HETATM   16  C   UNL     1      -9.090  14.925  66.551  1.00  0.00    -0.277 C  
HETATM   17  C   UNL     1     -11.419  14.992  67.446  1.00  0.00    -0.317 C  
HETATM   18  C   UNL     1     -10.394  17.029  66.454  1.00  0.00    -0.303 C  
ENDBRANCH  14  15
ENDBRANCH  13  14
ENDBRANCH  12  13
ENDBRANCH  11  12
ENDBRANCH  10  11
ENDBRANCH   9  10
ENDBRANCH   8   9
ENDBRANCH   7   8
ENDBRANCH   6   7
ENDBRANCH   5   6
ENDBRANCH   2   5
TORSDOF 11
ENDMDL
MODEL      148
REMARK 921   NORMALIZED FREE ENERGY PREDICTED BY IDOCK:   -3.02 KCAL/MOL
REMARK 922        TOTAL FREE ENERGY PREDICTED BY IDOCK:   -5.73 KCAL/MOL
REMARK 923 INTER-LIGAND FREE ENERGY PREDICTED BY IDOCK:   -5.17 KCAL/MOL
REMARK 924 INTRA-LIGAND FREE ENERGY PREDICTED BY IDOCK:   -0.56 KCAL/MOL
REMARK 927      BINDING AFFINITY PREDICTED BY RF-SCORE:    0.00 PKD
ROOT
HETATM    1  C   UNL     1     -11.161   8.210  72.658  1.00  0.00    -0.378 C  
HETATM    2  N   UNL     1     -11.487   7.300  71.468  1.00  0.00    -0.254 N  
HETATM    3  C   UNL     1     -12.995   7.301  71.251  1.00  0.00    -0.328 C  
HETATM    4  C   UNL     1     -11.011   5.894  71.800  1.00  0.00    -0.269 C  
ENDROOT
BRANCH   2   5
HETATM    5  C   UNL     1     -10.753   7.874  70.263  1.00  0.00    -0.236 C  
BRANCH   5   6
HETATM    6  C   UNL     1     -10.019   9.189  70.532  1.00  0.00    -0.288 C  
BRANCH   6   7
HETATM    7  C   UNL     1     -10.146  10.128  69.326  1.00  0.00    -0.237 C  
BRANCH   7   8
HETATM    8  C   UNL     1      -9.776   9.465  67.992  1.00  0.00    -0.167 C  
BRANCH   8   9
HETATM    9  C   UNL     1     -10.607   9.981  66.812  1.00  0.00    -0.229 C  
BRANCH   9  10
HETATM   10  C   UNL     1     -10.414  11.480  66.570  1.00  0.00    -0.284 C  
BRANCH  10  11
HETATM   11  C   UNL     1     -11.730  12.198  66.254  1.00  0.00    -0.389 C  
BRANCH  11  12
HETATM   12  C   UNL     1     -11.529  13.573  65.606  1.00  0.00    -0.330 C  
BRANCH  12  13
HETATM   13  C   UNL     1     -10.246  14.280  66.060  1.00  0.00    -0.327 C  
BRANCH  13  14
HETATM   14  C   UNL     1     -10.569  15.677  66.588  1.00  0.00    -0.307 C  
BRANCH  14  15
HETATM   15  N   UNL     1     -10.385  15.840  68.094  1.00  0.00    -0.237 N  
HETATM   16  C   UNL     1      -9.139  15.116  68.589  1.00  0.00    -0.195 C  
HETATM   17  C   UNL     1     -11.608  15.353  68.861  1.00  0.00    -0.354 C  
HETATM   18  C   UNL     1     -10.202  17.341  68.359  1.00  0.00    -0.358 C  
ENDBRANCH  14  15
ENDBRANCH  13  14
ENDBRANCH  12  13
ENDBRANCH  11  12
ENDBRANCH  10  11
ENDBRANCH   9  10
ENDBRANCH   8   9
ENDBRANCH   7   8
ENDBRANCH   6   7
ENDBRANCH   5   6
ENDBRANCH   2   5
TORSDOF 11
ENDMDL
MODEL      149
REMARK 921   NORMALIZED FREE ENERGY PREDICTED BY IDOCK:   -3.02 KCAL/MOL
REMARK 922        TOTAL FREE ENERGY PREDICTED BY IDOCK:   -5.72 KCAL/MOL
REMARK 923 INTER-LIGAND FREE ENERGY PREDICTED BY IDOCK:   -5.00 KCAL/MOL
REMARK 924 INTRA-LIGAND FREE ENERGY PREDICTED BY IDOCK:   -0.72 KCAL/MOL
REMARK 927      BINDING AFFINITY PREDICTED BY RF-SCORE:    0.00 PKD
ROOT
HETATM    1  C   UNL     1      -6.711  12.303  69.302  1.00  0.00    -0.075 C  
HETATM    2  N   UNL     1      -7.127  10.897  68.852  1.00  0.00    -0.082 N  
HETATM    3  C   UNL     1      -7.358  10.038  70.088  1.00  0.00    -0.163 C  
HETATM    4  C   UNL     1      -5.999  10.312  68.017  1.00  0.00    -0.044 C  
ENDROOT
BRANCH   2   5
HETATM    5  C   UNL     1      -8.405  11.058  68.040  1.00  0.00    -0.125 C  
BRANCH   5   6
HETATM    6  C   UNL     1      -8.186  11.460  66.580  1.00  0.00    -0.163 C  
BRANCH   6   7
HETATM    7  C   UNL     1      -9.149  10.693  65.665  1.00  0.00    -0.206 C  
BRANCH   7   8
HETATM    8  C   UNL     1     -10.629  10.927  65.998  1.00  0.00    -0.254 C  
BRANCH   8   9
HETATM    9  C   UNL     1     -11.251  12.080  65.202  1.00  0.00    -0.368 C  
BRANCH   9  10
HETATM   10  C   UNL     1     -12.196  12.934  66.050  1.00  0.00    -0.431 C  
BRANCH  10  11
HETATM   11  C   UNL     1     -11.744  13.036  67.510  1.00  0.00    -0.421 C  
BRANCH  11  12
HETATM   12  C   UNL     1     -11.617  14.482  68.004  1.00  0.00    -0.364 C  
BRANCH  12  13
HETATM   13  C   UNL     1     -11.441  14.596  69.523  1.00  0.00    -0.334 C  
BRANCH  13  14
HETATM   14  C   UNL     1     -12.661  15.274  70.148  1.00  0.00    -0.296 C  
BRANCH  14  15
HETATM   15  N   UNL     1     -13.020  14.766  71.541  1.00  0.00    -0.315 N  
HETATM   16  C   UNL     1     -13.007  13.243  71.604  1.00  0.00    -0.349 C  
HETATM   17  C   UNL     1     -14.375  15.294  71.993  1.00  0.00    -0.589 C  
HETATM   18  C   UNL     1     -11.941  15.292  72.498  1.00  0.00    -0.424 C  
ENDBRANCH  14  15
ENDBRANCH  13  14
ENDBRANCH  12  13
ENDBRANCH  11  12
ENDBRANCH  10  11
ENDBRANCH   9  10
ENDBRANCH   8   9
ENDBRANCH   7   8
ENDBRANCH   6   7
ENDBRANCH   5   6
ENDBRANCH   2   5
TORSDOF 11
ENDMDL
MODEL      150
REMARK 921   NORMALIZED FREE ENERGY PREDICTED BY IDOCK:   -3.01 KCAL/MOL
REMARK 922        TOTAL FREE ENERGY PREDICTED BY IDOCK:   -5.72 KCAL/MOL
REMARK 923 INTER-LIGAND FREE ENERGY PREDICTED BY IDOCK:   -4.52 KCAL/MOL
REMARK 924 INTRA-LIGAND FREE ENERGY PREDICTED BY IDOCK:   -1.19 KCAL/MOL
REMARK 927      BINDING AFFINITY PREDICTED BY RF-SCORE:    0.00 PKD
ROOT
HETATM    1  C   UNL     1     -12.396  14.798  64.216  1.00  0.00    -0.320 C  
HETATM    2  N   UNL     1     -11.381  14.309  65.257  1.00  0.00    -0.323 N  
HETATM    3  C   UNL     1     -10.569  13.172  64.650  1.00  0.00    -0.392 C  
HETATM    4  C   UNL     1     -12.148  13.809  66.471  1.00  0.00    -0.443 C  
ENDROOT
BRANCH   2   5
HETATM    5  C   UNL     1     -10.497  15.501  65.599  1.00  0.00    -0.374 C  
BRANCH   5   6
HETATM    6  C   UNL     1     -10.689  16.052  67.013  1.00  0.00    -0.277 C  
BRANCH   6   7
HETATM    7  C   UNL     1      -9.785  17.270  67.240  1.00  0.00    -0.262 C  
BRANCH   7   8
HETATM    8  C   UNL     1      -8.511  17.255  66.384  1.00  0.00    -0.304 C  
BRANCH   8   9
HETATM    9  C   UNL     1      -7.344  16.519  67.052  1.00  0.00    -0.245 C  
BRANCH   9  10
HETATM   10  C   UNL     1      -7.426  16.555  68.579  1.00  0.00    -0.193 C  
BRANCH  10  11
HETATM   11  C   UNL     1      -7.582  15.159  69.192  1.00  0.00    -0.188 C  
BRANCH  11  12
HETATM   12  C   UNL     1      -7.666  14.044  68.141  1.00  0.00    -0.143 C  
BRANCH  12  13
HETATM   13  C   UNL     1      -8.924  13.177  68.270  1.00  0.00    -0.175 C  
BRANCH  13  14
HETATM   14  C   UNL     1      -8.676  11.792  67.673  1.00  0.00    -0.159 C  
BRANCH  14  15
HETATM   15  N   UNL     1      -9.746  10.758  68.012  1.00  0.00    -0.159 N  
HETATM   16  C   UNL     1     -10.441  10.238  66.759  1.00  0.00    -0.214 C  
HETATM   17  C   UNL     1     -10.775  11.320  68.983  1.00  0.00    -0.217 C  
HETATM   18  C   UNL     1      -9.026   9.579  68.683  1.00  0.00    -0.132 C  
ENDBRANCH  14  15
ENDBRANCH  13  14
ENDBRANCH  12  13
ENDBRANCH  11  12
ENDBRANCH  10  11
ENDBRANCH   9  10
ENDBRANCH   8   9
ENDBRANCH   7   8
ENDBRANCH   6   7
ENDBRANCH   5   6
ENDBRANCH   2   5
TORSDOF 11
ENDMDL
MODEL      151
REMARK 921   NORMALIZED FREE ENERGY PREDICTED BY IDOCK:   -3.01 KCAL/MOL
REMARK 922        TOTAL FREE ENERGY PREDICTED BY IDOCK:   -5.71 KCAL/MOL
REMARK 923 INTER-LIGAND FREE ENERGY PREDICTED BY IDOCK:   -4.99 KCAL/MOL
REMARK 924 INTRA-LIGAND FREE ENERGY PREDICTED BY IDOCK:   -0.73 KCAL/MOL
REMARK 927      BINDING AFFINITY PREDICTED BY RF-SCORE:    0.00 PKD
ROOT
HETATM    1  C   UNL     1     -10.247  14.681  65.629  1.00  0.00    -0.359 C  
HETATM    2  N   UNL     1     -10.785  13.959  66.870  1.00  0.00    -0.283 N  
HETATM    3  C   UNL     1     -11.474  14.979  67.768  1.00  0.00    -0.334 C  
HETATM    4  C   UNL     1      -9.610  13.331  67.603  1.00  0.00    -0.213 C  
ENDROOT
BRANCH   2   5
HETATM    5  C   UNL     1     -11.767  12.906  66.372  1.00  0.00    -0.395 C  
BRANCH   5   6
HETATM    6  C   UNL     1     -11.550  12.468  64.922  1.00  0.00    -0.386 C  
BRANCH   6   7
HETATM    7  C   UNL     1     -11.014  11.032  64.872  1.00  0.00    -0.130 C  
BRANCH   7   8
HETATM    8  C   UNL     1      -9.506  10.951  64.598  1.00  0.00    -0.285 C  
BRANCH   8   9
HETATM    9  C   UNL     1      -8.871   9.651  65.104  1.00  0.00    -0.215 C  
BRANCH   9  10
HETATM   10  C   UNL     1      -9.647   9.034  66.270  1.00  0.00    -0.327 C  
BRANCH  10  11
HETATM   11  C   UNL     1      -9.172   7.617  66.607  1.00  0.00    -0.211 C  
BRANCH  11  12
HETATM   12  C   UNL     1     -10.324   6.638  66.861  1.00  0.00    -0.324 C  
BRANCH  12  13
HETATM   13  C   UNL     1     -10.235   5.929  68.218  1.00  0.00    -0.226 C  
BRANCH  13  14
HETATM   14  C   UNL     1     -11.380   6.378  69.126  1.00  0.00    -0.296 C  
BRANCH  14  15
HETATM   15  N   UNL     1     -10.932   6.980  70.455  1.00  0.00    -0.254 N  
HETATM   16  C   UNL     1      -9.528   6.524  70.833  1.00  0.00    -0.172 C  
HETATM   17  C   UNL     1     -11.908   6.643  71.575  1.00  0.00    -0.337 C  
HETATM   18  C   UNL     1     -10.905   8.503  70.265  1.00  0.00    -0.238 C  
ENDBRANCH  14  15
ENDBRANCH  13  14
ENDBRANCH  12  13
ENDBRANCH  11  12
ENDBRANCH  10  11
ENDBRANCH   9  10
ENDBRANCH   8   9
ENDBRANCH   7   8
ENDBRANCH   6   7
ENDBRANCH   5   6
ENDBRANCH   2   5
TORSDOF 11
ENDMDL
MODEL      152
REMARK 921   NORMALIZED FREE ENERGY PREDICTED BY IDOCK:   -2.99 KCAL/MOL
REMARK 922        TOTAL FREE ENERGY PREDICTED BY IDOCK:   -5.68 KCAL/MOL
REMARK 923 INTER-LIGAND FREE ENERGY PREDICTED BY IDOCK:   -4.86 KCAL/MOL
REMARK 924 INTRA-LIGAND FREE ENERGY PREDICTED BY IDOCK:   -0.82 KCAL/MOL
REMARK 927      BINDING AFFINITY PREDICTED BY RF-SCORE:    0.00 PKD
ROOT
HETATM    1  C   UNL     1      -7.202   9.468  65.710  1.00  0.00    -0.097 C  
HETATM    2  N   UNL     1      -8.551   9.115  66.348  1.00  0.00    -0.122 N  
HETATM    3  C   UNL     1      -8.351   8.941  67.848  1.00  0.00    -0.118 C  
HETATM    4  C   UNL     1      -9.042   7.812  65.736  1.00  0.00    -0.011 C  
ENDROOT
BRANCH   2   5
HETATM    5  C   UNL     1      -9.495  10.272  66.045  1.00  0.00    -0.185 C  
BRANCH   5   6
HETATM    6  C   UNL     1     -10.510  10.572  67.149  1.00  0.00    -0.302 C  
BRANCH   6   7
HETATM    7  C   UNL     1     -11.248  11.884  66.853  1.00  0.00    -0.382 C  
BRANCH   7   8
HETATM    8  C   UNL     1     -11.835  12.552  68.104  1.00  0.00    -0.371 C  
BRANCH   8   9
HETATM    9  C   UNL     1     -11.454  11.837  69.405  1.00  0.00    -0.371 C  
BRANCH   9  10
HETATM   10  C   UNL     1     -12.269  12.327  70.603  1.00  0.00    -0.378 C  
BRANCH  10  11
HETATM   11  C   UNL     1     -12.640  11.193  71.565  1.00  0.00    -0.431 C  
BRANCH  11  12
HETATM   12  C   UNL     1     -13.358  10.027  70.874  1.00  0.00    -0.281 C  
BRANCH  12  13
HETATM   13  C   UNL     1     -13.272   8.709  71.654  1.00  0.00    -0.381 C  
BRANCH  13  14
HETATM   14  C   UNL     1     -12.049   8.715  72.570  1.00  0.00    -0.298 C  
BRANCH  14  15
HETATM   15  N   UNL     1     -10.929   7.775  72.133  1.00  0.00    -0.248 N  
HETATM   16  C   UNL     1     -11.404   6.791  71.071  1.00  0.00    -0.309 C  
HETATM   17  C   UNL     1     -10.342   7.019  73.318  1.00  0.00    -0.309 C  
HETATM   18  C   UNL     1      -9.831   8.652  71.514  1.00  0.00    -0.272 C  
ENDBRANCH  14  15
ENDBRANCH  13  14
ENDBRANCH  12  13
ENDBRANCH  11  12
ENDBRANCH  10  11
ENDBRANCH   9  10
ENDBRANCH   8   9
ENDBRANCH   7   8
ENDBRANCH   6   7
ENDBRANCH   5   6
ENDBRANCH   2   5
TORSDOF 11
ENDMDL
MODEL      153
REMARK 921   NORMALIZED FREE ENERGY PREDICTED BY IDOCK:   -2.96 KCAL/MOL
REMARK 922        TOTAL FREE ENERGY PREDICTED BY IDOCK:   -5.64 KCAL/MOL
REMARK 923 INTER-LIGAND FREE ENERGY PREDICTED BY IDOCK:   -4.58 KCAL/MOL
REMARK 924 INTRA-LIGAND FREE ENERGY PREDICTED BY IDOCK:   -1.05 KCAL/MOL
REMARK 927      BINDING AFFINITY PREDICTED BY RF-SCORE:    0.00 PKD
ROOT
HETATM    1  C   UNL     1     -10.177  10.365  65.461  1.00  0.00    -0.246 C  
HETATM    2  N   UNL     1      -9.933  10.573  66.961  1.00  0.00    -0.193 N  
HETATM    3  C   UNL     1     -11.266  10.872  67.634  1.00  0.00    -0.309 C  
HETATM    4  C   UNL     1      -8.990  11.755  67.130  1.00  0.00    -0.177 C  
ENDROOT
BRANCH   2   5
HETATM    5  C   UNL     1      -9.322   9.282  67.488  1.00  0.00    -0.127 C  
BRANCH   5   6
HETATM    6  C   UNL     1      -9.771   8.018  66.754  1.00  0.00    -0.305 C  
BRANCH   6   7
HETATM    7  C   UNL     1      -8.589   7.057  66.572  1.00  0.00    -0.130 C  
BRANCH   7   8
HETATM    8  C   UNL     1      -8.980   5.718  65.934  1.00  0.00    -0.158 C  
BRANCH   8   9
HETATM    9  C   UNL     1      -9.905   4.875  66.821  1.00  0.00    -0.220 C  
BRANCH   9  10
HETATM   10  C   UNL     1      -9.130   3.974  67.785  1.00  0.00    -0.175 C  
BRANCH  10  11
HETATM   11  C   UNL     1      -9.660   4.058  69.220  1.00  0.00    -0.247 C  
BRANCH  11  12
HETATM   12  C   UNL     1      -9.708   5.492  69.763  1.00  0.00    -0.236 C  
BRANCH  12  13
HETATM   13  C   UNL     1     -11.110   5.933  70.200  1.00  0.00    -0.395 C  
BRANCH  13  14
HETATM   14  C   UNL     1     -11.196   7.458  70.244  1.00  0.00    -0.247 C  
BRANCH  14  15
HETATM   15  N   UNL     1     -11.895   8.016  71.481  1.00  0.00    -0.283 N  
HETATM   16  C   UNL     1     -12.035   9.532  71.411  1.00  0.00    -0.386 C  
HETATM   17  C   UNL     1     -11.167   7.619  72.758  1.00  0.00    -0.377 C  
HETATM   18  C   UNL     1     -13.304   7.407  71.506  1.00  0.00    -0.372 C  
ENDBRANCH  14  15
ENDBRANCH  13  14
ENDBRANCH  12  13
ENDBRANCH  11  12
ENDBRANCH  10  11
ENDBRANCH   9  10
ENDBRANCH   8   9
ENDBRANCH   7   8
ENDBRANCH   6   7
ENDBRANCH   5   6
ENDBRANCH   2   5
TORSDOF 11
ENDMDL
MODEL      154
REMARK 921   NORMALIZED FREE ENERGY PREDICTED BY IDOCK:   -2.96 KCAL/MOL
REMARK 922        TOTAL FREE ENERGY PREDICTED BY IDOCK:   -5.63 KCAL/MOL
REMARK 923 INTER-LIGAND FREE ENERGY PREDICTED BY IDOCK:   -4.65 KCAL/MOL
REMARK 924 INTRA-LIGAND FREE ENERGY PREDICTED BY IDOCK:   -0.98 KCAL/MOL
REMARK 927      BINDING AFFINITY PREDICTED BY RF-SCORE:    0.00 PKD
ROOT
HETATM    1  C   UNL     1      -7.840  11.506  68.501  1.00  0.00    -0.140 C  
HETATM    2  N   UNL     1      -8.223  10.127  67.947  1.00  0.00    -0.109 N  
HETATM    3  C   UNL     1      -7.296   9.793  66.786  1.00  0.00    -0.091 C  
HETATM    4  C   UNL     1      -9.663  10.193  67.461  1.00  0.00    -0.162 C  
ENDROOT
BRANCH   2   5
HETATM    5  C   UNL     1      -8.059   9.135  69.091  1.00  0.00    -0.105 C  
BRANCH   5   6
HETATM    6  C   UNL     1      -9.020   9.349  70.263  1.00  0.00    -0.277 C  
BRANCH   6   7
HETATM    7  C   UNL     1      -9.834   8.076  70.524  1.00  0.00    -0.184 C  
BRANCH   7   8
HETATM    8  C   UNL     1     -11.348   8.320  70.593  1.00  0.00    -0.257 C  
BRANCH   8   9
HETATM    9  C   UNL     1     -11.745   9.345  71.662  1.00  0.00    -0.468 C  
BRANCH   9  10
HETATM   10  C   UNL     1     -12.812  10.325  71.166  1.00  0.00    -0.504 C  
BRANCH  10  11
HETATM   11  C   UNL     1     -12.472  10.917  69.794  1.00  0.00    -0.250 C  
BRANCH  11  12
HETATM   12  C   UNL     1     -11.705  12.242  69.881  1.00  0.00    -0.346 C  
BRANCH  12  13
HETATM   13  C   UNL     1     -11.967  13.179  68.696  1.00  0.00    -0.319 C  
BRANCH  13  14
HETATM   14  C   UNL     1     -10.657  13.795  68.207  1.00  0.00    -0.255 C  
BRANCH  14  15
HETATM   15  N   UNL     1     -10.522  15.290  68.479  1.00  0.00    -0.230 N  
HETATM   16  C   UNL     1      -9.253  15.605  69.263  1.00  0.00    -0.269 C  
HETATM   17  C   UNL     1     -11.738  15.833  69.219  1.00  0.00    -0.374 C  
HETATM   18  C   UNL     1     -10.424  15.983  67.113  1.00  0.00    -0.308 C  
ENDBRANCH  14  15
ENDBRANCH  13  14
ENDBRANCH  12  13
ENDBRANCH  11  12
ENDBRANCH  10  11
ENDBRANCH   9  10
ENDBRANCH   8   9
ENDBRANCH   7   8
ENDBRANCH   6   7
ENDBRANCH   5   6
ENDBRANCH   2   5
TORSDOF 11
ENDMDL
MODEL      155
REMARK 921   NORMALIZED FREE ENERGY PREDICTED BY IDOCK:   -2.95 KCAL/MOL
REMARK 922        TOTAL FREE ENERGY PREDICTED BY IDOCK:   -5.61 KCAL/MOL
REMARK 923 INTER-LIGAND FREE ENERGY PREDICTED BY IDOCK:   -4.87 KCAL/MOL
REMARK 924 INTRA-LIGAND FREE ENERGY PREDICTED BY IDOCK:   -0.74 KCAL/MOL
REMARK 927      BINDING AFFINITY PREDICTED BY RF-SCORE:    0.00 PKD
ROOT
HETATM    1  C   UNL     1      -6.857  14.623  69.617  1.00  0.00    -0.163 C  
HETATM    2  N   UNL     1      -6.387  14.492  68.163  1.00  0.00    -0.126 N  
HETATM    3  C   UNL     1      -5.902  13.067  67.933  1.00  0.00    -0.128 C  
HETATM    4  C   UNL     1      -5.244  15.471  67.943  1.00  0.00    -0.120 C  
ENDROOT
BRANCH   2   5
HETATM    5  C   UNL     1      -7.587  14.818  67.284  1.00  0.00    -0.165 C  
BRANCH   5   6
HETATM    6  C   UNL     1      -8.188  16.206  67.515  1.00  0.00    -0.167 C  
BRANCH   6   7
HETATM    7  C   UNL     1      -8.811  16.741  66.220  1.00  0.00    -0.334 C  
BRANCH   7   8
HETATM    8  C   UNL     1     -10.342  16.641  66.190  1.00  0.00    -0.340 C  
BRANCH   8   9
HETATM    9  C   UNL     1     -10.883  16.053  64.882  1.00  0.00    -0.391 C  
BRANCH   9  10
HETATM   10  C   UNL     1     -10.792  14.526  64.844  1.00  0.00    -0.436 C  
BRANCH  10  11
HETATM   11  C   UNL     1     -12.017  13.881  64.187  1.00  0.00    -0.464 C  
BRANCH  11  12
HETATM   12  C   UNL     1     -12.470  12.593  64.885  1.00  0.00    -0.564 C  
BRANCH  12  13
HETATM   13  C   UNL     1     -12.256  12.614  66.404  1.00  0.00    -0.174 C  
BRANCH  13  14
HETATM   14  C   UNL     1     -11.158  11.627  66.798  1.00  0.00    -0.309 C  
BRANCH  14  15
HETATM   15  N   UNL     1     -10.722  11.718  68.257  1.00  0.00    -0.204 N  
HETATM   16  C   UNL     1      -9.379  11.033  68.486  1.00  0.00    -0.188 C  
HETATM   17  C   UNL     1     -11.772  11.129  69.190  1.00  0.00    -0.338 C  
HETATM   18  C   UNL     1     -10.557  13.211  68.579  1.00  0.00    -0.259 C  
ENDBRANCH  14  15
ENDBRANCH  13  14
ENDBRANCH  12  13
ENDBRANCH  11  12
ENDBRANCH  10  11
ENDBRANCH   9  10
ENDBRANCH   8   9
ENDBRANCH   7   8
ENDBRANCH   6   7
ENDBRANCH   5   6
ENDBRANCH   2   5
TORSDOF 11
ENDMDL
MODEL      156
REMARK 921   NORMALIZED FREE ENERGY PREDICTED BY IDOCK:   -2.95 KCAL/MOL
REMARK 922        TOTAL FREE ENERGY PREDICTED BY IDOCK:   -5.61 KCAL/MOL
REMARK 923 INTER-LIGAND FREE ENERGY PREDICTED BY IDOCK:   -5.10 KCAL/MOL
REMARK 924 INTRA-LIGAND FREE ENERGY PREDICTED BY IDOCK:   -0.51 KCAL/MOL
REMARK 927      BINDING AFFINITY PREDICTED BY RF-SCORE:    0.00 PKD
ROOT
HETATM    1  C   UNL     1      -8.784   6.880  73.963  1.00  0.00    -0.159 C  
HETATM    2  N   UNL     1      -9.338   5.640  73.250  1.00  0.00    -0.136 N  
HETATM    3  C   UNL     1      -9.514   4.527  74.274  1.00  0.00    -0.119 C  
HETATM    4  C   UNL     1      -8.336   5.215  72.188  1.00  0.00    -0.125 C  
ENDROOT
BRANCH   2   5
HETATM    5  C   UNL     1     -10.672   6.046  72.637  1.00  0.00    -0.232 C  
BRANCH   5   6
HETATM    6  C   UNL     1     -10.673   7.422  71.968  1.00  0.00    -0.254 C  
BRANCH   6   7
HETATM    7  C   UNL     1     -11.414   7.362  70.627  1.00  0.00    -0.307 C  
BRANCH   7   8
HETATM    8  C   UNL     1     -11.100   6.102  69.809  1.00  0.00    -0.486 C  
BRANCH   8   9
HETATM    9  C   UNL     1     -10.854   6.393  68.324  1.00  0.00    -0.384 C  
BRANCH   9  10
HETATM   10  C   UNL     1      -9.915   7.582  68.107  1.00  0.00    -0.198 C  
BRANCH  10  11
HETATM   11  C   UNL     1     -10.501   8.627  67.153  1.00  0.00    -0.360 C  
BRANCH  11  12
HETATM   12  C   UNL     1      -9.491   9.130  66.114  1.00  0.00    -0.309 C  
BRANCH  12  13
HETATM   13  C   UNL     1     -10.019  10.291  65.262  1.00  0.00    -0.387 C  
BRANCH  13  14
HETATM   14  C   UNL     1      -9.750  11.624  65.959  1.00  0.00    -0.232 C  
BRANCH  14  15
HETATM   15  N   UNL     1     -10.520  12.807  65.377  1.00  0.00    -0.281 N  
HETATM   16  C   UNL     1     -10.685  12.681  63.867  1.00  0.00    -0.431 C  
HETATM   17  C   UNL     1      -9.848  14.131  65.719  1.00  0.00    -0.271 C  
HETATM   18  C   UNL     1     -11.917  12.783  66.014  1.00  0.00    -0.432 C  
ENDBRANCH  14  15
ENDBRANCH  13  14
ENDBRANCH  12  13
ENDBRANCH  11  12
ENDBRANCH  10  11
ENDBRANCH   9  10
ENDBRANCH   8   9
ENDBRANCH   7   8
ENDBRANCH   6   7
ENDBRANCH   5   6
ENDBRANCH   2   5
TORSDOF 11
ENDMDL
MODEL      157
REMARK 921   NORMALIZED FREE ENERGY PREDICTED BY IDOCK:   -2.94 KCAL/MOL
REMARK 922        TOTAL FREE ENERGY PREDICTED BY IDOCK:   -5.60 KCAL/MOL
REMARK 923 INTER-LIGAND FREE ENERGY PREDICTED BY IDOCK:   -5.21 KCAL/MOL
REMARK 924 INTRA-LIGAND FREE ENERGY PREDICTED BY IDOCK:   -0.40 KCAL/MOL
REMARK 927      BINDING AFFINITY PREDICTED BY RF-SCORE:    0.00 PKD
ROOT
HETATM    1  C   UNL     1     -10.260  19.870  68.372  1.00  0.00    -0.433 C  
HETATM    2  N   UNL     1     -10.040  18.999  67.129  1.00  0.00    -0.342 N  
HETATM    3  C   UNL     1      -8.547  18.943  66.831  1.00  0.00    -0.291 C  
HETATM    4  C   UNL     1     -10.779  19.637  65.963  1.00  0.00    -0.424 C  
ENDROOT
BRANCH   2   5
HETATM    5  C   UNL     1     -10.591  17.618  67.459  1.00  0.00    -0.343 C  
BRANCH   5   6
HETATM    6  C   UNL     1      -9.557  16.492  67.419  1.00  0.00    -0.238 C  
BRANCH   6   7
HETATM    7  C   UNL     1     -10.034  15.361  66.500  1.00  0.00    -0.282 C  
BRANCH   7   8
HETATM    8  C   UNL     1     -11.488  14.940  66.751  1.00  0.00    -0.304 C  
BRANCH   8   9
HETATM    9  C   UNL     1     -11.700  14.294  68.125  1.00  0.00    -0.385 C  
BRANCH   9  10
HETATM   10  C   UNL     1     -10.858  13.030  68.314  1.00  0.00    -0.267 C  
BRANCH  10  11
HETATM   11  C   UNL     1     -11.711  11.757  68.349  1.00  0.00    -0.389 C  
BRANCH  11  12
HETATM   12  C   UNL     1     -10.950  10.534  68.877  1.00  0.00    -0.291 C  
BRANCH  12  13
HETATM   13  C   UNL     1     -10.559   9.538  67.779  1.00  0.00    -0.318 C  
BRANCH  13  14
HETATM   14  C   UNL     1      -9.448   8.613  68.274  1.00  0.00    -0.141 C  
BRANCH  14  15
HETATM   15  N   UNL     1      -9.702   7.130  68.021  1.00  0.00    -0.137 N  
HETATM   16  C   UNL     1     -10.129   6.408  69.295  1.00  0.00    -0.172 C  
HETATM   17  C   UNL     1      -8.478   6.449  67.424  1.00  0.00    -0.108 C  
HETATM   18  C   UNL     1     -10.857   7.043  67.013  1.00  0.00    -0.343 C  
ENDBRANCH  14  15
ENDBRANCH  13  14
ENDBRANCH  12  13
ENDBRANCH  11  12
ENDBRANCH  10  11
ENDBRANCH   9  10
ENDBRANCH   8   9
ENDBRANCH   7   8
ENDBRANCH   6   7
ENDBRANCH   5   6
ENDBRANCH   2   5
TORSDOF 11
ENDMDL
MODEL      158
REMARK 921   NORMALIZED FREE ENERGY PREDICTED BY IDOCK:   -2.93 KCAL/MOL
REMARK 922        TOTAL FREE ENERGY PREDICTED BY IDOCK:   -5.59 KCAL/MOL
REMARK 923 INTER-LIGAND FREE ENERGY PREDICTED BY IDOCK:   -4.82 KCAL/MOL
REMARK 924 INTRA-LIGAND FREE ENERGY PREDICTED BY IDOCK:   -0.77 KCAL/MOL
REMARK 927      BINDING AFFINITY PREDICTED BY RF-SCORE:    0.00 PKD
ROOT
HETATM    1  C   UNL     1     -11.654  11.038  68.522  1.00  0.00    -0.310 C  
HETATM    2  N   UNL     1     -10.261  10.666  67.999  1.00  0.00    -0.169 N  
HETATM    3  C   UNL     1     -10.374   9.394  67.170  1.00  0.00    -0.258 C  
HETATM    4  C   UNL     1      -9.352  10.427  69.195  1.00  0.00    -0.199 C  
ENDROOT
BRANCH   2   5
HETATM    5  C   UNL     1      -9.784  11.839  67.153  1.00  0.00    -0.183 C  
BRANCH   5   6
HETATM    6  C   UNL     1     -10.847  12.431  66.227  1.00  0.00    -0.299 C  
BRANCH   6   7
HETATM    7  C   UNL     1     -10.683  13.953  66.128  1.00  0.00    -0.283 C  
BRANCH   7   8
HETATM    8  C   UNL     1     -11.043  14.693  67.423  1.00  0.00    -0.331 C  
BRANCH   8   9
HETATM    9  C   UNL     1     -10.570  16.151  67.436  1.00  0.00    -0.311 C  
BRANCH   9  10
HETATM   10  C   UNL     1      -9.683  16.468  68.643  1.00  0.00    -0.247 C  
BRANCH  10  11
HETATM   11  C   UNL     1      -8.195  16.515  68.281  1.00  0.00    -0.185 C  
BRANCH  11  12
HETATM   12  C   UNL     1      -7.934  16.364  66.778  1.00  0.00    -0.295 C  
BRANCH  12  13
HETATM   13  C   UNL     1      -6.939  17.392  66.224  1.00  0.00    -0.319 C  
BRANCH  13  14
HETATM   14  C   UNL     1      -6.754  18.538  67.218  1.00  0.00    -0.200 C  
BRANCH  14  15
HETATM   15  N   UNL     1      -7.222  19.898  66.707  1.00  0.00    -0.225 N  
HETATM   16  C   UNL     1      -6.562  21.041  67.468  1.00  0.00    -0.377 C  
HETATM   17  C   UNL     1      -8.738  20.029  66.782  1.00  0.00    -0.333 C  
HETATM   18  C   UNL     1      -6.790  19.991  65.236  1.00  0.00    -0.295 C  
ENDBRANCH  14  15
ENDBRANCH  13  14
ENDBRANCH  12  13
ENDBRANCH  11  12
ENDBRANCH  10  11
ENDBRANCH   9  10
ENDBRANCH   8   9
ENDBRANCH   7   8
ENDBRANCH   6   7
ENDBRANCH   5   6
ENDBRANCH   2   5
TORSDOF 11
ENDMDL
MODEL      159
REMARK 921   NORMALIZED FREE ENERGY PREDICTED BY IDOCK:   -2.93 KCAL/MOL
REMARK 922        TOTAL FREE ENERGY PREDICTED BY IDOCK:   -5.58 KCAL/MOL
REMARK 923 INTER-LIGAND FREE ENERGY PREDICTED BY IDOCK:   -5.02 KCAL/MOL
REMARK 924 INTRA-LIGAND FREE ENERGY PREDICTED BY IDOCK:   -0.56 KCAL/MOL
REMARK 927      BINDING AFFINITY PREDICTED BY RF-SCORE:    0.00 PKD
ROOT
HETATM    1  C   UNL     1      -9.483   7.761  66.457  1.00  0.00    -0.201 C  
HETATM    2  N   UNL     1      -8.167   8.406  66.913  1.00  0.00    -0.102 N  
HETATM    3  C   UNL     1      -7.126   8.215  65.819  1.00  0.00    -0.064 C  
HETATM    4  C   UNL     1      -7.714   7.711  68.188  1.00  0.00    -0.119 C  
ENDROOT
BRANCH   2   5
HETATM    5  C   UNL     1      -8.461   9.881  67.148  1.00  0.00    -0.121 C  
BRANCH   5   6
HETATM    6  C   UNL     1      -9.841  10.169  67.744  1.00  0.00    -0.190 C  
BRANCH   6   7
HETATM    7  C   UNL     1     -10.557  11.256  66.933  1.00  0.00    -0.300 C  
BRANCH   7   8
HETATM    8  C   UNL     1      -9.794  12.586  66.884  1.00  0.00    -0.229 C  
BRANCH   8   9
HETATM    9  C   UNL     1     -10.204  13.473  65.702  1.00  0.00    -0.306 C  
BRANCH   9  10
HETATM   10  C   UNL     1     -10.834  14.793  66.151  1.00  0.00    -0.321 C  
BRANCH  10  11
HETATM   11  C   UNL     1     -11.782  14.615  67.342  1.00  0.00    -0.413 C  
BRANCH  11  12
HETATM   12  C   UNL     1     -11.496  15.588  68.493  1.00  0.00    -0.369 C  
BRANCH  12  13
HETATM   13  C   UNL     1     -11.447  14.910  69.867  1.00  0.00    -0.321 C  
BRANCH  13  14
HETATM   14  C   UNL     1     -12.862  14.632  70.372  1.00  0.00    -0.270 C  
BRANCH  14  15
HETATM   15  N   UNL     1     -13.006  14.652  71.891  1.00  0.00    -0.315 N  
HETATM   16  C   UNL     1     -14.171  15.529  72.333  1.00  0.00    -0.481 C  
HETATM   17  C   UNL     1     -11.722  15.114  72.566  1.00  0.00    -0.375 C  
HETATM   18  C   UNL     1     -13.302  13.209  72.327  1.00  0.00    -0.522 C  
ENDBRANCH  14  15
ENDBRANCH  13  14
ENDBRANCH  12  13
ENDBRANCH  11  12
ENDBRANCH  10  11
ENDBRANCH   9  10
ENDBRANCH   8   9
ENDBRANCH   7   8
ENDBRANCH   6   7
ENDBRANCH   5   6
ENDBRANCH   2   5
TORSDOF 11
ENDMDL
MODEL      160
REMARK 921   NORMALIZED FREE ENERGY PREDICTED BY IDOCK:   -2.93 KCAL/MOL
REMARK 922        TOTAL FREE ENERGY PREDICTED BY IDOCK:   -5.58 KCAL/MOL
REMARK 923 INTER-LIGAND FREE ENERGY PREDICTED BY IDOCK:   -5.13 KCAL/MOL
REMARK 924 INTRA-LIGAND FREE ENERGY PREDICTED BY IDOCK:   -0.44 KCAL/MOL
REMARK 927      BINDING AFFINITY PREDICTED BY RF-SCORE:    0.00 PKD
ROOT
HETATM    1  C   UNL     1      -8.077  18.824  68.509  1.00  0.00    -0.346 C  
HETATM    2  N   UNL     1      -9.068  18.559  67.369  1.00  0.00    -0.273 N  
HETATM    3  C   UNL     1      -8.849  19.601  66.280  1.00  0.00    -0.371 C  
HETATM    4  C   UNL     1     -10.478  18.680  67.926  1.00  0.00    -0.385 C  
ENDROOT
BRANCH   2   5
HETATM    5  C   UNL     1      -8.782  17.153  66.858  1.00  0.00    -0.232 C  
BRANCH   5   6
HETATM    6  C   UNL     1     -10.023  16.278  66.671  1.00  0.00    -0.274 C  
BRANCH   6   7
HETATM    7  C   UNL     1     -10.193  15.900  65.194  1.00  0.00    -0.198 C  
BRANCH   7   8
HETATM    8  C   UNL     1     -10.387  14.395  64.965  1.00  0.00    -0.449 C  
BRANCH   8   9
HETATM    9  C   UNL     1     -11.601  13.824  65.707  1.00  0.00    -0.342 C  
BRANCH   9  10
HETATM   10  C   UNL     1     -11.887  12.369  65.327  1.00  0.00    -0.451 C  
BRANCH  10  11
HETATM   11  C   UNL     1     -10.989  11.380  66.077  1.00  0.00    -0.286 C  
BRANCH  11  12
HETATM   12  C   UNL     1     -10.182  10.469  65.143  1.00  0.00    -0.358 C  
BRANCH  12  13
HETATM   13  C   UNL     1      -9.595   9.239  65.846  1.00  0.00    -0.345 C  
BRANCH  13  14
HETATM   14  C   UNL     1     -10.321   8.988  67.168  1.00  0.00    -0.272 C  
BRANCH  14  15
HETATM   15  N   UNL     1      -9.803   7.787  67.954  1.00  0.00    -0.154 N  
HETATM   16  C   UNL     1      -8.805   6.971  67.140  1.00  0.00    -0.121 C  
HETATM   17  C   UNL     1     -10.945   6.894  68.422  1.00  0.00    -0.132 C  
HETATM   18  C   UNL     1      -9.074   8.343  69.185  1.00  0.00    -0.147 C  
ENDBRANCH  14  15
ENDBRANCH  13  14
ENDBRANCH  12  13
ENDBRANCH  11  12
ENDBRANCH  10  11
ENDBRANCH   9  10
ENDBRANCH   8   9
ENDBRANCH   7   8
ENDBRANCH   6   7
ENDBRANCH   5   6
ENDBRANCH   2   5
TORSDOF 11
ENDMDL
MODEL      161
REMARK 921   NORMALIZED FREE ENERGY PREDICTED BY IDOCK:   -2.91 KCAL/MOL
REMARK 922        TOTAL FREE ENERGY PREDICTED BY IDOCK:   -5.55 KCAL/MOL
REMARK 923 INTER-LIGAND FREE ENERGY PREDICTED BY IDOCK:   -4.78 KCAL/MOL
REMARK 924 INTRA-LIGAND FREE ENERGY PREDICTED BY IDOCK:   -0.77 KCAL/MOL
REMARK 927      BINDING AFFINITY PREDICTED BY RF-SCORE:    0.00 PKD
ROOT
HETATM    1  C   UNL     1      -7.301   8.821  69.537  1.00  0.00    -0.067 C  
HETATM    2  N   UNL     1      -8.721   8.284  69.316  1.00  0.00    -0.138 N  
HETATM    3  C   UNL     1      -9.640   8.885  70.372  1.00  0.00    -0.194 C  
HETATM    4  C   UNL     1      -8.685   6.770  69.461  1.00  0.00    -0.133 C  
ENDROOT
BRANCH   2   5
HETATM    5  C   UNL     1      -9.136   8.707  67.914  1.00  0.00    -0.140 C  
BRANCH   5   6
HETATM    6  C   UNL     1      -8.936  10.194  67.611  1.00  0.00    -0.134 C  
BRANCH   6   7
HETATM    7  C   UNL     1     -10.055  10.709  66.698  1.00  0.00    -0.270 C  
BRANCH   7   8
HETATM    8  C   UNL     1      -9.547  11.267  65.362  1.00  0.00    -0.261 C  
BRANCH   8   9
HETATM    9  C   UNL     1     -10.626  11.302  64.274  1.00  0.00    -0.422 C  
BRANCH   9  10
HETATM   10  C   UNL     1     -11.256  12.689  64.118  1.00  0.00    -0.437 C  
BRANCH  10  11
HETATM   11  C   UNL     1     -12.587  12.815  64.867  1.00  0.00    -0.541 C  
BRANCH  11  12
HETATM   12  C   UNL     1     -12.625  14.005  65.834  1.00  0.00    -0.484 C  
BRANCH  12  13
HETATM   13  C   UNL     1     -11.893  13.741  67.155  1.00  0.00    -0.441 C  
BRANCH  13  14
HETATM   14  C   UNL     1     -12.123  14.897  68.128  1.00  0.00    -0.085 C  
BRANCH  14  15
HETATM   15  N   UNL     1     -11.932  14.532  69.598  1.00  0.00    -0.311 N  
HETATM   16  C   UNL     1     -10.675  15.171  70.176  1.00  0.00    -0.221 C  
HETATM   17  C   UNL     1     -11.887  13.023  69.795  1.00  0.00    -0.311 C  
HETATM   18  C   UNL     1     -13.145  15.093  70.355  1.00  0.00    -0.194 C  
ENDBRANCH  14  15
ENDBRANCH  13  14
ENDBRANCH  12  13
ENDBRANCH  11  12
ENDBRANCH  10  11
ENDBRANCH   9  10
ENDBRANCH   8   9
ENDBRANCH   7   8
ENDBRANCH   6   7
ENDBRANCH   5   6
ENDBRANCH   2   5
TORSDOF 11
ENDMDL
MODEL      162
REMARK 921   NORMALIZED FREE ENERGY PREDICTED BY IDOCK:   -2.90 KCAL/MOL
REMARK 922        TOTAL FREE ENERGY PREDICTED BY IDOCK:   -5.54 KCAL/MOL
REMARK 923 INTER-LIGAND FREE ENERGY PREDICTED BY IDOCK:   -4.87 KCAL/MOL
REMARK 924 INTRA-LIGAND FREE ENERGY PREDICTED BY IDOCK:   -0.67 KCAL/MOL
REMARK 927      BINDING AFFINITY PREDICTED BY RF-SCORE:    0.00 PKD
ROOT
HETATM    1  C   UNL     1     -10.777  10.995  65.242  1.00  0.00    -0.164 C  
HETATM    2  N   UNL     1     -10.990  11.950  64.060  1.00  0.00    -0.348 N  
HETATM    3  C   UNL     1     -12.473  11.971  63.711  1.00  0.00    -0.485 C  
HETATM    4  C   UNL     1     -10.186  11.430  62.878  1.00  0.00    -0.162 C  
ENDROOT
BRANCH   2   5
HETATM    5  C   UNL     1     -10.507  13.321  64.512  1.00  0.00    -0.415 C  
BRANCH   5   6
HETATM    6  C   UNL     1     -11.612  14.367  64.668  1.00  0.00    -0.414 C  
BRANCH   6   7
HETATM    7  C   UNL     1     -11.046  15.778  64.461  1.00  0.00    -0.293 C  
BRANCH   7   8
HETATM    8  C   UNL     1     -10.527  16.425  65.752  1.00  0.00    -0.369 C  
BRANCH   8   9
HETATM    9  C   UNL     1      -9.460  15.584  66.462  1.00  0.00    -0.299 C  
BRANCH   9  10
HETATM   10  C   UNL     1      -9.363  15.902  67.956  1.00  0.00    -0.201 C  
BRANCH  10  11
HETATM   11  C   UNL     1     -10.633  16.565  68.499  1.00  0.00    -0.318 C  
BRANCH  11  12
HETATM   12  C   UNL     1     -11.038  16.050  69.885  1.00  0.00    -0.352 C  
BRANCH  12  13
HETATM   13  C   UNL     1     -12.040  14.890  69.838  1.00  0.00    -0.379 C  
BRANCH  13  14
HETATM   14  C   UNL     1     -11.360  13.585  70.252  1.00  0.00     0.201 C  
BRANCH  14  15
HETATM   15  N   UNL     1     -11.240  12.554  69.134  1.00  0.00    -0.253 N  
HETATM   16  C   UNL     1     -11.817  11.205  69.550  1.00  0.00    -0.353 C  
HETATM   17  C   UNL     1      -9.795  12.386  68.684  1.00  0.00    -0.077 C  
HETATM   18  C   UNL     1     -12.067  13.082  67.952  1.00  0.00    -0.186 C  
ENDBRANCH  14  15
ENDBRANCH  13  14
ENDBRANCH  12  13
ENDBRANCH  11  12
ENDBRANCH  10  11
ENDBRANCH   9  10
ENDBRANCH   8   9
ENDBRANCH   7   8
ENDBRANCH   6   7
ENDBRANCH   5   6
ENDBRANCH   2   5
TORSDOF 11
ENDMDL
MODEL      163
REMARK 921   NORMALIZED FREE ENERGY PREDICTED BY IDOCK:   -2.90 KCAL/MOL
REMARK 922        TOTAL FREE ENERGY PREDICTED BY IDOCK:   -5.54 KCAL/MOL
REMARK 923 INTER-LIGAND FREE ENERGY PREDICTED BY IDOCK:   -4.93 KCAL/MOL
REMARK 924 INTRA-LIGAND FREE ENERGY PREDICTED BY IDOCK:   -0.60 KCAL/MOL
REMARK 927      BINDING AFFINITY PREDICTED BY RF-SCORE:    0.00 PKD
ROOT
HETATM    1  C   UNL     1      -6.394  14.568  70.239  1.00  0.00    -0.170 C  
HETATM    2  N   UNL     1      -6.827  15.480  69.085  1.00  0.00    -0.143 N  
HETATM    3  C   UNL     1      -5.869  15.278  67.918  1.00  0.00    -0.146 C  
HETATM    4  C   UNL     1      -6.761  16.921  69.567  1.00  0.00    -0.169 C  
ENDROOT
BRANCH   2   5
HETATM    5  C   UNL     1      -8.247  15.073  68.713  1.00  0.00    -0.168 C  
BRANCH   5   6
HETATM    6  C   UNL     1      -8.517  15.003  67.209  1.00  0.00    -0.220 C  
BRANCH   6   7
HETATM    7  C   UNL     1      -9.647  15.966  66.824  1.00  0.00    -0.252 C  
BRANCH   7   8
HETATM    8  C   UNL     1     -10.296  15.639  65.473  1.00  0.00    -0.421 C  
BRANCH   8   9
HETATM    9  C   UNL     1     -10.700  14.167  65.338  1.00  0.00    -0.350 C  
BRANCH   9  10
HETATM   10  C   UNL     1     -11.765  13.756  66.357  1.00  0.00    -0.404 C  
BRANCH  10  11
HETATM   11  C   UNL     1     -11.689  12.268  66.716  1.00  0.00    -0.411 C  
BRANCH  11  12
HETATM   12  C   UNL     1     -11.695  12.010  68.228  1.00  0.00    -0.396 C  
BRANCH  12  13
HETATM   13  C   UNL     1     -11.203  10.609  68.611  1.00  0.00    -0.337 C  
BRANCH  13  14
HETATM   14  C   UNL     1     -11.288  10.413  70.124  1.00  0.00    -0.323 C  
BRANCH  14  15
HETATM   15  N   UNL     1     -11.088   8.972  70.586  1.00  0.00    -0.254 N  
HETATM   16  C   UNL     1     -10.769   8.047  69.417  1.00  0.00    -0.159 C  
HETATM   17  C   UNL     1     -12.305   8.455  71.341  1.00  0.00    -0.299 C  
HETATM   18  C   UNL     1      -9.881   8.974  71.536  1.00  0.00    -0.310 C  
ENDBRANCH  14  15
ENDBRANCH  13  14
ENDBRANCH  12  13
ENDBRANCH  11  12
ENDBRANCH  10  11
ENDBRANCH   9  10
ENDBRANCH   8   9
ENDBRANCH   7   8
ENDBRANCH   6   7
ENDBRANCH   5   6
ENDBRANCH   2   5
TORSDOF 11
ENDMDL
MODEL      164
REMARK 921   NORMALIZED FREE ENERGY PREDICTED BY IDOCK:   -2.90 KCAL/MOL
REMARK 922        TOTAL FREE ENERGY PREDICTED BY IDOCK:   -5.53 KCAL/MOL
REMARK 923 INTER-LIGAND FREE ENERGY PREDICTED BY IDOCK:   -4.48 KCAL/MOL
REMARK 924 INTRA-LIGAND FREE ENERGY PREDICTED BY IDOCK:   -1.04 KCAL/MOL
REMARK 927      BINDING AFFINITY PREDICTED BY RF-SCORE:    0.00 PKD
ROOT
HETATM    1  C   UNL     1      -7.551  12.446  68.672  1.00  0.00    -0.082 C  
HETATM    2  N   UNL     1      -6.435  13.493  68.572  1.00  0.00    -0.082 N  
HETATM    3  C   UNL     1      -5.186  12.823  68.012  1.00  0.00    -0.090 C  
HETATM    4  C   UNL     1      -6.155  14.026  69.969  1.00  0.00    -0.148 C  
ENDROOT
BRANCH   2   5
HETATM    5  C   UNL     1      -6.942  14.587  67.642  1.00  0.00    -0.184 C  
BRANCH   5   6
HETATM    6  C   UNL     1      -8.466  14.710  67.576  1.00  0.00    -0.200 C  
BRANCH   6   7
HETATM    7  C   UNL     1      -8.877  15.642  66.429  1.00  0.00    -0.365 C  
BRANCH   7   8
HETATM    8  C   UNL     1     -10.374  15.579  66.095  1.00  0.00    -0.327 C  
BRANCH   8   9
HETATM    9  C   UNL     1     -11.256  15.329  67.324  1.00  0.00    -0.306 C  
BRANCH   9  10
HETATM   10  C   UNL     1     -12.006  13.997  67.245  1.00  0.00    -0.448 C  
BRANCH  10  11
HETATM   11  C   UNL     1     -12.501  13.686  65.829  1.00  0.00    -0.524 C  
BRANCH  11  12
HETATM   12  C   UNL     1     -11.813  12.467  65.202  1.00  0.00    -0.450 C  
BRANCH  12  13
HETATM   13  C   UNL     1     -10.872  11.734  66.166  1.00  0.00    -0.336 C  
BRANCH  13  14
HETATM   14  C   UNL     1      -9.491  11.566  65.533  1.00  0.00    -0.212 C  
BRANCH  14  15
HETATM   15  N   UNL     1      -9.029  10.117  65.403  1.00  0.00    -0.166 N  
HETATM   16  C   UNL     1      -7.675   9.898  66.068  1.00  0.00    -0.108 C  
HETATM   17  C   UNL     1      -8.970   9.680  63.945  1.00  0.00    -0.218 C  
HETATM   18  C   UNL     1     -10.066   9.253  66.135  1.00  0.00    -0.233 C  
ENDBRANCH  14  15
ENDBRANCH  13  14
ENDBRANCH  12  13
ENDBRANCH  11  12
ENDBRANCH  10  11
ENDBRANCH   9  10
ENDBRANCH   8   9
ENDBRANCH   7   8
ENDBRANCH   6   7
ENDBRANCH   5   6
ENDBRANCH   2   5
TORSDOF 11
ENDMDL
MODEL      165
REMARK 921   NORMALIZED FREE ENERGY PREDICTED BY IDOCK:   -2.89 KCAL/MOL
REMARK 922        TOTAL FREE ENERGY PREDICTED BY IDOCK:   -5.52 KCAL/MOL
REMARK 923 INTER-LIGAND FREE ENERGY PREDICTED BY IDOCK:   -4.69 KCAL/MOL
REMARK 924 INTRA-LIGAND FREE ENERGY PREDICTED BY IDOCK:   -0.83 KCAL/MOL
REMARK 927      BINDING AFFINITY PREDICTED BY RF-SCORE:    0.00 PKD
ROOT
HETATM    1  C   UNL     1     -10.618  16.794  69.000  1.00  0.00    -0.343 C  
HETATM    2  N   UNL     1      -9.531  17.396  68.100  1.00  0.00    -0.279 N  
HETATM    3  C   UNL     1      -8.195  16.755  68.454  1.00  0.00    -0.224 C  
HETATM    4  C   UNL     1      -9.474  18.893  68.360  1.00  0.00    -0.356 C  
ENDROOT
BRANCH   2   5
HETATM    5  C   UNL     1      -9.932  17.087  66.664  1.00  0.00    -0.302 C  
BRANCH   5   6
HETATM    6  C   UNL     1     -10.747  15.804  66.492  1.00  0.00    -0.283 C  
BRANCH   6   7
HETATM    7  C   UNL     1     -10.025  14.835  65.547  1.00  0.00    -0.390 C  
BRANCH   7   8
HETATM    8  C   UNL     1     -10.161  13.362  65.959  1.00  0.00    -0.308 C  
BRANCH   8   9
HETATM    9  C   UNL     1      -9.223  12.968  67.106  1.00  0.00    -0.226 C  
BRANCH   9  10
HETATM   10  C   UNL     1      -9.972  12.352  68.290  1.00  0.00    -0.224 C  
BRANCH  10  11
HETATM   11  C   UNL     1      -9.721  10.847  68.424  1.00  0.00    -0.179 C  
BRANCH  11  12
HETATM   12  C   UNL     1     -10.688   9.996  67.591  1.00  0.00    -0.340 C  
BRANCH  12  13
HETATM   13  C   UNL     1      -9.984   9.096  66.569  1.00  0.00    -0.359 C  
BRANCH  13  14
HETATM   14  C   UNL     1      -9.861   9.814  65.226  1.00  0.00    -0.265 C  
BRANCH  14  15
HETATM   15  N   UNL     1      -8.476   9.732  64.591  1.00  0.00    -0.158 N  
HETATM   16  C   UNL     1      -8.118   8.300  64.208  1.00  0.00    -0.147 C  
HETATM   17  C   UNL     1      -7.407  10.307  65.510  1.00  0.00    -0.149 C  
HETATM   18  C   UNL     1      -8.526  10.571  63.306  1.00  0.00    -0.157 C  
ENDBRANCH  14  15
ENDBRANCH  13  14
ENDBRANCH  12  13
ENDBRANCH  11  12
ENDBRANCH  10  11
ENDBRANCH   9  10
ENDBRANCH   8   9
ENDBRANCH   7   8
ENDBRANCH   6   7
ENDBRANCH   5   6
ENDBRANCH   2   5
TORSDOF 11
ENDMDL
MODEL      166
REMARK 921   NORMALIZED FREE ENERGY PREDICTED BY IDOCK:   -2.89 KCAL/MOL
REMARK 922        TOTAL FREE ENERGY PREDICTED BY IDOCK:   -5.52 KCAL/MOL
REMARK 923 INTER-LIGAND FREE ENERGY PREDICTED BY IDOCK:   -4.80 KCAL/MOL
REMARK 924 INTRA-LIGAND FREE ENERGY PREDICTED BY IDOCK:   -0.72 KCAL/MOL
REMARK 927      BINDING AFFINITY PREDICTED BY RF-SCORE:    0.00 PKD
ROOT
HETATM    1  C   UNL     1     -11.744  15.996  71.267  1.00  0.00    -0.461 C  
HETATM    2  N   UNL     1     -11.329  15.424  69.906  1.00  0.00    -0.278 N  
HETATM    3  C   UNL     1      -9.839  15.111  69.942  1.00  0.00    -0.054 C  
HETATM    4  C   UNL     1     -11.613  16.472  68.842  1.00  0.00    -0.037 C  
ENDROOT
BRANCH   2   5
HETATM    5  C   UNL     1     -12.155  14.162  69.691  1.00  0.00    -0.349 C  
BRANCH   5   6
HETATM    6  C   UNL     1     -11.342  12.868  69.646  1.00  0.00    -0.166 C  
BRANCH   6   7
HETATM    7  C   UNL     1     -11.560  12.146  68.310  1.00  0.00    -0.382 C  
BRANCH   7   8
HETATM    8  C   UNL     1     -11.272  10.640  68.373  1.00  0.00    -0.347 C  
BRANCH   8   9
HETATM    9  C   UNL     1      -9.983  10.304  69.132  1.00  0.00    -0.235 C  
BRANCH   9  10
HETATM   10  C   UNL     1     -10.231   9.381  70.327  1.00  0.00    -0.295 C  
BRANCH  10  11
HETATM   11  C   UNL     1     -11.717   9.275  70.688  1.00  0.00    -0.276 C  
BRANCH  11  12
HETATM   12  C   UNL     1     -11.967   8.528  72.004  1.00  0.00    -0.427 C  
BRANCH  12  13
HETATM   13  C   UNL     1     -12.257   7.034  71.813  1.00  0.00    -0.387 C  
BRANCH  13  14
HETATM   14  C   UNL     1     -11.189   6.195  72.513  1.00  0.00    -0.287 C  
BRANCH  14  15
HETATM   15  N   UNL     1     -10.140   5.600  71.578  1.00  0.00    -0.194 N  
HETATM   16  C   UNL     1      -9.837   4.147  71.926  1.00  0.00    -0.181 C  
HETATM   17  C   UNL     1      -8.855   6.417  71.590  1.00  0.00    -0.136 C  
HETATM   18  C   UNL     1     -10.736   5.637  70.163  1.00  0.00    -0.305 C  
ENDBRANCH  14  15
ENDBRANCH  13  14
ENDBRANCH  12  13
ENDBRANCH  11  12
ENDBRANCH  10  11
ENDBRANCH   9  10
ENDBRANCH   8   9
ENDBRANCH   7   8
ENDBRANCH   6   7
ENDBRANCH   5   6
ENDBRANCH   2   5
TORSDOF 11
ENDMDL
MODEL      167
REMARK 921   NORMALIZED FREE ENERGY PREDICTED BY IDOCK:   -2.89 KCAL/MOL
REMARK 922        TOTAL FREE ENERGY PREDICTED BY IDOCK:   -5.51 KCAL/MOL
REMARK 923 INTER-LIGAND FREE ENERGY PREDICTED BY IDOCK:   -4.56 KCAL/MOL
REMARK 924 INTRA-LIGAND FREE ENERGY PREDICTED BY IDOCK:   -0.95 KCAL/MOL
REMARK 927      BINDING AFFINITY PREDICTED BY RF-SCORE:    0.00 PKD
ROOT
HETATM    1  C   UNL     1     -12.171  13.538  66.781  1.00  0.00    -0.340 C  
HETATM    2  N   UNL     1     -11.278  12.869  65.729  1.00  0.00    -0.287 N  
HETATM    3  C   UNL     1     -10.512  13.951  64.979  1.00  0.00    -0.410 C  
HETATM    4  C   UNL     1     -12.170  12.102  64.765  1.00  0.00    -0.264 C  
ENDROOT
BRANCH   2   5
HETATM    5  C   UNL     1     -10.334  11.941  66.483  1.00  0.00    -0.216 C  
BRANCH   5   6
HETATM    6  C   UNL     1     -11.027  10.947  67.416  1.00  0.00    -0.353 C  
BRANCH   6   7
HETATM    7  C   UNL     1     -10.704   9.507  66.999  1.00  0.00    -0.220 C  
BRANCH   7   8
HETATM    8  C   UNL     1      -9.366   9.370  66.260  1.00  0.00    -0.253 C  
BRANCH   8   9
HETATM    9  C   UNL     1      -8.210   8.954  67.178  1.00  0.00    -0.103 C  
BRANCH   9  10
HETATM   10  C   UNL     1      -7.584  10.145  67.907  1.00  0.00    -0.089 C  
BRANCH  10  11
HETATM   11  C   UNL     1      -7.754  10.057  69.428  1.00  0.00    -0.129 C  
BRANCH  11  12
HETATM   12  C   UNL     1      -8.190   8.667  69.908  1.00  0.00    -0.121 C  
BRANCH  12  13
HETATM   13  C   UNL     1      -9.159   8.708  71.096  1.00  0.00    -0.263 C  
BRANCH  13  14
HETATM   14  C   UNL     1     -10.509   8.113  70.699  1.00  0.00    -0.210 C  
BRANCH  14  15
HETATM   15  N   UNL     1     -11.576   8.188  71.787  1.00  0.00    -0.275 N  
HETATM   16  C   UNL     1     -12.726   7.225  71.514  1.00  0.00    -0.384 C  
HETATM   17  C   UNL     1     -12.111   9.605  71.946  1.00  0.00    -0.306 C  
HETATM   18  C   UNL     1     -10.901   7.765  73.100  1.00  0.00    -0.339 C  
ENDBRANCH  14  15
ENDBRANCH  13  14
ENDBRANCH  12  13
ENDBRANCH  11  12
ENDBRANCH  10  11
ENDBRANCH   9  10
ENDBRANCH   8   9
ENDBRANCH   7   8
ENDBRANCH   6   7
ENDBRANCH   5   6
ENDBRANCH   2   5
TORSDOF 11
ENDMDL
MODEL      168
REMARK 921   NORMALIZED FREE ENERGY PREDICTED BY IDOCK:   -2.86 KCAL/MOL
REMARK 922        TOTAL FREE ENERGY PREDICTED BY IDOCK:   -5.47 KCAL/MOL
REMARK 923 INTER-LIGAND FREE ENERGY PREDICTED BY IDOCK:   -4.94 KCAL/MOL
REMARK 924 INTRA-LIGAND FREE ENERGY PREDICTED BY IDOCK:   -0.53 KCAL/MOL
REMARK 927      BINDING AFFINITY PREDICTED BY RF-SCORE:    0.00 PKD
ROOT
HETATM    1  C   UNL     1      -7.114   7.726  74.476  1.00  0.00    -0.133 C  
HETATM    2  N   UNL     1      -8.024   6.681  73.818  1.00  0.00    -0.102 N  
HETATM    3  C   UNL     1      -7.856   5.357  74.551  1.00  0.00    -0.098 C  
HETATM    4  C   UNL     1      -7.600   6.527  72.365  1.00  0.00    -0.095 C  
ENDROOT
BRANCH   2   5
HETATM    5  C   UNL     1      -9.449   7.205  73.937  1.00  0.00    -0.257 C  
BRANCH   5   6
HETATM    6  C   UNL     1      -9.843   8.228  72.870  1.00  0.00    -0.303 C  
BRANCH   6   7
HETATM    7  C   UNL     1     -11.309   8.037  72.462  1.00  0.00    -0.469 C  
BRANCH   7   8
HETATM    8  C   UNL     1     -11.486   7.604  71.000  1.00  0.00    -0.294 C  
BRANCH   8   9
HETATM    9  C   UNL     1     -11.143   8.712  69.997  1.00  0.00    -0.161 C  
BRANCH   9  10
HETATM   10  C   UNL     1     -11.724  10.068  70.402  1.00  0.00    -0.365 C  
BRANCH  10  11
HETATM   11  C   UNL     1     -11.222  11.210  69.512  1.00  0.00    -0.341 C  
BRANCH  11  12
HETATM   12  C   UNL     1     -10.664  10.728  68.167  1.00  0.00    -0.257 C  
BRANCH  12  13
HETATM   13  C   UNL     1     -11.363  11.357  66.955  1.00  0.00    -0.309 C  
BRANCH  13  14
HETATM   14  C   UNL     1     -11.707  12.818  67.242  1.00  0.00    -0.378 C  
BRANCH  14  15
HETATM   15  N   UNL     1     -11.432  13.770  66.081  1.00  0.00    -0.328 N  
HETATM   16  C   UNL     1     -10.683  15.015  66.541  1.00  0.00    -0.312 C  
HETATM   17  C   UNL     1     -12.719  14.170  65.372  1.00  0.00    -0.431 C  
HETATM   18  C   UNL     1     -10.536  13.014  65.089  1.00  0.00    -0.312 C  
ENDBRANCH  14  15
ENDBRANCH  13  14
ENDBRANCH  12  13
ENDBRANCH  11  12
ENDBRANCH  10  11
ENDBRANCH   9  10
ENDBRANCH   8   9
ENDBRANCH   7   8
ENDBRANCH   6   7
ENDBRANCH   5   6
ENDBRANCH   2   5
TORSDOF 11
ENDMDL
MODEL      169
REMARK 921   NORMALIZED FREE ENERGY PREDICTED BY IDOCK:   -2.84 KCAL/MOL
REMARK 922        TOTAL FREE ENERGY PREDICTED BY IDOCK:   -5.44 KCAL/MOL
REMARK 923 INTER-LIGAND FREE ENERGY PREDICTED BY IDOCK:   -4.61 KCAL/MOL
REMARK 924 INTRA-LIGAND FREE ENERGY PREDICTED BY IDOCK:   -0.83 KCAL/MOL
REMARK 927      BINDING AFFINITY PREDICTED BY RF-SCORE:    0.00 PKD
ROOT
HETATM    1  C   UNL     1      -7.678   7.513  65.003  1.00  0.00    -0.116 C  
HETATM    2  N   UNL     1      -7.899   8.832  65.755  1.00  0.00    -0.097 N  
HETATM    3  C   UNL     1      -6.560   9.313  66.300  1.00  0.00    -0.070 C  
HETATM    4  C   UNL     1      -8.862   8.570  66.902  1.00  0.00    -0.137 C  
ENDROOT
BRANCH   2   5
HETATM    5  C   UNL     1      -8.475   9.818  64.748  1.00  0.00    -0.164 C  
BRANCH   5   6
HETATM    6  C   UNL     1      -9.724  10.561  65.226  1.00  0.00    -0.328 C  
BRANCH   6   7
HETATM    7  C   UNL     1     -10.571  11.007  64.028  1.00  0.00    -0.395 C  
BRANCH   7   8
HETATM    8  C   UNL     1     -10.696  12.531  63.900  1.00  0.00    -0.473 C  
BRANCH   8   9
HETATM    9  C   UNL     1     -12.044  13.069  64.394  1.00  0.00    -0.473 C  
BRANCH   9  10
HETATM   10  C   UNL     1     -12.076  14.598  64.460  1.00  0.00    -0.490 C  
BRANCH  10  11
HETATM   11  C   UNL     1     -10.801  15.185  65.076  1.00  0.00    -0.457 C  
BRANCH  11  12
HETATM   12  C   UNL     1     -10.980  15.622  66.535  1.00  0.00    -0.206 C  
BRANCH  12  13
HETATM   13  C   UNL     1     -10.512  14.571  67.549  1.00  0.00    -0.253 C  
BRANCH  13  14
HETATM   14  C   UNL     1     -11.696  13.726  68.020  1.00  0.00    -0.355 C  
BRANCH  14  15
HETATM   15  N   UNL     1     -11.307  12.389  68.645  1.00  0.00    -0.264 N  
HETATM   16  C   UNL     1     -11.826  12.265  70.073  1.00  0.00    -0.296 C  
HETATM   17  C   UNL     1      -9.799  12.180  68.619  1.00  0.00    -0.101 C  
HETATM   18  C   UNL     1     -11.972  11.294  67.798  1.00  0.00     0.067 C  
ENDBRANCH  14  15
ENDBRANCH  13  14
ENDBRANCH  12  13
ENDBRANCH  11  12
ENDBRANCH  10  11
ENDBRANCH   9  10
ENDBRANCH   8   9
ENDBRANCH   7   8
ENDBRANCH   6   7
ENDBRANCH   5   6
ENDBRANCH   2   5
TORSDOF 11
ENDMDL
MODEL      170
REMARK 921   NORMALIZED FREE ENERGY PREDICTED BY IDOCK:   -2.84 KCAL/MOL
REMARK 922        TOTAL FREE ENERGY PREDICTED BY IDOCK:   -5.44 KCAL/MOL
REMARK 923 INTER-LIGAND FREE ENERGY PREDICTED BY IDOCK:   -4.85 KCAL/MOL
REMARK 924 INTRA-LIGAND FREE ENERGY PREDICTED BY IDOCK:   -0.59 KCAL/MOL
REMARK 927      BINDING AFFINITY PREDICTED BY RF-SCORE:    0.00 PKD
ROOT
HETATM    1  C   UNL     1     -10.968  16.148  67.646  1.00  0.00    -0.268 C  
HETATM    2  N   UNL     1     -10.114  16.575  66.445  1.00  0.00    -0.298 N  
HETATM    3  C   UNL     1      -8.756  15.893  66.545  1.00  0.00    -0.315 C  
HETATM    4  C   UNL     1      -9.942  18.085  66.496  1.00  0.00    -0.371 C  
ENDROOT
BRANCH   2   5
HETATM    5  C   UNL     1     -10.865  16.135  65.196  1.00  0.00    -0.361 C  
BRANCH   5   6
HETATM    6  C   UNL     1     -10.704  14.654  64.844  1.00  0.00    -0.447 C  
BRANCH   6   7
HETATM    7  C   UNL     1     -12.002  14.106  64.237  1.00  0.00    -0.460 C  
BRANCH   7   8
HETATM    8  C   UNL     1     -12.658  13.007  65.085  1.00  0.00    -0.530 C  
BRANCH   8   9
HETATM    9  C   UNL     1     -12.105  12.936  66.513  1.00  0.00    -0.375 C  
BRANCH   9  10
HETATM   10  C   UNL     1     -11.363  11.627  66.790  1.00  0.00    -0.354 C  
BRANCH  10  11
HETATM   11  C   UNL     1     -10.677  11.620  68.160  1.00  0.00    -0.248 C  
BRANCH  11  12
HETATM   12  C   UNL     1      -9.269  12.227  68.133  1.00  0.00    -0.197 C  
BRANCH  12  13
HETATM   13  C   UNL     1      -8.182  11.272  68.641  1.00  0.00    -0.146 C  
BRANCH  13  14
HETATM   14  C   UNL     1      -8.405   9.869  68.079  1.00  0.00    -0.113 C  
BRANCH  14  15
HETATM   15  N   UNL     1      -7.558   8.783  68.737  1.00  0.00    -0.094 N  
HETATM   16  C   UNL     1      -7.916   8.606  70.208  1.00  0.00    -0.106 C  
HETATM   17  C   UNL     1      -6.070   9.077  68.596  1.00  0.00    -0.045 C  
HETATM   18  C   UNL     1      -7.874   7.470  68.007  1.00  0.00    -0.121 C  
ENDBRANCH  14  15
ENDBRANCH  13  14
ENDBRANCH  12  13
ENDBRANCH  11  12
ENDBRANCH  10  11
ENDBRANCH   9  10
ENDBRANCH   8   9
ENDBRANCH   7   8
ENDBRANCH   6   7
ENDBRANCH   5   6
ENDBRANCH   2   5
TORSDOF 11
ENDMDL
MODEL      171
REMARK 921   NORMALIZED FREE ENERGY PREDICTED BY IDOCK:   -2.84 KCAL/MOL
REMARK 922        TOTAL FREE ENERGY PREDICTED BY IDOCK:   -5.43 KCAL/MOL
REMARK 923 INTER-LIGAND FREE ENERGY PREDICTED BY IDOCK:   -4.35 KCAL/MOL
REMARK 924 INTRA-LIGAND FREE ENERGY PREDICTED BY IDOCK:   -1.09 KCAL/MOL
REMARK 927      BINDING AFFINITY PREDICTED BY RF-SCORE:    0.00 PKD
ROOT
HETATM    1  C   UNL     1      -7.444  12.094  68.467  1.00  0.00    -0.117 C  
HETATM    2  N   UNL     1      -8.419  10.928  68.261  1.00  0.00    -0.128 N  
HETATM    3  C   UNL     1      -8.179  10.330  66.881  1.00  0.00    -0.123 C  
HETATM    4  C   UNL     1      -9.837  11.471  68.352  1.00  0.00    -0.204 C  
ENDROOT
BRANCH   2   5
HETATM    5  C   UNL     1      -8.130   9.917  69.362  1.00  0.00    -0.139 C  
BRANCH   5   6
HETATM    6  C   UNL     1      -9.353   9.500  70.181  1.00  0.00    -0.286 C  
BRANCH   6   7
HETATM    7  C   UNL     1      -8.917   8.784  71.466  1.00  0.00    -0.306 C  
BRANCH   7   8
HETATM    8  C   UNL     1     -10.088   8.401  72.381  1.00  0.00    -0.386 C  
BRANCH   8   9
HETATM    9  C   UNL     1     -11.442   8.912  71.874  1.00  0.00    -0.442 C  
BRANCH   9  10
HETATM   10  C   UNL     1     -12.423   7.775  71.579  1.00  0.00    -0.348 C  
BRANCH  10  11
HETATM   11  C   UNL     1     -11.714   6.444  71.306  1.00  0.00    -0.359 C  
BRANCH  11  12
HETATM   12  C   UNL     1     -11.389   6.227  69.823  1.00  0.00    -0.506 C  
BRANCH  12  13
HETATM   13  C   UNL     1      -9.931   5.825  69.570  1.00  0.00    -0.250 C  
BRANCH  13  14
HETATM   14  C   UNL     1      -9.862   4.707  68.529  1.00  0.00    -0.111 C  
BRANCH  14  15
HETATM   15  N   UNL     1      -9.372   5.154  67.155  1.00  0.00    -0.120 N  
HETATM   16  C   UNL     1      -8.171   4.335  66.694  1.00  0.00    -0.102 C  
HETATM   17  C   UNL     1      -9.025   6.637  67.142  1.00  0.00    -0.118 C  
HETATM   18  C   UNL     1     -10.524   4.907  66.171  1.00  0.00    -0.302 C  
ENDBRANCH  14  15
ENDBRANCH  13  14
ENDBRANCH  12  13
ENDBRANCH  11  12
ENDBRANCH  10  11
ENDBRANCH   9  10
ENDBRANCH   8   9
ENDBRANCH   7   8
ENDBRANCH   6   7
ENDBRANCH   5   6
ENDBRANCH   2   5
TORSDOF 11
ENDMDL
MODEL      172
REMARK 921   NORMALIZED FREE ENERGY PREDICTED BY IDOCK:   -2.83 KCAL/MOL
REMARK 922        TOTAL FREE ENERGY PREDICTED BY IDOCK:   -5.42 KCAL/MOL
REMARK 923 INTER-LIGAND FREE ENERGY PREDICTED BY IDOCK:   -4.73 KCAL/MOL
REMARK 924 INTRA-LIGAND FREE ENERGY PREDICTED BY IDOCK:   -0.69 KCAL/MOL
REMARK 927      BINDING AFFINITY PREDICTED BY RF-SCORE:    0.00 PKD
ROOT
HETATM    1  C   UNL     1      -9.203  15.626  68.711  1.00  0.00    -0.211 C  
HETATM    2  N   UNL     1      -8.675  15.127  67.360  1.00  0.00    -0.180 N  
HETATM    3  C   UNL     1      -7.297  14.513  67.571  1.00  0.00    -0.189 C  
HETATM    4  C   UNL     1      -8.574  16.317  66.419  1.00  0.00    -0.326 C  
ENDROOT
BRANCH   2   5
HETATM    5  C   UNL     1      -9.672  14.092  66.856  1.00  0.00    -0.271 C  
BRANCH   5   6
HETATM    6  C   UNL     1     -11.119  14.585  66.781  1.00  0.00    -0.325 C  
BRANCH   6   7
HETATM    7  C   UNL     1     -11.611  14.578  65.329  1.00  0.00    -0.359 C  
BRANCH   7   8
HETATM    8  C   UNL     1     -12.646  13.483  65.037  1.00  0.00    -0.441 C  
BRANCH   8   9
HETATM    9  C   UNL     1     -12.252  12.578  63.864  1.00  0.00    -0.590 C  
BRANCH   9  10
HETATM   10  C   UNL     1     -10.738  12.386  63.755  1.00  0.00    -0.492 C  
BRANCH  10  11
HETATM   11  C   UNL     1     -10.318  10.923  63.933  1.00  0.00    -0.397 C  
BRANCH  11  12
HETATM   12  C   UNL     1      -9.585  10.661  65.255  1.00  0.00    -0.293 C  
BRANCH  12  13
HETATM   13  C   UNL     1      -9.066   9.225  65.391  1.00  0.00    -0.277 C  
BRANCH  13  14
HETATM   14  C   UNL     1      -7.846   9.015  64.493  1.00  0.00    -0.123 C  
BRANCH  14  15
HETATM   15  N   UNL     1      -6.970   7.829  64.887  1.00  0.00    -0.054 N  
HETATM   16  C   UNL     1      -7.759   6.525  64.890  1.00  0.00    -0.105 C  
HETATM   17  C   UNL     1      -6.317   8.046  66.245  1.00  0.00    -0.046 C  
HETATM   18  C   UNL     1      -5.870   7.719  63.821  1.00  0.00    -0.057 C  
ENDBRANCH  14  15
ENDBRANCH  13  14
ENDBRANCH  12  13
ENDBRANCH  11  12
ENDBRANCH  10  11
ENDBRANCH   9  10
ENDBRANCH   8   9
ENDBRANCH   7   8
ENDBRANCH   6   7
ENDBRANCH   5   6
ENDBRANCH   2   5
TORSDOF 11
ENDMDL
MODEL      173
REMARK 921   NORMALIZED FREE ENERGY PREDICTED BY IDOCK:   -2.83 KCAL/MOL
REMARK 922        TOTAL FREE ENERGY PREDICTED BY IDOCK:   -5.42 KCAL/MOL
REMARK 923 INTER-LIGAND FREE ENERGY PREDICTED BY IDOCK:   -4.31 KCAL/MOL
REMARK 924 INTRA-LIGAND FREE ENERGY PREDICTED BY IDOCK:   -1.11 KCAL/MOL
REMARK 927      BINDING AFFINITY PREDICTED BY RF-SCORE:    0.00 PKD
ROOT
HETATM    1  C   UNL     1      -7.711  12.322  68.444  1.00  0.00    -0.141 C  
HETATM    2  N   UNL     1      -8.596  11.082  68.262  1.00  0.00    -0.136 N  
HETATM    3  C   UNL     1      -8.276  10.449  66.914  1.00  0.00    -0.124 C  
HETATM    4  C   UNL     1     -10.050  11.526  68.295  1.00  0.00    -0.199 C  
ENDROOT
BRANCH   2   5
HETATM    5  C   UNL     1      -8.267  10.138  69.411  1.00  0.00    -0.166 C  
BRANCH   5   6
HETATM    6  C   UNL     1      -9.487   9.593  70.156  1.00  0.00    -0.298 C  
BRANCH   6   7
HETATM    7  C   UNL     1      -9.054   8.895  71.452  1.00  0.00    -0.318 C  
BRANCH   7   8
HETATM    8  C   UNL     1     -10.231   8.398  72.302  1.00  0.00    -0.396 C  
BRANCH   8   9
HETATM    9  C   UNL     1     -11.588   8.923  71.820  1.00  0.00    -0.422 C  
BRANCH   9  10
HETATM   10  C   UNL     1     -12.541   7.797  71.412  1.00  0.00    -0.339 C  
BRANCH  10  11
HETATM   11  C   UNL     1     -11.809   6.476  71.150  1.00  0.00    -0.383 C  
BRANCH  11  12
HETATM   12  C   UNL     1     -11.369   6.309  69.691  1.00  0.00    -0.492 C  
BRANCH  12  13
HETATM   13  C   UNL     1      -9.929   5.803  69.541  1.00  0.00    -0.250 C  
BRANCH  13  14
HETATM   14  C   UNL     1      -9.847   4.321  69.904  1.00  0.00    -0.197 C  
BRANCH  14  15
HETATM   15  N   UNL     1      -9.063   4.025  71.179  1.00  0.00    -0.111 N  
HETATM   16  C   UNL     1      -9.967   3.489  72.283  1.00  0.00    -0.166 C  
HETATM   17  C   UNL     1      -8.316   5.258  71.672  1.00  0.00    -0.118 C  
HETATM   18  C   UNL     1      -8.040   2.936  70.829  1.00  0.00    -0.049 C  
ENDBRANCH  14  15
ENDBRANCH  13  14
ENDBRANCH  12  13
ENDBRANCH  11  12
ENDBRANCH  10  11
ENDBRANCH   9  10
ENDBRANCH   8   9
ENDBRANCH   7   8
ENDBRANCH   6   7
ENDBRANCH   5   6
ENDBRANCH   2   5
TORSDOF 11
ENDMDL
MODEL      174
REMARK 921   NORMALIZED FREE ENERGY PREDICTED BY IDOCK:   -2.83 KCAL/MOL
REMARK 922        TOTAL FREE ENERGY PREDICTED BY IDOCK:   -5.42 KCAL/MOL
REMARK 923 INTER-LIGAND FREE ENERGY PREDICTED BY IDOCK:   -4.71 KCAL/MOL
REMARK 924 INTRA-LIGAND FREE ENERGY PREDICTED BY IDOCK:   -0.71 KCAL/MOL
REMARK 927      BINDING AFFINITY PREDICTED BY RF-SCORE:    0.00 PKD
ROOT
HETATM    1  C   UNL     1     -13.377  13.042  72.200  1.00  0.00    -0.524 C  
HETATM    2  N   UNL     1     -13.058  14.396  71.554  1.00  0.00    -0.323 N  
HETATM    3  C   UNL     1     -11.947  15.067  72.351  1.00  0.00    -0.348 C  
HETATM    4  C   UNL     1     -14.315  15.251  71.595  1.00  0.00    -0.561 C  
ENDROOT
BRANCH   2   5
HETATM    5  C   UNL     1     -12.619  14.106  70.125  1.00  0.00    -0.268 C  
BRANCH   5   6
HETATM    6  C   UNL     1     -11.617  12.958  69.987  1.00  0.00    -0.189 C  
BRANCH   6   7
HETATM    7  C   UNL     1     -12.149  11.899  69.013  1.00  0.00    -0.245 C  
BRANCH   7   8
HETATM    8  C   UNL     1     -11.054  11.247  68.159  1.00  0.00    -0.319 C  
BRANCH   8   9
HETATM    9  C   UNL     1      -9.957  12.229  67.731  1.00  0.00    -0.200 C  
BRANCH   9  10
HETATM   10  C   UNL     1      -9.837  12.345  66.210  1.00  0.00    -0.257 C  
BRANCH  10  11
HETATM   11  C   UNL     1     -10.506  11.178  65.477  1.00  0.00    -0.317 C  
BRANCH  11  12
HETATM   12  C   UNL     1     -10.199  11.151  63.975  1.00  0.00    -0.419 C  
BRANCH  12  13
HETATM   13  C   UNL     1      -8.902  10.409  63.630  1.00  0.00    -0.222 C  
BRANCH  13  14
HETATM   14  C   UNL     1      -8.708   9.217  64.567  1.00  0.00    -0.187 C  
BRANCH  14  15
HETATM   15  N   UNL     1      -7.334   9.152  65.229  1.00  0.00    -0.091 N  
HETATM   16  C   UNL     1      -6.665   7.802  65.003  1.00  0.00    -0.051 C  
HETATM   17  C   UNL     1      -7.421   9.446  66.721  1.00  0.00    -0.094 C  
HETATM   18  C   UNL     1      -6.469  10.232  64.562  1.00  0.00    -0.092 C  
ENDBRANCH  14  15
ENDBRANCH  13  14
ENDBRANCH  12  13
ENDBRANCH  11  12
ENDBRANCH  10  11
ENDBRANCH   9  10
ENDBRANCH   8   9
ENDBRANCH   7   8
ENDBRANCH   6   7
ENDBRANCH   5   6
ENDBRANCH   2   5
TORSDOF 11
ENDMDL
MODEL      175
REMARK 921   NORMALIZED FREE ENERGY PREDICTED BY IDOCK:   -2.83 KCAL/MOL
REMARK 922        TOTAL FREE ENERGY PREDICTED BY IDOCK:   -5.41 KCAL/MOL
REMARK 923 INTER-LIGAND FREE ENERGY PREDICTED BY IDOCK:   -4.50 KCAL/MOL
REMARK 924 INTRA-LIGAND FREE ENERGY PREDICTED BY IDOCK:   -0.91 KCAL/MOL
REMARK 927      BINDING AFFINITY PREDICTED BY RF-SCORE:    0.00 PKD
ROOT
HETATM    1  C   UNL     1     -10.549   7.835  67.010  1.00  0.00    -0.326 C  
HETATM    2  N   UNL     1      -9.045   8.118  67.112  1.00  0.00    -0.136 N  
HETATM    3  C   UNL     1      -8.407   7.860  65.753  1.00  0.00    -0.136 C  
HETATM    4  C   UNL     1      -8.453   7.177  68.150  1.00  0.00    -0.123 C  
ENDROOT
BRANCH   2   5
HETATM    5  C   UNL     1      -8.901   9.577  67.525  1.00  0.00    -0.125 C  
BRANCH   5   6
HETATM    6  C   UNL     1     -10.224  10.322  67.703  1.00  0.00    -0.247 C  
BRANCH   6   7
HETATM    7  C   UNL     1     -10.330  10.893  69.123  1.00  0.00    -0.228 C  
BRANCH   7   8
HETATM    8  C   UNL     1     -11.514  11.850  69.312  1.00  0.00    -0.366 C  
BRANCH   8   9
HETATM    9  C   UNL     1     -12.274  11.618  70.623  1.00  0.00    -0.461 C  
BRANCH   9  10
HETATM   10  C   UNL     1     -13.216  10.413  70.548  1.00  0.00    -0.095 C  
BRANCH  10  11
HETATM   11  C   UNL     1     -12.971   9.406  71.676  1.00  0.00    -0.471 C  
BRANCH  11  12
HETATM   12  C   UNL     1     -11.924   8.343  71.321  1.00  0.00    -0.323 C  
BRANCH  12  13
HETATM   13  C   UNL     1     -10.725   8.325  72.276  1.00  0.00    -0.399 C  
BRANCH  13  14
HETATM   14  C   UNL     1      -9.879   7.074  72.040  1.00  0.00    -0.159 C  
BRANCH  14  15
HETATM   15  N   UNL     1      -9.956   6.039  73.160  1.00  0.00    -0.173 N  
HETATM   16  C   UNL     1     -11.217   5.191  73.054  1.00  0.00    -0.322 C  
HETATM   17  C   UNL     1      -9.885   6.697  74.532  1.00  0.00    -0.297 C  
HETATM   18  C   UNL     1      -8.742   5.114  72.993  1.00  0.00    -0.114 C  
ENDBRANCH  14  15
ENDBRANCH  13  14
ENDBRANCH  12  13
ENDBRANCH  11  12
ENDBRANCH  10  11
ENDBRANCH   9  10
ENDBRANCH   8   9
ENDBRANCH   7   8
ENDBRANCH   6   7
ENDBRANCH   5   6
ENDBRANCH   2   5
TORSDOF 11
ENDMDL
MODEL      176
REMARK 921   NORMALIZED FREE ENERGY PREDICTED BY IDOCK:   -2.81 KCAL/MOL
REMARK 922        TOTAL FREE ENERGY PREDICTED BY IDOCK:   -5.39 KCAL/MOL
REMARK 923 INTER-LIGAND FREE ENERGY PREDICTED BY IDOCK:   -4.69 KCAL/MOL
REMARK 924 INTRA-LIGAND FREE ENERGY PREDICTED BY IDOCK:   -0.70 KCAL/MOL
REMARK 927      BINDING AFFINITY PREDICTED BY RF-SCORE:    0.00 PKD
ROOT
HETATM    1  C   UNL     1      -7.808   7.420  64.901  1.00  0.00    -0.125 C  
HETATM    2  N   UNL     1      -8.218   8.673  65.686  1.00  0.00    -0.116 N  
HETATM    3  C   UNL     1      -7.019   9.156  66.492  1.00  0.00    -0.080 C  
HETATM    4  C   UNL     1      -9.356   8.297  66.622  1.00  0.00    -0.192 C  
ENDROOT
BRANCH   2   5
HETATM    5  C   UNL     1      -8.651   9.710  64.659  1.00  0.00    -0.183 C  
BRANCH   5   6
HETATM    6  C   UNL     1     -10.000  10.371  64.950  1.00  0.00    -0.409 C  
BRANCH   6   7
HETATM    7  C   UNL     1     -10.508  11.118  63.711  1.00  0.00    -0.444 C  
BRANCH   7   8
HETATM    8  C   UNL     1     -10.676  12.628  63.932  1.00  0.00    -0.465 C  
BRANCH   8   9
HETATM    9  C   UNL     1     -12.038  13.002  64.527  1.00  0.00    -0.468 C  
BRANCH   9  10
HETATM   10  C   UNL     1     -12.245  14.516  64.610  1.00  0.00    -0.474 C  
BRANCH  10  11
HETATM   11  C   UNL     1     -10.940  15.273  64.876  1.00  0.00    -0.445 C  
BRANCH  11  12
HETATM   12  C   UNL     1     -10.804  15.751  66.327  1.00  0.00    -0.232 C  
BRANCH  12  13
HETATM   13  C   UNL     1      -9.943  14.828  67.197  1.00  0.00    -0.236 C  
BRANCH  13  14
HETATM   14  C   UNL     1      -8.466  15.200  67.064  1.00  0.00    -0.229 C  
BRANCH  14  15
HETATM   15  N   UNL     1      -7.586  14.710  68.210  1.00  0.00    -0.110 N  
HETATM   16  C   UNL     1      -6.142  15.168  68.044  1.00  0.00    -0.148 C  
HETATM   17  C   UNL     1      -7.639  13.194  68.344  1.00  0.00    -0.133 C  
HETATM   18  C   UNL     1      -8.141  15.340  69.496  1.00  0.00    -0.196 C  
ENDBRANCH  14  15
ENDBRANCH  13  14
ENDBRANCH  12  13
ENDBRANCH  11  12
ENDBRANCH  10  11
ENDBRANCH   9  10
ENDBRANCH   8   9
ENDBRANCH   7   8
ENDBRANCH   6   7
ENDBRANCH   5   6
ENDBRANCH   2   5
TORSDOF 11
ENDMDL
MODEL      177
REMARK 921   NORMALIZED FREE ENERGY PREDICTED BY IDOCK:   -2.81 KCAL/MOL
REMARK 922        TOTAL FREE ENERGY PREDICTED BY IDOCK:   -5.39 KCAL/MOL
REMARK 923 INTER-LIGAND FREE ENERGY PREDICTED BY IDOCK:   -4.69 KCAL/MOL
REMARK 924 INTRA-LIGAND FREE ENERGY PREDICTED BY IDOCK:   -0.69 KCAL/MOL
REMARK 927      BINDING AFFINITY PREDICTED BY RF-SCORE:    0.00 PKD
ROOT
HETATM    1  C   UNL     1      -6.752  15.457  69.150  1.00  0.00    -0.138 C  
HETATM    2  N   UNL     1      -6.843  16.861  68.539  1.00  0.00    -0.164 N  
HETATM    3  C   UNL     1      -6.420  16.785  67.077  1.00  0.00    -0.194 C  
HETATM    4  C   UNL     1      -5.901  17.776  69.305  1.00  0.00    -0.221 C  
ENDROOT
BRANCH   2   5
HETATM    5  C   UNL     1      -8.294  17.303  68.674  1.00  0.00    -0.255 C  
BRANCH   5   6
HETATM    6  C   UNL     1      -9.308  16.158  68.723  1.00  0.00    -0.229 C  
BRANCH   6   7
HETATM    7  C   UNL     1     -10.687  16.646  68.263  1.00  0.00    -0.351 C  
BRANCH   7   8
HETATM    8  C   UNL     1     -11.843  15.761  68.749  1.00  0.00    -0.321 C  
BRANCH   8   9
HETATM    9  C   UNL     1     -11.384  14.382  69.236  1.00  0.00    -0.319 C  
BRANCH   9  10
HETATM   10  C   UNL     1     -11.840  13.252  68.309  1.00  0.00    -0.389 C  
BRANCH  10  11
HETATM   11  C   UNL     1     -11.169  13.315  66.933  1.00  0.00    -0.332 C  
BRANCH  11  12
HETATM   12  C   UNL     1     -12.073  12.819  65.797  1.00  0.00    -0.505 C  
BRANCH  12  13
HETATM   13  C   UNL     1     -11.313  12.074  64.693  1.00  0.00    -0.377 C  
BRANCH  13  14
HETATM   14  C   UNL     1      -9.807  12.148  64.944  1.00  0.00    -0.150 C  
BRANCH  14  15
HETATM   15  N   UNL     1      -9.135  10.793  65.151  1.00  0.00    -0.198 N  
HETATM   16  C   UNL     1      -7.938  10.898  66.089  1.00  0.00    -0.155 C  
HETATM   17  C   UNL     1      -8.706  10.177  63.827  1.00  0.00    -0.212 C  
HETATM   18  C   UNL     1     -10.178   9.877  65.808  1.00  0.00    -0.181 C  
ENDBRANCH  14  15
ENDBRANCH  13  14
ENDBRANCH  12  13
ENDBRANCH  11  12
ENDBRANCH  10  11
ENDBRANCH   9  10
ENDBRANCH   8   9
ENDBRANCH   7   8
ENDBRANCH   6   7
ENDBRANCH   5   6
ENDBRANCH   2   5
TORSDOF 11
ENDMDL
MODEL      178
REMARK 921   NORMALIZED FREE ENERGY PREDICTED BY IDOCK:   -2.80 KCAL/MOL
REMARK 922        TOTAL FREE ENERGY PREDICTED BY IDOCK:   -5.37 KCAL/MOL
REMARK 923 INTER-LIGAND FREE ENERGY PREDICTED BY IDOCK:   -4.97 KCAL/MOL
REMARK 924 INTRA-LIGAND FREE ENERGY PREDICTED BY IDOCK:   -0.40 KCAL/MOL
REMARK 927      BINDING AFFINITY PREDICTED BY RF-SCORE:    0.00 PKD
ROOT
HETATM    1  C   UNL     1     -11.469  15.443  70.356  1.00  0.00    -0.330 C  
HETATM    2  N   UNL     1     -10.785  15.290  68.992  1.00  0.00    -0.233 N  
HETATM    3  C   UNL     1      -9.292  15.092  69.214  1.00  0.00    -0.207 C  
HETATM    4  C   UNL     1     -11.027  16.561  68.192  1.00  0.00    -0.336 C  
ENDROOT
BRANCH   2   5
HETATM    5  C   UNL     1     -11.412  14.074  68.322  1.00  0.00    -0.304 C  
BRANCH   5   6
HETATM    6  C   UNL     1     -10.952  12.729  68.885  1.00  0.00    -0.275 C  
BRANCH   6   7
HETATM    7  C   UNL     1     -12.152  11.929  69.407  1.00  0.00    -0.277 C  
BRANCH   7   8
HETATM    8  C   UNL     1     -11.784  10.910  70.494  1.00  0.00    -0.441 C  
BRANCH   8   9
HETATM    9  C   UNL     1     -12.963  10.544  71.402  1.00  0.00    -0.542 C  
BRANCH   9  10
HETATM   10  C   UNL     1     -12.791   9.174  72.062  1.00  0.00    -0.483 C  
BRANCH  10  11
HETATM   11  C   UNL     1     -12.250   8.119  71.090  1.00  0.00    -0.257 C  
BRANCH  11  12
HETATM   12  C   UNL     1     -11.844   6.812  71.783  1.00  0.00    -0.371 C  
BRANCH  12  13
HETATM   13  C   UNL     1     -10.358   6.471  71.620  1.00  0.00    -0.232 C  
BRANCH  13  14
HETATM   14  C   UNL     1      -9.915   5.497  72.711  1.00  0.00    -0.170 C  
BRANCH  14  15
HETATM   15  N   UNL     1      -9.500   4.121  72.198  1.00  0.00    -0.127 N  
HETATM   16  C   UNL     1      -8.022   3.848  72.456  1.00  0.00    -0.081 C  
HETATM   17  C   UNL     1      -9.807   3.964  70.715  1.00  0.00    -0.141 C  
HETATM   18  C   UNL     1     -10.320   3.088  72.985  1.00  0.00    -0.159 C  
ENDBRANCH  14  15
ENDBRANCH  13  14
ENDBRANCH  12  13
ENDBRANCH  11  12
ENDBRANCH  10  11
ENDBRANCH   9  10
ENDBRANCH   8   9
ENDBRANCH   7   8
ENDBRANCH   6   7
ENDBRANCH   5   6
ENDBRANCH   2   5
TORSDOF 11
ENDMDL
MODEL      179
REMARK 921   NORMALIZED FREE ENERGY PREDICTED BY IDOCK:   -2.80 KCAL/MOL
REMARK 922        TOTAL FREE ENERGY PREDICTED BY IDOCK:   -5.36 KCAL/MOL
REMARK 923 INTER-LIGAND FREE ENERGY PREDICTED BY IDOCK:   -4.65 KCAL/MOL
REMARK 924 INTRA-LIGAND FREE ENERGY PREDICTED BY IDOCK:   -0.71 KCAL/MOL
REMARK 927      BINDING AFFINITY PREDICTED BY RF-SCORE:    0.00 PKD
ROOT
HETATM    1  C   UNL     1     -10.190   5.019  66.954  1.00  0.00    -0.229 C  
HETATM    2  N   UNL     1      -9.248   4.673  65.793  1.00  0.00    -0.140 N  
HETATM    3  C   UNL     1     -10.071   4.077  64.659  1.00  0.00    -0.206 C  
HETATM    4  C   UNL     1      -8.234   3.654  66.290  1.00  0.00    -0.100 C  
ENDROOT
BRANCH   2   5
HETATM    5  C   UNL     1      -8.580   5.974  65.370  1.00  0.00    -0.124 C  
BRANCH   5   6
HETATM    6  C   UNL     1      -8.909   7.177  66.256  1.00  0.00    -0.166 C  
BRANCH   6   7
HETATM    7  C   UNL     1      -8.721   8.484  65.475  1.00  0.00    -0.208 C  
BRANCH   7   8
HETATM    8  C   UNL     1      -9.132   9.734  66.264  1.00  0.00    -0.192 C  
BRANCH   8   9
HETATM    9  C   UNL     1      -8.587   9.749  67.697  1.00  0.00    -0.125 C  
BRANCH   9  10
HETATM   10  C   UNL     1      -9.527  10.461  68.673  1.00  0.00    -0.167 C  
BRANCH  10  11
HETATM   11  C   UNL     1     -10.988  10.420  68.215  1.00  0.00    -0.321 C  
BRANCH  11  12
HETATM   12  C   UNL     1     -11.639  11.807  68.149  1.00  0.00    -0.391 C  
BRANCH  12  13
HETATM   13  C   UNL     1     -11.149  12.656  66.969  1.00  0.00    -0.322 C  
BRANCH  13  14
HETATM   14  C   UNL     1     -12.272  12.843  65.949  1.00  0.00    -0.407 C  
BRANCH  14  15
HETATM   15  N   UNL     1     -11.794  13.189  64.542  1.00  0.00    -0.358 N  
HETATM   16  C   UNL     1     -12.124  14.632  64.176  1.00  0.00    -0.320 C  
HETATM   17  C   UNL     1     -12.384  12.242  63.505  1.00  0.00    -0.565 C  
HETATM   18  C   UNL     1     -10.267  13.033  64.541  1.00  0.00    -0.308 C  
ENDBRANCH  14  15
ENDBRANCH  13  14
ENDBRANCH  12  13
ENDBRANCH  11  12
ENDBRANCH  10  11
ENDBRANCH   9  10
ENDBRANCH   8   9
ENDBRANCH   7   8
ENDBRANCH   6   7
ENDBRANCH   5   6
ENDBRANCH   2   5
TORSDOF 11
ENDMDL
MODEL      180
REMARK 921   NORMALIZED FREE ENERGY PREDICTED BY IDOCK:   -2.79 KCAL/MOL
REMARK 922        TOTAL FREE ENERGY PREDICTED BY IDOCK:   -5.36 KCAL/MOL
REMARK 923 INTER-LIGAND FREE ENERGY PREDICTED BY IDOCK:   -5.03 KCAL/MOL
REMARK 924 INTRA-LIGAND FREE ENERGY PREDICTED BY IDOCK:   -0.33 KCAL/MOL
REMARK 927      BINDING AFFINITY PREDICTED BY RF-SCORE:    0.00 PKD
ROOT
HETATM    1  C   UNL     1     -13.362  13.071  72.241  1.00  0.00    -0.506 C  
HETATM    2  N   UNL     1     -13.073  14.428  71.588  1.00  0.00    -0.331 N  
HETATM    3  C   UNL     1     -11.965  15.120  72.371  1.00  0.00    -0.393 C  
HETATM    4  C   UNL     1     -14.344  15.262  71.639  1.00  0.00    -0.561 C  
ENDROOT
BRANCH   2   5
HETATM    5  C   UNL     1     -12.643  14.141  70.155  1.00  0.00    -0.268 C  
BRANCH   5   6
HETATM    6  C   UNL     1     -11.360  13.319  70.027  1.00  0.00     0.010 C  
BRANCH   6   7
HETATM    7  C   UNL     1     -11.693  11.854  69.718  1.00  0.00    -0.403 C  
BRANCH   7   8
HETATM    8  C   UNL     1     -10.562  11.108  68.997  1.00  0.00    -0.251 C  
BRANCH   8   9
HETATM    9  C   UNL     1     -10.636  11.232  67.471  1.00  0.00    -0.257 C  
BRANCH   9  10
HETATM   10  C   UNL     1     -10.653   9.870  66.773  1.00  0.00    -0.214 C  
BRANCH  10  11
HETATM   11  C   UNL     1     -10.653   8.702  67.765  1.00  0.00    -0.249 C  
BRANCH  11  12
HETATM   12  C   UNL     1     -10.341   7.351  67.108  1.00  0.00    -0.377 C  
BRANCH  12  13
HETATM   13  C   UNL     1      -9.599   6.379  68.034  1.00  0.00    -0.118 C  
BRANCH  13  14
HETATM   14  C   UNL     1     -10.579   5.716  69.001  1.00  0.00    -0.246 C  
BRANCH  14  15
HETATM   15  N   UNL     1     -10.283   5.976  70.475  1.00  0.00    -0.196 N  
HETATM   16  C   UNL     1     -11.473   6.615  71.182  1.00  0.00    -0.320 C  
HETATM   17  C   UNL     1      -9.046   6.847  70.650  1.00  0.00    -0.155 C  
HETATM   18  C   UNL     1     -10.021   4.609  71.123  1.00  0.00    -0.195 C  
ENDBRANCH  14  15
ENDBRANCH  13  14
ENDBRANCH  12  13
ENDBRANCH  11  12
ENDBRANCH  10  11
ENDBRANCH   9  10
ENDBRANCH   8   9
ENDBRANCH   7   8
ENDBRANCH   6   7
ENDBRANCH   5   6
ENDBRANCH   2   5
TORSDOF 11
ENDMDL
MODEL      181
REMARK 921   NORMALIZED FREE ENERGY PREDICTED BY IDOCK:   -2.78 KCAL/MOL
REMARK 922        TOTAL FREE ENERGY PREDICTED BY IDOCK:   -5.33 KCAL/MOL
REMARK 923 INTER-LIGAND FREE ENERGY PREDICTED BY IDOCK:   -5.15 KCAL/MOL
REMARK 924 INTRA-LIGAND FREE ENERGY PREDICTED BY IDOCK:   -0.18 KCAL/MOL
REMARK 927      BINDING AFFINITY PREDICTED BY RF-SCORE:    0.00 PKD
ROOT
HETATM    1  C   UNL     1     -10.510  10.701  65.109  1.00  0.00    -0.201 C  
HETATM    2  N   UNL     1     -10.601  11.719  63.965  1.00  0.00    -0.336 N  
HETATM    3  C   UNL     1     -12.034  11.747  63.450  1.00  0.00    -0.338 C  
HETATM    4  C   UNL     1      -9.660  11.275  62.856  1.00  0.00    -0.352 C  
ENDROOT
BRANCH   2   5
HETATM    5  C   UNL     1     -10.194  13.067  64.545  1.00  0.00    -0.308 C  
BRANCH   5   6
HETATM    6  C   UNL     1     -11.360  14.013  64.839  1.00  0.00    -0.354 C  
BRANCH   6   7
HETATM    7  C   UNL     1     -10.863  15.462  64.926  1.00  0.00    -0.445 C  
BRANCH   7   8
HETATM    8  C   UNL     1     -10.296  15.833  66.303  1.00  0.00    -0.320 C  
BRANCH   8   9
HETATM    9  C   UNL     1      -8.987  15.107  66.632  1.00  0.00    -0.319 C  
BRANCH   9  10
HETATM   10  C   UNL     1      -8.544  15.326  68.081  1.00  0.00    -0.160 C  
BRANCH  10  11
HETATM   11  C   UNL     1      -7.100  15.828  68.182  1.00  0.00    -0.123 C  
BRANCH  11  12
HETATM   12  C   UNL     1      -6.972  17.146  68.956  1.00  0.00    -0.235 C  
BRANCH  12  13
HETATM   13  C   UNL     1      -7.011  18.388  68.057  1.00  0.00    -0.231 C  
BRANCH  13  14
HETATM   14  C   UNL     1      -8.114  19.340  68.517  1.00  0.00    -0.366 C  
BRANCH  14  15
HETATM   15  N   UNL     1      -9.209  19.584  67.483  1.00  0.00    -0.306 N  
HETATM   16  C   UNL     1      -9.539  21.066  67.353  1.00  0.00    -0.121 C  
HETATM   17  C   UNL     1     -10.471  18.797  67.812  1.00  0.00    -0.420 C  
HETATM   18  C   UNL     1      -8.661  19.097  66.134  1.00  0.00    -0.219 C  
ENDBRANCH  14  15
ENDBRANCH  13  14
ENDBRANCH  12  13
ENDBRANCH  11  12
ENDBRANCH  10  11
ENDBRANCH   9  10
ENDBRANCH   8   9
ENDBRANCH   7   8
ENDBRANCH   6   7
ENDBRANCH   5   6
ENDBRANCH   2   5
TORSDOF 11
ENDMDL
MODEL      182
REMARK 921   NORMALIZED FREE ENERGY PREDICTED BY IDOCK:   -2.76 KCAL/MOL
REMARK 922        TOTAL FREE ENERGY PREDICTED BY IDOCK:   -5.31 KCAL/MOL
REMARK 923 INTER-LIGAND FREE ENERGY PREDICTED BY IDOCK:   -4.75 KCAL/MOL
REMARK 924 INTRA-LIGAND FREE ENERGY PREDICTED BY IDOCK:   -0.55 KCAL/MOL
REMARK 927      BINDING AFFINITY PREDICTED BY RF-SCORE:    0.00 PKD
ROOT
HETATM    1  C   UNL     1     -10.195   4.512  71.951  1.00  0.00    -0.171 C  
HETATM    2  N   UNL     1      -9.432   4.661  73.274  1.00  0.00    -0.122 N  
HETATM    3  C   UNL     1      -8.399   3.546  73.369  1.00  0.00    -0.079 C  
HETATM    4  C   UNL     1     -10.431   4.543  74.415  1.00  0.00    -0.270 C  
ENDROOT
BRANCH   2   5
HETATM    5  C   UNL     1      -8.769   6.032  73.245  1.00  0.00    -0.120 C  
BRANCH   5   6
HETATM    6  C   UNL     1      -9.085   6.866  72.002  1.00  0.00    -0.141 C  
BRANCH   6   7
HETATM    7  C   UNL     1      -9.444   8.303  72.401  1.00  0.00    -0.357 C  
BRANCH   7   8
HETATM    8  C   UNL     1      -9.572   9.257  71.205  1.00  0.00    -0.272 C  
BRANCH   8   9
HETATM    9  C   UNL     1     -10.907   9.120  70.465  1.00  0.00    -0.306 C  
BRANCH   9  10
HETATM   10  C   UNL     1     -12.049   9.851  71.175  1.00  0.00    -0.466 C  
BRANCH  10  11
HETATM   11  C   UNL     1     -12.728  10.890  70.278  1.00  0.00    -0.285 C  
BRANCH  11  12
HETATM   12  C   UNL     1     -11.775  11.993  69.801  1.00  0.00    -0.390 C  
BRANCH  12  13
HETATM   13  C   UNL     1     -11.854  12.259  68.293  1.00  0.00    -0.367 C  
BRANCH  13  14
HETATM   14  C   UNL     1     -11.771  13.760  68.015  1.00  0.00    -0.355 C  
BRANCH  14  15
HETATM   15  N   UNL     1     -10.460  14.213  67.379  1.00  0.00    -0.269 N  
HETATM   16  C   UNL     1      -9.641  13.029  66.878  1.00  0.00    -0.243 C  
HETATM   17  C   UNL     1      -9.631  15.047  68.347  1.00  0.00    -0.212 C  
HETATM   18  C   UNL     1     -10.831  15.083  66.170  1.00  0.00    -0.329 C  
ENDBRANCH  14  15
ENDBRANCH  13  14
ENDBRANCH  12  13
ENDBRANCH  11  12
ENDBRANCH  10  11
ENDBRANCH   9  10
ENDBRANCH   8   9
ENDBRANCH   7   8
ENDBRANCH   6   7
ENDBRANCH   5   6
ENDBRANCH   2   5
TORSDOF 11
ENDMDL
MODEL      183
REMARK 921   NORMALIZED FREE ENERGY PREDICTED BY IDOCK:   -2.76 KCAL/MOL
REMARK 922        TOTAL FREE ENERGY PREDICTED BY IDOCK:   -5.30 KCAL/MOL
REMARK 923 INTER-LIGAND FREE ENERGY PREDICTED BY IDOCK:   -4.74 KCAL/MOL
REMARK 924 INTRA-LIGAND FREE ENERGY PREDICTED BY IDOCK:   -0.56 KCAL/MOL
REMARK 927      BINDING AFFINITY PREDICTED BY RF-SCORE:    0.00 PKD
ROOT
HETATM    1  C   UNL     1      -7.784   3.569  66.520  1.00  0.00    -0.081 C  
HETATM    2  N   UNL     1      -8.438   4.670  65.676  1.00  0.00    -0.116 N  
HETATM    3  C   UNL     1      -9.666   4.091  64.985  1.00  0.00    -0.195 C  
HETATM    4  C   UNL     1      -7.430   5.136  64.637  1.00  0.00    -0.072 C  
ENDROOT
BRANCH   2   5
HETATM    5  C   UNL     1      -8.818   5.790  66.636  1.00  0.00    -0.121 C  
BRANCH   5   6
HETATM    6  C   UNL     1     -10.169   5.605  67.329  1.00  0.00    -0.250 C  
BRANCH   6   7
HETATM    7  C   UNL     1     -11.063   6.828  67.092  1.00  0.00    -0.404 C  
BRANCH   7   8
HETATM    8  C   UNL     1     -10.299   8.159  67.117  1.00  0.00    -0.391 C  
BRANCH   8   9
HETATM    9  C   UNL     1     -10.148   8.742  68.527  1.00  0.00    -0.210 C  
BRANCH   9  10
HETATM   10  C   UNL     1     -10.146  10.272  68.531  1.00  0.00    -0.181 C  
BRANCH  10  11
HETATM   11  C   UNL     1     -11.488  10.862  68.082  1.00  0.00    -0.368 C  
BRANCH  11  12
HETATM   12  C   UNL     1     -11.847  12.166  68.805  1.00  0.00    -0.356 C  
BRANCH  12  13
HETATM   13  C   UNL     1     -11.982  13.369  67.864  1.00  0.00    -0.360 C  
BRANCH  13  14
HETATM   14  C   UNL     1     -11.937  12.909  66.407  1.00  0.00    -0.395 C  
BRANCH  14  15
HETATM   15  N   UNL     1     -10.717  13.394  65.629  1.00  0.00    -0.273 N  
HETATM   16  C   UNL     1      -9.524  13.633  66.548  1.00  0.00    -0.259 C  
HETATM   17  C   UNL     1     -11.027  14.659  64.839  1.00  0.00    -0.407 C  
HETATM   18  C   UNL     1     -10.345  12.275  64.645  1.00  0.00    -0.301 C  
ENDBRANCH  14  15
ENDBRANCH  13  14
ENDBRANCH  12  13
ENDBRANCH  11  12
ENDBRANCH  10  11
ENDBRANCH   9  10
ENDBRANCH   8   9
ENDBRANCH   7   8
ENDBRANCH   6   7
ENDBRANCH   5   6
ENDBRANCH   2   5
TORSDOF 11
ENDMDL
MODEL      184
REMARK 921   NORMALIZED FREE ENERGY PREDICTED BY IDOCK:   -2.75 KCAL/MOL
REMARK 922        TOTAL FREE ENERGY PREDICTED BY IDOCK:   -5.28 KCAL/MOL
REMARK 923 INTER-LIGAND FREE ENERGY PREDICTED BY IDOCK:   -4.80 KCAL/MOL
REMARK 924 INTRA-LIGAND FREE ENERGY PREDICTED BY IDOCK:   -0.48 KCAL/MOL
REMARK 927      BINDING AFFINITY PREDICTED BY RF-SCORE:    0.00 PKD
ROOT
HETATM    1  C   UNL     1      -8.100  19.269  68.654  1.00  0.00    -0.370 C  
HETATM    2  N   UNL     1      -8.890  19.009  67.365  1.00  0.00    -0.285 N  
HETATM    3  C   UNL     1      -8.119  19.602  66.193  1.00  0.00    -0.346 C  
HETATM    4  C   UNL     1     -10.245  19.687  67.491  1.00  0.00    -0.432 C  
ENDROOT
BRANCH   2   5
HETATM    5  C   UNL     1      -9.025  17.498  67.232  1.00  0.00    -0.235 C  
BRANCH   5   6
HETATM    6  C   UNL     1     -10.464  16.996  67.104  1.00  0.00    -0.291 C  
BRANCH   6   7
HETATM    7  C   UNL     1     -10.706  16.417  65.704  1.00  0.00    -0.280 C  
BRANCH   7   8
HETATM    8  C   UNL     1     -10.772  14.884  65.677  1.00  0.00    -0.352 C  
BRANCH   8   9
HETATM    9  C   UNL     1     -11.812  14.309  66.645  1.00  0.00    -0.442 C  
BRANCH   9  10
HETATM   10  C   UNL     1     -11.940  12.788  66.530  1.00  0.00    -0.428 C  
BRANCH  10  11
HETATM   11  C   UNL     1     -10.716  12.053  67.086  1.00  0.00    -0.277 C  
BRANCH  11  12
HETATM   12  C   UNL     1     -11.038  10.642  67.595  1.00  0.00    -0.385 C  
BRANCH  12  13
HETATM   13  C   UNL     1      -9.853   9.957  68.287  1.00  0.00    -0.165 C  
BRANCH  13  14
HETATM   14  C   UNL     1      -8.684  10.932  68.423  1.00  0.00    -0.147 C  
BRANCH  14  15
HETATM   15  N   UNL     1      -7.351  10.275  68.769  1.00  0.00    -0.081 N  
HETATM   16  C   UNL     1      -7.544   8.855  69.289  1.00  0.00    -0.082 C  
HETATM   17  C   UNL     1      -6.570  11.099  69.784  1.00  0.00    -0.138 C  
HETATM   18  C   UNL     1      -6.542  10.200  67.466  1.00  0.00    -0.068 C  
ENDBRANCH  14  15
ENDBRANCH  13  14
ENDBRANCH  12  13
ENDBRANCH  11  12
ENDBRANCH  10  11
ENDBRANCH   9  10
ENDBRANCH   8   9
ENDBRANCH   7   8
ENDBRANCH   6   7
ENDBRANCH   5   6
ENDBRANCH   2   5
TORSDOF 11
ENDMDL
MODEL      185
REMARK 921   NORMALIZED FREE ENERGY PREDICTED BY IDOCK:   -2.75 KCAL/MOL
REMARK 922        TOTAL FREE ENERGY PREDICTED BY IDOCK:   -5.28 KCAL/MOL
REMARK 923 INTER-LIGAND FREE ENERGY PREDICTED BY IDOCK:   -4.31 KCAL/MOL
REMARK 924 INTRA-LIGAND FREE ENERGY PREDICTED BY IDOCK:   -0.97 KCAL/MOL
REMARK 927      BINDING AFFINITY PREDICTED BY RF-SCORE:    0.00 PKD
ROOT
HETATM    1  C   UNL     1     -11.880   8.908  71.243  1.00  0.00    -0.310 C  
HETATM    2  N   UNL     1     -12.278   7.429  71.336  1.00  0.00    -0.326 N  
HETATM    3  C   UNL     1     -11.883   6.736  70.039  1.00  0.00    -0.206 C  
HETATM    4  C   UNL     1     -13.785   7.352  71.528  1.00  0.00    -0.371 C  
ENDROOT
BRANCH   2   5
HETATM    5  C   UNL     1     -11.527   6.848  72.527  1.00  0.00    -0.230 C  
BRANCH   5   6
HETATM    6  C   UNL     1     -10.389   7.726  73.053  1.00  0.00    -0.410 C  
BRANCH   6   7
HETATM    7  C   UNL     1      -9.034   7.183  72.581  1.00  0.00    -0.148 C  
BRANCH   7   8
HETATM    8  C   UNL     1      -7.890   8.197  72.711  1.00  0.00    -0.197 C  
BRANCH   8   9
HETATM    9  C   UNL     1      -7.419   8.751  71.362  1.00  0.00    -0.126 C  
BRANCH   9  10
HETATM   10  C   UNL     1      -8.179   8.143  70.181  1.00  0.00    -0.119 C  
BRANCH  10  11
HETATM   11  C   UNL     1      -8.764   9.209  69.248  1.00  0.00    -0.139 C  
BRANCH  11  12
HETATM   12  C   UNL     1      -9.443   8.618  68.006  1.00  0.00    -0.154 C  
BRANCH  12  13
HETATM   13  C   UNL     1     -10.615   9.462  67.491  1.00  0.00    -0.333 C  
BRANCH  13  14
HETATM   14  C   UNL     1     -10.696  10.781  68.260  1.00  0.00    -0.213 C  
BRANCH  14  15
HETATM   15  N   UNL     1     -10.501  12.026  67.399  1.00  0.00    -0.213 N  
HETATM   16  C   UNL     1     -11.777  12.855  67.315  1.00  0.00    -0.373 C  
HETATM   17  C   UNL     1     -10.020  11.666  66.000  1.00  0.00    -0.228 C  
HETATM   18  C   UNL     1      -9.423  12.876  68.088  1.00  0.00    -0.218 C  
ENDBRANCH  14  15
ENDBRANCH  13  14
ENDBRANCH  12  13
ENDBRANCH  11  12
ENDBRANCH  10  11
ENDBRANCH   9  10
ENDBRANCH   8   9
ENDBRANCH   7   8
ENDBRANCH   6   7
ENDBRANCH   5   6
ENDBRANCH   2   5
TORSDOF 11
ENDMDL
MODEL      186
REMARK 921   NORMALIZED FREE ENERGY PREDICTED BY IDOCK:   -2.74 KCAL/MOL
REMARK 922        TOTAL FREE ENERGY PREDICTED BY IDOCK:   -5.27 KCAL/MOL
REMARK 923 INTER-LIGAND FREE ENERGY PREDICTED BY IDOCK:   -4.43 KCAL/MOL
REMARK 924 INTRA-LIGAND FREE ENERGY PREDICTED BY IDOCK:   -0.84 KCAL/MOL
REMARK 927      BINDING AFFINITY PREDICTED BY RF-SCORE:    0.00 PKD
ROOT
HETATM    1  C   UNL     1      -7.401  11.919  68.102  1.00  0.00    -0.092 C  
HETATM    2  N   UNL     1      -6.442  13.115  68.167  1.00  0.00    -0.091 N  
HETATM    3  C   UNL     1      -5.141  12.735  67.471  1.00  0.00    -0.060 C  
HETATM    4  C   UNL     1      -6.174  13.431  69.630  1.00  0.00    -0.120 C  
ENDROOT
BRANCH   2   5
HETATM    5  C   UNL     1      -7.134  14.270  67.457  1.00  0.00    -0.167 C  
BRANCH   5   6
HETATM    6  C   UNL     1      -8.661  14.178  67.430  1.00  0.00    -0.217 C  
BRANCH   6   7
HETATM    7  C   UNL     1      -9.234  15.112  66.357  1.00  0.00    -0.334 C  
BRANCH   7   8
HETATM    8  C   UNL     1     -10.258  14.433  65.437  1.00  0.00    -0.408 C  
BRANCH   8   9
HETATM    9  C   UNL     1     -11.654  14.331  66.061  1.00  0.00    -0.362 C  
BRANCH   9  10
HETATM   10  C   UNL     1     -12.155  12.887  66.144  1.00  0.00    -0.458 C  
BRANCH  10  11
HETATM   11  C   UNL     1     -11.167  11.888  65.533  1.00  0.00    -0.353 C  
BRANCH  11  12
HETATM   12  C   UNL     1     -10.475  11.005  66.579  1.00  0.00    -0.309 C  
BRANCH  12  13
HETATM   13  C   UNL     1     -11.336  10.741  67.821  1.00  0.00    -0.354 C  
BRANCH  13  14
HETATM   14  C   UNL     1     -10.466  10.737  69.077  1.00  0.00    -0.215 C  
BRANCH  14  15
HETATM   15  N   UNL     1     -10.391   9.389  69.789  1.00  0.00    -0.209 N  
HETATM   16  C   UNL     1      -9.096   9.242  70.578  1.00  0.00    -0.259 C  
HETATM   17  C   UNL     1     -10.537   8.233  68.808  1.00  0.00    -0.123 C  
HETATM   18  C   UNL     1     -11.563   9.346  70.780  1.00  0.00    -0.298 C  
ENDBRANCH  14  15
ENDBRANCH  13  14
ENDBRANCH  12  13
ENDBRANCH  11  12
ENDBRANCH  10  11
ENDBRANCH   9  10
ENDBRANCH   8   9
ENDBRANCH   7   8
ENDBRANCH   6   7
ENDBRANCH   5   6
ENDBRANCH   2   5
TORSDOF 11
ENDMDL
MODEL      187
REMARK 921   NORMALIZED FREE ENERGY PREDICTED BY IDOCK:   -2.74 KCAL/MOL
REMARK 922        TOTAL FREE ENERGY PREDICTED BY IDOCK:   -5.27 KCAL/MOL
REMARK 923 INTER-LIGAND FREE ENERGY PREDICTED BY IDOCK:   -4.69 KCAL/MOL
REMARK 924 INTRA-LIGAND FREE ENERGY PREDICTED BY IDOCK:   -0.57 KCAL/MOL
REMARK 927      BINDING AFFINITY PREDICTED BY RF-SCORE:    0.00 PKD
ROOT
HETATM    1  C   UNL     1     -11.275  10.633  67.974  1.00  0.00    -0.307 C  
HETATM    2  N   UNL     1     -10.501   9.981  69.126  1.00  0.00    -0.206 N  
HETATM    3  C   UNL     1     -10.486   8.473  68.912  1.00  0.00    -0.188 C  
HETATM    4  C   UNL     1     -11.214  10.313  70.428  1.00  0.00    -0.332 C  
ENDROOT
BRANCH   2   5
HETATM    5  C   UNL     1      -9.092  10.560  69.091  1.00  0.00    -0.166 C  
BRANCH   5   6
HETATM    6  C   UNL     1      -8.802  11.455  67.885  1.00  0.00    -0.149 C  
BRANCH   6   7
HETATM    7  C   UNL     1      -7.967  12.669  68.310  1.00  0.00    -0.153 C  
BRANCH   7   8
HETATM    8  C   UNL     1      -8.607  14.013  67.938  1.00  0.00    -0.181 C  
BRANCH   8   9
HETATM    9  C   UNL     1      -7.601  15.170  67.898  1.00  0.00    -0.151 C  
BRANCH   9  10
HETATM   10  C   UNL     1      -7.578  15.971  69.201  1.00  0.00    -0.225 C  
BRANCH  10  11
HETATM   11  C   UNL     1      -6.310  16.820  69.346  1.00  0.00    -0.222 C  
BRANCH  11  12
HETATM   12  C   UNL     1      -6.323  18.079  68.470  1.00  0.00    -0.198 C  
BRANCH  12  13
HETATM   13  C   UNL     1      -7.640  18.862  68.545  1.00  0.00    -0.357 C  
BRANCH  13  14
HETATM   14  C   UNL     1      -8.278  18.959  67.160  1.00  0.00    -0.269 C  
BRANCH  14  15
HETATM   15  N   UNL     1      -9.799  19.090  67.174  1.00  0.00    -0.312 N  
HETATM   16  C   UNL     1     -10.310  19.825  65.941  1.00  0.00    -0.483 C  
HETATM   17  C   UNL     1     -10.286  19.789  68.436  1.00  0.00    -0.449 C  
HETATM   18  C   UNL     1     -10.367  17.663  67.149  1.00  0.00    -0.343 C  
ENDBRANCH  14  15
ENDBRANCH  13  14
ENDBRANCH  12  13
ENDBRANCH  11  12
ENDBRANCH  10  11
ENDBRANCH   9  10
ENDBRANCH   8   9
ENDBRANCH   7   8
ENDBRANCH   6   7
ENDBRANCH   5   6
ENDBRANCH   2   5
TORSDOF 11
ENDMDL
MODEL      188
REMARK 921   NORMALIZED FREE ENERGY PREDICTED BY IDOCK:   -2.73 KCAL/MOL
REMARK 922        TOTAL FREE ENERGY PREDICTED BY IDOCK:   -5.25 KCAL/MOL
REMARK 923 INTER-LIGAND FREE ENERGY PREDICTED BY IDOCK:   -4.43 KCAL/MOL
REMARK 924 INTRA-LIGAND FREE ENERGY PREDICTED BY IDOCK:   -0.82 KCAL/MOL
REMARK 927      BINDING AFFINITY PREDICTED BY RF-SCORE:    0.00 PKD
ROOT
HETATM    1  C   UNL     1      -8.912  18.685  67.722  1.00  0.00    -0.282 C  
HETATM    2  N   UNL     1      -9.043  17.235  67.239  1.00  0.00    -0.225 N  
HETATM    3  C   UNL     1      -7.742  16.828  66.559  1.00  0.00    -0.299 C  
HETATM    4  C   UNL     1     -10.192  17.166  66.244  1.00  0.00    -0.334 C  
ENDROOT
BRANCH   2   5
HETATM    5  C   UNL     1      -9.313  16.385  68.473  1.00  0.00    -0.225 C  
BRANCH   5   6
HETATM    6  C   UNL     1      -9.391  14.881  68.206  1.00  0.00    -0.195 C  
BRANCH   6   7
HETATM    7  C   UNL     1     -10.809  14.363  68.476  1.00  0.00    -0.260 C  
BRANCH   7   8
HETATM    8  C   UNL     1     -11.559  13.942  67.205  1.00  0.00    -0.391 C  
BRANCH   8   9
HETATM    9  C   UNL     1     -12.004  12.475  67.225  1.00  0.00    -0.286 C  
BRANCH   9  10
HETATM   10  C   UNL     1     -10.950  11.536  66.634  1.00  0.00    -0.349 C  
BRANCH  10  11
HETATM   11  C   UNL     1     -10.358  10.586  67.680  1.00  0.00    -0.257 C  
BRANCH  11  12
HETATM   12  C   UNL     1     -11.171  10.536  68.979  1.00  0.00    -0.316 C  
BRANCH  12  13
HETATM   13  C   UNL     1     -10.391   9.959  70.167  1.00  0.00    -0.336 C  
BRANCH  13  14
HETATM   14  C   UNL     1      -9.800   8.598  69.802  1.00  0.00    -0.183 C  
BRANCH  14  15
HETATM   15  N   UNL     1      -8.307   8.462  70.087  1.00  0.00    -0.117 N  
HETATM   16  C   UNL     1      -8.052   7.782  71.428  1.00  0.00    -0.099 C  
HETATM   17  C   UNL     1      -7.607   9.814  70.048  1.00  0.00    -0.163 C  
HETATM   18  C   UNL     1      -7.723   7.571  68.981  1.00  0.00    -0.117 C  
ENDBRANCH  14  15
ENDBRANCH  13  14
ENDBRANCH  12  13
ENDBRANCH  11  12
ENDBRANCH  10  11
ENDBRANCH   9  10
ENDBRANCH   8   9
ENDBRANCH   7   8
ENDBRANCH   6   7
ENDBRANCH   5   6
ENDBRANCH   2   5
TORSDOF 11
ENDMDL
MODEL      189
REMARK 921   NORMALIZED FREE ENERGY PREDICTED BY IDOCK:   -2.73 KCAL/MOL
REMARK 922        TOTAL FREE ENERGY PREDICTED BY IDOCK:   -5.25 KCAL/MOL
REMARK 923 INTER-LIGAND FREE ENERGY PREDICTED BY IDOCK:   -4.37 KCAL/MOL
REMARK 924 INTRA-LIGAND FREE ENERGY PREDICTED BY IDOCK:   -0.88 KCAL/MOL
REMARK 927      BINDING AFFINITY PREDICTED BY RF-SCORE:    0.00 PKD
ROOT
HETATM    1  C   UNL     1      -9.221  17.268  68.501  1.00  0.00    -0.273 C  
HETATM    2  N   UNL     1      -9.847  15.872  68.598  1.00  0.00    -0.206 N  
HETATM    3  C   UNL     1     -10.875  15.875  69.722  1.00  0.00    -0.328 C  
HETATM    4  C   UNL     1      -8.742  14.874  68.909  1.00  0.00    -0.180 C  
ENDROOT
BRANCH   2   5
HETATM    5  C   UNL     1     -10.499  15.590  67.251  1.00  0.00    -0.279 C  
BRANCH   5   6
HETATM    6  C   UNL     1     -11.754  14.717  67.321  1.00  0.00    -0.406 C  
BRANCH   6   7
HETATM    7  C   UNL     1     -11.436  13.287  66.867  1.00  0.00    -0.376 C  
BRANCH   7   8
HETATM    8  C   UNL     1     -11.904  12.212  67.857  1.00  0.00    -0.338 C  
BRANCH   8   9
HETATM    9  C   UNL     1     -10.802  11.760  68.822  1.00  0.00    -0.268 C  
BRANCH   9  10
HETATM   10  C   UNL     1     -10.942  10.290  69.224  1.00  0.00    -0.284 C  
BRANCH  10  11
HETATM   11  C   UNL     1      -9.919   9.390  68.523  1.00  0.00    -0.190 C  
BRANCH  11  12
HETATM   12  C   UNL     1     -10.401   8.872  67.162  1.00  0.00    -0.351 C  
BRANCH  12  13
HETATM   13  C   UNL     1      -9.786   9.617  65.972  1.00  0.00    -0.331 C  
BRANCH  13  14
HETATM   14  C   UNL     1      -8.685   8.773  65.331  1.00  0.00    -0.183 C  
BRANCH  14  15
HETATM   15  N   UNL     1      -7.276   9.332  65.510  1.00  0.00    -0.085 N  
HETATM   16  C   UNL     1      -6.333   8.295  66.109  1.00  0.00    -0.049 C  
HETATM   17  C   UNL     1      -7.281  10.589  66.370  1.00  0.00    -0.129 C  
HETATM   18  C   UNL     1      -6.760   9.694  64.110  1.00  0.00    -0.113 C  
ENDBRANCH  14  15
ENDBRANCH  13  14
ENDBRANCH  12  13
ENDBRANCH  11  12
ENDBRANCH  10  11
ENDBRANCH   9  10
ENDBRANCH   8   9
ENDBRANCH   7   8
ENDBRANCH   6   7
ENDBRANCH   5   6
ENDBRANCH   2   5
TORSDOF 11
ENDMDL
MODEL      190
REMARK 921   NORMALIZED FREE ENERGY PREDICTED BY IDOCK:   -2.72 KCAL/MOL
REMARK 922        TOTAL FREE ENERGY PREDICTED BY IDOCK:   -5.24 KCAL/MOL
REMARK 923 INTER-LIGAND FREE ENERGY PREDICTED BY IDOCK:   -4.16 KCAL/MOL
REMARK 924 INTRA-LIGAND FREE ENERGY PREDICTED BY IDOCK:   -1.08 KCAL/MOL
REMARK 927      BINDING AFFINITY PREDICTED BY RF-SCORE:    0.00 PKD
ROOT
HETATM    1  C   UNL     1      -8.964   9.069  70.965  1.00  0.00    -0.241 C  
HETATM    2  N   UNL     1     -10.408   8.689  70.614  1.00  0.00    -0.196 N  
HETATM    3  C   UNL     1     -11.298   8.994  71.811  1.00  0.00    -0.377 C  
HETATM    4  C   UNL     1     -10.446   7.200  70.304  1.00  0.00    -0.217 C  
ENDROOT
BRANCH   2   5
HETATM    5  C   UNL     1     -10.799   9.527  69.404  1.00  0.00    -0.206 C  
BRANCH   5   6
HETATM    6  C   UNL     1     -10.464   8.892  68.053  1.00  0.00    -0.263 C  
BRANCH   6   7
HETATM    7  C   UNL     1     -10.406   9.964  66.958  1.00  0.00    -0.303 C  
BRANCH   7   8
HETATM    8  C   UNL     1      -9.012  10.133  66.339  1.00  0.00    -0.163 C  
BRANCH   8   9
HETATM    9  C   UNL     1      -7.961  10.617  67.344  1.00  0.00    -0.111 C  
BRANCH   9  10
HETATM   10  C   UNL     1      -7.455  12.027  67.028  1.00  0.00    -0.106 C  
BRANCH  10  11
HETATM   11  C   UNL     1      -8.349  13.118  67.628  1.00  0.00    -0.174 C  
BRANCH  11  12
HETATM   12  C   UNL     1      -9.295  13.755  66.602  1.00  0.00    -0.277 C  
BRANCH  12  13
HETATM   13  C   UNL     1     -10.774  13.663  66.997  1.00  0.00    -0.278 C  
BRANCH  13  14
HETATM   14  C   UNL     1     -10.908  13.463  68.506  1.00  0.00    -0.265 C  
BRANCH  14  15
HETATM   15  N   UNL     1     -11.277  14.726  69.280  1.00  0.00    -0.269 N  
HETATM   16  C   UNL     1     -11.779  15.826  68.352  1.00  0.00    -0.271 C  
HETATM   17  C   UNL     1     -10.102  15.236  70.105  1.00  0.00    -0.093 C  
HETATM   18  C   UNL     1     -12.420  14.345  70.231  1.00  0.00    -0.354 C  
ENDBRANCH  14  15
ENDBRANCH  13  14
ENDBRANCH  12  13
ENDBRANCH  11  12
ENDBRANCH  10  11
ENDBRANCH   9  10
ENDBRANCH   8   9
ENDBRANCH   7   8
ENDBRANCH   6   7
ENDBRANCH   5   6
ENDBRANCH   2   5
TORSDOF 11
ENDMDL
MODEL      191
REMARK 921   NORMALIZED FREE ENERGY PREDICTED BY IDOCK:   -2.70 KCAL/MOL
REMARK 922        TOTAL FREE ENERGY PREDICTED BY IDOCK:   -5.20 KCAL/MOL
REMARK 923 INTER-LIGAND FREE ENERGY PREDICTED BY IDOCK:   -4.71 KCAL/MOL
REMARK 924 INTRA-LIGAND FREE ENERGY PREDICTED BY IDOCK:   -0.50 KCAL/MOL
REMARK 927      BINDING AFFINITY PREDICTED BY RF-SCORE:    0.00 PKD
ROOT
HETATM    1  C   UNL     1     -10.394   5.430  66.650  1.00  0.00    -0.275 C  
HETATM    2  N   UNL     1      -9.443   5.035  67.786  1.00  0.00    -0.127 N  
HETATM    3  C   UNL     1      -8.147   5.821  67.634  1.00  0.00    -0.102 C  
HETATM    4  C   UNL     1      -9.162   3.544  67.675  1.00  0.00    -0.188 C  
ENDROOT
BRANCH   2   5
HETATM    5  C   UNL     1     -10.152   5.380  69.090  1.00  0.00    -0.223 C  
BRANCH   5   6
HETATM    6  C   UNL     1      -9.685   6.682  69.743  1.00  0.00    -0.168 C  
BRANCH   6   7
HETATM    7  C   UNL     1     -10.777   7.754  69.636  1.00  0.00    -0.223 C  
BRANCH   7   8
HETATM    8  C   UNL     1     -10.280   9.077  69.038  1.00  0.00    -0.216 C  
BRANCH   8   9
HETATM    9  C   UNL     1     -10.780   9.317  67.608  1.00  0.00    -0.276 C  
BRANCH   9  10
HETATM   10  C   UNL     1     -10.647  10.781  67.180  1.00  0.00    -0.306 C  
BRANCH  10  11
HETATM   11  C   UNL     1     -11.578  11.709  67.967  1.00  0.00    -0.383 C  
BRANCH  11  12
HETATM   12  C   UNL     1     -10.981  13.101  68.207  1.00  0.00    -0.278 C  
BRANCH  12  13
HETATM   13  C   UNL     1     -11.721  14.219  67.462  1.00  0.00    -0.415 C  
BRANCH  13  14
HETATM   14  C   UNL     1     -11.265  15.586  67.971  1.00  0.00    -0.332 C  
BRANCH  14  15
HETATM   15  N   UNL     1     -10.185  16.248  67.120  1.00  0.00    -0.271 N  
HETATM   16  C   UNL     1     -10.319  15.870  65.649  1.00  0.00    -0.390 C  
HETATM   17  C   UNL     1      -8.790  15.901  67.622  1.00  0.00    -0.174 C  
HETATM   18  C   UNL     1     -10.391  17.765  67.244  1.00  0.00    -0.363 C  
ENDBRANCH  14  15
ENDBRANCH  13  14
ENDBRANCH  12  13
ENDBRANCH  11  12
ENDBRANCH  10  11
ENDBRANCH   9  10
ENDBRANCH   8   9
ENDBRANCH   7   8
ENDBRANCH   6   7
ENDBRANCH   5   6
ENDBRANCH   2   5
TORSDOF 11
ENDMDL
MODEL      192
REMARK 921   NORMALIZED FREE ENERGY PREDICTED BY IDOCK:   -2.68 KCAL/MOL
REMARK 922        TOTAL FREE ENERGY PREDICTED BY IDOCK:   -5.18 KCAL/MOL
REMARK 923 INTER-LIGAND FREE ENERGY PREDICTED BY IDOCK:   -4.67 KCAL/MOL
REMARK 924 INTRA-LIGAND FREE ENERGY PREDICTED BY IDOCK:   -0.50 KCAL/MOL
REMARK 927      BINDING AFFINITY PREDICTED BY RF-SCORE:    0.00 PKD
ROOT
HETATM    1  C   UNL     1     -10.216  19.836  68.425  1.00  0.00    -0.449 C  
HETATM    2  N   UNL     1      -9.983  19.047  67.130  1.00  0.00    -0.322 N  
HETATM    3  C   UNL     1     -10.620  19.806  65.974  1.00  0.00    -0.468 C  
HETATM    4  C   UNL     1     -10.638  17.683  67.279  1.00  0.00    -0.296 C  
ENDROOT
BRANCH   2   5
HETATM    5  C   UNL     1      -8.474  18.932  66.954  1.00  0.00    -0.286 C  
BRANCH   5   6
HETATM    6  C   UNL     1      -7.992  17.564  66.468  1.00  0.00    -0.309 C  
BRANCH   6   7
HETATM    7  C   UNL     1      -7.289  16.811  67.604  1.00  0.00    -0.164 C  
BRANCH   7   8
HETATM    8  C   UNL     1      -7.145  15.305  67.344  1.00  0.00    -0.223 C  
BRANCH   8   9
HETATM    9  C   UNL     1      -8.336  14.488  67.856  1.00  0.00    -0.159 C  
BRANCH   9  10
HETATM   10  C   UNL     1      -9.328  14.138  66.744  1.00  0.00    -0.295 C  
BRANCH  10  11
HETATM   11  C   UNL     1     -10.597  13.468  67.280  1.00  0.00    -0.263 C  
BRANCH  11  12
HETATM   12  C   UNL     1     -10.495  11.939  67.338  1.00  0.00    -0.242 C  
BRANCH  12  13
HETATM   13  C   UNL     1     -10.397  11.387  68.765  1.00  0.00    -0.222 C  
BRANCH  13  14
HETATM   14  C   UNL     1     -11.112  10.039  68.862  1.00  0.00    -0.176 C  
BRANCH  14  15
HETATM   15  N   UNL     1     -10.232   8.891  69.348  1.00  0.00    -0.203 N  
HETATM   16  C   UNL     1      -9.157   9.377  70.313  1.00  0.00    -0.245 C  
HETATM   17  C   UNL     1      -9.589   8.152  68.182  1.00  0.00    -0.149 C  
HETATM   18  C   UNL     1     -11.149   7.919  70.104  1.00  0.00    -0.201 C  
ENDBRANCH  14  15
ENDBRANCH  13  14
ENDBRANCH  12  13
ENDBRANCH  11  12
ENDBRANCH  10  11
ENDBRANCH   9  10
ENDBRANCH   8   9
ENDBRANCH   7   8
ENDBRANCH   6   7
ENDBRANCH   5   6
ENDBRANCH   2   5
TORSDOF 11
ENDMDL
MODEL      193
REMARK 921   NORMALIZED FREE ENERGY PREDICTED BY IDOCK:   -2.68 KCAL/MOL
REMARK 922        TOTAL FREE ENERGY PREDICTED BY IDOCK:   -5.16 KCAL/MOL
REMARK 923 INTER-LIGAND FREE ENERGY PREDICTED BY IDOCK:   -4.51 KCAL/MOL
REMARK 924 INTRA-LIGAND FREE ENERGY PREDICTED BY IDOCK:   -0.66 KCAL/MOL
REMARK 927      BINDING AFFINITY PREDICTED BY RF-SCORE:    0.00 PKD
ROOT
HETATM    1  C   UNL     1      -7.958   6.097  66.834  1.00  0.00    -0.105 C  
HETATM    2  N   UNL     1      -8.896   5.815  68.014  1.00  0.00    -0.110 N  
HETATM    3  C   UNL     1      -8.053   5.541  69.253  1.00  0.00    -0.095 C  
HETATM    4  C   UNL     1      -9.734   4.592  67.675  1.00  0.00    -0.157 C  
ENDROOT
BRANCH   2   5
HETATM    5  C   UNL     1      -9.759   7.058  68.194  1.00  0.00    -0.133 C  
BRANCH   5   6
HETATM    6  C   UNL     1     -10.366   7.605  66.900  1.00  0.00    -0.388 C  
BRANCH   6   7
HETATM    7  C   UNL     1     -10.669   9.101  67.044  1.00  0.00    -0.189 C  
BRANCH   7   8
HETATM    8  C   UNL     1      -9.415   9.964  67.241  1.00  0.00    -0.181 C  
BRANCH   8   9
HETATM    9  C   UNL     1      -9.154  10.924  66.074  1.00  0.00    -0.208 C  
BRANCH   9  10
HETATM   10  C   UNL     1     -10.329  10.990  65.096  1.00  0.00    -0.346 C  
BRANCH  10  11
HETATM   11  C   UNL     1     -11.093  12.316  65.186  1.00  0.00    -0.361 C  
BRANCH  11  12
HETATM   12  C   UNL     1     -10.346  13.390  65.986  1.00  0.00    -0.297 C  
BRANCH  12  13
HETATM   13  C   UNL     1     -11.274  14.434  66.621  1.00  0.00    -0.340 C  
BRANCH  13  14
HETATM   14  C   UNL     1     -10.559  15.780  66.730  1.00  0.00    -0.309 C  
BRANCH  14  15
HETATM   15  N   UNL     1     -10.423  16.308  68.156  1.00  0.00    -0.277 N  
HETATM   16  C   UNL     1      -9.072  15.946  68.762  1.00  0.00    -0.219 C  
HETATM   17  C   UNL     1     -11.547  15.798  69.048  1.00  0.00    -0.400 C  
HETATM   18  C   UNL     1     -10.514  17.838  68.073  1.00  0.00    -0.394 C  
ENDBRANCH  14  15
ENDBRANCH  13  14
ENDBRANCH  12  13
ENDBRANCH  11  12
ENDBRANCH  10  11
ENDBRANCH   9  10
ENDBRANCH   8   9
ENDBRANCH   7   8
ENDBRANCH   6   7
ENDBRANCH   5   6
ENDBRANCH   2   5
TORSDOF 11
ENDMDL
MODEL      194
REMARK 921   NORMALIZED FREE ENERGY PREDICTED BY IDOCK:   -2.67 KCAL/MOL
REMARK 922        TOTAL FREE ENERGY PREDICTED BY IDOCK:   -5.15 KCAL/MOL
REMARK 923 INTER-LIGAND FREE ENERGY PREDICTED BY IDOCK:   -4.30 KCAL/MOL
REMARK 924 INTRA-LIGAND FREE ENERGY PREDICTED BY IDOCK:   -0.85 KCAL/MOL
REMARK 927      BINDING AFFINITY PREDICTED BY RF-SCORE:    0.00 PKD
ROOT
HETATM    1  C   UNL     1     -10.788  12.268  66.414  1.00  0.00    -0.264 C  
HETATM    2  N   UNL     1     -11.094  13.579  67.150  1.00  0.00    -0.287 N  
HETATM    3  C   UNL     1     -12.081  13.288  68.274  1.00  0.00    -0.211 C  
HETATM    4  C   UNL     1     -11.712  14.550  66.156  1.00  0.00    -0.350 C  
ENDROOT
BRANCH   2   5
HETATM    5  C   UNL     1      -9.769  14.095  67.695  1.00  0.00    -0.228 C  
BRANCH   5   6
HETATM    6  C   UNL     1      -8.546  13.716  66.858  1.00  0.00    -0.121 C  
BRANCH   6   7
HETATM    7  C   UNL     1      -7.482  13.049  67.739  1.00  0.00    -0.146 C  
BRANCH   7   8
HETATM    8  C   UNL     1      -6.859  11.798  67.105  1.00  0.00    -0.148 C  
BRANCH   8   9
HETATM    9  C   UNL     1      -6.997  10.547  67.980  1.00  0.00    -0.074 C  
BRANCH   9  10
HETATM   10  C   UNL     1      -8.011  10.731  69.111  1.00  0.00    -0.135 C  
BRANCH  10  11
HETATM   11  C   UNL     1      -9.031   9.589  69.176  1.00  0.00    -0.148 C  
BRANCH  11  12
HETATM   12  C   UNL     1     -10.481  10.079  69.281  1.00  0.00    -0.245 C  
BRANCH  12  13
HETATM   13  C   UNL     1     -11.059   9.978  70.697  1.00  0.00    -0.408 C  
BRANCH  13  14
HETATM   14  C   UNL     1     -10.406   8.822  71.455  1.00  0.00    -0.303 C  
BRANCH  14  15
HETATM   15  N   UNL     1     -11.341   7.654  71.752  1.00  0.00    -0.248 N  
HETATM   16  C   UNL     1     -10.987   6.971  73.068  1.00  0.00    -0.292 C  
HETATM   17  C   UNL     1     -11.336   6.635  70.619  1.00  0.00    -0.347 C  
HETATM   18  C   UNL     1     -12.755   8.239  71.882  1.00  0.00    -0.342 C  
ENDBRANCH  14  15
ENDBRANCH  13  14
ENDBRANCH  12  13
ENDBRANCH  11  12
ENDBRANCH  10  11
ENDBRANCH   9  10
ENDBRANCH   8   9
ENDBRANCH   7   8
ENDBRANCH   6   7
ENDBRANCH   5   6
ENDBRANCH   2   5
TORSDOF 11
ENDMDL
MODEL      195
REMARK 921   NORMALIZED FREE ENERGY PREDICTED BY IDOCK:   -2.62 KCAL/MOL
REMARK 922        TOTAL FREE ENERGY PREDICTED BY IDOCK:   -5.08 KCAL/MOL
REMARK 923 INTER-LIGAND FREE ENERGY PREDICTED BY IDOCK:   -4.50 KCAL/MOL
REMARK 924 INTRA-LIGAND FREE ENERGY PREDICTED BY IDOCK:   -0.58 KCAL/MOL
REMARK 927      BINDING AFFINITY PREDICTED BY RF-SCORE:    0.00 PKD
ROOT
HETATM    1  C   UNL     1      -8.419   7.760  65.813  1.00  0.00    -0.144 C  
HETATM    2  N   UNL     1      -9.204   9.012  66.223  1.00  0.00    -0.189 N  
HETATM    3  C   UNL     1     -10.422   8.582  67.029  1.00  0.00    -0.292 C  
HETATM    4  C   UNL     1      -9.646   9.732  64.958  1.00  0.00    -0.264 C  
ENDROOT
BRANCH   2   5
HETATM    5  C   UNL     1      -8.260   9.867  67.058  1.00  0.00    -0.117 C  
BRANCH   5   6
HETATM    6  C   UNL     1      -8.336  11.367  66.770  1.00  0.00    -0.163 C  
BRANCH   6   7
HETATM    7  C   UNL     1      -9.247  12.061  67.791  1.00  0.00    -0.190 C  
BRANCH   7   8
HETATM    8  C   UNL     1      -8.656  13.360  68.356  1.00  0.00    -0.134 C  
BRANCH   8   9
HETATM    9  C   UNL     1      -7.570  13.968  67.461  1.00  0.00    -0.195 C  
BRANCH   9  10
HETATM   10  C   UNL     1      -7.769  15.469  67.237  1.00  0.00    -0.244 C  
BRANCH  10  11
HETATM   11  C   UNL     1      -8.939  15.772  66.296  1.00  0.00    -0.381 C  
BRANCH  11  12
HETATM   12  C   UNL     1     -10.150  16.380  67.015  1.00  0.00    -0.272 C  
BRANCH  12  13
HETATM   13  C   UNL     1     -10.377  17.860  66.684  1.00  0.00    -0.362 C  
BRANCH  13  14
HETATM   14  C   UNL     1      -9.039  18.593  66.590  1.00  0.00    -0.306 C  
BRANCH  14  15
HETATM   15  N   UNL     1      -8.718  19.477  67.791  1.00  0.00    -0.312 N  
HETATM   16  C   UNL     1      -8.153  20.826  67.360  1.00  0.00    -0.173 C  
HETATM   17  C   UNL     1      -7.752  18.790  68.747  1.00  0.00    -0.318 C  
HETATM   18  C   UNL     1     -10.044  19.728  68.525  1.00  0.00    -0.445 C  
ENDBRANCH  14  15
ENDBRANCH  13  14
ENDBRANCH  12  13
ENDBRANCH  11  12
ENDBRANCH  10  11
ENDBRANCH   9  10
ENDBRANCH   8   9
ENDBRANCH   7   8
ENDBRANCH   6   7
ENDBRANCH   5   6
ENDBRANCH   2   5
TORSDOF 11
ENDMDL
MODEL      196
REMARK 921   NORMALIZED FREE ENERGY PREDICTED BY IDOCK:   -2.62 KCAL/MOL
REMARK 922        TOTAL FREE ENERGY PREDICTED BY IDOCK:   -5.08 KCAL/MOL
REMARK 923 INTER-LIGAND FREE ENERGY PREDICTED BY IDOCK:   -4.35 KCAL/MOL
REMARK 924 INTRA-LIGAND FREE ENERGY PREDICTED BY IDOCK:   -0.73 KCAL/MOL
REMARK 927      BINDING AFFINITY PREDICTED BY RF-SCORE:    0.00 PKD
ROOT
HETATM    1  C   UNL     1      -7.131  14.664  69.480  1.00  0.00    -0.152 C  
HETATM    2  N   UNL     1      -6.830  14.590  67.978  1.00  0.00    -0.128 N  
HETATM    3  C   UNL     1      -5.927  13.391  67.720  1.00  0.00    -0.139 C  
HETATM    4  C   UNL     1      -6.119  15.872  67.571  1.00  0.00    -0.145 C  
ENDROOT
BRANCH   2   5
HETATM    5  C   UNL     1      -8.170  14.439  67.270  1.00  0.00    -0.203 C  
BRANCH   5   6
HETATM    6  C   UNL     1      -8.892  15.757  66.985  1.00  0.00    -0.241 C  
BRANCH   6   7
HETATM    7  C   UNL     1      -9.846  15.597  65.794  1.00  0.00    -0.386 C  
BRANCH   7   8
HETATM    8  C   UNL     1     -11.215  15.020  66.179  1.00  0.00    -0.307 C  
BRANCH   8   9
HETATM    9  C   UNL     1     -11.803  14.097  65.106  1.00  0.00    -0.372 C  
BRANCH   9  10
HETATM   10  C   UNL     1     -10.723  13.356  64.315  1.00  0.00    -0.374 C  
BRANCH  10  11
HETATM   11  C   UNL     1     -11.239  12.051  63.698  1.00  0.00    -0.528 C  
BRANCH  11  12
HETATM   12  C   UNL     1     -10.190  10.933  63.683  1.00  0.00    -0.395 C  
BRANCH  12  13
HETATM   13  C   UNL     1      -9.966  10.288  65.056  1.00  0.00    -0.393 C  
BRANCH  13  14
HETATM   14  C   UNL     1      -8.570  10.628  65.580  1.00  0.00    -0.185 C  
BRANCH  14  15
HETATM   15  N   UNL     1      -7.775   9.426  66.082  1.00  0.00    -0.099 N  
HETATM   16  C   UNL     1      -8.252   8.972  67.456  1.00  0.00    -0.109 C  
HETATM   17  C   UNL     1      -6.282   9.724  66.121  1.00  0.00    -0.066 C  
HETATM   18  C   UNL     1      -8.024   8.283  65.088  1.00  0.00    -0.128 C  
ENDBRANCH  14  15
ENDBRANCH  13  14
ENDBRANCH  12  13
ENDBRANCH  11  12
ENDBRANCH  10  11
ENDBRANCH   9  10
ENDBRANCH   8   9
ENDBRANCH   7   8
ENDBRANCH   6   7
ENDBRANCH   5   6
ENDBRANCH   2   5
TORSDOF 11
ENDMDL
MODEL      197
REMARK 921   NORMALIZED FREE ENERGY PREDICTED BY IDOCK:   -2.61 KCAL/MOL
REMARK 922        TOTAL FREE ENERGY PREDICTED BY IDOCK:   -5.06 KCAL/MOL
REMARK 923 INTER-LIGAND FREE ENERGY PREDICTED BY IDOCK:   -4.05 KCAL/MOL
REMARK 924 INTRA-LIGAND FREE ENERGY PREDICTED BY IDOCK:   -1.01 KCAL/MOL
REMARK 927      BINDING AFFINITY PREDICTED BY RF-SCORE:    0.00 PKD
ROOT
HETATM    1  C   UNL     1      -6.556  14.106  69.720  1.00  0.00    -0.104 C  
HETATM    2  N   UNL     1      -6.921  13.866  68.249  1.00  0.00    -0.095 N  
HETATM    3  C   UNL     1      -5.844  12.995  67.615  1.00  0.00    -0.133 C  
HETATM    4  C   UNL     1      -6.979  15.214  67.547  1.00  0.00    -0.192 C  
ENDROOT
BRANCH   2   5
HETATM    5  C   UNL     1      -8.274  13.168  68.243  1.00  0.00    -0.154 C  
BRANCH   5   6
HETATM    6  C   UNL     1      -8.341  11.915  67.367  1.00  0.00    -0.163 C  
BRANCH   6   7
HETATM    7  C   UNL     1      -9.478  10.998  67.833  1.00  0.00    -0.170 C  
BRANCH   7   8
HETATM    8  C   UNL     1      -9.076   9.519  67.919  1.00  0.00    -0.131 C  
BRANCH   8   9
HETATM    9  C   UNL     1      -9.456   8.717  66.669  1.00  0.00    -0.267 C  
BRANCH   9  10
HETATM   10  C   UNL     1      -8.390   8.797  65.575  1.00  0.00    -0.153 C  
BRANCH  10  11
HETATM   11  C   UNL     1      -8.995   8.963  64.177  1.00  0.00     0.126 C  
BRANCH  11  12
HETATM   12  C   UNL     1      -9.179  10.430  63.768  1.00  0.00    -0.302 C  
BRANCH  12  13
HETATM   13  C   UNL     1     -10.544  11.007  64.163  1.00  0.00    -0.412 C  
BRANCH  13  14
HETATM   14  C   UNL     1     -10.655  12.462  63.711  1.00  0.00    -0.452 C  
BRANCH  14  15
HETATM   15  N   UNL     1     -11.268  13.400  64.747  1.00  0.00    -0.330 N  
HETATM   16  C   UNL     1     -10.212  14.291  65.391  1.00  0.00    -0.371 C  
HETATM   17  C   UNL     1     -12.022  12.627  65.821  1.00  0.00    -0.446 C  
HETATM   18  C   UNL     1     -12.260  14.301  63.998  1.00  0.00    -0.299 C  
ENDBRANCH  14  15
ENDBRANCH  13  14
ENDBRANCH  12  13
ENDBRANCH  11  12
ENDBRANCH  10  11
ENDBRANCH   9  10
ENDBRANCH   8   9
ENDBRANCH   7   8
ENDBRANCH   6   7
ENDBRANCH   5   6
ENDBRANCH   2   5
TORSDOF 11
ENDMDL
MODEL      198
REMARK 921   NORMALIZED FREE ENERGY PREDICTED BY IDOCK:   -2.59 KCAL/MOL
REMARK 922        TOTAL FREE ENERGY PREDICTED BY IDOCK:   -5.03 KCAL/MOL
REMARK 923 INTER-LIGAND FREE ENERGY PREDICTED BY IDOCK:   -4.29 KCAL/MOL
REMARK 924 INTRA-LIGAND FREE ENERGY PREDICTED BY IDOCK:   -0.74 KCAL/MOL
REMARK 927      BINDING AFFINITY PREDICTED BY RF-SCORE:    0.00 PKD
ROOT
HETATM    1  C   UNL     1      -8.989  17.188  68.349  1.00  0.00    -0.259 C  
HETATM    2  N   UNL     1      -9.620  15.790  68.390  1.00  0.00    -0.197 N  
HETATM    3  C   UNL     1     -10.648  15.752  69.514  1.00  0.00    -0.272 C  
HETATM    4  C   UNL     1      -8.517  14.778  68.661  1.00  0.00    -0.167 C  
ENDROOT
BRANCH   2   5
HETATM    5  C   UNL     1     -10.273  15.564  67.033  1.00  0.00    -0.271 C  
BRANCH   5   6
HETATM    6  C   UNL     1     -11.593  14.792  67.082  1.00  0.00    -0.373 C  
BRANCH   6   7
HETATM    7  C   UNL     1     -11.351  13.304  66.802  1.00  0.00    -0.359 C  
BRANCH   7   8
HETATM    8  C   UNL     1     -12.020  12.373  67.823  1.00  0.00    -0.252 C  
BRANCH   8   9
HETATM    9  C   UNL     1     -11.152  12.112  69.060  1.00  0.00    -0.290 C  
BRANCH   9  10
HETATM   10  C   UNL     1     -11.684  10.961  69.916  1.00  0.00    -0.418 C  
BRANCH  10  11
HETATM   11  C   UNL     1     -10.600   9.932  70.255  1.00  0.00    -0.359 C  
BRANCH  11  12
HETATM   12  C   UNL     1     -10.772   8.604  69.508  1.00  0.00    -0.189 C  
BRANCH  12  13
HETATM   13  C   UNL     1     -10.281   8.652  68.056  1.00  0.00    -0.261 C  
BRANCH  13  14
HETATM   14  C   UNL     1      -8.813   8.235  67.979  1.00  0.00    -0.135 C  
BRANCH  14  15
HETATM   15  N   UNL     1      -8.465   7.370  66.771  1.00  0.00    -0.121 N  
HETATM   16  C   UNL     1      -8.213   8.216  65.528  1.00  0.00    -0.144 C  
HETATM   17  C   UNL     1      -9.554   6.343  66.490  1.00  0.00    -0.145 C  
HETATM   18  C   UNL     1      -7.165   6.629  67.116  1.00  0.00    -0.081 C  
ENDBRANCH  14  15
ENDBRANCH  13  14
ENDBRANCH  12  13
ENDBRANCH  11  12
ENDBRANCH  10  11
ENDBRANCH   9  10
ENDBRANCH   8   9
ENDBRANCH   7   8
ENDBRANCH   6   7
ENDBRANCH   5   6
ENDBRANCH   2   5
TORSDOF 11
ENDMDL
MODEL      199
REMARK 921   NORMALIZED FREE ENERGY PREDICTED BY IDOCK:   -2.58 KCAL/MOL
REMARK 922        TOTAL FREE ENERGY PREDICTED BY IDOCK:   -5.00 KCAL/MOL
REMARK 923 INTER-LIGAND FREE ENERGY PREDICTED BY IDOCK:   -4.41 KCAL/MOL
REMARK 924 INTRA-LIGAND FREE ENERGY PREDICTED BY IDOCK:   -0.59 KCAL/MOL
REMARK 927      BINDING AFFINITY PREDICTED BY RF-SCORE:    0.00 PKD
ROOT
HETATM    1  C   UNL     1      -7.471  15.103  69.366  1.00  0.00    -0.204 C  
HETATM    2  N   UNL     1      -8.263  16.135  68.553  1.00  0.00    -0.176 N  
HETATM    3  C   UNL     1      -8.093  15.825  67.072  1.00  0.00    -0.236 C  
HETATM    4  C   UNL     1      -7.703  17.515  68.862  1.00  0.00    -0.207 C  
ENDROOT
BRANCH   2   5
HETATM    5  C   UNL     1      -9.718  16.008  68.983  1.00  0.00    -0.244 C  
BRANCH   5   6
HETATM    6  C   UNL     1     -10.730  16.085  67.839  1.00  0.00    -0.316 C  
BRANCH   6   7
HETATM    7  C   UNL     1     -11.735  14.931  67.936  1.00  0.00    -0.344 C  
BRANCH   7   8
HETATM    8  C   UNL     1     -12.063  14.287  66.581  1.00  0.00    -0.448 C  
BRANCH   8   9
HETATM    9  C   UNL     1     -11.798  12.778  66.551  1.00  0.00    -0.471 C  
BRANCH   9  10
HETATM   10  C   UNL     1     -10.310  12.447  66.411  1.00  0.00    -0.255 C  
BRANCH  10  11
HETATM   11  C   UNL     1      -9.965  11.058  66.958  1.00  0.00    -0.223 C  
BRANCH  11  12
HETATM   12  C   UNL     1     -10.390   9.918  66.024  1.00  0.00    -0.202 C  
BRANCH  12  13
HETATM   13  C   UNL     1     -10.197   8.524  66.635  1.00  0.00    -0.345 C  
BRANCH  13  14
HETATM   14  C   UNL     1     -10.175   8.613  68.160  1.00  0.00    -0.205 C  
BRANCH  14  15
HETATM   15  N   UNL     1      -9.251   7.605  68.837  1.00  0.00    -0.140 N  
HETATM   16  C   UNL     1     -10.021   6.395  69.354  1.00  0.00    -0.158 C  
HETATM   17  C   UNL     1      -8.465   8.245  69.974  1.00  0.00    -0.123 C  
HETATM   18  C   UNL     1      -8.263   7.120  67.767  1.00  0.00    -0.115 C  
ENDBRANCH  14  15
ENDBRANCH  13  14
ENDBRANCH  12  13
ENDBRANCH  11  12
ENDBRANCH  10  11
ENDBRANCH   9  10
ENDBRANCH   8   9
ENDBRANCH   7   8
ENDBRANCH   6   7
ENDBRANCH   5   6
ENDBRANCH   2   5
TORSDOF 11
ENDMDL
MODEL      200
REMARK 921   NORMALIZED FREE ENERGY PREDICTED BY IDOCK:   -2.57 KCAL/MOL
REMARK 922        TOTAL FREE ENERGY PREDICTED BY IDOCK:   -4.98 KCAL/MOL
REMARK 923 INTER-LIGAND FREE ENERGY PREDICTED BY IDOCK:   -4.53 KCAL/MOL
REMARK 924 INTRA-LIGAND FREE ENERGY PREDICTED BY IDOCK:   -0.45 KCAL/MOL
REMARK 927      BINDING AFFINITY PREDICTED BY RF-SCORE:    0.00 PKD
ROOT
HETATM    1  C   UNL     1      -8.387   5.679  65.804  1.00  0.00    -0.132 C  
HETATM    2  N   UNL     1      -8.210   6.872  66.752  1.00  0.00    -0.112 N  
HETATM    3  C   UNL     1      -6.775   6.881  67.263  1.00  0.00    -0.063 C  
HETATM    4  C   UNL     1      -9.174   6.703  67.916  1.00  0.00    -0.111 C  
ENDROOT
BRANCH   2   5
HETATM    5  C   UNL     1      -8.518   8.125  65.942  1.00  0.00    -0.142 C  
BRANCH   5   6
HETATM    6  C   UNL     1      -9.722   8.926  66.441  1.00  0.00    -0.332 C  
BRANCH   6   7
HETATM    7  C   UNL     1      -9.911  10.190  65.593  1.00  0.00    -0.348 C  
BRANCH   7   8
HETATM    8  C   UNL     1      -9.886  11.487  66.414  1.00  0.00    -0.233 C  
BRANCH   8   9
HETATM    9  C   UNL     1     -11.067  11.610  67.384  1.00  0.00    -0.337 C  
BRANCH   9  10
HETATM   10  C   UNL     1     -12.010  12.758  67.016  1.00  0.00    -0.364 C  
BRANCH  10  11
HETATM   11  C   UNL     1     -11.282  14.101  66.902  1.00  0.00    -0.326 C  
BRANCH  11  12
HETATM   12  C   UNL     1     -11.195  14.857  68.234  1.00  0.00    -0.306 C  
BRANCH  12  13
HETATM   13  C   UNL     1     -11.528  16.349  68.113  1.00  0.00    -0.108 C  
BRANCH  13  14
HETATM   14  C   UNL     1     -10.529  17.181  68.915  1.00  0.00    -0.346 C  
BRANCH  14  15
HETATM   15  N   UNL     1      -9.590  18.033  68.065  1.00  0.00    -0.285 N  
HETATM   16  C   UNL     1      -9.361  19.406  68.685  1.00  0.00    -0.390 C  
HETATM   17  C   UNL     1     -10.113  18.185  66.642  1.00  0.00    -0.373 C  
HETATM   18  C   UNL     1      -8.243  17.298  68.020  1.00  0.00    -0.223 C  
ENDBRANCH  14  15
ENDBRANCH  13  14
ENDBRANCH  12  13
ENDBRANCH  11  12
ENDBRANCH  10  11
ENDBRANCH   9  10
ENDBRANCH   8   9
ENDBRANCH   7   8
ENDBRANCH   6   7
ENDBRANCH   5   6
ENDBRANCH   2   5
TORSDOF 11
ENDMDL
MODEL      201
REMARK 921   NORMALIZED FREE ENERGY PREDICTED BY IDOCK:   -2.56 KCAL/MOL
REMARK 922        TOTAL FREE ENERGY PREDICTED BY IDOCK:   -4.98 KCAL/MOL
REMARK 923 INTER-LIGAND FREE ENERGY PREDICTED BY IDOCK:   -4.49 KCAL/MOL
REMARK 924 INTRA-LIGAND FREE ENERGY PREDICTED BY IDOCK:   -0.49 KCAL/MOL
REMARK 927      BINDING AFFINITY PREDICTED BY RF-SCORE:    0.00 PKD
ROOT
HETATM    1  C   UNL     1      -9.321  18.099  68.667  1.00  0.00    -0.297 C  
HETATM    2  N   UNL     1      -9.916  16.812  68.083  1.00  0.00    -0.260 N  
HETATM    3  C   UNL     1      -8.781  15.840  67.789  1.00  0.00    -0.170 C  
HETATM    4  C   UNL     1     -10.642  17.166  66.794  1.00  0.00    -0.192 C  
ENDROOT
BRANCH   2   5
HETATM    5  C   UNL     1     -10.867  16.253  69.132  1.00  0.00    -0.314 C  
BRANCH   5   6
HETATM    6  C   UNL     1     -10.735  14.749  69.375  1.00  0.00    -0.250 C  
BRANCH   6   7
HETATM    7  C   UNL     1     -11.951  14.007  68.807  1.00  0.00    -0.382 C  
BRANCH   7   8
HETATM    8  C   UNL     1     -11.597  13.021  67.685  1.00  0.00    -0.403 C  
BRANCH   8   9
HETATM    9  C   UNL     1     -11.614  11.557  68.141  1.00  0.00    -0.378 C  
BRANCH   9  10
HETATM   10  C   UNL     1     -10.262  10.867  67.944  1.00  0.00    -0.205 C  
BRANCH  10  11
HETATM   11  C   UNL     1      -9.798  10.118  69.197  1.00  0.00    -0.225 C  
BRANCH  11  12
HETATM   12  C   UNL     1     -10.923   9.334  69.885  1.00  0.00    -0.231 C  
BRANCH  12  13
HETATM   13  C   UNL     1     -10.451   8.531  71.103  1.00  0.00    -0.278 C  
BRANCH  13  14
HETATM   14  C   UNL     1      -9.242   7.672  70.735  1.00  0.00    -0.157 C  
BRANCH  14  15
HETATM   15  N   UNL     1      -9.585   6.243  70.323  1.00  0.00    -0.163 N  
HETATM   16  C   UNL     1      -9.081   5.927  68.919  1.00  0.00    -0.120 C  
HETATM   17  C   UNL     1     -11.083   5.983  70.408  1.00  0.00    -0.329 C  
HETATM   18  C   UNL     1      -8.865   5.312  71.309  1.00  0.00    -0.136 C  
ENDBRANCH  14  15
ENDBRANCH  13  14
ENDBRANCH  12  13
ENDBRANCH  11  12
ENDBRANCH  10  11
ENDBRANCH   9  10
ENDBRANCH   8   9
ENDBRANCH   7   8
ENDBRANCH   6   7
ENDBRANCH   5   6
ENDBRANCH   2   5
TORSDOF 11
ENDMDL
MODEL      202
REMARK 921   NORMALIZED FREE ENERGY PREDICTED BY IDOCK:   -2.56 KCAL/MOL
REMARK 922        TOTAL FREE ENERGY PREDICTED BY IDOCK:   -4.97 KCAL/MOL
REMARK 923 INTER-LIGAND FREE ENERGY PREDICTED BY IDOCK:   -4.21 KCAL/MOL
REMARK 924 INTRA-LIGAND FREE ENERGY PREDICTED BY IDOCK:   -0.77 KCAL/MOL
REMARK 927      BINDING AFFINITY PREDICTED BY RF-SCORE:    0.00 PKD
ROOT
HETATM    1  C   UNL     1      -8.911   7.094  71.682  1.00  0.00    -0.133 C  
HETATM    2  N   UNL     1     -10.426   7.160  71.915  1.00  0.00    -0.197 N  
HETATM    3  C   UNL     1     -10.945   8.486  71.372  1.00  0.00    -0.264 C  
HETATM    4  C   UNL     1     -10.682   7.076  73.411  1.00  0.00    -0.345 C  
ENDROOT
BRANCH   2   5
HETATM    5  C   UNL     1     -11.036   5.980  71.170  1.00  0.00    -0.278 C  
BRANCH   5   6
HETATM    6  C   UNL     1     -11.270   6.220  69.678  1.00  0.00    -0.506 C  
BRANCH   6   7
HETATM    7  C   UNL     1     -10.377   5.295  68.841  1.00  0.00    -0.228 C  
BRANCH   7   8
HETATM    8  C   UNL     1     -10.386   5.625  67.343  1.00  0.00    -0.284 C  
BRANCH   8   9
HETATM    9  C   UNL     1     -10.908   7.034  67.039  1.00  0.00    -0.413 C  
BRANCH   9  10
HETATM   10  C   UNL     1      -9.808   7.970  66.531  1.00  0.00    -0.289 C  
BRANCH  10  11
HETATM   11  C   UNL     1      -9.609   9.188  67.439  1.00  0.00    -0.193 C  
BRANCH  11  12
HETATM   12  C   UNL     1     -10.641  10.296  67.199  1.00  0.00    -0.320 C  
BRANCH  12  13
HETATM   13  C   UNL     1     -10.230  11.652  67.786  1.00  0.00    -0.202 C  
BRANCH  13  14
HETATM   14  C   UNL     1      -8.958  11.503  68.621  1.00  0.00    -0.112 C  
BRANCH  14  15
HETATM   15  N   UNL     1      -7.802  12.393  68.172  1.00  0.00    -0.137 N  
HETATM   16  C   UNL     1      -7.205  11.915  66.853  1.00  0.00    -0.074 C  
HETATM   17  C   UNL     1      -6.715  12.471  69.236  1.00  0.00    -0.060 C  
HETATM   18  C   UNL     1      -8.381  13.797  67.953  1.00  0.00    -0.172 C  
ENDBRANCH  14  15
ENDBRANCH  13  14
ENDBRANCH  12  13
ENDBRANCH  11  12
ENDBRANCH  10  11
ENDBRANCH   9  10
ENDBRANCH   8   9
ENDBRANCH   7   8
ENDBRANCH   6   7
ENDBRANCH   5   6
ENDBRANCH   2   5
TORSDOF 11
ENDMDL
MODEL      203
REMARK 921   NORMALIZED FREE ENERGY PREDICTED BY IDOCK:   -2.55 KCAL/MOL
REMARK 922        TOTAL FREE ENERGY PREDICTED BY IDOCK:   -4.96 KCAL/MOL
REMARK 923 INTER-LIGAND FREE ENERGY PREDICTED BY IDOCK:   -4.12 KCAL/MOL
REMARK 924 INTRA-LIGAND FREE ENERGY PREDICTED BY IDOCK:   -0.84 KCAL/MOL
REMARK 927      BINDING AFFINITY PREDICTED BY RF-SCORE:    0.00 PKD
ROOT
HETATM    1  C   UNL     1      -8.957   7.020  71.434  1.00  0.00    -0.139 C  
HETATM    2  N   UNL     1     -10.277   6.366  71.861  1.00  0.00    -0.194 N  
HETATM    3  C   UNL     1     -10.805   7.091  73.092  1.00  0.00    -0.316 C  
HETATM    4  C   UNL     1     -10.000   4.909  72.197  1.00  0.00    -0.179 C  
ENDROOT
BRANCH   2   5
HETATM    5  C   UNL     1     -11.234   6.502  70.685  1.00  0.00    -0.329 C  
BRANCH   5   6
HETATM    6  C   UNL     1     -10.707   5.934  69.366  1.00  0.00    -0.406 C  
BRANCH   6   7
HETATM    7  C   UNL     1     -11.264   6.732  68.180  1.00  0.00    -0.154 C  
BRANCH   7   8
HETATM    8  C   UNL     1     -10.193   7.140  67.159  1.00  0.00    -0.327 C  
BRANCH   8   9
HETATM    9  C   UNL     1      -9.014   7.891  67.789  1.00  0.00    -0.128 C  
BRANCH   9  10
HETATM   10  C   UNL     1      -8.095   8.522  66.741  1.00  0.00    -0.098 C  
BRANCH  10  11
HETATM   11  C   UNL     1      -8.723   9.749  66.072  1.00  0.00    -0.156 C  
BRANCH  11  12
HETATM   12  C   UNL     1      -7.984  11.055  66.389  1.00  0.00    -0.161 C  
BRANCH  12  13
HETATM   13  C   UNL     1      -8.920  12.216  66.747  1.00  0.00    -0.203 C  
BRANCH  13  14
HETATM   14  C   UNL     1      -9.474  12.033  68.159  1.00  0.00    -0.200 C  
BRANCH  14  15
HETATM   15  N   UNL     1     -10.997  11.971  68.237  1.00  0.00    -0.219 N  
HETATM   16  C   UNL     1     -11.475  10.658  68.846  1.00  0.00    -0.265 C  
HETATM   17  C   UNL     1     -11.633  12.171  66.868  1.00  0.00    -0.341 C  
HETATM   18  C   UNL     1     -11.441  13.115  69.160  1.00  0.00    -0.305 C  
ENDBRANCH  14  15
ENDBRANCH  13  14
ENDBRANCH  12  13
ENDBRANCH  11  12
ENDBRANCH  10  11
ENDBRANCH   9  10
ENDBRANCH   8   9
ENDBRANCH   7   8
ENDBRANCH   6   7
ENDBRANCH   5   6
ENDBRANCH   2   5
TORSDOF 11
ENDMDL
MODEL      204
REMARK 921   NORMALIZED FREE ENERGY PREDICTED BY IDOCK:   -2.55 KCAL/MOL
REMARK 922        TOTAL FREE ENERGY PREDICTED BY IDOCK:   -4.95 KCAL/MOL
REMARK 923 INTER-LIGAND FREE ENERGY PREDICTED BY IDOCK:   -4.38 KCAL/MOL
REMARK 924 INTRA-LIGAND FREE ENERGY PREDICTED BY IDOCK:   -0.57 KCAL/MOL
REMARK 927      BINDING AFFINITY PREDICTED BY RF-SCORE:    0.00 PKD
ROOT
HETATM    1  C   UNL     1     -11.397  14.983  70.392  1.00  0.00    -0.270 C  
HETATM    2  N   UNL     1     -11.312  14.232  69.058  1.00  0.00    -0.256 N  
HETATM    3  C   UNL     1      -9.867  13.808  68.828  1.00  0.00    -0.088 C  
HETATM    4  C   UNL     1     -11.758  15.175  67.951  1.00  0.00    -0.256 C  
ENDROOT
BRANCH   2   5
HETATM    5  C   UNL     1     -12.232  13.024  69.175  1.00  0.00    -0.061 C  
BRANCH   5   6
HETATM    6  C   UNL     1     -11.517  11.705  69.473  1.00  0.00    -0.371 C  
BRANCH   6   7
HETATM    7  C   UNL     1     -12.276  10.917  70.549  1.00  0.00    -0.459 C  
BRANCH   7   8
HETATM    8  C   UNL     1     -11.444   9.799  71.190  1.00  0.00    -0.472 C  
BRANCH   8   9
HETATM    9  C   UNL     1     -10.089   9.586  70.505  1.00  0.00    -0.347 C  
BRANCH   9  10
HETATM   10  C   UNL     1      -9.166   8.664  71.306  1.00  0.00    -0.283 C  
BRANCH  10  11
HETATM   11  C   UNL     1      -9.807   8.183  72.612  1.00  0.00    -0.364 C  
BRANCH  11  12
HETATM   12  C   UNL     1      -8.788   7.641  73.621  1.00  0.00    -0.295 C  
BRANCH  12  13
HETATM   13  C   UNL     1      -9.136   6.246  74.152  1.00  0.00    -0.157 C  
BRANCH  13  14
HETATM   14  C   UNL     1      -8.875   5.190  73.079  1.00  0.00    -0.120 C  
BRANCH  14  15
HETATM   15  N   UNL     1      -9.999   4.172  72.907  1.00  0.00    -0.143 N  
HETATM   16  C   UNL     1     -10.089   3.673  71.470  1.00  0.00    -0.032 C  
HETATM   17  C   UNL     1     -11.340   4.746  73.344  1.00  0.00    -0.312 C  
HETATM   18  C   UNL     1      -9.656   2.976  73.807  1.00  0.00    -0.091 C  
ENDBRANCH  14  15
ENDBRANCH  13  14
ENDBRANCH  12  13
ENDBRANCH  11  12
ENDBRANCH  10  11
ENDBRANCH   9  10
ENDBRANCH   8   9
ENDBRANCH   7   8
ENDBRANCH   6   7
ENDBRANCH   5   6
ENDBRANCH   2   5
TORSDOF 11
ENDMDL
MODEL      205
REMARK 921   NORMALIZED FREE ENERGY PREDICTED BY IDOCK:   -2.54 KCAL/MOL
REMARK 922        TOTAL FREE ENERGY PREDICTED BY IDOCK:   -4.94 KCAL/MOL
REMARK 923 INTER-LIGAND FREE ENERGY PREDICTED BY IDOCK:   -4.38 KCAL/MOL
REMARK 924 INTRA-LIGAND FREE ENERGY PREDICTED BY IDOCK:   -0.56 KCAL/MOL
REMARK 927      BINDING AFFINITY PREDICTED BY RF-SCORE:    0.00 PKD
ROOT
HETATM    1  C   UNL     1      -8.738   6.693  71.424  1.00  0.00    -0.129 C  
HETATM    2  N   UNL     1      -9.787   6.996  72.500  1.00  0.00    -0.153 N  
HETATM    3  C   UNL     1      -9.140   6.842  73.870  1.00  0.00    -0.170 C  
HETATM    4  C   UNL     1     -10.926   5.999  72.349  1.00  0.00    -0.260 C  
ENDROOT
BRANCH   2   5
HETATM    5  C   UNL     1     -10.255   8.426  72.265  1.00  0.00    -0.326 C  
BRANCH   5   6
HETATM    6  C   UNL     1     -11.171   8.606  71.053  1.00  0.00    -0.321 C  
BRANCH   6   7
HETATM    7  C   UNL     1     -11.666  10.055  70.968  1.00  0.00    -0.479 C  
BRANCH   7   8
HETATM    8  C   UNL     1     -11.125  10.817  69.751  1.00  0.00    -0.346 C  
BRANCH   8   9
HETATM    9  C   UNL     1     -12.109  11.858  69.204  1.00  0.00    -0.261 C  
BRANCH   9  10
HETATM   10  C   UNL     1     -11.440  12.854  68.255  1.00  0.00    -0.348 C  
BRANCH  10  11
HETATM   11  C   UNL     1     -11.879  12.664  66.799  1.00  0.00    -0.440 C  
BRANCH  11  12
HETATM   12  C   UNL     1     -10.702  12.519  65.827  1.00  0.00    -0.299 C  
BRANCH  12  13
HETATM   13  C   UNL     1      -9.335  12.735  66.487  1.00  0.00    -0.221 C  
BRANCH  13  14
HETATM   14  C   UNL     1      -8.601  11.402  66.632  1.00  0.00    -0.170 C  
BRANCH  14  15
HETATM   15  N   UNL     1      -7.349  11.463  67.503  1.00  0.00    -0.105 N  
HETATM   16  C   UNL     1      -6.142  10.859  66.795  1.00  0.00    -0.088 C  
HETATM   17  C   UNL     1      -7.568  10.769  68.841  1.00  0.00    -0.121 C  
HETATM   18  C   UNL     1      -7.058  12.949  67.758  1.00  0.00    -0.137 C  
ENDBRANCH  14  15
ENDBRANCH  13  14
ENDBRANCH  12  13
ENDBRANCH  11  12
ENDBRANCH  10  11
ENDBRANCH   9  10
ENDBRANCH   8   9
ENDBRANCH   7   8
ENDBRANCH   6   7
ENDBRANCH   5   6
ENDBRANCH   2   5
TORSDOF 11
ENDMDL
MODEL      206
REMARK 921   NORMALIZED FREE ENERGY PREDICTED BY IDOCK:   -2.50 KCAL/MOL
REMARK 922        TOTAL FREE ENERGY PREDICTED BY IDOCK:   -4.87 KCAL/MOL
REMARK 923 INTER-LIGAND FREE ENERGY PREDICTED BY IDOCK:   -3.88 KCAL/MOL
REMARK 924 INTRA-LIGAND FREE ENERGY PREDICTED BY IDOCK:   -1.00 KCAL/MOL
REMARK 927      BINDING AFFINITY PREDICTED BY RF-SCORE:    0.00 PKD
ROOT
HETATM    1  C   UNL     1     -11.753  13.319  66.866  1.00  0.00    -0.388 C  
HETATM    2  N   UNL     1     -11.359  13.119  65.397  1.00  0.00    -0.294 N  
HETATM    3  C   UNL     1     -10.948  14.465  64.815  1.00  0.00    -0.397 C  
HETATM    4  C   UNL     1     -12.567  12.576  64.650  1.00  0.00    -0.426 C  
ENDROOT
BRANCH   2   5
HETATM    5  C   UNL     1     -10.199  12.132  65.386  1.00  0.00    -0.270 C  
BRANCH   5   6
HETATM    6  C   UNL     1     -10.551  10.728  65.882  1.00  0.00    -0.216 C  
BRANCH   6   7
HETATM    7  C   UNL     1      -9.577   9.696  65.300  1.00  0.00    -0.347 C  
BRANCH   7   8
HETATM    8  C   UNL     1      -8.294  10.317  64.732  1.00  0.00    -0.173 C  
BRANCH   8   9
HETATM    9  C   UNL     1      -7.037   9.935  65.523  1.00  0.00    -0.118 C  
BRANCH   9  10
HETATM   10  C   UNL     1      -6.731  10.924  66.650  1.00  0.00    -0.127 C  
BRANCH  10  11
HETATM   11  C   UNL     1      -6.964  10.322  68.039  1.00  0.00    -0.082 C  
BRANCH  11  12
HETATM   12  C   UNL     1      -6.607   8.833  68.120  1.00  0.00    -0.061 C  
BRANCH  12  13
HETATM   13  C   UNL     1      -7.512   8.038  69.070  1.00  0.00    -0.093 C  
BRANCH  13  14
HETATM   14  C   UNL     1      -8.970   8.144  68.625  1.00  0.00    -0.137 C  
BRANCH  14  15
HETATM   15  N   UNL     1      -9.677   6.802  68.457  1.00  0.00    -0.132 N  
HETATM   16  C   UNL     1     -10.217   6.625  67.043  1.00  0.00    -0.223 C  
HETATM   17  C   UNL     1     -10.804   6.637  69.469  1.00  0.00    -0.289 C  
HETATM   18  C   UNL     1      -8.625   5.712  68.707  1.00  0.00    -0.104 C  
ENDBRANCH  14  15
ENDBRANCH  13  14
ENDBRANCH  12  13
ENDBRANCH  11  12
ENDBRANCH  10  11
ENDBRANCH   9  10
ENDBRANCH   8   9
ENDBRANCH   7   8
ENDBRANCH   6   7
ENDBRANCH   5   6
ENDBRANCH   2   5
TORSDOF 11
ENDMDL
MODEL      207
REMARK 921   NORMALIZED FREE ENERGY PREDICTED BY IDOCK:   -2.49 KCAL/MOL
REMARK 922        TOTAL FREE ENERGY PREDICTED BY IDOCK:   -4.85 KCAL/MOL
REMARK 923 INTER-LIGAND FREE ENERGY PREDICTED BY IDOCK:   -4.39 KCAL/MOL
REMARK 924 INTRA-LIGAND FREE ENERGY PREDICTED BY IDOCK:   -0.46 KCAL/MOL
REMARK 927      BINDING AFFINITY PREDICTED BY RF-SCORE:    0.00 PKD
ROOT
HETATM    1  C   UNL     1      -8.282   5.348  64.372  1.00  0.00    -0.133 C  
HETATM    2  N   UNL     1      -7.715   6.373  65.362  1.00  0.00    -0.092 N  
HETATM    3  C   UNL     1      -7.481   7.685  64.625  1.00  0.00    -0.096 C  
HETATM    4  C   UNL     1      -6.397   5.837  65.900  1.00  0.00    -0.039 C  
ENDROOT
BRANCH   2   5
HETATM    5  C   UNL     1      -8.751   6.535  66.467  1.00  0.00    -0.134 C  
BRANCH   5   6
HETATM    6  C   UNL     1      -9.574   7.822  66.385  1.00  0.00    -0.235 C  
BRANCH   6   7
HETATM    7  C   UNL     1     -10.567   7.896  67.552  1.00  0.00    -0.312 C  
BRANCH   7   8
HETATM    8  C   UNL     1     -10.310   9.075  68.501  1.00  0.00    -0.233 C  
BRANCH   8   9
HETATM    9  C   UNL     1     -11.068  10.346  68.101  1.00  0.00    -0.344 C  
BRANCH   9  10
HETATM   10  C   UNL     1     -11.162  11.356  69.248  1.00  0.00    -0.342 C  
BRANCH  10  11
HETATM   11  C   UNL     1     -11.981  12.595  68.872  1.00  0.00    -0.284 C  
BRANCH  11  12
HETATM   12  C   UNL     1     -11.554  13.856  69.633  1.00  0.00    -0.347 C  
BRANCH  12  13
HETATM   13  C   UNL     1     -10.672  14.799  68.805  1.00  0.00    -0.253 C  
BRANCH  13  14
HETATM   14  C   UNL     1     -11.307  15.055  67.438  1.00  0.00    -0.332 C  
BRANCH  14  15
HETATM   15  N   UNL     1     -10.337  14.958  66.264  1.00  0.00    -0.283 N  
HETATM   16  C   UNL     1     -11.038  15.212  64.935  1.00  0.00    -0.414 C  
HETATM   17  C   UNL     1      -9.634  13.608  66.232  1.00  0.00    -0.239 C  
HETATM   18  C   UNL     1      -9.285  16.059  66.467  1.00  0.00    -0.276 C  
ENDBRANCH  14  15
ENDBRANCH  13  14
ENDBRANCH  12  13
ENDBRANCH  11  12
ENDBRANCH  10  11
ENDBRANCH   9  10
ENDBRANCH   8   9
ENDBRANCH   7   8
ENDBRANCH   6   7
ENDBRANCH   5   6
ENDBRANCH   2   5
TORSDOF 11
ENDMDL
MODEL      208
REMARK 921   NORMALIZED FREE ENERGY PREDICTED BY IDOCK:   -2.46 KCAL/MOL
REMARK 922        TOTAL FREE ENERGY PREDICTED BY IDOCK:   -4.81 KCAL/MOL
REMARK 923 INTER-LIGAND FREE ENERGY PREDICTED BY IDOCK:   -4.28 KCAL/MOL
REMARK 924 INTRA-LIGAND FREE ENERGY PREDICTED BY IDOCK:   -0.53 KCAL/MOL
REMARK 927      BINDING AFFINITY PREDICTED BY RF-SCORE:    0.00 PKD
ROOT
HETATM    1  C   UNL     1      -6.889  14.459  69.701  1.00  0.00    -0.118 C  
HETATM    2  N   UNL     1      -6.651  13.814  68.329  1.00  0.00    -0.096 N  
HETATM    3  C   UNL     1      -5.152  13.762  68.069  1.00  0.00    -0.101 C  
HETATM    4  C   UNL     1      -7.332  14.673  67.275  1.00  0.00    -0.090 C  
ENDROOT
BRANCH   2   5
HETATM    5  C   UNL     1      -7.252  12.417  68.393  1.00  0.00    -0.110 C  
BRANCH   5   6
HETATM    6  C   UNL     1      -6.985  11.552  67.159  1.00  0.00    -0.138 C  
BRANCH   6   7
HETATM    7  C   UNL     1      -8.210  11.546  66.236  1.00  0.00    -0.044 C  
BRANCH   7   8
HETATM    8  C   UNL     1      -8.238  10.359  65.264  1.00  0.00    -0.162 C  
BRANCH   8   9
HETATM    9  C   UNL     1      -9.646  10.031  64.752  1.00  0.00    -0.374 C  
BRANCH   9  10
HETATM   10  C   UNL     1     -10.054  10.904  63.563  1.00  0.00    -0.406 C  
BRANCH  10  11
HETATM   11  C   UNL     1     -11.395  11.611  63.788  1.00  0.00    -0.482 C  
BRANCH  11  12
HETATM   12  C   UNL     1     -11.270  12.893  64.620  1.00  0.00    -0.353 C  
BRANCH  12  13
HETATM   13  C   UNL     1     -11.758  12.734  66.065  1.00  0.00    -0.470 C  
BRANCH  13  14
HETATM   14  C   UNL     1     -12.207  14.083  66.624  1.00  0.00    -0.428 C  
BRANCH  14  15
HETATM   15  N   UNL     1     -11.434  14.544  67.857  1.00  0.00    -0.309 N  
HETATM   16  C   UNL     1     -10.427  13.494  68.313  1.00  0.00    -0.253 C  
HETATM   17  C   UNL     1     -12.373  14.896  69.003  1.00  0.00    -0.034 C  
HETATM   18  C   UNL     1     -10.658  15.804  67.448  1.00  0.00    -0.313 C  
ENDBRANCH  14  15
ENDBRANCH  13  14
ENDBRANCH  12  13
ENDBRANCH  11  12
ENDBRANCH  10  11
ENDBRANCH   9  10
ENDBRANCH   8   9
ENDBRANCH   7   8
ENDBRANCH   6   7
ENDBRANCH   5   6
ENDBRANCH   2   5
TORSDOF 11
ENDMDL
MODEL      209
REMARK 921   NORMALIZED FREE ENERGY PREDICTED BY IDOCK:   -2.46 KCAL/MOL
REMARK 922        TOTAL FREE ENERGY PREDICTED BY IDOCK:   -4.80 KCAL/MOL
REMARK 923 INTER-LIGAND FREE ENERGY PREDICTED BY IDOCK:   -4.19 KCAL/MOL
REMARK 924 INTRA-LIGAND FREE ENERGY PREDICTED BY IDOCK:   -0.61 KCAL/MOL
REMARK 927      BINDING AFFINITY PREDICTED BY RF-SCORE:    0.00 PKD
ROOT
HETATM    1  C   UNL     1     -10.297  19.893  69.814  1.00  0.00     0.373 C  
HETATM    2  N   UNL     1      -9.639  19.362  68.534  1.00  0.00    -0.381 N  
HETATM    3  C   UNL     1     -10.614  19.535  67.377  1.00  0.00    -0.485 C  
HETATM    4  C   UNL     1      -9.328  17.887  68.735  1.00  0.00    -0.229 C  
ENDROOT
BRANCH   2   5
HETATM    5  C   UNL     1      -8.373  20.182  68.321  1.00  0.00    -0.043 C  
BRANCH   5   6
HETATM    6  C   UNL     1      -7.829  20.152  66.892  1.00  0.00    -0.352 C  
BRANCH   6   7
HETATM    7  C   UNL     1      -6.314  19.914  66.902  1.00  0.00    -0.204 C  
BRANCH   7   8
HETATM    8  C   UNL     1      -5.789  19.249  65.622  1.00  0.00    -0.200 C  
BRANCH   8   9
HETATM    9  C   UNL     1      -5.472  17.760  65.802  1.00  0.00    -0.188 C  
BRANCH   9  10
HETATM   10  C   UNL     1      -6.651  16.976  66.384  1.00  0.00    -0.201 C  
BRANCH  10  11
HETATM   11  C   UNL     1      -6.219  15.986  67.470  1.00  0.00    -0.194 C  
BRANCH  11  12
HETATM   12  C   UNL     1      -7.270  14.907  67.757  1.00  0.00    -0.190 C  
BRANCH  12  13
HETATM   13  C   UNL     1      -8.507  15.004  66.856  1.00  0.00    -0.269 C  
BRANCH  13  14
HETATM   14  C   UNL     1      -9.294  13.694  66.893  1.00  0.00    -0.257 C  
BRANCH  14  15
HETATM   15  N   UNL     1     -10.683  13.775  66.267  1.00  0.00    -0.284 N  
HETATM   16  C   UNL     1     -11.375  15.090  66.604  1.00  0.00    -0.289 C  
HETATM   17  C   UNL     1     -11.556  12.603  66.696  1.00  0.00    -0.381 C  
HETATM   18  C   UNL     1     -10.488  13.714  64.745  1.00  0.00    -0.418 C  
ENDBRANCH  14  15
ENDBRANCH  13  14
ENDBRANCH  12  13
ENDBRANCH  11  12
ENDBRANCH  10  11
ENDBRANCH   9  10
ENDBRANCH   8   9
ENDBRANCH   7   8
ENDBRANCH   6   7
ENDBRANCH   5   6
ENDBRANCH   2   5
TORSDOF 11
ENDMDL
MODEL      210
REMARK 921   NORMALIZED FREE ENERGY PREDICTED BY IDOCK:   -2.46 KCAL/MOL
REMARK 922        TOTAL FREE ENERGY PREDICTED BY IDOCK:   -4.80 KCAL/MOL
REMARK 923 INTER-LIGAND FREE ENERGY PREDICTED BY IDOCK:   -4.32 KCAL/MOL
REMARK 924 INTRA-LIGAND FREE ENERGY PREDICTED BY IDOCK:   -0.48 KCAL/MOL
REMARK 927      BINDING AFFINITY PREDICTED BY RF-SCORE:    0.00 PKD
ROOT
HETATM    1  C   UNL     1      -7.830   4.955  66.795  1.00  0.00    -0.099 C  
HETATM    2  N   UNL     1      -9.134   5.331  66.081  1.00  0.00    -0.143 N  
HETATM    3  C   UNL     1     -10.303   4.735  66.854  1.00  0.00    -0.150 C  
HETATM    4  C   UNL     1      -9.092   4.751  64.676  1.00  0.00    -0.114 C  
ENDROOT
BRANCH   2   5
HETATM    5  C   UNL     1      -9.200   6.852  66.062  1.00  0.00    -0.020 C  
BRANCH   5   6
HETATM    6  C   UNL     1      -9.605   7.489  67.392  1.00  0.00    -0.187 C  
BRANCH   6   7
HETATM    7  C   UNL     1     -10.141   8.908  67.164  1.00  0.00    -0.316 C  
BRANCH   7   8
HETATM    8  C   UNL     1      -9.899   9.433  65.742  1.00  0.00    -0.345 C  
BRANCH   8   9
HETATM    9  C   UNL     1      -9.668  10.947  65.689  1.00  0.00    -0.279 C  
BRANCH   9  10
HETATM   10  C   UNL     1     -10.968  11.732  65.505  1.00  0.00    -0.344 C  
BRANCH  10  11
HETATM   11  C   UNL     1     -10.923  13.109  66.176  1.00  0.00    -0.299 C  
BRANCH  11  12
HETATM   12  C   UNL     1     -10.991  14.271  65.176  1.00  0.00    -0.369 C  
BRANCH  12  13
HETATM   13  C   UNL     1     -10.037  15.423  65.513  1.00  0.00    -0.405 C  
BRANCH  13  14
HETATM   14  C   UNL     1      -9.274  15.120  66.802  1.00  0.00    -0.254 C  
BRANCH  14  15
HETATM   15  N   UNL     1      -9.516  16.121  67.928  1.00  0.00    -0.213 N  
HETATM   16  C   UNL     1      -9.987  17.467  67.391  1.00  0.00    -0.315 C  
HETATM   17  C   UNL     1      -8.269  16.309  68.783  1.00  0.00    -0.227 C  
HETATM   18  C   UNL     1     -10.634  15.540  68.806  1.00  0.00    -0.242 C  
ENDBRANCH  14  15
ENDBRANCH  13  14
ENDBRANCH  12  13
ENDBRANCH  11  12
ENDBRANCH  10  11
ENDBRANCH   9  10
ENDBRANCH   8   9
ENDBRANCH   7   8
ENDBRANCH   6   7
ENDBRANCH   5   6
ENDBRANCH   2   5
TORSDOF 11
ENDMDL
MODEL      211
REMARK 921   NORMALIZED FREE ENERGY PREDICTED BY IDOCK:   -2.46 KCAL/MOL
REMARK 922        TOTAL FREE ENERGY PREDICTED BY IDOCK:   -4.80 KCAL/MOL
REMARK 923 INTER-LIGAND FREE ENERGY PREDICTED BY IDOCK:   -3.74 KCAL/MOL
REMARK 924 INTRA-LIGAND FREE ENERGY PREDICTED BY IDOCK:   -1.06 KCAL/MOL
REMARK 927      BINDING AFFINITY PREDICTED BY RF-SCORE:    0.00 PKD
ROOT
HETATM    1  C   UNL     1      -7.538   6.423  70.266  1.00  0.00    -0.096 C  
HETATM    2  N   UNL     1      -8.421   7.642  70.561  1.00  0.00    -0.127 N  
HETATM    3  C   UNL     1      -7.685   8.553  71.535  1.00  0.00    -0.118 C  
HETATM    4  C   UNL     1      -9.716   7.150  71.188  1.00  0.00    -0.168 C  
ENDROOT
BRANCH   2   5
HETATM    5  C   UNL     1      -8.667   8.337  69.228  1.00  0.00    -0.139 C  
BRANCH   5   6
HETATM    6  C   UNL     1      -7.610   9.375  68.847  1.00  0.00    -0.075 C  
BRANCH   6   7
HETATM    7  C   UNL     1      -7.276   9.274  67.353  1.00  0.00    -0.080 C  
BRANCH   7   8
HETATM    8  C   UNL     1      -7.703  10.506  66.545  1.00  0.00    -0.131 C  
BRANCH   8   9
HETATM    9  C   UNL     1      -8.887  10.233  65.609  1.00  0.00    -0.186 C  
BRANCH   9  10
HETATM   10  C   UNL     1     -10.176  10.910  66.083  1.00  0.00    -0.304 C  
BRANCH  10  11
HETATM   11  C   UNL     1     -10.868  10.132  67.207  1.00  0.00    -0.295 C  
BRANCH  11  12
HETATM   12  C   UNL     1     -11.374  11.032  68.341  1.00  0.00    -0.363 C  
BRANCH  12  13
HETATM   13  C   UNL     1     -10.494  12.264  68.583  1.00  0.00    -0.228 C  
BRANCH  13  14
HETATM   14  C   UNL     1     -11.364  13.491  68.852  1.00  0.00    -0.289 C  
BRANCH  14  15
HETATM   15  N   UNL     1     -11.307  14.557  67.761  1.00  0.00    -0.302 N  
HETATM   16  C   UNL     1     -12.370  14.324  66.693  1.00  0.00    -0.286 C  
HETATM   17  C   UNL     1      -9.928  14.621  67.117  1.00  0.00    -0.240 C  
HETATM   18  C   UNL     1     -11.598  15.903  68.440  1.00  0.00    -0.315 C  
ENDBRANCH  14  15
ENDBRANCH  13  14
ENDBRANCH  12  13
ENDBRANCH  11  12
ENDBRANCH  10  11
ENDBRANCH   9  10
ENDBRANCH   8   9
ENDBRANCH   7   8
ENDBRANCH   6   7
ENDBRANCH   5   6
ENDBRANCH   2   5
TORSDOF 11
ENDMDL
MODEL      212
REMARK 921   NORMALIZED FREE ENERGY PREDICTED BY IDOCK:   -2.44 KCAL/MOL
REMARK 922        TOTAL FREE ENERGY PREDICTED BY IDOCK:   -4.77 KCAL/MOL
REMARK 923 INTER-LIGAND FREE ENERGY PREDICTED BY IDOCK:   -3.68 KCAL/MOL
REMARK 924 INTRA-LIGAND FREE ENERGY PREDICTED BY IDOCK:   -1.09 KCAL/MOL
REMARK 927      BINDING AFFINITY PREDICTED BY RF-SCORE:    0.00 PKD
ROOT
HETATM    1  C   UNL     1      -7.083  11.298  69.238  1.00  0.00    -0.112 C  
HETATM    2  N   UNL     1      -7.287  11.853  67.823  1.00  0.00    -0.100 N  
HETATM    3  C   UNL     1      -7.471  10.684  66.863  1.00  0.00    -0.115 C  
HETATM    4  C   UNL     1      -6.049  12.648  67.440  1.00  0.00    -0.141 C  
ENDROOT
BRANCH   2   5
HETATM    5  C   UNL     1      -8.530  12.732  67.872  1.00  0.00    -0.173 C  
BRANCH   5   6
HETATM    6  C   UNL     1      -9.502  12.527  66.708  1.00  0.00    -0.231 C  
BRANCH   6   7
HETATM    7  C   UNL     1     -10.939  12.819  67.155  1.00  0.00    -0.295 C  
BRANCH   7   8
HETATM    8  C   UNL     1     -11.050  13.242  68.626  1.00  0.00    -0.301 C  
BRANCH   8   9
HETATM    9  C   UNL     1     -12.028  12.378  69.431  1.00  0.00    -0.319 C  
BRANCH   9  10
HETATM   10  C   UNL     1     -11.316  11.465  70.431  1.00  0.00     0.020 C  
BRANCH  10  11
HETATM   11  C   UNL     1     -11.502   9.979  70.106  1.00  0.00    -0.344 C  
BRANCH  11  12
HETATM   12  C   UNL     1     -10.757   9.540  68.840  1.00  0.00    -0.220 C  
BRANCH  12  13
HETATM   13  C   UNL     1      -9.856   8.317  69.054  1.00  0.00    -0.176 C  
BRANCH  13  14
HETATM   14  C   UNL     1      -9.733   8.006  70.545  1.00  0.00    -0.178 C  
BRANCH  14  15
HETATM   15  N   UNL     1     -10.288   6.644  70.953  1.00  0.00    -0.206 N  
HETATM   16  C   UNL     1      -9.226   5.785  71.630  1.00  0.00    -0.146 C  
HETATM   17  C   UNL     1     -10.874   5.901  69.759  1.00  0.00    -0.377 C  
HETATM   18  C   UNL     1     -11.408   6.907  71.970  1.00  0.00    -0.265 C  
ENDBRANCH  14  15
ENDBRANCH  13  14
ENDBRANCH  12  13
ENDBRANCH  11  12
ENDBRANCH  10  11
ENDBRANCH   9  10
ENDBRANCH   8   9
ENDBRANCH   7   8
ENDBRANCH   6   7
ENDBRANCH   5   6
ENDBRANCH   2   5
TORSDOF 11
ENDMDL
MODEL      213
REMARK 921   NORMALIZED FREE ENERGY PREDICTED BY IDOCK:   -2.42 KCAL/MOL
REMARK 922        TOTAL FREE ENERGY PREDICTED BY IDOCK:   -4.74 KCAL/MOL
REMARK 923 INTER-LIGAND FREE ENERGY PREDICTED BY IDOCK:   -4.12 KCAL/MOL
REMARK 924 INTRA-LIGAND FREE ENERGY PREDICTED BY IDOCK:   -0.62 KCAL/MOL
REMARK 927      BINDING AFFINITY PREDICTED BY RF-SCORE:    0.00 PKD
ROOT
HETATM    1  C   UNL     1      -6.622  13.752  70.047  1.00  0.00     0.045 C  
HETATM    2  N   UNL     1      -6.702  13.314  68.579  1.00  0.00    -0.084 N  
HETATM    3  C   UNL     1      -5.519  12.403  68.277  1.00  0.00    -0.058 C  
HETATM    4  C   UNL     1      -6.636  14.558  67.706  1.00  0.00    -0.172 C  
ENDROOT
BRANCH   2   5
HETATM    5  C   UNL     1      -8.025  12.578  68.414  1.00  0.00    -0.139 C  
BRANCH   5   6
HETATM    6  C   UNL     1      -7.910  11.198  67.764  1.00  0.00    -0.114 C  
BRANCH   6   7
HETATM    7  C   UNL     1      -8.100  11.304  66.246  1.00  0.00    -0.108 C  
BRANCH   7   8
HETATM    8  C   UNL     1      -9.114  10.299  65.684  1.00  0.00    -0.208 C  
BRANCH   8   9
HETATM    9  C   UNL     1     -10.559  10.603  66.099  1.00  0.00    -0.211 C  
BRANCH   9  10
HETATM   10  C   UNL     1     -10.893  12.093  66.006  1.00  0.00    -0.318 C  
BRANCH  10  11
HETATM   11  C   UNL     1     -12.116  12.473  66.847  1.00  0.00    -0.164 C  
BRANCH  11  12
HETATM   12  C   UNL     1     -11.939  13.791  67.611  1.00  0.00    -0.392 C  
BRANCH  12  13
HETATM   13  C   UNL     1     -11.928  13.617  69.135  1.00  0.00    -0.394 C  
BRANCH  13  14
HETATM   14  C   UNL     1     -12.271  14.939  69.821  1.00  0.00    -0.287 C  
BRANCH  14  15
HETATM   15  N   UNL     1     -12.637  14.807  71.297  1.00  0.00    -0.311 N  
HETATM   16  C   UNL     1     -11.579  15.436  72.196  1.00  0.00    -0.462 C  
HETATM   17  C   UNL     1     -12.854  13.351  71.689  1.00  0.00    -0.321 C  
HETATM   18  C   UNL     1     -13.951  15.574  71.498  1.00  0.00    -0.421 C  
ENDBRANCH  14  15
ENDBRANCH  13  14
ENDBRANCH  12  13
ENDBRANCH  11  12
ENDBRANCH  10  11
ENDBRANCH   9  10
ENDBRANCH   8   9
ENDBRANCH   7   8
ENDBRANCH   6   7
ENDBRANCH   5   6
ENDBRANCH   2   5
TORSDOF 11
ENDMDL
MODEL      214
REMARK 921   NORMALIZED FREE ENERGY PREDICTED BY IDOCK:   -2.42 KCAL/MOL
REMARK 922        TOTAL FREE ENERGY PREDICTED BY IDOCK:   -4.74 KCAL/MOL
REMARK 923 INTER-LIGAND FREE ENERGY PREDICTED BY IDOCK:   -4.10 KCAL/MOL
REMARK 924 INTRA-LIGAND FREE ENERGY PREDICTED BY IDOCK:   -0.64 KCAL/MOL
REMARK 927      BINDING AFFINITY PREDICTED BY RF-SCORE:    0.00 PKD
ROOT
HETATM    1  C   UNL     1      -7.083   2.959  66.085  1.00  0.00    -0.061 C  
HETATM    2  N   UNL     1      -7.852   4.040  65.314  1.00  0.00    -0.088 N  
HETATM    3  C   UNL     1      -8.904   3.363  64.445  1.00  0.00    -0.105 C  
HETATM    4  C   UNL     1      -6.864   4.795  64.440  1.00  0.00    -0.049 C  
ENDROOT
BRANCH   2   5
HETATM    5  C   UNL     1      -8.494   4.948  66.356  1.00  0.00    -0.111 C  
BRANCH   5   6
HETATM    6  C   UNL     1      -9.966   4.648  66.641  1.00  0.00    -0.260 C  
BRANCH   6   7
HETATM    7  C   UNL     1     -10.617   5.825  67.380  1.00  0.00    -0.340 C  
BRANCH   7   8
HETATM    8  C   UNL     1      -9.904   6.197  68.687  1.00  0.00    -0.160 C  
BRANCH   8   9
HETATM    9  C   UNL     1     -10.330   5.326  69.875  1.00  0.00    -0.374 C  
BRANCH   9  10
HETATM   10  C   UNL     1     -10.788   6.157  71.076  1.00  0.00    -0.338 C  
BRANCH  10  11
HETATM   11  C   UNL     1     -11.894   7.153  70.712  1.00  0.00    -0.367 C  
BRANCH  11  12
HETATM   12  C   UNL     1     -11.793   8.476  71.481  1.00  0.00    -0.353 C  
BRANCH  12  13
HETATM   13  C   UNL     1     -10.790   9.462  70.870  1.00  0.00    -0.392 C  
BRANCH  13  14
HETATM   14  C   UNL     1     -10.931   9.487  69.349  1.00  0.00    -0.170 C  
BRANCH  14  15
HETATM   15  N   UNL     1     -10.756  10.867  68.721  1.00  0.00    -0.193 N  
HETATM   16  C   UNL     1      -9.309  11.339  68.798  1.00  0.00    -0.128 C  
HETATM   17  C   UNL     1     -11.674  11.894  69.371  1.00  0.00    -0.339 C  
HETATM   18  C   UNL     1     -11.137  10.732  67.240  1.00  0.00    -0.270 C  
ENDBRANCH  14  15
ENDBRANCH  13  14
ENDBRANCH  12  13
ENDBRANCH  11  12
ENDBRANCH  10  11
ENDBRANCH   9  10
ENDBRANCH   8   9
ENDBRANCH   7   8
ENDBRANCH   6   7
ENDBRANCH   5   6
ENDBRANCH   2   5
TORSDOF 11
ENDMDL
MODEL      215
REMARK 921   NORMALIZED FREE ENERGY PREDICTED BY IDOCK:   -2.40 KCAL/MOL
REMARK 922        TOTAL FREE ENERGY PREDICTED BY IDOCK:   -4.72 KCAL/MOL
REMARK 923 INTER-LIGAND FREE ENERGY PREDICTED BY IDOCK:   -4.20 KCAL/MOL
REMARK 924 INTRA-LIGAND FREE ENERGY PREDICTED BY IDOCK:   -0.51 KCAL/MOL
REMARK 927      BINDING AFFINITY PREDICTED BY RF-SCORE:    0.00 PKD
ROOT
HETATM    1  C   UNL     1      -6.264   5.183  65.800  1.00  0.00    -0.034 C  
HETATM    2  N   UNL     1      -7.782   4.964  65.799  1.00  0.00    -0.090 N  
HETATM    3  C   UNL     1      -8.170   4.234  67.078  1.00  0.00    -0.101 C  
HETATM    4  C   UNL     1      -8.141   4.116  64.588  1.00  0.00    -0.090 C  
ENDROOT
BRANCH   2   5
HETATM    5  C   UNL     1      -8.424   6.344  65.732  1.00  0.00    -0.148 C  
BRANCH   5   6
HETATM    6  C   UNL     1      -7.908   7.232  64.598  1.00  0.00    -0.123 C  
BRANCH   6   7
HETATM    7  C   UNL     1      -7.786   8.685  65.071  1.00  0.00    -0.116 C  
BRANCH   7   8
HETATM    8  C   UNL     1      -8.482   9.691  64.144  1.00  0.00    -0.186 C  
BRANCH   8   9
HETATM    9  C   UNL     1      -9.802  10.224  64.714  1.00  0.00    -0.403 C  
BRANCH   9  10
HETATM   10  C   UNL     1     -10.087   9.695  66.122  1.00  0.00    -0.328 C  
BRANCH  10  11
HETATM   11  C   UNL     1     -10.608  10.786  67.063  1.00  0.00    -0.312 C  
BRANCH  11  12
HETATM   12  C   UNL     1     -11.049  12.058  66.329  1.00  0.00    -0.363 C  
BRANCH  12  13
HETATM   13  C   UNL     1     -11.794  13.054  67.226  1.00  0.00    -0.419 C  
BRANCH  13  14
HETATM   14  C   UNL     1     -11.581  14.482  66.723  1.00  0.00    -0.376 C  
BRANCH  14  15
HETATM   15  N   UNL     1     -10.353  15.178  67.302  1.00  0.00    -0.257 N  
HETATM   16  C   UNL     1      -9.260  15.351  66.255  1.00  0.00    -0.319 C  
HETATM   17  C   UNL     1      -9.804  14.428  68.508  1.00  0.00    -0.233 C  
HETATM   18  C   UNL     1     -10.807  16.574  67.754  1.00  0.00    -0.304 C  
ENDBRANCH  14  15
ENDBRANCH  13  14
ENDBRANCH  12  13
ENDBRANCH  11  12
ENDBRANCH  10  11
ENDBRANCH   9  10
ENDBRANCH   8   9
ENDBRANCH   7   8
ENDBRANCH   6   7
ENDBRANCH   5   6
ENDBRANCH   2   5
TORSDOF 11
ENDMDL
MODEL      216
REMARK 921   NORMALIZED FREE ENERGY PREDICTED BY IDOCK:   -2.39 KCAL/MOL
REMARK 922        TOTAL FREE ENERGY PREDICTED BY IDOCK:   -4.70 KCAL/MOL
REMARK 923 INTER-LIGAND FREE ENERGY PREDICTED BY IDOCK:   -4.00 KCAL/MOL
REMARK 924 INTRA-LIGAND FREE ENERGY PREDICTED BY IDOCK:   -0.70 KCAL/MOL
REMARK 927      BINDING AFFINITY PREDICTED BY RF-SCORE:    0.00 PKD
ROOT
HETATM    1  C   UNL     1     -12.263  10.869  68.550  1.00  0.00     0.280 C  
HETATM    2  N   UNL     1     -11.452  11.207  69.807  1.00  0.00    -0.289 N  
HETATM    3  C   UNL     1      -9.998  10.825  69.567  1.00  0.00    -0.054 C  
HETATM    4  C   UNL     1     -12.015  10.403  70.968  1.00  0.00    -0.382 C  
ENDROOT
BRANCH   2   5
HETATM    5  C   UNL     1     -11.602  12.706  70.034  1.00  0.00    -0.123 C  
BRANCH   5   6
HETATM    6  C   UNL     1     -10.957  13.581  68.957  1.00  0.00    -0.264 C  
BRANCH   6   7
HETATM    7  C   UNL     1     -11.740  14.889  68.793  1.00  0.00    -0.353 C  
BRANCH   7   8
HETATM    8  C   UNL     1     -11.665  15.473  67.375  1.00  0.00     0.047 C  
BRANCH   8   9
HETATM    9  C   UNL     1     -10.343  16.193  67.088  1.00  0.00    -0.291 C  
BRANCH   9  10
HETATM   10  C   UNL     1      -9.655  15.672  65.824  1.00  0.00    -0.361 C  
BRANCH  10  11
HETATM   11  C   UNL     1      -9.774  14.152  65.675  1.00  0.00    -0.210 C  
BRANCH  11  12
HETATM   12  C   UNL     1     -10.713  13.728  64.539  1.00  0.00    -0.405 C  
BRANCH  12  13
HETATM   13  C   UNL     1     -10.770  12.210  64.328  1.00  0.00    -0.380 C  
BRANCH  13  14
HETATM   14  C   UNL     1     -10.613  11.483  65.664  1.00  0.00    -0.274 C  
BRANCH  14  15
HETATM   15  N   UNL     1      -9.547  10.391  65.666  1.00  0.00    -0.209 N  
HETATM   16  C   UNL     1     -10.025   9.142  66.396  1.00  0.00    -0.288 C  
HETATM   17  C   UNL     1      -8.244  10.887  66.281  1.00  0.00    -0.165 C  
HETATM   18  C   UNL     1      -9.290  10.019  64.199  1.00  0.00    -0.280 C  
ENDBRANCH  14  15
ENDBRANCH  13  14
ENDBRANCH  12  13
ENDBRANCH  11  12
ENDBRANCH  10  11
ENDBRANCH   9  10
ENDBRANCH   8   9
ENDBRANCH   7   8
ENDBRANCH   6   7
ENDBRANCH   5   6
ENDBRANCH   2   5
TORSDOF 11
ENDMDL
MODEL      217
REMARK 921   NORMALIZED FREE ENERGY PREDICTED BY IDOCK:   -2.37 KCAL/MOL
REMARK 922        TOTAL FREE ENERGY PREDICTED BY IDOCK:   -4.67 KCAL/MOL
REMARK 923 INTER-LIGAND FREE ENERGY PREDICTED BY IDOCK:   -4.05 KCAL/MOL
REMARK 924 INTRA-LIGAND FREE ENERGY PREDICTED BY IDOCK:   -0.62 KCAL/MOL
REMARK 927      BINDING AFFINITY PREDICTED BY RF-SCORE:    0.00 PKD
ROOT
HETATM    1  C   UNL     1     -11.285  10.583  68.439  1.00  0.00    -0.279 C  
HETATM    2  N   UNL     1     -10.288   9.734  69.236  1.00  0.00    -0.203 N  
HETATM    3  C   UNL     1     -10.229   8.343  68.619  1.00  0.00    -0.201 C  
HETATM    4  C   UNL     1     -10.780   9.644  70.672  1.00  0.00    -0.322 C  
ENDROOT
BRANCH   2   5
HETATM    5  C   UNL     1      -8.941  10.439  69.145  1.00  0.00    -0.179 C  
BRANCH   5   6
HETATM    6  C   UNL     1      -8.608  10.999  67.760  1.00  0.00    -0.130 C  
BRANCH   6   7
HETATM    7  C   UNL     1      -8.252  12.488  67.858  1.00  0.00    -0.165 C  
BRANCH   7   8
HETATM    8  C   UNL     1      -9.003  13.365  66.846  1.00  0.00    -0.216 C  
BRANCH   8   9
HETATM    9  C   UNL     1      -8.714  14.861  67.012  1.00  0.00    -0.263 C  
BRANCH   9  10
HETATM   10  C   UNL     1      -9.813  15.586  67.791  1.00  0.00    -0.213 C  
BRANCH  10  11
HETATM   11  C   UNL     1      -9.273  16.317  69.025  1.00  0.00    -0.253 C  
BRANCH  11  12
HETATM   12  C   UNL     1      -7.743  16.294  69.120  1.00  0.00    -0.229 C  
BRANCH  12  13
HETATM   13  C   UNL     1      -7.112  17.691  69.154  1.00  0.00    -0.189 C  
BRANCH  13  14
HETATM   14  C   UNL     1      -7.333  18.405  67.821  1.00  0.00    -0.224 C  
BRANCH  14  15
HETATM   15  N   UNL     1      -6.642  19.761  67.708  1.00  0.00    -0.227 N  
HETATM   16  C   UNL     1      -5.455  19.709  66.753  1.00  0.00    -0.166 C  
HETATM   17  C   UNL     1      -6.190  20.270  69.071  1.00  0.00    -0.331 C  
HETATM   18  C   UNL     1      -7.675  20.740  67.133  1.00  0.00    -0.259 C  
ENDBRANCH  14  15
ENDBRANCH  13  14
ENDBRANCH  12  13
ENDBRANCH  11  12
ENDBRANCH  10  11
ENDBRANCH   9  10
ENDBRANCH   8   9
ENDBRANCH   7   8
ENDBRANCH   6   7
ENDBRANCH   5   6
ENDBRANCH   2   5
TORSDOF 11
ENDMDL
MODEL      218
REMARK 921   NORMALIZED FREE ENERGY PREDICTED BY IDOCK:   -2.35 KCAL/MOL
REMARK 922        TOTAL FREE ENERGY PREDICTED BY IDOCK:   -4.62 KCAL/MOL
REMARK 923 INTER-LIGAND FREE ENERGY PREDICTED BY IDOCK:   -3.81 KCAL/MOL
REMARK 924 INTRA-LIGAND FREE ENERGY PREDICTED BY IDOCK:   -0.81 KCAL/MOL
REMARK 927      BINDING AFFINITY PREDICTED BY RF-SCORE:    0.00 PKD
ROOT
HETATM    1  C   UNL     1      -9.347  15.185  69.178  1.00  0.00    -0.215 C  
HETATM    2  N   UNL     1     -10.344  14.970  68.032  1.00  0.00    -0.234 N  
HETATM    3  C   UNL     1     -10.661  16.320  67.401  1.00  0.00    -0.307 C  
HETATM    4  C   UNL     1     -11.610  14.357  68.610  1.00  0.00    -0.314 C  
ENDROOT
BRANCH   2   5
HETATM    5  C   UNL     1      -9.669  14.036  67.035  1.00  0.00    -0.256 C  
BRANCH   5   6
HETATM    6  C   UNL     1     -10.614  13.049  66.347  1.00  0.00    -0.294 C  
BRANCH   6   7
HETATM    7  C   UNL     1     -10.008  11.639  66.352  1.00  0.00    -0.235 C  
BRANCH   7   8
HETATM    8  C   UNL     1     -10.435  10.786  65.150  1.00  0.00    -0.299 C  
BRANCH   8   9
HETATM    9  C   UNL     1      -9.268  10.034  64.500  1.00  0.00    -0.313 C  
BRANCH   9  10
HETATM   10  C   UNL     1      -7.958  10.207  65.271  1.00  0.00    -0.145 C  
BRANCH  10  11
HETATM   11  C   UNL     1      -7.419   8.880  65.818  1.00  0.00    -0.089 C  
BRANCH  11  12
HETATM   12  C   UNL     1      -7.601   8.732  67.333  1.00  0.00    -0.090 C  
BRANCH  12  13
HETATM   13  C   UNL     1      -8.945   8.108  67.729  1.00  0.00    -0.134 C  
BRANCH  13  14
HETATM   14  C   UNL     1      -8.771   7.210  68.953  1.00  0.00    -0.128 C  
BRANCH  14  15
HETATM   15  N   UNL     1      -9.591   5.923  68.913  1.00  0.00    -0.129 N  
HETATM   16  C   UNL     1      -9.536   5.266  67.539  1.00  0.00    -0.134 C  
HETATM   17  C   UNL     1     -11.039   6.173  69.313  1.00  0.00    -0.393 C  
HETATM   18  C   UNL     1      -8.957   4.961  69.928  1.00  0.00    -0.099 C  
ENDBRANCH  14  15
ENDBRANCH  13  14
ENDBRANCH  12  13
ENDBRANCH  11  12
ENDBRANCH  10  11
ENDBRANCH   9  10
ENDBRANCH   8   9
ENDBRANCH   7   8
ENDBRANCH   6   7
ENDBRANCH   5   6
ENDBRANCH   2   5
TORSDOF 11
ENDMDL
MODEL      219
REMARK 921   NORMALIZED FREE ENERGY PREDICTED BY IDOCK:   -2.35 KCAL/MOL
REMARK 922        TOTAL FREE ENERGY PREDICTED BY IDOCK:   -4.62 KCAL/MOL
REMARK 923 INTER-LIGAND FREE ENERGY PREDICTED BY IDOCK:   -4.14 KCAL/MOL
REMARK 924 INTRA-LIGAND FREE ENERGY PREDICTED BY IDOCK:   -0.48 KCAL/MOL
REMARK 927      BINDING AFFINITY PREDICTED BY RF-SCORE:    0.00 PKD
ROOT
HETATM    1  C   UNL     1      -8.571   6.532  71.332  1.00  0.00    -0.126 C  
HETATM    2  N   UNL     1      -9.920   6.138  70.717  1.00  0.00    -0.185 N  
HETATM    3  C   UNL     1     -11.012   6.993  71.346  1.00  0.00    -0.240 C  
HETATM    4  C   UNL     1     -10.171   4.669  71.021  1.00  0.00    -0.136 C  
ENDROOT
BRANCH   2   5
HETATM    5  C   UNL     1      -9.809   6.393  69.219  1.00  0.00    -0.147 C  
BRANCH   5   6
HETATM    6  C   UNL     1      -9.207   7.749  68.847  1.00  0.00    -0.140 C  
BRANCH   6   7
HETATM    7  C   UNL     1     -10.191   8.554  67.989  1.00  0.00    -0.264 C  
BRANCH   7   8
HETATM    8  C   UNL     1     -10.681   9.842  68.665  1.00  0.00    -0.247 C  
BRANCH   8   9
HETATM    9  C   UNL     1     -10.409  11.100  67.833  1.00  0.00    -0.211 C  
BRANCH   9  10
HETATM   10  C   UNL     1      -9.106  11.797  68.233  1.00  0.00    -0.187 C  
BRANCH  10  11
HETATM   11  C   UNL     1      -8.807  13.024  67.367  1.00  0.00    -0.203 C  
BRANCH  11  12
HETATM   12  C   UNL     1     -10.052  13.595  66.676  1.00  0.00    -0.277 C  
BRANCH  12  13
HETATM   13  C   UNL     1      -9.886  15.050  66.222  1.00  0.00    -0.307 C  
BRANCH  13  14
HETATM   14  C   UNL     1     -10.021  15.996  67.414  1.00  0.00    -0.241 C  
BRANCH  14  15
HETATM   15  N   UNL     1      -9.521  17.414  67.154  1.00  0.00    -0.252 N  
HETATM   16  C   UNL     1     -10.375  18.128  66.113  1.00  0.00    -0.385 C  
HETATM   17  C   UNL     1      -8.061  17.420  66.722  1.00  0.00    -0.250 C  
HETATM   18  C   UNL     1      -9.647  18.179  68.480  1.00  0.00    -0.339 C  
ENDBRANCH  14  15
ENDBRANCH  13  14
ENDBRANCH  12  13
ENDBRANCH  11  12
ENDBRANCH  10  11
ENDBRANCH   9  10
ENDBRANCH   8   9
ENDBRANCH   7   8
ENDBRANCH   6   7
ENDBRANCH   5   6
ENDBRANCH   2   5
TORSDOF 11
ENDMDL
MODEL      220
REMARK 921   NORMALIZED FREE ENERGY PREDICTED BY IDOCK:   -2.33 KCAL/MOL
REMARK 922        TOTAL FREE ENERGY PREDICTED BY IDOCK:   -4.60 KCAL/MOL
REMARK 923 INTER-LIGAND FREE ENERGY PREDICTED BY IDOCK:   -3.67 KCAL/MOL
REMARK 924 INTRA-LIGAND FREE ENERGY PREDICTED BY IDOCK:   -0.93 KCAL/MOL
REMARK 927      BINDING AFFINITY PREDICTED BY RF-SCORE:    0.00 PKD
ROOT
HETATM    1  C   UNL     1      -8.041   6.062  70.687  1.00  0.00    -0.116 C  
HETATM    2  N   UNL     1      -9.342   6.600  71.294  1.00  0.00    -0.159 N  
HETATM    3  C   UNL     1      -8.994   7.516  72.460  1.00  0.00    -0.134 C  
HETATM    4  C   UNL     1     -10.161   5.418  71.789  1.00  0.00    -0.206 C  
ENDROOT
BRANCH   2   5
HETATM    5  C   UNL     1     -10.060   7.360  70.187  1.00  0.00    -0.197 C  
BRANCH   5   6
HETATM    6  C   UNL     1      -9.466   8.733  69.867  1.00  0.00    -0.174 C  
BRANCH   6   7
HETATM    7  C   UNL     1      -9.140   8.840  68.372  1.00  0.00    -0.141 C  
BRANCH   7   8
HETATM    8  C   UNL     1      -9.801  10.043  67.686  1.00  0.00    -0.194 C  
BRANCH   8   9
HETATM    9  C   UNL     1     -10.846  10.740  68.564  1.00  0.00    -0.270 C  
BRANCH   9  10
HETATM   10  C   UNL     1     -10.740  12.265  68.500  1.00  0.00    -0.261 C  
BRANCH  10  11
HETATM   11  C   UNL     1      -9.325  12.742  68.157  1.00  0.00    -0.214 C  
BRANCH  11  12
HETATM   12  C   UNL     1      -9.296  13.796  67.043  1.00  0.00    -0.250 C  
BRANCH  12  13
HETATM   13  C   UNL     1      -9.373  13.198  65.634  1.00  0.00     0.216 C  
BRANCH  13  14
HETATM   14  C   UNL     1     -10.459  13.900  64.819  1.00  0.00    -0.429 C  
BRANCH  14  15
HETATM   15  N   UNL     1     -11.731  13.081  64.625  1.00  0.00    -0.343 N  
HETATM   16  C   UNL     1     -11.484  11.595  64.861  1.00  0.00    -0.136 C  
HETATM   17  C   UNL     1     -12.325  13.295  63.239  1.00  0.00    -0.238 C  
HETATM   18  C   UNL     1     -12.739  13.570  65.675  1.00  0.00    -0.421 C  
ENDBRANCH  14  15
ENDBRANCH  13  14
ENDBRANCH  12  13
ENDBRANCH  11  12
ENDBRANCH  10  11
ENDBRANCH   9  10
ENDBRANCH   8   9
ENDBRANCH   7   8
ENDBRANCH   6   7
ENDBRANCH   5   6
ENDBRANCH   2   5
TORSDOF 11
ENDMDL
MODEL      221
REMARK 921   NORMALIZED FREE ENERGY PREDICTED BY IDOCK:   -2.29 KCAL/MOL
REMARK 922        TOTAL FREE ENERGY PREDICTED BY IDOCK:   -4.53 KCAL/MOL
REMARK 923 INTER-LIGAND FREE ENERGY PREDICTED BY IDOCK:   -3.41 KCAL/MOL
REMARK 924 INTRA-LIGAND FREE ENERGY PREDICTED BY IDOCK:   -1.12 KCAL/MOL
REMARK 927      BINDING AFFINITY PREDICTED BY RF-SCORE:    0.00 PKD
ROOT
HETATM    1  C   UNL     1      -8.161  11.570  68.467  1.00  0.00    -0.148 C  
HETATM    2  N   UNL     1      -6.646  11.785  68.369  1.00  0.00    -0.053 N  
HETATM    3  C   UNL     1      -6.026  10.578  67.677  1.00  0.00    -0.044 C  
HETATM    4  C   UNL     1      -6.091  11.917  69.779  1.00  0.00    -0.141 C  
ENDROOT
BRANCH   2   5
HETATM    5  C   UNL     1      -6.436  13.058  67.559  1.00  0.00    -0.154 C  
BRANCH   5   6
HETATM    6  C   UNL     1      -7.697  13.899  67.356  1.00  0.00    -0.165 C  
BRANCH   6   7
HETATM    7  C   UNL     1      -7.398  15.381  67.614  1.00  0.00    -0.203 C  
BRANCH   7   8
HETATM    8  C   UNL     1      -7.830  16.303  66.466  1.00  0.00    -0.298 C  
BRANCH   8   9
HETATM    9  C   UNL     1      -8.957  17.266  66.857  1.00  0.00    -0.256 C  
BRANCH   9  10
HETATM   10  C   UNL     1     -10.309  16.855  66.271  1.00  0.00    -0.312 C  
BRANCH  10  11
HETATM   11  C   UNL     1     -10.198  15.653  65.327  1.00  0.00    -0.358 C  
BRANCH  11  12
HETATM   12  C   UNL     1     -11.106  14.484  65.728  1.00  0.00    -0.324 C  
BRANCH  12  13
HETATM   13  C   UNL     1     -11.938  14.760  66.987  1.00  0.00    -0.225 C  
BRANCH  13  14
HETATM   14  C   UNL     1     -12.042  13.497  67.841  1.00  0.00    -0.269 C  
BRANCH  14  15
HETATM   15  N   UNL     1     -11.790  13.721  69.330  1.00  0.00    -0.320 N  
HETATM   16  C   UNL     1     -12.942  14.472  69.988  1.00  0.00     0.110 C  
HETATM   17  C   UNL     1     -10.482  14.463  69.569  1.00  0.00    -0.007 C  
HETATM   18  C   UNL     1     -11.695  12.331  69.977  1.00  0.00    -0.242 C  
ENDBRANCH  14  15
ENDBRANCH  13  14
ENDBRANCH  12  13
ENDBRANCH  11  12
ENDBRANCH  10  11
ENDBRANCH   9  10
ENDBRANCH   8   9
ENDBRANCH   7   8
ENDBRANCH   6   7
ENDBRANCH   5   6
ENDBRANCH   2   5
TORSDOF 11
ENDMDL
MODEL      222
REMARK 921   NORMALIZED FREE ENERGY PREDICTED BY IDOCK:   -2.28 KCAL/MOL
REMARK 922        TOTAL FREE ENERGY PREDICTED BY IDOCK:   -4.51 KCAL/MOL
REMARK 923 INTER-LIGAND FREE ENERGY PREDICTED BY IDOCK:   -4.16 KCAL/MOL
REMARK 924 INTRA-LIGAND FREE ENERGY PREDICTED BY IDOCK:   -0.35 KCAL/MOL
REMARK 927      BINDING AFFINITY PREDICTED BY RF-SCORE:    0.00 PKD
ROOT
HETATM    1  C   UNL     1     -11.267  16.220  68.381  1.00  0.00    -0.349 C  
HETATM    2  N   UNL     1      -9.758  16.299  68.116  1.00  0.00    -0.225 N  
HETATM    3  C   UNL     1      -9.029  15.538  69.216  1.00  0.00    -0.267 C  
HETATM    4  C   UNL     1      -9.347  17.763  68.138  1.00  0.00    -0.281 C  
ENDROOT
BRANCH   2   5
HETATM    5  C   UNL     1      -9.520  15.666  66.752  1.00  0.00    -0.242 C  
BRANCH   5   6
HETATM    6  C   UNL     1     -10.751  15.626  65.844  1.00  0.00    -0.336 C  
BRANCH   6   7
HETATM    7  C   UNL     1     -11.241  14.182  65.672  1.00  0.00    -0.308 C  
BRANCH   7   8
HETATM    8  C   UNL     1     -10.130  13.136  65.836  1.00  0.00    -0.292 C  
BRANCH   8   9
HETATM    9  C   UNL     1     -10.439  12.094  66.918  1.00  0.00    -0.250 C  
BRANCH   9  10
HETATM   10  C   UNL     1      -9.480  10.902  66.873  1.00  0.00    -0.198 C  
BRANCH  10  11
HETATM   11  C   UNL     1     -10.020   9.746  66.025  1.00  0.00    -0.342 C  
BRANCH  11  12
HETATM   12  C   UNL     1     -10.528   8.567  66.863  1.00  0.00    -0.345 C  
BRANCH  12  13
HETATM   13  C   UNL     1      -9.667   7.305  66.728  1.00  0.00    -0.260 C  
BRANCH  13  14
HETATM   14  C   UNL     1      -9.256   6.794  68.109  1.00  0.00    -0.121 C  
BRANCH  14  15
HETATM   15  N   UNL     1      -7.754   6.593  68.286  1.00  0.00    -0.104 N  
HETATM   16  C   UNL     1      -7.197   5.602  67.270  1.00  0.00    -0.075 C  
HETATM   17  C   UNL     1      -7.416   6.135  69.698  1.00  0.00    -0.081 C  
HETATM   18  C   UNL     1      -7.091   7.955  68.036  1.00  0.00    -0.085 C  
ENDBRANCH  14  15
ENDBRANCH  13  14
ENDBRANCH  12  13
ENDBRANCH  11  12
ENDBRANCH  10  11
ENDBRANCH   9  10
ENDBRANCH   8   9
ENDBRANCH   7   8
ENDBRANCH   6   7
ENDBRANCH   5   6
ENDBRANCH   2   5
TORSDOF 11
ENDMDL
MODEL      223
REMARK 921   NORMALIZED FREE ENERGY PREDICTED BY IDOCK:   -2.28 KCAL/MOL
REMARK 922        TOTAL FREE ENERGY PREDICTED BY IDOCK:   -4.51 KCAL/MOL
REMARK 923 INTER-LIGAND FREE ENERGY PREDICTED BY IDOCK:   -4.25 KCAL/MOL
REMARK 924 INTRA-LIGAND FREE ENERGY PREDICTED BY IDOCK:   -0.26 KCAL/MOL
REMARK 927      BINDING AFFINITY PREDICTED BY RF-SCORE:    0.00 PKD
ROOT
HETATM    1  C   UNL     1      -6.081  14.034  70.516  1.00  0.00    -0.160 C  
HETATM    2  N   UNL     1      -6.276  14.965  69.313  1.00  0.00    -0.105 N  
HETATM    3  C   UNL     1      -5.241  14.616  68.252  1.00  0.00    -0.113 C  
HETATM    4  C   UNL     1      -6.075  16.398  69.782  1.00  0.00    -0.212 C  
ENDROOT
BRANCH   2   5
HETATM    5  C   UNL     1      -7.693  14.732  68.805  1.00  0.00    -0.136 C  
BRANCH   5   6
HETATM    6  C   UNL     1      -7.905  15.075  67.329  1.00  0.00    -0.241 C  
BRANCH   6   7
HETATM    7  C   UNL     1      -8.804  16.310  67.191  1.00  0.00    -0.212 C  
BRANCH   7   8
HETATM    8  C   UNL     1      -9.396  16.483  65.786  1.00  0.00    -0.110 C  
BRANCH   8   9
HETATM    9  C   UNL     1     -10.002  15.192  65.223  1.00  0.00    -0.325 C  
BRANCH   9  10
HETATM   10  C   UNL     1     -11.293  14.790  65.939  1.00  0.00    -0.331 C  
BRANCH  10  11
HETATM   11  C   UNL     1     -11.028  14.074  67.268  1.00  0.00    -0.303 C  
BRANCH  11  12
HETATM   12  C   UNL     1     -12.226  14.113  68.225  1.00  0.00    -0.196 C  
BRANCH  12  13
HETATM   13  C   UNL     1     -11.879  14.661  69.615  1.00  0.00    -0.367 C  
BRANCH  13  14
HETATM   14  C   UNL     1     -13.110  14.628  70.519  1.00  0.00    -0.202 C  
BRANCH  14  15
HETATM   15  N   UNL     1     -12.797  14.665  72.013  1.00  0.00    -0.317 N  
HETATM   16  C   UNL     1     -13.767  15.565  72.768  1.00  0.00    -0.553 C  
HETATM   17  C   UNL     1     -11.364  15.112  72.270  1.00  0.00    -0.213 C  
HETATM   18  C   UNL     1     -12.969  13.232  72.537  1.00  0.00    -0.155 C  
ENDBRANCH  14  15
ENDBRANCH  13  14
ENDBRANCH  12  13
ENDBRANCH  11  12
ENDBRANCH  10  11
ENDBRANCH   9  10
ENDBRANCH   8   9
ENDBRANCH   7   8
ENDBRANCH   6   7
ENDBRANCH   5   6
ENDBRANCH   2   5
TORSDOF 11
ENDMDL
MODEL      224
REMARK 921   NORMALIZED FREE ENERGY PREDICTED BY IDOCK:   -2.27 KCAL/MOL
REMARK 922        TOTAL FREE ENERGY PREDICTED BY IDOCK:   -4.49 KCAL/MOL
REMARK 923 INTER-LIGAND FREE ENERGY PREDICTED BY IDOCK:   -3.94 KCAL/MOL
REMARK 924 INTRA-LIGAND FREE ENERGY PREDICTED BY IDOCK:   -0.55 KCAL/MOL
REMARK 927      BINDING AFFINITY PREDICTED BY RF-SCORE:    0.00 PKD
ROOT
HETATM    1  C   UNL     1     -11.834  15.762  70.853  1.00  0.00    -0.414 C  
HETATM    2  N   UNL     1     -11.281  15.520  69.443  1.00  0.00    -0.277 N  
HETATM    3  C   UNL     1      -9.841  15.037  69.559  1.00  0.00    -0.126 C  
HETATM    4  C   UNL     1     -11.327  16.835  68.681  1.00  0.00    -0.062 C  
ENDROOT
BRANCH   2   5
HETATM    5  C   UNL     1     -12.170  14.464  68.799  1.00  0.00    -0.165 C  
BRANCH   5   6
HETATM    6  C   UNL     1     -11.571  13.056  68.773  1.00  0.00    -0.350 C  
BRANCH   6   7
HETATM    7  C   UNL     1     -12.336  12.132  69.729  1.00  0.00    -0.091 C  
BRANCH   7   8
HETATM    8  C   UNL     1     -11.502  10.946  70.232  1.00  0.00    -0.391 C  
BRANCH   8   9
HETATM    9  C   UNL     1     -12.219  10.115  71.301  1.00  0.00    -0.496 C  
BRANCH   9  10
HETATM   10  C   UNL     1     -11.860   8.629  71.227  1.00  0.00    -0.344 C  
BRANCH  10  11
HETATM   11  C   UNL     1     -11.081   8.277  69.955  1.00  0.00    -0.147 C  
BRANCH  11  12
HETATM   12  C   UNL     1     -10.595   6.822  69.927  1.00  0.00    -0.257 C  
BRANCH  12  13
HETATM   13  C   UNL     1      -9.111   6.667  70.281  1.00  0.00    -0.156 C  
BRANCH  13  14
HETATM   14  C   UNL     1      -8.951   5.777  71.513  1.00  0.00    -0.140 C  
BRANCH  14  15
HETATM   15  N   UNL     1      -8.464   6.510  72.761  1.00  0.00    -0.120 N  
HETATM   16  C   UNL     1      -7.696   5.581  73.693  1.00  0.00    -0.102 C  
HETATM   17  C   UNL     1      -9.620   7.160  73.510  1.00  0.00    -0.225 C  
HETATM   18  C   UNL     1      -7.504   7.609  72.284  1.00  0.00    -0.078 C  
ENDBRANCH  14  15
ENDBRANCH  13  14
ENDBRANCH  12  13
ENDBRANCH  11  12
ENDBRANCH  10  11
ENDBRANCH   9  10
ENDBRANCH   8   9
ENDBRANCH   7   8
ENDBRANCH   6   7
ENDBRANCH   5   6
ENDBRANCH   2   5
TORSDOF 11
ENDMDL
MODEL      225
REMARK 921   NORMALIZED FREE ENERGY PREDICTED BY IDOCK:   -2.26 KCAL/MOL
REMARK 922        TOTAL FREE ENERGY PREDICTED BY IDOCK:   -4.48 KCAL/MOL
REMARK 923 INTER-LIGAND FREE ENERGY PREDICTED BY IDOCK:   -4.29 KCAL/MOL
REMARK 924 INTRA-LIGAND FREE ENERGY PREDICTED BY IDOCK:   -0.19 KCAL/MOL
REMARK 927      BINDING AFFINITY PREDICTED BY RF-SCORE:    0.00 PKD
ROOT
HETATM    1  C   UNL     1      -8.133  18.939  68.333  1.00  0.00    -0.341 C  
HETATM    2  N   UNL     1      -9.202  18.695  67.261  1.00  0.00    -0.284 N  
HETATM    3  C   UNL     1      -8.878  19.554  66.045  1.00  0.00    -0.206 C  
HETATM    4  C   UNL     1     -10.552  19.095  67.834  1.00  0.00    -0.365 C  
ENDROOT
BRANCH   2   5
HETATM    5  C   UNL     1      -9.150  17.211  66.921  1.00  0.00    -0.238 C  
BRANCH   5   6
HETATM    6  C   UNL     1     -10.511  16.576  66.632  1.00  0.00    -0.266 C  
BRANCH   6   7
HETATM    7  C   UNL     1     -11.008  16.988  65.240  1.00  0.00    -0.010 C  
BRANCH   7   8
HETATM    8  C   UNL     1     -11.166  15.808  64.272  1.00  0.00    -0.119 C  
BRANCH   8   9
HETATM    9  C   UNL     1     -12.395  14.942  64.573  1.00  0.00    -0.330 C  
BRANCH   9  10
HETATM   10  C   UNL     1     -12.284  13.538  63.973  1.00  0.00    -0.458 C  
BRANCH  10  11
HETATM   11  C   UNL     1     -11.187  12.701  64.638  1.00  0.00    -0.348 C  
BRANCH  11  12
HETATM   12  C   UNL     1     -10.281  11.982  63.632  1.00  0.00    -0.470 C  
BRANCH  12  13
HETATM   13  C   UNL     1      -9.348  10.950  64.278  1.00  0.00    -0.259 C  
BRANCH  13  14
HETATM   14  C   UNL     1      -8.594  10.171  63.201  1.00  0.00    -0.193 C  
BRANCH  14  15
HETATM   15  N   UNL     1      -7.511   9.239  63.739  1.00  0.00    -0.103 N  
HETATM   16  C   UNL     1      -7.301   9.427  65.237  1.00  0.00    -0.096 C  
HETATM   17  C   UNL     1      -6.193   9.434  63.001  1.00  0.00    -0.095 C  
HETATM   18  C   UNL     1      -8.002   7.804  63.502  1.00  0.00    -0.104 C  
ENDBRANCH  14  15
ENDBRANCH  13  14
ENDBRANCH  12  13
ENDBRANCH  11  12
ENDBRANCH  10  11
ENDBRANCH   9  10
ENDBRANCH   8   9
ENDBRANCH   7   8
ENDBRANCH   6   7
ENDBRANCH   5   6
ENDBRANCH   2   5
TORSDOF 11
ENDMDL
MODEL      226
REMARK 921   NORMALIZED FREE ENERGY PREDICTED BY IDOCK:   -2.26 KCAL/MOL
REMARK 922        TOTAL FREE ENERGY PREDICTED BY IDOCK:   -4.47 KCAL/MOL
REMARK 923 INTER-LIGAND FREE ENERGY PREDICTED BY IDOCK:   -3.49 KCAL/MOL
REMARK 924 INTRA-LIGAND FREE ENERGY PREDICTED BY IDOCK:   -0.98 KCAL/MOL
REMARK 927      BINDING AFFINITY PREDICTED BY RF-SCORE:    0.00 PKD
ROOT
HETATM    1  C   UNL     1      -7.414   5.430  68.380  1.00  0.00    -0.073 C  
HETATM    2  N   UNL     1      -7.009   6.909  68.363  1.00  0.00    -0.077 N  
HETATM    3  C   UNL     1      -5.532   7.007  68.002  1.00  0.00    -0.020 C  
HETATM    4  C   UNL     1      -7.242   7.482  69.752  1.00  0.00    -0.080 C  
ENDROOT
BRANCH   2   5
HETATM    5  C   UNL     1      -7.882   7.590  67.318  1.00  0.00    -0.118 C  
BRANCH   5   6
HETATM    6  C   UNL     1      -8.359   8.992  67.701  1.00  0.00    -0.117 C  
BRANCH   6   7
HETATM    7  C   UNL     1      -9.415   9.488  66.706  1.00  0.00    -0.217 C  
BRANCH   7   8
HETATM    8  C   UNL     1     -10.792   9.727  67.341  1.00  0.00    -0.265 C  
BRANCH   8   9
HETATM    9  C   UNL     1     -11.125  11.212  67.519  1.00  0.00    -0.353 C  
BRANCH   9  10
HETATM   10  C   UNL     1     -12.000  11.473  68.747  1.00  0.00    -0.335 C  
BRANCH  10  11
HETATM   11  C   UNL     1     -12.076  10.261  69.681  1.00  0.00    -0.080 C  
BRANCH  11  12
HETATM   12  C   UNL     1     -11.301  10.457  70.990  1.00  0.00    -0.208 C  
BRANCH  12  13
HETATM   13  C   UNL     1     -10.797   9.145  71.604  1.00  0.00    -0.442 C  
BRANCH  13  14
HETATM   14  C   UNL     1     -10.801   8.034  70.555  1.00  0.00    -0.241 C  
BRANCH  14  15
HETATM   15  N   UNL     1     -10.946   6.627  71.127  1.00  0.00    -0.247 N  
HETATM   16  C   UNL     1     -10.622   5.561  70.087  1.00  0.00    -0.297 C  
HETATM   17  C   UNL     1     -12.342   6.396  71.691  1.00  0.00    -0.158 C  
HETATM   18  C   UNL     1      -9.926   6.505  72.269  1.00  0.00    -0.163 C  
ENDBRANCH  14  15
ENDBRANCH  13  14
ENDBRANCH  12  13
ENDBRANCH  11  12
ENDBRANCH  10  11
ENDBRANCH   9  10
ENDBRANCH   8   9
ENDBRANCH   7   8
ENDBRANCH   6   7
ENDBRANCH   5   6
ENDBRANCH   2   5
TORSDOF 11
ENDMDL
MODEL      227
REMARK 921   NORMALIZED FREE ENERGY PREDICTED BY IDOCK:   -2.25 KCAL/MOL
REMARK 922        TOTAL FREE ENERGY PREDICTED BY IDOCK:   -4.46 KCAL/MOL
REMARK 923 INTER-LIGAND FREE ENERGY PREDICTED BY IDOCK:   -3.77 KCAL/MOL
REMARK 924 INTRA-LIGAND FREE ENERGY PREDICTED BY IDOCK:   -0.69 KCAL/MOL
REMARK 927      BINDING AFFINITY PREDICTED BY RF-SCORE:    0.00 PKD
ROOT
HETATM    1  C   UNL     1      -8.078   6.156  66.278  1.00  0.00    -0.113 C  
HETATM    2  N   UNL     1      -6.781   6.513  67.016  1.00  0.00    -0.058 N  
HETATM    3  C   UNL     1      -5.722   6.885  65.987  1.00  0.00    -0.030 C  
HETATM    4  C   UNL     1      -6.332   5.294  67.806  1.00  0.00    -0.040 C  
ENDROOT
BRANCH   2   5
HETATM    5  C   UNL     1      -7.106   7.688  67.928  1.00  0.00    -0.085 C  
BRANCH   5   6
HETATM    6  C   UNL     1      -7.541   7.297  69.342  1.00  0.00    -0.097 C  
BRANCH   6   7
HETATM    7  C   UNL     1      -7.278   8.449  70.320  1.00  0.00    -0.044 C  
BRANCH   7   8
HETATM    8  C   UNL     1      -8.369   9.528  70.301  1.00  0.00    -0.221 C  
BRANCH   8   9
HETATM    9  C   UNL     1      -9.708   9.043  70.866  1.00  0.00    -0.329 C  
BRANCH   9  10
HETATM   10  C   UNL     1     -10.906   9.736  70.212  1.00  0.00    -0.356 C  
BRANCH  10  11
HETATM   11  C   UNL     1     -10.489  10.690  69.087  1.00  0.00    -0.245 C  
BRANCH  11  12
HETATM   12  C   UNL     1     -10.915  10.205  67.696  1.00  0.00    -0.331 C  
BRANCH  12  13
HETATM   13  C   UNL     1     -10.914  11.314  66.637  1.00  0.00    -0.326 C  
BRANCH  13  14
HETATM   14  C   UNL     1     -10.030  12.477  67.087  1.00  0.00    -0.216 C  
BRANCH  14  15
HETATM   15  N   UNL     1     -10.545  13.855  66.683  1.00  0.00    -0.273 N  
HETATM   16  C   UNL     1      -9.540  14.950  67.017  1.00  0.00    -0.238 C  
HETATM   17  C   UNL     1     -11.886  14.162  67.337  1.00  0.00    -0.413 C  
HETATM   18  C   UNL     1     -10.733  13.828  65.159  1.00  0.00    -0.358 C  
ENDBRANCH  14  15
ENDBRANCH  13  14
ENDBRANCH  12  13
ENDBRANCH  11  12
ENDBRANCH  10  11
ENDBRANCH   9  10
ENDBRANCH   8   9
ENDBRANCH   7   8
ENDBRANCH   6   7
ENDBRANCH   5   6
ENDBRANCH   2   5
TORSDOF 11
ENDMDL
MODEL      228
REMARK 921   NORMALIZED FREE ENERGY PREDICTED BY IDOCK:   -2.24 KCAL/MOL
REMARK 922        TOTAL FREE ENERGY PREDICTED BY IDOCK:   -4.45 KCAL/MOL
REMARK 923 INTER-LIGAND FREE ENERGY PREDICTED BY IDOCK:   -3.83 KCAL/MOL
REMARK 924 INTRA-LIGAND FREE ENERGY PREDICTED BY IDOCK:   -0.61 KCAL/MOL
REMARK 927      BINDING AFFINITY PREDICTED BY RF-SCORE:    0.00 PKD
ROOT
HETATM    1  C   UNL     1     -10.188   4.456  71.960  1.00  0.00    -0.163 C  
HETATM    2  N   UNL     1      -9.395   4.532  73.271  1.00  0.00    -0.117 N  
HETATM    3  C   UNL     1      -8.364   3.411  73.283  1.00  0.00    -0.075 C  
HETATM    4  C   UNL     1     -10.367   4.356  74.427  1.00  0.00    -0.253 C  
ENDROOT
BRANCH   2   5
HETATM    5  C   UNL     1      -8.727   5.901  73.299  1.00  0.00    -0.117 C  
BRANCH   5   6
HETATM    6  C   UNL     1      -9.081   6.807  72.119  1.00  0.00    -0.140 C  
BRANCH   6   7
HETATM    7  C   UNL     1      -9.489   8.199  72.618  1.00  0.00    -0.346 C  
BRANCH   7   8
HETATM    8  C   UNL     1      -9.728   9.209  71.487  1.00  0.00    -0.313 C  
BRANCH   8   9
HETATM    9  C   UNL     1     -11.074   9.016  70.780  1.00  0.00    -0.328 C  
BRANCH   9  10
HETATM   10  C   UNL     1     -12.166   8.514  71.728  1.00  0.00    -0.388 C  
BRANCH  10  11
HETATM   11  C   UNL     1     -13.341   9.492  71.840  1.00  0.00    -0.518 C  
BRANCH  11  12
HETATM   12  C   UNL     1     -12.940  10.854  72.422  1.00  0.00     0.294 C  
BRANCH  12  13
HETATM   13  C   UNL     1     -13.437  12.043  71.591  1.00  0.00    -0.068 C  
BRANCH  13  14
HETATM   14  C   UNL     1     -13.899  13.174  72.510  1.00  0.00    -0.391 C  
BRANCH  14  15
HETATM   15  N   UNL     1     -12.966  14.382  72.541  1.00  0.00    -0.398 N  
HETATM   16  C   UNL     1     -11.928  14.319  71.427  1.00  0.00    -0.196 C  
HETATM   17  C   UNL     1     -12.274  14.516  73.891  1.00  0.00     0.167 C  
HETATM   18  C   UNL     1     -13.840  15.623  72.309  1.00  0.00    -0.485 C  
ENDBRANCH  14  15
ENDBRANCH  13  14
ENDBRANCH  12  13
ENDBRANCH  11  12
ENDBRANCH  10  11
ENDBRANCH   9  10
ENDBRANCH   8   9
ENDBRANCH   7   8
ENDBRANCH   6   7
ENDBRANCH   5   6
ENDBRANCH   2   5
TORSDOF 11
ENDMDL
MODEL      229
REMARK 921   NORMALIZED FREE ENERGY PREDICTED BY IDOCK:   -2.24 KCAL/MOL
REMARK 922        TOTAL FREE ENERGY PREDICTED BY IDOCK:   -4.44 KCAL/MOL
REMARK 923 INTER-LIGAND FREE ENERGY PREDICTED BY IDOCK:   -3.91 KCAL/MOL
REMARK 924 INTRA-LIGAND FREE ENERGY PREDICTED BY IDOCK:   -0.53 KCAL/MOL
REMARK 927      BINDING AFFINITY PREDICTED BY RF-SCORE:    0.00 PKD
ROOT
HETATM    1  C   UNL     1      -7.438   6.001  69.866  1.00  0.00    -0.080 C  
HETATM    2  N   UNL     1      -7.191   6.249  71.359  1.00  0.00    -0.078 N  
HETATM    3  C   UNL     1      -5.912   5.529  71.768  1.00  0.00    -0.029 C  
HETATM    4  C   UNL     1      -8.372   5.688  72.136  1.00  0.00    -0.115 C  
ENDROOT
BRANCH   2   5
HETATM    5  C   UNL     1      -7.061   7.755  71.538  1.00  0.00    -0.063 C  
BRANCH   5   6
HETATM    6  C   UNL     1      -6.778   8.528  70.248  1.00  0.00    -0.039 C  
BRANCH   6   7
HETATM    7  C   UNL     1      -7.643   9.793  70.182  1.00  0.00    -0.180 C  
BRANCH   7   8
HETATM    8  C   UNL     1      -9.102   9.518  69.791  1.00  0.00    -0.219 C  
BRANCH   8   9
HETATM    9  C   UNL     1      -9.547  10.289  68.544  1.00  0.00    -0.165 C  
BRANCH   9  10
HETATM   10  C   UNL     1     -11.044  10.134  68.263  1.00  0.00    -0.285 C  
BRANCH  10  11
HETATM   11  C   UNL     1     -11.865  11.315  68.790  1.00  0.00    -0.396 C  
BRANCH  11  12
HETATM   12  C   UNL     1     -11.060  12.616  68.885  1.00  0.00    -0.307 C  
BRANCH  12  13
HETATM   13  C   UNL     1     -11.930  13.878  68.829  1.00  0.00    -0.393 C  
BRANCH  13  14
HETATM   14  C   UNL     1     -11.198  14.994  68.084  1.00  0.00    -0.308 C  
BRANCH  14  15
HETATM   15  N   UNL     1     -10.562  16.045  68.989  1.00  0.00    -0.239 N  
HETATM   16  C   UNL     1     -10.617  17.433  68.362  1.00  0.00    -0.355 C  
HETATM   17  C   UNL     1      -9.122  15.687  69.332  1.00  0.00    -0.278 C  
HETATM   18  C   UNL     1     -11.386  16.073  70.284  1.00  0.00    -0.382 C  
ENDBRANCH  14  15
ENDBRANCH  13  14
ENDBRANCH  12  13
ENDBRANCH  11  12
ENDBRANCH  10  11
ENDBRANCH   9  10
ENDBRANCH   8   9
ENDBRANCH   7   8
ENDBRANCH   6   7
ENDBRANCH   5   6
ENDBRANCH   2   5
TORSDOF 11
ENDMDL
MODEL      230
REMARK 921   NORMALIZED FREE ENERGY PREDICTED BY IDOCK:   -2.22 KCAL/MOL
REMARK 922        TOTAL FREE ENERGY PREDICTED BY IDOCK:   -4.41 KCAL/MOL
REMARK 923 INTER-LIGAND FREE ENERGY PREDICTED BY IDOCK:   -3.47 KCAL/MOL
REMARK 924 INTRA-LIGAND FREE ENERGY PREDICTED BY IDOCK:   -0.94 KCAL/MOL
REMARK 927      BINDING AFFINITY PREDICTED BY RF-SCORE:    0.00 PKD
ROOT
HETATM    1  C   UNL     1     -11.889  11.982  68.491  1.00  0.00    -0.311 C  
HETATM    2  N   UNL     1     -10.663  12.500  67.729  1.00  0.00    -0.214 N  
HETATM    3  C   UNL     1     -10.628  14.019  67.835  1.00  0.00    -0.244 C  
HETATM    4  C   UNL     1     -10.798  12.085  66.272  1.00  0.00    -0.279 C  
ENDROOT
BRANCH   2   5
HETATM    5  C   UNL     1      -9.442  11.869  68.385  1.00  0.00    -0.189 C  
BRANCH   5   6
HETATM    6  C   UNL     1      -8.231  11.715  67.462  1.00  0.00    -0.148 C  
BRANCH   6   7
HETATM    7  C   UNL     1      -7.017  12.448  68.046  1.00  0.00    -0.097 C  
BRANCH   7   8
HETATM    8  C   UNL     1      -6.574  11.906  69.412  1.00  0.00    -0.108 C  
BRANCH   8   9
HETATM    9  C   UNL     1      -6.235  10.411  69.388  1.00  0.00    -0.049 C  
BRANCH   9  10
HETATM   10  C   UNL     1      -6.327   9.767  70.773  1.00  0.00    -0.095 C  
BRANCH  10  11
HETATM   11  C   UNL     1      -7.133   8.464  70.762  1.00  0.00    -0.050 C  
BRANCH  11  12
HETATM   12  C   UNL     1      -7.992   8.295  69.502  1.00  0.00    -0.112 C  
BRANCH  12  13
HETATM   13  C   UNL     1      -9.498   8.267  69.789  1.00  0.00    -0.163 C  
BRANCH  13  14
HETATM   14  C   UNL     1      -9.753   7.860  71.240  1.00  0.00    -0.157 C  
BRANCH  14  15
HETATM   15  N   UNL     1     -11.112   7.209  71.483  1.00  0.00    -0.236 N  
HETATM   16  C   UNL     1     -12.186   8.248  71.785  1.00  0.00    -0.326 C  
HETATM   17  C   UNL     1     -11.046   6.186  72.609  1.00  0.00    -0.272 C  
HETATM   18  C   UNL     1     -11.497   6.488  70.183  1.00  0.00    -0.415 C  
ENDBRANCH  14  15
ENDBRANCH  13  14
ENDBRANCH  12  13
ENDBRANCH  11  12
ENDBRANCH  10  11
ENDBRANCH   9  10
ENDBRANCH   8   9
ENDBRANCH   7   8
ENDBRANCH   6   7
ENDBRANCH   5   6
ENDBRANCH   2   5
TORSDOF 11
ENDMDL
MODEL      231
REMARK 921   NORMALIZED FREE ENERGY PREDICTED BY IDOCK:   -2.21 KCAL/MOL
REMARK 922        TOTAL FREE ENERGY PREDICTED BY IDOCK:   -4.40 KCAL/MOL
REMARK 923 INTER-LIGAND FREE ENERGY PREDICTED BY IDOCK:   -3.59 KCAL/MOL
REMARK 924 INTRA-LIGAND FREE ENERGY PREDICTED BY IDOCK:   -0.81 KCAL/MOL
REMARK 927      BINDING AFFINITY PREDICTED BY RF-SCORE:    0.00 PKD
ROOT
HETATM    1  C   UNL     1      -8.997   7.457  72.011  1.00  0.00    -0.124 C  
HETATM    2  N   UNL     1     -10.428   7.032  72.364  1.00  0.00    -0.203 N  
HETATM    3  C   UNL     1     -11.388   8.121  71.903  1.00  0.00    -0.296 C  
HETATM    4  C   UNL     1     -10.517   6.866  73.873  1.00  0.00    -0.318 C  
ENDROOT
BRANCH   2   5
HETATM    5  C   UNL     1     -10.687   5.719  71.636  1.00  0.00    -0.256 C  
BRANCH   5   6
HETATM    6  C   UNL     1     -10.800   5.845  70.115  1.00  0.00    -0.402 C  
BRANCH   6   7
HETATM    7  C   UNL     1      -9.748   4.967  69.427  1.00  0.00    -0.261 C  
BRANCH   7   8
HETATM    8  C   UNL     1     -10.015   4.749  67.931  1.00  0.00    -0.161 C  
BRANCH   8   9
HETATM    9  C   UNL     1     -10.587   5.989  67.234  1.00  0.00    -0.367 C  
BRANCH   9  10
HETATM   10  C   UNL     1      -9.587   6.634  66.272  1.00  0.00    -0.092 C  
BRANCH  10  11
HETATM   11  C   UNL     1      -9.059   7.976  66.788  1.00  0.00    -0.189 C  
BRANCH  11  12
HETATM   12  C   UNL     1      -7.539   7.992  66.988  1.00  0.00    -0.096 C  
BRANCH  12  13
HETATM   13  C   UNL     1      -6.987   9.370  67.372  1.00  0.00    -0.085 C  
BRANCH  13  14
HETATM   14  C   UNL     1      -8.055  10.444  67.165  1.00  0.00    -0.115 C  
BRANCH  14  15
HETATM   15  N   UNL     1      -8.417  11.224  68.426  1.00  0.00    -0.148 N  
HETATM   16  C   UNL     1      -9.175  10.356  69.425  1.00  0.00    -0.159 C  
HETATM   17  C   UNL     1      -9.230  12.469  68.096  1.00  0.00    -0.209 C  
HETATM   18  C   UNL     1      -7.095  11.656  69.076  1.00  0.00    -0.108 C  
ENDBRANCH  14  15
ENDBRANCH  13  14
ENDBRANCH  12  13
ENDBRANCH  11  12
ENDBRANCH  10  11
ENDBRANCH   9  10
ENDBRANCH   8   9
ENDBRANCH   7   8
ENDBRANCH   6   7
ENDBRANCH   5   6
ENDBRANCH   2   5
TORSDOF 11
ENDMDL
MODEL      232
REMARK 921   NORMALIZED FREE ENERGY PREDICTED BY IDOCK:   -2.18 KCAL/MOL
REMARK 922        TOTAL FREE ENERGY PREDICTED BY IDOCK:   -4.36 KCAL/MOL
REMARK 923 INTER-LIGAND FREE ENERGY PREDICTED BY IDOCK:   -3.59 KCAL/MOL
REMARK 924 INTRA-LIGAND FREE ENERGY PREDICTED BY IDOCK:   -0.76 KCAL/MOL
REMARK 927      BINDING AFFINITY PREDICTED BY RF-SCORE:    0.00 PKD
ROOT
HETATM    1  C   UNL     1      -7.721   3.437  66.421  1.00  0.00    -0.078 C  
HETATM    2  N   UNL     1      -8.432   4.515  65.593  1.00  0.00    -0.115 N  
HETATM    3  C   UNL     1      -9.642   3.888  64.912  1.00  0.00    -0.177 C  
HETATM    4  C   UNL     1      -7.457   5.032  64.546  1.00  0.00    -0.068 C  
ENDROOT
BRANCH   2   5
HETATM    5  C   UNL     1      -8.848   5.610  66.566  1.00  0.00    -0.123 C  
BRANCH   5   6
HETATM    6  C   UNL     1     -10.138   5.321  67.337  1.00  0.00    -0.228 C  
BRANCH   6   7
HETATM    7  C   UNL     1     -11.034   6.566  67.365  1.00  0.00    -0.458 C  
BRANCH   7   8
HETATM    8  C   UNL     1     -10.289   7.865  67.027  1.00  0.00    -0.411 C  
BRANCH   8   9
HETATM    9  C   UNL     1     -10.434   8.942  68.108  1.00  0.00    -0.254 C  
BRANCH   9  10
HETATM   10  C   UNL     1     -10.608   8.348  69.507  1.00  0.00    -0.217 C  
BRANCH  10  11
HETATM   11  C   UNL     1      -9.421   8.652  70.426  1.00  0.00    -0.192 C  
BRANCH  11  12
HETATM   12  C   UNL     1      -9.829   8.875  71.887  1.00  0.00    -0.364 C  
BRANCH  12  13
HETATM   13  C   UNL     1      -9.252   7.830  72.850  1.00  0.00    -0.266 C  
BRANCH  13  14
HETATM   14  C   UNL     1      -8.365   6.844  72.090  1.00  0.00    -0.105 C  
BRANCH  14  15
HETATM   15  N   UNL     1      -8.809   5.387  72.194  1.00  0.00    -0.130 N  
HETATM   16  C   UNL     1      -8.014   4.490  71.253  1.00  0.00    -0.086 C  
HETATM   17  C   UNL     1     -10.299   5.238  71.920  1.00  0.00    -0.215 C  
HETATM   18  C   UNL     1      -8.524   4.939  73.635  1.00  0.00    -0.105 C  
ENDBRANCH  14  15
ENDBRANCH  13  14
ENDBRANCH  12  13
ENDBRANCH  11  12
ENDBRANCH  10  11
ENDBRANCH   9  10
ENDBRANCH   8   9
ENDBRANCH   7   8
ENDBRANCH   6   7
ENDBRANCH   5   6
ENDBRANCH   2   5
TORSDOF 11
ENDMDL
MODEL      233
REMARK 921   NORMALIZED FREE ENERGY PREDICTED BY IDOCK:   -2.18 KCAL/MOL
REMARK 922        TOTAL FREE ENERGY PREDICTED BY IDOCK:   -4.35 KCAL/MOL
REMARK 923 INTER-LIGAND FREE ENERGY PREDICTED BY IDOCK:   -3.57 KCAL/MOL
REMARK 924 INTRA-LIGAND FREE ENERGY PREDICTED BY IDOCK:   -0.78 KCAL/MOL
REMARK 927      BINDING AFFINITY PREDICTED BY RF-SCORE:    0.00 PKD
ROOT
HETATM    1  C   UNL     1      -8.067   7.857  70.189  1.00  0.00    -0.116 C  
HETATM    2  N   UNL     1      -9.289   6.934  70.102  1.00  0.00    -0.159 N  
HETATM    3  C   UNL     1     -10.384   7.490  71.003  1.00  0.00    -0.199 C  
HETATM    4  C   UNL     1      -8.876   5.550  70.580  1.00  0.00    -0.136 C  
ENDROOT
BRANCH   2   5
HETATM    5  C   UNL     1      -9.724   6.921  68.643  1.00  0.00    -0.136 C  
BRANCH   5   6
HETATM    6  C   UNL     1      -8.871   6.037  67.731  1.00  0.00    -0.106 C  
BRANCH   6   7
HETATM    7  C   UNL     1      -9.286   6.221  66.267  1.00  0.00    -0.155 C  
BRANCH   7   8
HETATM    8  C   UNL     1      -8.121   6.600  65.343  1.00  0.00    -0.129 C  
BRANCH   8   9
HETATM    9  C   UNL     1      -7.336   7.823  65.832  1.00  0.00    -0.073 C  
BRANCH   9  10
HETATM   10  C   UNL     1      -7.332   8.963  64.811  1.00  0.00    -0.097 C  
BRANCH  10  11
HETATM   11  C   UNL     1      -8.303  10.088  65.184  1.00  0.00    -0.156 C  
BRANCH  11  12
HETATM   12  C   UNL     1      -9.519  10.171  64.252  1.00  0.00    -0.366 C  
BRANCH  12  13
HETATM   13  C   UNL     1     -10.734  10.853  64.892  1.00  0.00    -0.240 C  
BRANCH  13  14
HETATM   14  C   UNL     1     -10.487  12.355  65.029  1.00  0.00    -0.294 C  
BRANCH  14  15
HETATM   15  N   UNL     1     -10.753  12.913  66.425  1.00  0.00    -0.268 N  
HETATM   16  C   UNL     1     -11.228  11.827  67.383  1.00  0.00    -0.297 C  
HETATM   17  C   UNL     1     -11.765  14.051  66.385  1.00  0.00    -0.391 C  
HETATM   18  C   UNL     1      -9.416  13.459  66.946  1.00  0.00    -0.253 C  
ENDBRANCH  14  15
ENDBRANCH  13  14
ENDBRANCH  12  13
ENDBRANCH  11  12
ENDBRANCH  10  11
ENDBRANCH   9  10
ENDBRANCH   8   9
ENDBRANCH   7   8
ENDBRANCH   6   7
ENDBRANCH   5   6
ENDBRANCH   2   5
TORSDOF 11
ENDMDL
MODEL      234
REMARK 921   NORMALIZED FREE ENERGY PREDICTED BY IDOCK:   -2.18 KCAL/MOL
REMARK 922        TOTAL FREE ENERGY PREDICTED BY IDOCK:   -4.34 KCAL/MOL
REMARK 923 INTER-LIGAND FREE ENERGY PREDICTED BY IDOCK:   -3.52 KCAL/MOL
REMARK 924 INTRA-LIGAND FREE ENERGY PREDICTED BY IDOCK:   -0.82 KCAL/MOL
REMARK 927      BINDING AFFINITY PREDICTED BY RF-SCORE:    0.00 PKD
ROOT
HETATM    1  C   UNL     1      -8.208   6.159  72.721  1.00  0.00    -0.117 C  
HETATM    2  N   UNL     1      -9.629   6.715  72.884  1.00  0.00    -0.148 N  
HETATM    3  C   UNL     1      -9.643   8.163  72.413  1.00  0.00    -0.265 C  
HETATM    4  C   UNL     1     -10.001   6.645  74.357  1.00  0.00    -0.332 C  
ENDROOT
BRANCH   2   5
HETATM    5  C   UNL     1     -10.540   5.844  72.030  1.00  0.00    -0.221 C  
BRANCH   5   6
HETATM    6  C   UNL     1     -10.683   6.304  70.578  1.00  0.00    -0.327 C  
BRANCH   6   7
HETATM    7  C   UNL     1     -10.105   5.252  69.624  1.00  0.00    -0.327 C  
BRANCH   7   8
HETATM    8  C   UNL     1      -9.945   5.753  68.183  1.00  0.00    -0.181 C  
BRANCH   8   9
HETATM    9  C   UNL     1      -9.975   7.281  68.069  1.00  0.00    -0.186 C  
BRANCH   9  10
HETATM   10  C   UNL     1      -8.605   7.871  67.728  1.00  0.00    -0.128 C  
BRANCH  10  11
HETATM   11  C   UNL     1      -7.856   8.369  68.969  1.00  0.00    -0.102 C  
BRANCH  11  12
HETATM   12  C   UNL     1      -7.699   9.894  69.008  1.00  0.00    -0.089 C  
BRANCH  12  13
HETATM   13  C   UNL     1      -9.030  10.641  69.148  1.00  0.00    -0.139 C  
BRANCH  13  14
HETATM   14  C   UNL     1      -8.878  12.088  68.679  1.00  0.00    -0.021 C  
BRANCH  14  15
HETATM   15  N   UNL     1      -9.970  12.559  67.722  1.00  0.00    -0.204 N  
HETATM   16  C   UNL     1      -9.707  13.975  67.224  1.00  0.00    -0.237 C  
HETATM   17  C   UNL     1     -11.347  12.481  68.368  1.00  0.00    -0.291 C  
HETATM   18  C   UNL     1      -9.938  11.614  66.512  1.00  0.00    -0.203 C  
ENDBRANCH  14  15
ENDBRANCH  13  14
ENDBRANCH  12  13
ENDBRANCH  11  12
ENDBRANCH  10  11
ENDBRANCH   9  10
ENDBRANCH   8   9
ENDBRANCH   7   8
ENDBRANCH   6   7
ENDBRANCH   5   6
ENDBRANCH   2   5
TORSDOF 11
ENDMDL
MODEL      235
REMARK 921   NORMALIZED FREE ENERGY PREDICTED BY IDOCK:   -2.17 KCAL/MOL
REMARK 922        TOTAL FREE ENERGY PREDICTED BY IDOCK:   -4.33 KCAL/MOL
REMARK 923 INTER-LIGAND FREE ENERGY PREDICTED BY IDOCK:   -3.60 KCAL/MOL
REMARK 924 INTRA-LIGAND FREE ENERGY PREDICTED BY IDOCK:   -0.73 KCAL/MOL
REMARK 927      BINDING AFFINITY PREDICTED BY RF-SCORE:    0.00 PKD
ROOT
HETATM    1  C   UNL     1      -7.206   7.206  70.248  1.00  0.00    -0.071 C  
HETATM    2  N   UNL     1      -7.574   8.390  71.151  1.00  0.00    -0.077 N  
HETATM    3  C   UNL     1      -6.331   8.823  71.918  1.00  0.00    -0.072 C  
HETATM    4  C   UNL     1      -8.649   7.931  72.124  1.00  0.00    -0.140 C  
ENDROOT
BRANCH   2   5
HETATM    5  C   UNL     1      -8.076   9.499  70.236  1.00  0.00    -0.181 C  
BRANCH   5   6
HETATM    6  C   UNL     1      -8.488   9.034  68.838  1.00  0.00    -0.130 C  
BRANCH   6   7
HETATM    7  C   UNL     1      -9.935   9.449  68.543  1.00  0.00    -0.190 C  
BRANCH   7   8
HETATM    8  C   UNL     1     -10.200  10.945  68.758  1.00  0.00    -0.210 C  
BRANCH   8   9
HETATM    9  C   UNL     1     -10.085  11.769  67.470  1.00  0.00    -0.207 C  
BRANCH   9  10
HETATM   10  C   UNL     1      -8.673  12.316  67.248  1.00  0.00    -0.188 C  
BRANCH  10  11
HETATM   11  C   UNL     1      -8.300  13.404  68.260  1.00  0.00    -0.160 C  
BRANCH  11  12
HETATM   12  C   UNL     1      -7.363  14.471  67.682  1.00  0.00    -0.201 C  
BRANCH  12  13
HETATM   13  C   UNL     1      -8.102  15.627  66.996  1.00  0.00    -0.276 C  
BRANCH  13  14
HETATM   14  C   UNL     1      -8.629  16.612  68.039  1.00  0.00    -0.193 C  
BRANCH  14  15
HETATM   15  N   UNL     1     -10.139  16.830  67.996  1.00  0.00    -0.273 N  
HETATM   16  C   UNL     1     -10.488  18.279  67.676  1.00  0.00    -0.411 C  
HETATM   17  C   UNL     1     -10.800  16.411  69.303  1.00  0.00    -0.327 C  
HETATM   18  C   UNL     1     -10.682  15.947  66.863  1.00  0.00    -0.289 C  
ENDBRANCH  14  15
ENDBRANCH  13  14
ENDBRANCH  12  13
ENDBRANCH  11  12
ENDBRANCH  10  11
ENDBRANCH   9  10
ENDBRANCH   8   9
ENDBRANCH   7   8
ENDBRANCH   6   7
ENDBRANCH   5   6
ENDBRANCH   2   5
TORSDOF 11
ENDMDL
MODEL      236
REMARK 921   NORMALIZED FREE ENERGY PREDICTED BY IDOCK:   -2.16 KCAL/MOL
REMARK 922        TOTAL FREE ENERGY PREDICTED BY IDOCK:   -4.32 KCAL/MOL
REMARK 923 INTER-LIGAND FREE ENERGY PREDICTED BY IDOCK:   -3.28 KCAL/MOL
REMARK 924 INTRA-LIGAND FREE ENERGY PREDICTED BY IDOCK:   -1.04 KCAL/MOL
REMARK 927      BINDING AFFINITY PREDICTED BY RF-SCORE:    0.00 PKD
ROOT
HETATM    1  C   UNL     1      -5.152  10.826  68.755  1.00  0.00    -0.041 C  
HETATM    2  N   UNL     1      -6.376  10.036  68.273  1.00  0.00    -0.053 N  
HETATM    3  C   UNL     1      -6.388  10.037  66.750  1.00  0.00    -0.069 C  
HETATM    4  C   UNL     1      -7.625  10.723  68.803  1.00  0.00    -0.113 C  
ENDROOT
BRANCH   2   5
HETATM    5  C   UNL     1      -6.230   8.624  68.826  1.00  0.00    -0.045 C  
BRANCH   5   6
HETATM    6  C   UNL     1      -6.550   8.487  70.316  1.00  0.00    -0.039 C  
BRANCH   6   7
HETATM    7  C   UNL     1      -7.460   7.276  70.558  1.00  0.00    -0.083 C  
BRANCH   7   8
HETATM    8  C   UNL     1      -8.390   7.441  71.767  1.00  0.00    -0.113 C  
BRANCH   8   9
HETATM    9  C   UNL     1      -9.124   8.786  71.785  1.00  0.00    -0.305 C  
BRANCH   9  10
HETATM   10  C   UNL     1     -10.645   8.624  71.716  1.00  0.00    -0.395 C  
BRANCH  10  11
HETATM   11  C   UNL     1     -11.097   7.192  72.021  1.00  0.00    -0.278 C  
BRANCH  11  12
HETATM   12  C   UNL     1     -11.858   6.539  70.861  1.00  0.00    -0.391 C  
BRANCH  12  13
HETATM   13  C   UNL     1     -10.954   5.757  69.900  1.00  0.00    -0.389 C  
BRANCH  13  14
HETATM   14  C   UNL     1     -11.051   6.338  68.490  1.00  0.00    -0.308 C  
BRANCH  14  15
HETATM   15  N   UNL     1      -9.984   5.832  67.524  1.00  0.00    -0.136 N  
HETATM   16  C   UNL     1      -9.058   6.956  67.072  1.00  0.00    -0.136 C  
HETATM   17  C   UNL     1     -10.607   5.152  66.312  1.00  0.00    -0.266 C  
HETATM   18  C   UNL     1      -9.144   4.801  68.292  1.00  0.00    -0.117 C  
ENDBRANCH  14  15
ENDBRANCH  13  14
ENDBRANCH  12  13
ENDBRANCH  11  12
ENDBRANCH  10  11
ENDBRANCH   9  10
ENDBRANCH   8   9
ENDBRANCH   7   8
ENDBRANCH   6   7
ENDBRANCH   5   6
ENDBRANCH   2   5
TORSDOF 11
ENDMDL
MODEL      237
REMARK 921   NORMALIZED FREE ENERGY PREDICTED BY IDOCK:   -2.15 KCAL/MOL
REMARK 922        TOTAL FREE ENERGY PREDICTED BY IDOCK:   -4.29 KCAL/MOL
REMARK 923 INTER-LIGAND FREE ENERGY PREDICTED BY IDOCK:   -3.76 KCAL/MOL
REMARK 924 INTRA-LIGAND FREE ENERGY PREDICTED BY IDOCK:   -0.54 KCAL/MOL
REMARK 927      BINDING AFFINITY PREDICTED BY RF-SCORE:    0.00 PKD
ROOT
HETATM    1  C   UNL     1      -6.415  14.505  70.186  1.00  0.00    -0.156 C  
HETATM    2  N   UNL     1      -6.578  15.662  69.193  1.00  0.00    -0.131 N  
HETATM    3  C   UNL     1      -5.854  15.303  67.902  1.00  0.00    -0.146 C  
HETATM    4  C   UNL     1      -5.958  16.907  69.807  1.00  0.00    -0.232 C  
ENDROOT
BRANCH   2   5
HETATM    5  C   UNL     1      -8.074  15.832  68.961  1.00  0.00    -0.224 C  
BRANCH   5   6
HETATM    6  C   UNL     1      -8.544  15.477  67.549  1.00  0.00    -0.184 C  
BRANCH   6   7
HETATM    7  C   UNL     1      -9.833  14.647  67.608  1.00  0.00    -0.218 C  
BRANCH   7   8
HETATM    8  C   UNL     1      -9.982  13.663  66.440  1.00  0.00    -0.299 C  
BRANCH   8   9
HETATM    9  C   UNL     1      -9.396  12.279  66.739  1.00  0.00    -0.218 C  
BRANCH   9  10
HETATM   10  C   UNL     1      -9.092  12.080  68.226  1.00  0.00    -0.190 C  
BRANCH  10  11
HETATM   11  C   UNL     1      -9.061  10.602  68.626  1.00  0.00    -0.170 C  
BRANCH  11  12
HETATM   12  C   UNL     1     -10.415   9.902  68.459  1.00  0.00    -0.232 C  
BRANCH  12  13
HETATM   13  C   UNL     1     -10.395   8.425  68.871  1.00  0.00    -0.231 C  
BRANCH  13  14
HETATM   14  C   UNL     1     -11.282   8.204  70.096  1.00  0.00    -0.134 C  
BRANCH  14  15
HETATM   15  N   UNL     1     -10.570   7.563  71.283  1.00  0.00    -0.215 N  
HETATM   16  C   UNL     1      -9.068   7.814  71.239  1.00  0.00    -0.137 C  
HETATM   17  C   UNL     1     -10.847   6.067  71.356  1.00  0.00    -0.270 C  
HETATM   18  C   UNL     1     -11.129   8.231  72.548  1.00  0.00    -0.368 C  
ENDBRANCH  14  15
ENDBRANCH  13  14
ENDBRANCH  12  13
ENDBRANCH  11  12
ENDBRANCH  10  11
ENDBRANCH   9  10
ENDBRANCH   8   9
ENDBRANCH   7   8
ENDBRANCH   6   7
ENDBRANCH   5   6
ENDBRANCH   2   5
TORSDOF 11
ENDMDL
MODEL      238
REMARK 921   NORMALIZED FREE ENERGY PREDICTED BY IDOCK:   -2.12 KCAL/MOL
REMARK 922        TOTAL FREE ENERGY PREDICTED BY IDOCK:   -4.25 KCAL/MOL
REMARK 923 INTER-LIGAND FREE ENERGY PREDICTED BY IDOCK:   -3.46 KCAL/MOL
REMARK 924 INTRA-LIGAND FREE ENERGY PREDICTED BY IDOCK:   -0.79 KCAL/MOL
REMARK 927      BINDING AFFINITY PREDICTED BY RF-SCORE:    0.00 PKD
ROOT
HETATM    1  C   UNL     1      -6.534   8.215  74.486  1.00  0.00    -0.117 C  
HETATM    2  N   UNL     1      -7.393   7.601  73.373  1.00  0.00    -0.095 N  
HETATM    3  C   UNL     1      -7.070   6.116  73.272  1.00  0.00    -0.084 C  
HETATM    4  C   UNL     1      -7.047   8.298  72.066  1.00  0.00    -0.089 C  
ENDROOT
BRANCH   2   5
HETATM    5  C   UNL     1      -8.846   7.828  73.766  1.00  0.00    -0.269 C  
BRANCH   5   6
HETATM    6  C   UNL     1      -9.716   8.440  72.666  1.00  0.00    -0.332 C  
BRANCH   6   7
HETATM    7  C   UNL     1     -10.959   7.574  72.424  1.00  0.00    -0.333 C  
BRANCH   7   8
HETATM    8  C   UNL     1     -10.910   6.788  71.107  1.00  0.00    -0.275 C  
BRANCH   8   9
HETATM    9  C   UNL     1     -10.635   7.674  69.886  1.00  0.00    -0.237 C  
BRANCH   9  10
HETATM   10  C   UNL     1      -9.293   7.355  69.222  1.00  0.00    -0.154 C  
BRANCH  10  11
HETATM   11  C   UNL     1      -9.448   6.948  67.753  1.00  0.00    -0.128 C  
BRANCH  11  12
HETATM   12  C   UNL     1     -10.499   7.777  67.004  1.00  0.00    -0.419 C  
BRANCH  12  13
HETATM   13  C   UNL     1      -9.895   8.855  66.096  1.00  0.00    -0.326 C  
BRANCH  13  14
HETATM   14  C   UNL     1      -8.418   8.560  65.835  1.00  0.00    -0.152 C  
BRANCH  14  15
HETATM   15  N   UNL     1      -7.485   9.741  66.085  1.00  0.00    -0.099 N  
HETATM   16  C   UNL     1      -6.720  10.129  64.825  1.00  0.00    -0.121 C  
HETATM   17  C   UNL     1      -6.508   9.448  67.217  1.00  0.00    -0.070 C  
HETATM   18  C   UNL     1      -8.370  10.928  66.491  1.00  0.00    -0.155 C  
ENDBRANCH  14  15
ENDBRANCH  13  14
ENDBRANCH  12  13
ENDBRANCH  11  12
ENDBRANCH  10  11
ENDBRANCH   9  10
ENDBRANCH   8   9
ENDBRANCH   7   8
ENDBRANCH   6   7
ENDBRANCH   5   6
ENDBRANCH   2   5
TORSDOF 11
ENDMDL
MODEL      239
REMARK 921   NORMALIZED FREE ENERGY PREDICTED BY IDOCK:   -2.10 KCAL/MOL
REMARK 922        TOTAL FREE ENERGY PREDICTED BY IDOCK:   -4.21 KCAL/MOL
REMARK 923 INTER-LIGAND FREE ENERGY PREDICTED BY IDOCK:   -3.16 KCAL/MOL
REMARK 924 INTRA-LIGAND FREE ENERGY PREDICTED BY IDOCK:   -1.05 KCAL/MOL
REMARK 927      BINDING AFFINITY PREDICTED BY RF-SCORE:    0.00 PKD
ROOT
HETATM    1  C   UNL     1      -5.526  11.149  68.940  1.00  0.00    -0.040 C  
HETATM    2  N   UNL     1      -6.889  10.534  68.598  1.00  0.00    -0.053 N  
HETATM    3  C   UNL     1      -6.794   9.866  67.232  1.00  0.00    -0.083 C  
HETATM    4  C   UNL     1      -7.919  11.652  68.559  1.00  0.00    -0.144 C  
ENDROOT
BRANCH   2   5
HETATM    5  C   UNL     1      -7.198   9.520  69.691  1.00  0.00    -0.076 C  
BRANCH   5   6
HETATM    6  C   UNL     1      -8.629   9.579  70.229  1.00  0.00    -0.258 C  
BRANCH   6   7
HETATM    7  C   UNL     1      -9.192   8.164  70.409  1.00  0.00    -0.151 C  
BRANCH   7   8
HETATM    8  C   UNL     1     -10.423   7.879  69.537  1.00  0.00    -0.226 C  
BRANCH   8   9
HETATM    9  C   UNL     1     -10.436   8.682  68.231  1.00  0.00    -0.234 C  
BRANCH   9  10
HETATM   10  C   UNL     1     -10.488   7.785  66.993  1.00  0.00    -0.419 C  
BRANCH  10  11
HETATM   11  C   UNL     1     -10.963   6.365  67.317  1.00  0.00    -0.474 C  
BRANCH  11  12
HETATM   12  C   UNL     1     -10.393   5.305  66.366  1.00  0.00    -0.315 C  
BRANCH  12  13
HETATM   13  C   UNL     1      -9.053   4.724  66.831  1.00  0.00    -0.118 C  
BRANCH  13  14
HETATM   14  C   UNL     1      -9.283   3.643  67.887  1.00  0.00    -0.176 C  
BRANCH  14  15
HETATM   15  N   UNL     1      -8.620   3.925  69.233  1.00  0.00    -0.075 N  
HETATM   16  C   UNL     1      -7.787   2.740  69.708  1.00  0.00    -0.042 C  
HETATM   17  C   UNL     1      -9.649   4.296  70.293  1.00  0.00    -0.199 C  
HETATM   18  C   UNL     1      -7.677   5.118  69.022  1.00  0.00    -0.081 C  
ENDBRANCH  14  15
ENDBRANCH  13  14
ENDBRANCH  12  13
ENDBRANCH  11  12
ENDBRANCH  10  11
ENDBRANCH   9  10
ENDBRANCH   8   9
ENDBRANCH   7   8
ENDBRANCH   6   7
ENDBRANCH   5   6
ENDBRANCH   2   5
TORSDOF 11
ENDMDL
MODEL      240
REMARK 921   NORMALIZED FREE ENERGY PREDICTED BY IDOCK:   -2.09 KCAL/MOL
REMARK 922        TOTAL FREE ENERGY PREDICTED BY IDOCK:   -4.20 KCAL/MOL
REMARK 923 INTER-LIGAND FREE ENERGY PREDICTED BY IDOCK:   -3.66 KCAL/MOL
REMARK 924 INTRA-LIGAND FREE ENERGY PREDICTED BY IDOCK:   -0.54 KCAL/MOL
REMARK 927      BINDING AFFINITY PREDICTED BY RF-SCORE:    0.00 PKD
ROOT
HETATM    1  C   UNL     1      -5.799  13.537  70.297  1.00  0.00    -0.156 C  
HETATM    2  N   UNL     1      -6.533  14.704  69.625  1.00  0.00    -0.138 N  
HETATM    3  C   UNL     1      -6.668  14.403  68.138  1.00  0.00    -0.127 C  
HETATM    4  C   UNL     1      -5.707  15.965  69.826  1.00  0.00    -0.140 C  
ENDROOT
BRANCH   2   5
HETATM    5  C   UNL     1      -7.896  14.809  70.295  1.00  0.00     0.747 C  
BRANCH   5   6
HETATM    6  C   UNL     1      -9.082  14.837  69.329  1.00  0.00    -0.030 C  
BRANCH   6   7
HETATM    7  C   UNL     1     -10.363  15.243  70.067  1.00  0.00    -0.240 C  
BRANCH   7   8
HETATM    8  C   UNL     1     -11.647  14.913  69.292  1.00  0.00    -0.330 C  
BRANCH   8   9
HETATM    9  C   UNL     1     -11.430  13.887  68.175  1.00  0.00    -0.346 C  
BRANCH   9  10
HETATM   10  C   UNL     1     -12.003  14.350  66.834  1.00  0.00    -0.425 C  
BRANCH  10  11
HETATM   11  C   UNL     1     -11.052  14.079  65.664  1.00  0.00    -0.302 C  
BRANCH  11  12
HETATM   12  C   UNL     1     -10.194  15.294  65.288  1.00  0.00    -0.397 C  
BRANCH  12  13
HETATM   13  C   UNL     1      -9.934  16.244  66.463  1.00  0.00    -0.290 C  
BRANCH  13  14
HETATM   14  C   UNL     1      -9.224  17.507  65.976  1.00  0.00    -0.041 C  
BRANCH  14  15
HETATM   15  N   UNL     1      -9.280  18.679  66.951  1.00  0.00    -0.295 N  
HETATM   16  C   UNL     1      -8.591  18.345  68.270  1.00  0.00    -0.303 C  
HETATM   17  C   UNL     1     -10.715  19.119  67.211  1.00  0.00    -0.488 C  
HETATM   18  C   UNL     1      -8.519  19.840  66.295  1.00  0.00    -0.361 C  
ENDBRANCH  14  15
ENDBRANCH  13  14
ENDBRANCH  12  13
ENDBRANCH  11  12
ENDBRANCH  10  11
ENDBRANCH   9  10
ENDBRANCH   8   9
ENDBRANCH   7   8
ENDBRANCH   6   7
ENDBRANCH   5   6
ENDBRANCH   2   5
TORSDOF 11
ENDMDL
MODEL      241
REMARK 921   NORMALIZED FREE ENERGY PREDICTED BY IDOCK:   -2.08 KCAL/MOL
REMARK 922        TOTAL FREE ENERGY PREDICTED BY IDOCK:   -4.18 KCAL/MOL
REMARK 923 INTER-LIGAND FREE ENERGY PREDICTED BY IDOCK:   -3.94 KCAL/MOL
REMARK 924 INTRA-LIGAND FREE ENERGY PREDICTED BY IDOCK:   -0.25 KCAL/MOL
REMARK 927      BINDING AFFINITY PREDICTED BY RF-SCORE:    0.00 PKD
ROOT
HETATM    1  C   UNL     1      -6.045  10.111  65.094  1.00  0.00    -0.120 C  
HETATM    2  N   UNL     1      -6.874   8.832  65.267  1.00  0.00    -0.071 N  
HETATM    3  C   UNL     1      -6.948   8.495  66.750  1.00  0.00    -0.073 C  
HETATM    4  C   UNL     1      -6.178   7.709  64.514  1.00  0.00    -0.044 C  
ENDROOT
BRANCH   2   5
HETATM    5  C   UNL     1      -8.255   9.125  64.695  1.00  0.00    -0.152 C  
BRANCH   5   6
HETATM    6  C   UNL     1      -9.412   8.866  65.660  1.00  0.00    -0.230 C  
BRANCH   6   7
HETATM    7  C   UNL     1     -10.297  10.113  65.781  1.00  0.00    -0.216 C  
BRANCH   7   8
HETATM    8  C   UNL     1     -10.573  10.529  67.232  1.00  0.00    -0.317 C  
BRANCH   8   9
HETATM    9  C   UNL     1      -9.305  10.914  68.002  1.00  0.00    -0.160 C  
BRANCH   9  10
HETATM   10  C   UNL     1      -8.567  12.093  67.362  1.00  0.00    -0.175 C  
BRANCH  10  11
HETATM   11  C   UNL     1      -8.767  13.400  68.136  1.00  0.00    -0.179 C  
BRANCH  11  12
HETATM   12  C   UNL     1      -9.808  14.327  67.498  1.00  0.00    -0.231 C  
BRANCH  12  13
HETATM   13  C   UNL     1      -9.637  14.486  65.982  1.00  0.00    -0.305 C  
BRANCH  13  14
HETATM   14  C   UNL     1     -10.319  13.332  65.248  1.00  0.00    -0.312 C  
BRANCH  14  15
HETATM   15  N   UNL     1     -11.731  13.642  64.758  1.00  0.00    -0.360 N  
HETATM   16  C   UNL     1     -11.898  15.121  64.429  1.00  0.00    -0.305 C  
HETATM   17  C   UNL     1     -12.780  13.213  65.774  1.00  0.00    -0.133 C  
HETATM   18  C   UNL     1     -11.937  12.840  63.465  1.00  0.00    -0.555 C  
ENDBRANCH  14  15
ENDBRANCH  13  14
ENDBRANCH  12  13
ENDBRANCH  11  12
ENDBRANCH  10  11
ENDBRANCH   9  10
ENDBRANCH   8   9
ENDBRANCH   7   8
ENDBRANCH   6   7
ENDBRANCH   5   6
ENDBRANCH   2   5
TORSDOF 11
ENDMDL
MODEL      242
REMARK 921   NORMALIZED FREE ENERGY PREDICTED BY IDOCK:   -2.06 KCAL/MOL
REMARK 922        TOTAL FREE ENERGY PREDICTED BY IDOCK:   -4.15 KCAL/MOL
REMARK 923 INTER-LIGAND FREE ENERGY PREDICTED BY IDOCK:   -3.70 KCAL/MOL
REMARK 924 INTRA-LIGAND FREE ENERGY PREDICTED BY IDOCK:   -0.45 KCAL/MOL
REMARK 927      BINDING AFFINITY PREDICTED BY RF-SCORE:    0.00 PKD
ROOT
HETATM    1  C   UNL     1     -10.551  20.521  68.666  1.00  0.00     0.369 C  
HETATM    2  N   UNL     1      -9.694  19.317  68.255  1.00  0.00    -0.359 N  
HETATM    3  C   UNL     1      -9.689  19.219  66.735  1.00  0.00    -0.341 C  
HETATM    4  C   UNL     1     -10.313  18.065  68.854  1.00  0.00    -0.234 C  
ENDROOT
BRANCH   2   5
HETATM    5  C   UNL     1      -8.294  19.570  68.799  1.00  0.00    -0.311 C  
BRANCH   5   6
HETATM    6  C   UNL     1      -7.212  18.654  68.225  1.00  0.00    -0.279 C  
BRANCH   6   7
HETATM    7  C   UNL     1      -6.849  17.558  69.235  1.00  0.00    -0.196 C  
BRANCH   7   8
HETATM    8  C   UNL     1      -6.230  16.311  68.589  1.00  0.00    -0.122 C  
BRANCH   8   9
HETATM    9  C   UNL     1      -7.255  15.206  68.308  1.00  0.00    -0.112 C  
BRANCH   9  10
HETATM   10  C   UNL     1      -8.165  15.539  67.123  1.00  0.00    -0.246 C  
BRANCH  10  11
HETATM   11  C   UNL     1      -9.403  14.638  67.062  1.00  0.00    -0.244 C  
BRANCH  11  12
HETATM   12  C   UNL     1     -10.346  14.984  65.904  1.00  0.00    -0.329 C  
BRANCH  12  13
HETATM   13  C   UNL     1     -10.245  14.012  64.722  1.00  0.00    -0.332 C  
BRANCH  13  14
HETATM   14  C   UNL     1     -10.008  12.589  65.226  1.00  0.00    -0.207 C  
BRANCH  14  15
HETATM   15  N   UNL     1     -10.468  11.495  64.267  1.00  0.00    -0.310 N  
HETATM   16  C   UNL     1     -11.867  11.771  63.730  1.00  0.00    -0.380 C  
HETATM   17  C   UNL     1     -10.425  10.122  64.926  1.00  0.00     0.240 C  
HETATM   18  C   UNL     1      -9.491  11.504  63.082  1.00  0.00    -0.311 C  
ENDBRANCH  14  15
ENDBRANCH  13  14
ENDBRANCH  12  13
ENDBRANCH  11  12
ENDBRANCH  10  11
ENDBRANCH   9  10
ENDBRANCH   8   9
ENDBRANCH   7   8
ENDBRANCH   6   7
ENDBRANCH   5   6
ENDBRANCH   2   5
TORSDOF 11
ENDMDL
MODEL      243
REMARK 921   NORMALIZED FREE ENERGY PREDICTED BY IDOCK:   -2.04 KCAL/MOL
REMARK 922        TOTAL FREE ENERGY PREDICTED BY IDOCK:   -4.11 KCAL/MOL
REMARK 923 INTER-LIGAND FREE ENERGY PREDICTED BY IDOCK:   -3.04 KCAL/MOL
REMARK 924 INTRA-LIGAND FREE ENERGY PREDICTED BY IDOCK:   -1.07 KCAL/MOL
REMARK 927      BINDING AFFINITY PREDICTED BY RF-SCORE:    0.00 PKD
ROOT
HETATM    1  C   UNL     1      -8.536   9.230  70.546  1.00  0.00    -0.216 C  
HETATM    2  N   UNL     1      -9.955   8.660  70.422  1.00  0.00    -0.182 N  
HETATM    3  C   UNL     1     -10.776   9.135  71.613  1.00  0.00    -0.371 C  
HETATM    4  C   UNL     1      -9.861   7.142  70.430  1.00  0.00    -0.176 C  
ENDROOT
BRANCH   2   5
HETATM    5  C   UNL     1     -10.524   9.184  69.111  1.00  0.00    -0.217 C  
BRANCH   5   6
HETATM    6  C   UNL     1     -10.440   8.200  67.942  1.00  0.00    -0.259 C  
BRANCH   6   7
HETATM    7  C   UNL     1     -10.256   8.956  66.620  1.00  0.00    -0.338 C  
BRANCH   7   8
HETATM    8  C   UNL     1      -8.820   9.447  66.390  1.00  0.00    -0.167 C  
BRANCH   8   9
HETATM    9  C   UNL     1      -8.188   8.884  65.112  1.00  0.00    -0.143 C  
BRANCH   9  10
HETATM   10  C   UNL     1      -6.805   8.277  65.361  1.00  0.00    -0.062 C  
BRANCH  10  11
HETATM   11  C   UNL     1      -6.792   6.755  65.184  1.00  0.00    -0.051 C  
BRANCH  11  12
HETATM   12  C   UNL     1      -7.123   5.994  66.474  1.00  0.00    -0.072 C  
BRANCH  12  13
HETATM   13  C   UNL     1      -8.497   5.313  66.445  1.00  0.00    -0.113 C  
BRANCH  13  14
HETATM   14  C   UNL     1      -8.911   5.017  65.004  1.00  0.00    -0.130 C  
BRANCH  14  15
HETATM   15  N   UNL     1      -9.006   3.531  64.668  1.00  0.00    -0.122 N  
HETATM   16  C   UNL     1      -9.109   2.676  65.925  1.00  0.00    -0.113 C  
HETATM   17  C   UNL     1      -7.823   3.075  63.824  1.00  0.00    -0.080 C  
HETATM   18  C   UNL     1     -10.295   3.342  63.855  1.00  0.00    -0.231 C  
ENDBRANCH  14  15
ENDBRANCH  13  14
ENDBRANCH  12  13
ENDBRANCH  11  12
ENDBRANCH  10  11
ENDBRANCH   9  10
ENDBRANCH   8   9
ENDBRANCH   7   8
ENDBRANCH   6   7
ENDBRANCH   5   6
ENDBRANCH   2   5
TORSDOF 11
ENDMDL
MODEL      244
REMARK 921   NORMALIZED FREE ENERGY PREDICTED BY IDOCK:   -2.03 KCAL/MOL
REMARK 922        TOTAL FREE ENERGY PREDICTED BY IDOCK:   -4.10 KCAL/MOL
REMARK 923 INTER-LIGAND FREE ENERGY PREDICTED BY IDOCK:   -3.50 KCAL/MOL
REMARK 924 INTRA-LIGAND FREE ENERGY PREDICTED BY IDOCK:   -0.60 KCAL/MOL
REMARK 927      BINDING AFFINITY PREDICTED BY RF-SCORE:    0.00 PKD
ROOT
HETATM    1  C   UNL     1      -8.644   6.715  71.381  1.00  0.00    -0.125 C  
HETATM    2  N   UNL     1      -9.780   6.154  70.516  1.00  0.00    -0.171 N  
HETATM    3  C   UNL     1     -10.958   7.118  70.573  1.00  0.00    -0.262 C  
HETATM    4  C   UNL     1     -10.188   4.803  71.083  1.00  0.00    -0.158 C  
ENDROOT
BRANCH   2   5
HETATM    5  C   UNL     1      -9.232   6.031  69.101  1.00  0.00    -0.126 C  
BRANCH   5   6
HETATM    6  C   UNL     1      -8.424   7.238  68.622  1.00  0.00    -0.129 C  
BRANCH   6   7
HETATM    7  C   UNL     1      -8.973   7.753  67.286  1.00  0.00    -0.136 C  
BRANCH   7   8
HETATM    8  C   UNL     1      -9.921   8.951  67.433  1.00  0.00    -0.267 C  
BRANCH   8   9
HETATM    9  C   UNL     1      -9.254  10.291  67.102  1.00  0.00    -0.163 C  
BRANCH   9  10
HETATM   10  C   UNL     1      -8.744  11.016  68.350  1.00  0.00    -0.150 C  
BRANCH  10  11
HETATM   11  C   UNL     1      -8.273  12.443  68.048  1.00  0.00    -0.168 C  
BRANCH  11  12
HETATM   12  C   UNL     1      -9.123  13.147  66.984  1.00  0.00    -0.231 C  
BRANCH  12  13
HETATM   13  C   UNL     1      -9.504  14.584  67.359  1.00  0.00    -0.202 C  
BRANCH  13  14
HETATM   14  C   UNL     1     -10.026  14.637  68.794  1.00  0.00    -0.235 C  
BRANCH  14  15
HETATM   15  N   UNL     1     -11.544  14.545  68.917  1.00  0.00    -0.291 N  
HETATM   16  C   UNL     1     -11.974  13.267  69.628  1.00  0.00    -0.314 C  
HETATM   17  C   UNL     1     -12.219  14.634  67.554  1.00  0.00    -0.046 C  
HETATM   18  C   UNL     1     -11.993  15.740  69.770  1.00  0.00    -0.322 C  
ENDBRANCH  14  15
ENDBRANCH  13  14
ENDBRANCH  12  13
ENDBRANCH  11  12
ENDBRANCH  10  11
ENDBRANCH   9  10
ENDBRANCH   8   9
ENDBRANCH   7   8
ENDBRANCH   6   7
ENDBRANCH   5   6
ENDBRANCH   2   5
TORSDOF 11
ENDMDL
MODEL      245
REMARK 921   NORMALIZED FREE ENERGY PREDICTED BY IDOCK:   -2.01 KCAL/MOL
REMARK 922        TOTAL FREE ENERGY PREDICTED BY IDOCK:   -4.06 KCAL/MOL
REMARK 923 INTER-LIGAND FREE ENERGY PREDICTED BY IDOCK:   -3.31 KCAL/MOL
REMARK 924 INTRA-LIGAND FREE ENERGY PREDICTED BY IDOCK:   -0.76 KCAL/MOL
REMARK 927      BINDING AFFINITY PREDICTED BY RF-SCORE:    0.00 PKD
ROOT
HETATM    1  C   UNL     1      -7.705  10.312  65.800  1.00  0.00    -0.143 C  
HETATM    2  N   UNL     1      -8.842   9.413  65.299  1.00  0.00    -0.178 N  
HETATM    3  C   UNL     1      -8.295   8.007  65.088  1.00  0.00    -0.130 C  
HETATM    4  C   UNL     1      -9.348   9.976  63.980  1.00  0.00    -0.270 C  
ENDROOT
BRANCH   2   5
HETATM    5  C   UNL     1      -9.922   9.433  66.372  1.00  0.00    -0.276 C  
BRANCH   5   6
HETATM    6  C   UNL     1     -10.390   8.050  66.831  1.00  0.00    -0.408 C  
BRANCH   6   7
HETATM    7  C   UNL     1     -10.458   7.991  68.363  1.00  0.00    -0.205 C  
BRANCH   7   8
HETATM    8  C   UNL     1     -10.211   6.587  68.932  1.00  0.00    -0.206 C  
BRANCH   8   9
HETATM    9  C   UNL     1      -8.724   6.257  69.098  1.00  0.00    -0.123 C  
BRANCH   9  10
HETATM   10  C   UNL     1      -7.953   7.367  69.817  1.00  0.00    -0.125 C  
BRANCH  10  11
HETATM   11  C   UNL     1      -6.976   6.820  70.863  1.00  0.00    -0.067 C  
BRANCH  11  12
HETATM   12  C   UNL     1      -7.589   6.714  72.265  1.00  0.00    -0.095 C  
BRANCH  12  13
HETATM   13  C   UNL     1      -7.788   5.268  72.736  1.00  0.00    -0.099 C  
BRANCH  13  14
HETATM   14  C   UNL     1      -9.058   5.157  73.579  1.00  0.00    -0.124 C  
BRANCH  14  15
HETATM   15  N   UNL     1     -10.272   4.623  72.824  1.00  0.00    -0.173 N  
HETATM   16  C   UNL     1      -9.861   3.841  71.582  1.00  0.00    -0.170 C  
HETATM   17  C   UNL     1     -11.226   5.746  72.439  1.00  0.00    -0.290 C  
HETATM   18  C   UNL     1     -10.999   3.662  73.775  1.00  0.00    -0.225 C  
ENDBRANCH  14  15
ENDBRANCH  13  14
ENDBRANCH  12  13
ENDBRANCH  11  12
ENDBRANCH  10  11
ENDBRANCH   9  10
ENDBRANCH   8   9
ENDBRANCH   7   8
ENDBRANCH   6   7
ENDBRANCH   5   6
ENDBRANCH   2   5
TORSDOF 11
ENDMDL
MODEL      246
REMARK 921   NORMALIZED FREE ENERGY PREDICTED BY IDOCK:   -2.00 KCAL/MOL
REMARK 922        TOTAL FREE ENERGY PREDICTED BY IDOCK:   -4.06 KCAL/MOL
REMARK 923 INTER-LIGAND FREE ENERGY PREDICTED BY IDOCK:   -3.52 KCAL/MOL
REMARK 924 INTRA-LIGAND FREE ENERGY PREDICTED BY IDOCK:   -0.53 KCAL/MOL
REMARK 927      BINDING AFFINITY PREDICTED BY RF-SCORE:    0.00 PKD
ROOT
HETATM    1  C   UNL     1      -6.456   3.727  66.754  1.00  0.00    -0.041 C  
HETATM    2  N   UNL     1      -7.571   2.686  66.913  1.00  0.00    -0.070 N  
HETATM    3  C   UNL     1      -7.301   1.870  68.170  1.00  0.00    -0.046 C  
HETATM    4  C   UNL     1      -7.553   1.779  65.692  1.00  0.00    -0.066 C  
ENDROOT
BRANCH   2   5
HETATM    5  C   UNL     1      -8.879   3.459  67.023  1.00  0.00    -0.135 C  
BRANCH   5   6
HETATM    6  C   UNL     1      -9.349   4.105  65.718  1.00  0.00    -0.162 C  
BRANCH   6   7
HETATM    7  C   UNL     1     -10.559   5.010  65.977  1.00  0.00    -0.286 C  
BRANCH   7   8
HETATM    8  C   UNL     1     -10.706   5.433  67.445  1.00  0.00    -0.161 C  
BRANCH   8   9
HETATM    9  C   UNL     1     -10.534   6.941  67.659  1.00  0.00    -0.290 C  
BRANCH   9  10
HETATM   10  C   UNL     1     -10.421   7.313  69.139  1.00  0.00    -0.222 C  
BRANCH  10  11
HETATM   11  C   UNL     1     -11.529   6.682  69.988  1.00  0.00    -0.434 C  
BRANCH  11  12
HETATM   12  C   UNL     1     -11.931   7.541  71.193  1.00  0.00    -0.334 C  
BRANCH  12  13
HETATM   13  C   UNL     1     -11.175   7.183  72.478  1.00  0.00    -0.327 C  
BRANCH  13  14
HETATM   14  C   UNL     1     -10.760   5.712  72.457  1.00  0.00    -0.239 C  
BRANCH  14  15
HETATM   15  N   UNL     1      -9.713   5.337  73.502  1.00  0.00    -0.147 N  
HETATM   16  C   UNL     1      -8.330   5.184  72.880  1.00  0.00    -0.109 C  
HETATM   17  C   UNL     1     -10.096   4.060  74.239  1.00  0.00    -0.172 C  
HETATM   18  C   UNL     1      -9.659   6.493  74.511  1.00  0.00    -0.282 C  
ENDBRANCH  14  15
ENDBRANCH  13  14
ENDBRANCH  12  13
ENDBRANCH  11  12
ENDBRANCH  10  11
ENDBRANCH   9  10
ENDBRANCH   8   9
ENDBRANCH   7   8
ENDBRANCH   6   7
ENDBRANCH   5   6
ENDBRANCH   2   5
TORSDOF 11
ENDMDL
MODEL      247
REMARK 921   NORMALIZED FREE ENERGY PREDICTED BY IDOCK:   -1.99 KCAL/MOL
REMARK 922        TOTAL FREE ENERGY PREDICTED BY IDOCK:   -4.03 KCAL/MOL
REMARK 923 INTER-LIGAND FREE ENERGY PREDICTED BY IDOCK:   -3.51 KCAL/MOL
REMARK 924 INTRA-LIGAND FREE ENERGY PREDICTED BY IDOCK:   -0.52 KCAL/MOL
REMARK 927      BINDING AFFINITY PREDICTED BY RF-SCORE:    0.00 PKD
ROOT
HETATM    1  C   UNL     1      -9.209   7.307  71.969  1.00  0.00    -0.132 C  
HETATM    2  N   UNL     1     -10.567   7.118  71.282  1.00  0.00    -0.214 N  
HETATM    3  C   UNL     1     -11.646   7.751  72.153  1.00  0.00    -0.317 C  
HETATM    4  C   UNL     1     -10.825   5.626  71.139  1.00  0.00    -0.218 C  
ENDROOT
BRANCH   2   5
HETATM    5  C   UNL     1     -10.473   7.808  69.928  1.00  0.00    -0.232 C  
BRANCH   5   6
HETATM    6  C   UNL     1      -9.579   9.049  69.906  1.00  0.00    -0.193 C  
BRANCH   6   7
HETATM    7  C   UNL     1     -10.426  10.313  69.711  1.00  0.00    -0.300 C  
BRANCH   7   8
HETATM    8  C   UNL     1      -9.955  11.193  68.545  1.00  0.00    -0.204 C  
BRANCH   8   9
HETATM    9  C   UNL     1     -11.068  11.509  67.540  1.00  0.00    -0.329 C  
BRANCH   9  10
HETATM   10  C   UNL     1     -11.663  12.904  67.744  1.00  0.00    -0.412 C  
BRANCH  10  11
HETATM   11  C   UNL     1     -10.587  13.989  67.861  1.00  0.00    -0.246 C  
BRANCH  11  12
HETATM   12  C   UNL     1      -9.549  13.934  66.733  1.00  0.00    -0.288 C  
BRANCH  12  13
HETATM   13  C   UNL     1      -8.470  15.018  66.843  1.00  0.00    -0.269 C  
BRANCH  13  14
HETATM   14  C   UNL     1      -7.162  14.413  67.352  1.00  0.00    -0.122 C  
BRANCH  14  15
HETATM   15  N   UNL     1      -6.831  14.753  68.803  1.00  0.00    -0.094 N  
HETATM   16  C   UNL     1      -7.639  15.947  69.297  1.00  0.00    -0.221 C  
HETATM   17  C   UNL     1      -5.343  15.020  68.986  1.00  0.00    -0.097 C  
HETATM   18  C   UNL     1      -7.222  13.530  69.645  1.00  0.00     0.379 C  
ENDBRANCH  14  15
ENDBRANCH  13  14
ENDBRANCH  12  13
ENDBRANCH  11  12
ENDBRANCH  10  11
ENDBRANCH   9  10
ENDBRANCH   8   9
ENDBRANCH   7   8
ENDBRANCH   6   7
ENDBRANCH   5   6
ENDBRANCH   2   5
TORSDOF 11
ENDMDL
MODEL      248
REMARK 921   NORMALIZED FREE ENERGY PREDICTED BY IDOCK:   -1.97 KCAL/MOL
REMARK 922        TOTAL FREE ENERGY PREDICTED BY IDOCK:   -4.00 KCAL/MOL
REMARK 923 INTER-LIGAND FREE ENERGY PREDICTED BY IDOCK:   -3.33 KCAL/MOL
REMARK 924 INTRA-LIGAND FREE ENERGY PREDICTED BY IDOCK:   -0.67 KCAL/MOL
REMARK 927      BINDING AFFINITY PREDICTED BY RF-SCORE:    0.00 PKD
ROOT
HETATM    1  C   UNL     1      -8.262   7.921  65.352  1.00  0.00    -0.138 C  
HETATM    2  N   UNL     1      -8.849   9.176  66.012  1.00  0.00    -0.157 N  
HETATM    3  C   UNL     1     -10.122   8.787  66.752  1.00  0.00    -0.288 C  
HETATM    4  C   UNL     1      -9.171  10.183  64.918  1.00  0.00    -0.232 C  
ENDROOT
BRANCH   2   5
HETATM    5  C   UNL     1      -7.789   9.703  66.970  1.00  0.00    -0.098 C  
BRANCH   5   6
HETATM    6  C   UNL     1      -8.271  10.815  67.904  1.00  0.00    -0.113 C  
BRANCH   6   7
HETATM    7  C   UNL     1      -7.654  10.647  69.298  1.00  0.00    -0.138 C  
BRANCH   7   8
HETATM    8  C   UNL     1      -6.526  11.645  69.592  1.00  0.00    -0.124 C  
BRANCH   8   9
HETATM    9  C   UNL     1      -5.695  11.999  68.354  1.00  0.00    -0.049 C  
BRANCH   9  10
HETATM   10  C   UNL     1      -5.484  13.507  68.201  1.00  0.00    -0.108 C  
BRANCH  10  11
HETATM   11  C   UNL     1      -6.772  14.243  67.814  1.00  0.00    -0.190 C  
BRANCH  11  12
HETATM   12  C   UNL     1      -6.998  15.529  68.618  1.00  0.00    -0.116 C  
BRANCH  12  13
HETATM   13  C   UNL     1      -8.404  16.116  68.449  1.00  0.00    -0.179 C  
BRANCH  13  14
HETATM   14  C   UNL     1      -9.359  15.509  69.476  1.00  0.00    -0.276 C  
BRANCH  14  15
HETATM   15  N   UNL     1     -10.745  15.177  68.931  1.00  0.00    -0.232 N  
HETATM   16  C   UNL     1     -10.946  15.740  67.529  1.00  0.00    -0.293 C  
HETATM   17  C   UNL     1     -11.843  15.682  69.857  1.00  0.00    -0.360 C  
HETATM   18  C   UNL     1     -10.834  13.646  68.848  1.00  0.00    -0.235 C  
ENDBRANCH  14  15
ENDBRANCH  13  14
ENDBRANCH  12  13
ENDBRANCH  11  12
ENDBRANCH  10  11
ENDBRANCH   9  10
ENDBRANCH   8   9
ENDBRANCH   7   8
ENDBRANCH   6   7
ENDBRANCH   5   6
ENDBRANCH   2   5
TORSDOF 11
ENDMDL
MODEL      249
REMARK 921   NORMALIZED FREE ENERGY PREDICTED BY IDOCK:   -1.96 KCAL/MOL
REMARK 922        TOTAL FREE ENERGY PREDICTED BY IDOCK:   -3.99 KCAL/MOL
REMARK 923 INTER-LIGAND FREE ENERGY PREDICTED BY IDOCK:   -3.51 KCAL/MOL
REMARK 924 INTRA-LIGAND FREE ENERGY PREDICTED BY IDOCK:   -0.48 KCAL/MOL
REMARK 927      BINDING AFFINITY PREDICTED BY RF-SCORE:    0.00 PKD
ROOT
HETATM    1  C   UNL     1      -5.233   8.316  70.685  1.00  0.00    -0.022 C  
HETATM    2  N   UNL     1      -6.526   7.505  70.534  1.00  0.00    -0.038 N  
HETATM    3  C   UNL     1      -7.707   8.401  70.884  1.00  0.00    -0.088 C  
HETATM    4  C   UNL     1      -6.465   6.328  71.495  1.00  0.00    -0.050 C  
ENDROOT
BRANCH   2   5
HETATM    5  C   UNL     1      -6.588   7.046  69.083  1.00  0.00    -0.048 C  
BRANCH   5   6
HETATM    6  C   UNL     1      -5.742   7.876  68.116  1.00  0.00    -0.033 C  
BRANCH   6   7
HETATM    7  C   UNL     1      -6.641   8.754  67.237  1.00  0.00    -0.058 C  
BRANCH   7   8
HETATM    8  C   UNL     1      -6.423   8.543  65.733  1.00  0.00    -0.053 C  
BRANCH   8   9
HETATM    9  C   UNL     1      -7.732   8.415  64.946  1.00  0.00    -0.106 C  
BRANCH   9  10
HETATM   10  C   UNL     1      -8.204   9.754  64.373  1.00  0.00    -0.162 C  
BRANCH  10  11
HETATM   11  C   UNL     1      -9.321  10.389  65.208  1.00  0.00    -0.263 C  
BRANCH  11  12
HETATM   12  C   UNL     1     -10.474  10.936  64.358  1.00  0.00    -0.403 C  
BRANCH  12  13
HETATM   13  C   UNL     1     -10.303  12.410  63.973  1.00  0.00    -0.435 C  
BRANCH  13  14
HETATM   14  C   UNL     1     -10.212  13.278  65.227  1.00  0.00    -0.290 C  
BRANCH  14  15
HETATM   15  N   UNL     1     -11.363  14.267  65.395  1.00  0.00    -0.319 N  
HETATM   16  C   UNL     1     -12.324  14.216  64.213  1.00  0.00    -0.365 C  
HETATM   17  C   UNL     1     -10.852  15.688  65.588  1.00  0.00    -0.327 C  
HETATM   18  C   UNL     1     -12.132  13.843  66.654  1.00  0.00    -0.448 C  
ENDBRANCH  14  15
ENDBRANCH  13  14
ENDBRANCH  12  13
ENDBRANCH  11  12
ENDBRANCH  10  11
ENDBRANCH   9  10
ENDBRANCH   8   9
ENDBRANCH   7   8
ENDBRANCH   6   7
ENDBRANCH   5   6
ENDBRANCH   2   5
TORSDOF 11
ENDMDL
MODEL      250
REMARK 921   NORMALIZED FREE ENERGY PREDICTED BY IDOCK:   -1.94 KCAL/MOL
REMARK 922        TOTAL FREE ENERGY PREDICTED BY IDOCK:   -3.96 KCAL/MOL
REMARK 923 INTER-LIGAND FREE ENERGY PREDICTED BY IDOCK:   -3.54 KCAL/MOL
REMARK 924 INTRA-LIGAND FREE ENERGY PREDICTED BY IDOCK:   -0.42 KCAL/MOL
REMARK 927      BINDING AFFINITY PREDICTED BY RF-SCORE:    0.00 PKD
ROOT
HETATM    1  C   UNL     1     -10.168  19.902  69.178  1.00  0.00    -0.180 C  
HETATM    2  N   UNL     1      -9.561  19.285  67.912  1.00  0.00    -0.319 N  
HETATM    3  C   UNL     1     -10.611  19.305  66.808  1.00  0.00    -0.448 C  
HETATM    4  C   UNL     1      -9.164  17.851  68.224  1.00  0.00    -0.282 C  
ENDROOT
BRANCH   2   5
HETATM    5  C   UNL     1      -8.354  20.138  67.545  1.00  0.00    -0.332 C  
BRANCH   5   6
HETATM    6  C   UNL     1      -7.824  19.916  66.127  1.00  0.00    -0.340 C  
BRANCH   6   7
HETATM    7  C   UNL     1      -6.292  19.854  66.133  1.00  0.00    -0.203 C  
BRANCH   7   8
HETATM    8  C   UNL     1      -5.715  18.867  65.109  1.00  0.00    -0.267 C  
BRANCH   8   9
HETATM    9  C   UNL     1      -5.143  17.598  65.750  1.00  0.00    -0.168 C  
BRANCH   9  10
HETATM   10  C   UNL     1      -6.158  16.887  66.649  1.00  0.00    -0.186 C  
BRANCH  10  11
HETATM   11  C   UNL     1      -5.488  15.977  67.684  1.00  0.00    -0.158 C  
BRANCH  11  12
HETATM   12  C   UNL     1      -6.442  14.932  68.276  1.00  0.00    -0.120 C  
BRANCH  12  13
HETATM   13  C   UNL     1      -6.239  13.525  67.702  1.00  0.00    -0.139 C  
BRANCH  13  14
HETATM   14  C   UNL     1      -6.869  12.481  68.624  1.00  0.00    -0.088 C  
BRANCH  14  15
HETATM   15  N   UNL     1      -6.639  11.036  68.190  1.00  0.00    -0.058 N  
HETATM   16  C   UNL     1      -6.692  10.889  66.674  1.00  0.00    -0.127 C  
HETATM   17  C   UNL     1      -7.643  10.093  68.840  1.00  0.00    -0.090 C  
HETATM   18  C   UNL     1      -5.227  10.652  68.658  1.00  0.00    -0.041 C  
ENDBRANCH  14  15
ENDBRANCH  13  14
ENDBRANCH  12  13
ENDBRANCH  11  12
ENDBRANCH  10  11
ENDBRANCH   9  10
ENDBRANCH   8   9
ENDBRANCH   7   8
ENDBRANCH   6   7
ENDBRANCH   5   6
ENDBRANCH   2   5
TORSDOF 11
ENDMDL
MODEL      251
REMARK 921   NORMALIZED FREE ENERGY PREDICTED BY IDOCK:   -1.93 KCAL/MOL
REMARK 922        TOTAL FREE ENERGY PREDICTED BY IDOCK:   -3.93 KCAL/MOL
REMARK 923 INTER-LIGAND FREE ENERGY PREDICTED BY IDOCK:   -3.13 KCAL/MOL
REMARK 924 INTRA-LIGAND FREE ENERGY PREDICTED BY IDOCK:   -0.80 KCAL/MOL
REMARK 927      BINDING AFFINITY PREDICTED BY RF-SCORE:    0.00 PKD
ROOT
HETATM    1  C   UNL     1      -7.277  11.222  69.224  1.00  0.00    -0.094 C  
HETATM    2  N   UNL     1      -7.212  12.435  68.287  1.00  0.00    -0.094 N  
HETATM    3  C   UNL     1      -6.624  11.991  66.954  1.00  0.00    -0.047 C  
HETATM    4  C   UNL     1      -6.315  13.483  68.927  1.00  0.00    -0.098 C  
ENDROOT
BRANCH   2   5
HETATM    5  C   UNL     1      -8.640  12.939  68.123  1.00  0.00    -0.188 C  
BRANCH   5   6
HETATM    6  C   UNL     1      -9.213  12.781  66.714  1.00  0.00    -0.225 C  
BRANCH   6   7
HETATM    7  C   UNL     1     -10.618  12.166  66.775  1.00  0.00    -0.256 C  
BRANCH   7   8
HETATM    8  C   UNL     1     -11.035  11.730  68.186  1.00  0.00    -0.275 C  
BRANCH   8   9
HETATM    9  C   UNL     1     -11.332  10.230  68.290  1.00  0.00    -0.245 C  
BRANCH   9  10
HETATM   10  C   UNL     1     -10.124   9.367  67.921  1.00  0.00    -0.239 C  
BRANCH  10  11
HETATM   11  C   UNL     1     -10.401   8.451  66.724  1.00  0.00    -0.357 C  
BRANCH  11  12
HETATM   12  C   UNL     1      -9.216   8.346  65.756  1.00  0.00    -0.175 C  
BRANCH  12  13
HETATM   13  C   UNL     1      -8.648   6.927  65.637  1.00  0.00    -0.119 C  
BRANCH  13  14
HETATM   14  C   UNL     1      -8.858   6.161  66.943  1.00  0.00    -0.117 C  
BRANCH  14  15
HETATM   15  N   UNL     1      -9.126   4.669  66.763  1.00  0.00    -0.116 N  
HETATM   16  C   UNL     1      -7.879   3.927  66.296  1.00  0.00    -0.090 C  
HETATM   17  C   UNL     1     -10.273   4.422  65.793  1.00  0.00    -0.234 C  
HETATM   18  C   UNL     1      -9.519   4.120  68.142  1.00  0.00    -0.158 C  
ENDBRANCH  14  15
ENDBRANCH  13  14
ENDBRANCH  12  13
ENDBRANCH  11  12
ENDBRANCH  10  11
ENDBRANCH   9  10
ENDBRANCH   8   9
ENDBRANCH   7   8
ENDBRANCH   6   7
ENDBRANCH   5   6
ENDBRANCH   2   5
TORSDOF 11
ENDMDL
MODEL      252
REMARK 921   NORMALIZED FREE ENERGY PREDICTED BY IDOCK:   -1.92 KCAL/MOL
REMARK 922        TOTAL FREE ENERGY PREDICTED BY IDOCK:   -3.93 KCAL/MOL
REMARK 923 INTER-LIGAND FREE ENERGY PREDICTED BY IDOCK:   -3.41 KCAL/MOL
REMARK 924 INTRA-LIGAND FREE ENERGY PREDICTED BY IDOCK:   -0.52 KCAL/MOL
REMARK 927      BINDING AFFINITY PREDICTED BY RF-SCORE:    0.00 PKD
ROOT
HETATM    1  C   UNL     1      -5.830   8.947  70.462  1.00  0.00    -0.032 C  
HETATM    2  N   UNL     1      -7.229   8.330  70.578  1.00  0.00    -0.044 N  
HETATM    3  C   UNL     1      -8.250   9.454  70.700  1.00  0.00    -0.168 C  
HETATM    4  C   UNL     1      -7.264   7.460  71.825  1.00  0.00    -0.071 C  
ENDROOT
BRANCH   2   5
HETATM    5  C   UNL     1      -7.453   7.512  69.313  1.00  0.00    -0.091 C  
BRANCH   5   6
HETATM    6  C   UNL     1      -6.497   7.841  68.164  1.00  0.00    -0.054 C  
BRANCH   6   7
HETATM    7  C   UNL     1      -7.234   8.610  67.060  1.00  0.00    -0.076 C  
BRANCH   7   8
HETATM    8  C   UNL     1      -8.536   7.935  66.608  1.00  0.00    -0.131 C  
BRANCH   8   9
HETATM    9  C   UNL     1      -9.787   8.761  66.929  1.00  0.00    -0.295 C  
BRANCH   9  10
HETATM   10  C   UNL     1      -9.989   9.922  65.952  1.00  0.00    -0.347 C  
BRANCH  10  11
HETATM   11  C   UNL     1      -9.767  11.287  66.610  1.00  0.00    -0.222 C  
BRANCH  11  12
HETATM   12  C   UNL     1     -11.001  12.196  66.547  1.00  0.00    -0.325 C  
BRANCH  12  13
HETATM   13  C   UNL     1     -10.665  13.690  66.629  1.00  0.00    -0.280 C  
BRANCH  13  14
HETATM   14  C   UNL     1      -9.904  13.991  67.919  1.00  0.00    -0.233 C  
BRANCH  14  15
HETATM   15  N   UNL     1     -10.201  15.362  68.521  1.00  0.00    -0.215 N  
HETATM   16  C   UNL     1     -10.272  16.443  67.449  1.00  0.00    -0.281 C  
HETATM   17  C   UNL     1      -9.169  15.742  69.576  1.00  0.00    -0.215 C  
HETATM   18  C   UNL     1     -11.579  15.263  69.191  1.00  0.00    -0.332 C  
ENDBRANCH  14  15
ENDBRANCH  13  14
ENDBRANCH  12  13
ENDBRANCH  11  12
ENDBRANCH  10  11
ENDBRANCH   9  10
ENDBRANCH   8   9
ENDBRANCH   7   8
ENDBRANCH   6   7
ENDBRANCH   5   6
ENDBRANCH   2   5
TORSDOF 11
ENDMDL
MODEL      253
REMARK 921   NORMALIZED FREE ENERGY PREDICTED BY IDOCK:   -1.92 KCAL/MOL
REMARK 922        TOTAL FREE ENERGY PREDICTED BY IDOCK:   -3.92 KCAL/MOL
REMARK 923 INTER-LIGAND FREE ENERGY PREDICTED BY IDOCK:   -3.61 KCAL/MOL
REMARK 924 INTRA-LIGAND FREE ENERGY PREDICTED BY IDOCK:   -0.31 KCAL/MOL
REMARK 927      BINDING AFFINITY PREDICTED BY RF-SCORE:    0.00 PKD
ROOT
HETATM    1  C   UNL     1     -10.144  20.592  68.484  1.00  0.00     0.114 C  
HETATM    2  N   UNL     1      -9.466  19.705  67.432  1.00  0.00    -0.315 N  
HETATM    3  C   UNL     1     -10.302  19.732  66.159  1.00  0.00    -0.524 C  
HETATM    4  C   UNL     1      -9.398  18.287  67.978  1.00  0.00    -0.284 C  
ENDROOT
BRANCH   2   5
HETATM    5  C   UNL     1      -8.078  20.286  67.198  1.00  0.00    -0.335 C  
BRANCH   5   6
HETATM    6  C   UNL     1      -7.348  19.720  65.979  1.00  0.00    -0.319 C  
BRANCH   6   7
HETATM    7  C   UNL     1      -5.905  19.351  66.345  1.00  0.00    -0.173 C  
BRANCH   7   8
HETATM    8  C   UNL     1      -5.392  18.096  65.626  1.00  0.00    -0.223 C  
BRANCH   8   9
HETATM    9  C   UNL     1      -5.341  16.860  66.532  1.00  0.00    -0.025 C  
BRANCH   9  10
HETATM   10  C   UNL     1      -6.684  16.571  67.204  1.00  0.00    -0.232 C  
BRANCH  10  11
HETATM   11  C   UNL     1      -6.540  15.690  68.450  1.00  0.00    -0.116 C  
BRANCH  11  12
HETATM   12  C   UNL     1      -7.871  15.100  68.931  1.00  0.00    -0.164 C  
BRANCH  12  13
HETATM   13  C   UNL     1      -8.053  13.623  68.563  1.00  0.00    -0.118 C  
BRANCH  13  14
HETATM   14  C   UNL     1      -8.855  13.494  67.269  1.00  0.00    -0.224 C  
BRANCH  14  15
HETATM   15  N   UNL     1      -9.205  12.060  66.883  1.00  0.00    -0.191 N  
HETATM   16  C   UNL     1      -8.059  11.102  67.185  1.00  0.00    -0.138 C  
HETATM   17  C   UNL     1      -9.595  11.958  65.414  1.00  0.00    -0.165 C  
HETATM   18  C   UNL     1     -10.409  11.650  67.743  1.00  0.00    -0.182 C  
ENDBRANCH  14  15
ENDBRANCH  13  14
ENDBRANCH  12  13
ENDBRANCH  11  12
ENDBRANCH  10  11
ENDBRANCH   9  10
ENDBRANCH   8   9
ENDBRANCH   7   8
ENDBRANCH   6   7
ENDBRANCH   5   6
ENDBRANCH   2   5
TORSDOF 11
ENDMDL
MODEL      254
REMARK 921   NORMALIZED FREE ENERGY PREDICTED BY IDOCK:   -1.92 KCAL/MOL
REMARK 922        TOTAL FREE ENERGY PREDICTED BY IDOCK:   -3.92 KCAL/MOL
REMARK 923 INTER-LIGAND FREE ENERGY PREDICTED BY IDOCK:   -3.27 KCAL/MOL
REMARK 924 INTRA-LIGAND FREE ENERGY PREDICTED BY IDOCK:   -0.65 KCAL/MOL
REMARK 927      BINDING AFFINITY PREDICTED BY RF-SCORE:    0.00 PKD
ROOT
HETATM    1  C   UNL     1      -8.265   7.911  65.291  1.00  0.00    -0.145 C  
HETATM    2  N   UNL     1      -8.820   9.170  65.967  1.00  0.00    -0.157 N  
HETATM    3  C   UNL     1     -10.102   8.804  66.704  1.00  0.00    -0.288 C  
HETATM    4  C   UNL     1      -9.118  10.199  64.888  1.00  0.00    -0.215 C  
ENDROOT
BRANCH   2   5
HETATM    5  C   UNL     1      -7.747   9.659  66.931  1.00  0.00    -0.098 C  
BRANCH   5   6
HETATM    6  C   UNL     1      -8.190  10.794  67.856  1.00  0.00    -0.113 C  
BRANCH   6   7
HETATM    7  C   UNL     1      -7.735  10.520  69.295  1.00  0.00    -0.144 C  
BRANCH   7   8
HETATM    8  C   UNL     1      -6.683  11.513  69.805  1.00  0.00    -0.047 C  
BRANCH   8   9
HETATM    9  C   UNL     1      -5.633  11.875  68.748  1.00  0.00    -0.049 C  
BRANCH   9  10
HETATM   10  C   UNL     1      -5.393  13.383  68.653  1.00  0.00    -0.075 C  
BRANCH  10  11
HETATM   11  C   UNL     1      -6.436  14.089  67.781  1.00  0.00    -0.181 C  
BRANCH  11  12
HETATM   12  C   UNL     1      -6.948  15.399  68.393  1.00  0.00    -0.111 C  
BRANCH  12  13
HETATM   13  C   UNL     1      -8.414  15.699  68.056  1.00  0.00    -0.146 C  
BRANCH  13  14
HETATM   14  C   UNL     1      -8.823  17.055  68.630  1.00  0.00    -0.267 C  
BRANCH  14  15
HETATM   15  N   UNL     1      -9.296  18.064  67.587  1.00  0.00    -0.257 N  
HETATM   16  C   UNL     1     -10.099  19.194  68.223  1.00  0.00    -0.416 C  
HETATM   17  C   UNL     1     -10.118  17.393  66.495  1.00  0.00    -0.320 C  
HETATM   18  C   UNL     1      -8.036  18.672  66.955  1.00  0.00    -0.242 C  
ENDBRANCH  14  15
ENDBRANCH  13  14
ENDBRANCH  12  13
ENDBRANCH  11  12
ENDBRANCH  10  11
ENDBRANCH   9  10
ENDBRANCH   8   9
ENDBRANCH   7   8
ENDBRANCH   6   7
ENDBRANCH   5   6
ENDBRANCH   2   5
TORSDOF 11
ENDMDL
MODEL      255
REMARK 921   NORMALIZED FREE ENERGY PREDICTED BY IDOCK:   -1.91 KCAL/MOL
REMARK 922        TOTAL FREE ENERGY PREDICTED BY IDOCK:   -3.90 KCAL/MOL
REMARK 923 INTER-LIGAND FREE ENERGY PREDICTED BY IDOCK:   -3.87 KCAL/MOL
REMARK 924 INTRA-LIGAND FREE ENERGY PREDICTED BY IDOCK:   -0.02 KCAL/MOL
REMARK 927      BINDING AFFINITY PREDICTED BY RF-SCORE:    0.00 PKD
ROOT
HETATM    1  C   UNL     1      -6.744  10.710  69.166  1.00  0.00    -0.073 C  
HETATM    2  N   UNL     1      -6.718  10.494  67.648  1.00  0.00    -0.072 N  
HETATM    3  C   UNL     1      -6.118   9.125  67.359  1.00  0.00    -0.054 C  
HETATM    4  C   UNL     1      -5.854  11.581  67.027  1.00  0.00    -0.120 C  
ENDROOT
BRANCH   2   5
HETATM    5  C   UNL     1      -8.162  10.579  67.169  1.00  0.00    -0.123 C  
BRANCH   5   6
HETATM    6  C   UNL     1      -8.412   9.971  65.788  1.00  0.00    -0.145 C  
BRANCH   6   7
HETATM    7  C   UNL     1      -9.912   9.972  65.467  1.00  0.00    -0.367 C  
BRANCH   7   8
HETATM    8  C   UNL     1     -10.777  10.565  66.588  1.00  0.00    -0.222 C  
BRANCH   8   9
HETATM    9  C   UNL     1     -11.022   9.587  67.743  1.00  0.00    -0.165 C  
BRANCH   9  10
HETATM   10  C   UNL     1     -10.936  10.265  69.112  1.00  0.00    -0.280 C  
BRANCH  10  11
HETATM   11  C   UNL     1     -11.750  11.562  69.177  1.00  0.00    -0.395 C  
BRANCH  11  12
HETATM   12  C   UNL     1     -10.877  12.823  69.165  1.00  0.00    -0.123 C  
BRANCH  12  13
HETATM   13  C   UNL     1     -11.667  14.114  69.412  1.00  0.00    -0.361 C  
BRANCH  13  14
HETATM   14  C   UNL     1     -13.021  13.794  70.045  1.00  0.00     0.330 C  
BRANCH  14  15
HETATM   15  N   UNL     1     -13.164  14.252  71.494  1.00  0.00    -0.332 N  
HETATM   16  C   UNL     1     -11.899  14.939  71.993  1.00  0.00    -0.327 C  
HETATM   17  C   UNL     1     -13.523  13.090  72.411  1.00  0.00    -0.515 C  
HETATM   18  C   UNL     1     -14.307  15.276  71.524  1.00  0.00    -0.527 C  
ENDBRANCH  14  15
ENDBRANCH  13  14
ENDBRANCH  12  13
ENDBRANCH  11  12
ENDBRANCH  10  11
ENDBRANCH   9  10
ENDBRANCH   8   9
ENDBRANCH   7   8
ENDBRANCH   6   7
ENDBRANCH   5   6
ENDBRANCH   2   5
TORSDOF 11
ENDMDL
MODEL      256
REMARK 921   NORMALIZED FREE ENERGY PREDICTED BY IDOCK:   -1.88 KCAL/MOL
REMARK 922        TOTAL FREE ENERGY PREDICTED BY IDOCK:   -3.85 KCAL/MOL
REMARK 923 INTER-LIGAND FREE ENERGY PREDICTED BY IDOCK:   -3.14 KCAL/MOL
REMARK 924 INTRA-LIGAND FREE ENERGY PREDICTED BY IDOCK:   -0.72 KCAL/MOL
REMARK 927      BINDING AFFINITY PREDICTED BY RF-SCORE:    0.00 PKD
ROOT
HETATM    1  C   UNL     1      -6.931   4.870  66.790  1.00  0.00    -0.067 C  
HETATM    2  N   UNL     1      -8.251   4.371  66.188  1.00  0.00    -0.102 N  
HETATM    3  C   UNL     1      -8.923   3.442  67.190  1.00  0.00    -0.154 C  
HETATM    4  C   UNL     1      -7.934   3.614  64.908  1.00  0.00    -0.090 C  
ENDROOT
BRANCH   2   5
HETATM    5  C   UNL     1      -9.103   5.605  65.918  1.00  0.00    -0.148 C  
BRANCH   5   6
HETATM    6  C   UNL     1      -8.309   6.855  65.533  1.00  0.00    -0.138 C  
BRANCH   6   7
HETATM    7  C   UNL     1      -8.980   8.110  66.105  1.00  0.00    -0.218 C  
BRANCH   7   8
HETATM    8  C   UNL     1     -10.043   7.806  67.169  1.00  0.00    -0.328 C  
BRANCH   8   9
HETATM    9  C   UNL     1      -9.904   8.673  68.426  1.00  0.00    -0.189 C  
BRANCH   9  10
HETATM   10  C   UNL     1     -10.001   7.854  69.715  1.00  0.00    -0.186 C  
BRANCH  10  11
HETATM   11  C   UNL     1     -11.216   6.921  69.727  1.00  0.00    -0.315 C  
BRANCH  11  12
HETATM   12  C   UNL     1     -11.192   5.912  70.882  1.00  0.00    -0.278 C  
BRANCH  12  13
HETATM   13  C   UNL     1     -10.130   4.818  70.715  1.00  0.00    -0.286 C  
BRANCH  13  14
HETATM   14  C   UNL     1      -9.470   4.511  72.059  1.00  0.00    -0.143 C  
BRANCH  14  15
HETATM   15  N   UNL     1      -9.751   3.110  72.594  1.00  0.00    -0.127 N  
HETATM   16  C   UNL     1     -11.054   3.061  73.383  1.00  0.00    -0.181 C  
HETATM   17  C   UNL     1      -8.602   2.602  73.455  1.00  0.00    -0.075 C  
HETATM   18  C   UNL     1      -9.897   2.190  71.373  1.00  0.00    -0.111 C  
ENDBRANCH  14  15
ENDBRANCH  13  14
ENDBRANCH  12  13
ENDBRANCH  11  12
ENDBRANCH  10  11
ENDBRANCH   9  10
ENDBRANCH   8   9
ENDBRANCH   7   8
ENDBRANCH   6   7
ENDBRANCH   5   6
ENDBRANCH   2   5
TORSDOF 11
ENDMDL
MODEL      257
REMARK 921   NORMALIZED FREE ENERGY PREDICTED BY IDOCK:   -1.86 KCAL/MOL
REMARK 922        TOTAL FREE ENERGY PREDICTED BY IDOCK:   -3.83 KCAL/MOL
REMARK 923 INTER-LIGAND FREE ENERGY PREDICTED BY IDOCK:   -3.12 KCAL/MOL
REMARK 924 INTRA-LIGAND FREE ENERGY PREDICTED BY IDOCK:   -0.71 KCAL/MOL
REMARK 927      BINDING AFFINITY PREDICTED BY RF-SCORE:    0.00 PKD
ROOT
HETATM    1  C   UNL     1      -5.681   9.090  65.415  1.00  0.00    -0.046 C  
HETATM    2  N   UNL     1      -6.835   8.489  64.603  1.00  0.00    -0.069 N  
HETATM    3  C   UNL     1      -7.121   7.087  65.126  1.00  0.00    -0.060 C  
HETATM    4  C   UNL     1      -6.408   8.422  63.145  1.00  0.00    -0.086 C  
ENDROOT
BRANCH   2   5
HETATM    5  C   UNL     1      -8.033   9.409  64.799  1.00  0.00    -0.122 C  
BRANCH   5   6
HETATM    6  C   UNL     1      -8.428   9.638  66.259  1.00  0.00    -0.125 C  
BRANCH   6   7
HETATM    7  C   UNL     1      -8.728  11.122  66.504  1.00  0.00    -0.174 C  
BRANCH   7   8
HETATM    8  C   UNL     1      -8.655  11.526  67.983  1.00  0.00    -0.150 C  
BRANCH   8   9
HETATM    9  C   UNL     1      -7.338  12.214  68.356  1.00  0.00    -0.108 C  
BRANCH   9  10
HETATM   10  C   UNL     1      -7.071  13.463  67.513  1.00  0.00    -0.154 C  
BRANCH  10  11
HETATM   11  C   UNL     1      -6.903  14.724  68.368  1.00  0.00    -0.104 C  
BRANCH  11  12
HETATM   12  C   UNL     1      -8.124  15.026  69.244  1.00  0.00    -0.178 C  
BRANCH  12  13
HETATM   13  C   UNL     1      -9.378  15.390  68.440  1.00  0.00    -0.193 C  
BRANCH  13  14
HETATM   14  C   UNL     1      -9.863  16.789  68.817  1.00  0.00    -0.264 C  
BRANCH  14  15
HETATM   15  N   UNL     1      -9.440  17.887  67.844  1.00  0.00    -0.266 N  
HETATM   16  C   UNL     1      -8.957  17.307  66.520  1.00  0.00    -0.268 C  
HETATM   17  C   UNL     1      -8.363  18.779  68.445  1.00  0.00    -0.342 C  
HETATM   18  C   UNL     1     -10.688  18.737  67.566  1.00  0.00    -0.411 C  
ENDBRANCH  14  15
ENDBRANCH  13  14
ENDBRANCH  12  13
ENDBRANCH  11  12
ENDBRANCH  10  11
ENDBRANCH   9  10
ENDBRANCH   8   9
ENDBRANCH   7   8
ENDBRANCH   6   7
ENDBRANCH   5   6
ENDBRANCH   2   5
TORSDOF 11
ENDMDL
MODEL      258
REMARK 921   NORMALIZED FREE ENERGY PREDICTED BY IDOCK:   -1.86 KCAL/MOL
REMARK 922        TOTAL FREE ENERGY PREDICTED BY IDOCK:   -3.83 KCAL/MOL
REMARK 923 INTER-LIGAND FREE ENERGY PREDICTED BY IDOCK:   -3.21 KCAL/MOL
REMARK 924 INTRA-LIGAND FREE ENERGY PREDICTED BY IDOCK:   -0.61 KCAL/MOL
REMARK 927      BINDING AFFINITY PREDICTED BY RF-SCORE:    0.00 PKD
ROOT
HETATM    1  C   UNL     1      -7.004   2.576  66.032  1.00  0.00    -0.048 C  
HETATM    2  N   UNL     1      -8.001   3.053  64.968  1.00  0.00    -0.082 N  
HETATM    3  C   UNL     1      -9.127   2.034  64.863  1.00  0.00    -0.130 C  
HETATM    4  C   UNL     1      -7.267   3.155  63.640  1.00  0.00    -0.050 C  
ENDROOT
BRANCH   2   5
HETATM    5  C   UNL     1      -8.520   4.408  65.431  1.00  0.00    -0.120 C  
BRANCH   5   6
HETATM    6  C   UNL     1      -9.989   4.415  65.859  1.00  0.00    -0.255 C  
BRANCH   6   7
HETATM    7  C   UNL     1     -10.149   5.123  67.210  1.00  0.00    -0.235 C  
BRANCH   7   8
HETATM    8  C   UNL     1      -9.112   4.690  68.255  1.00  0.00    -0.151 C  
BRANCH   8   9
HETATM    9  C   UNL     1      -9.294   3.241  68.721  1.00  0.00    -0.235 C  
BRANCH   9  10
HETATM   10  C   UNL     1      -8.943   3.053  70.199  1.00  0.00    -0.170 C  
BRANCH  10  11
HETATM   11  C   UNL     1      -9.910   3.790  71.130  1.00  0.00    -0.213 C  
BRANCH  11  12
HETATM   12  C   UNL     1      -9.529   3.674  72.612  1.00  0.00    -0.169 C  
BRANCH  12  13
HETATM   13  C   UNL     1      -9.522   5.019  73.348  1.00  0.00    -0.144 C  
BRANCH  13  14
HETATM   14  C   UNL     1     -10.614   5.933  72.792  1.00  0.00    -0.225 C  
BRANCH  14  15
HETATM   15  N   UNL     1     -10.122   7.311  72.356  1.00  0.00    -0.180 N  
HETATM   16  C   UNL     1      -9.422   7.255  71.004  1.00  0.00    -0.158 C  
HETATM   17  C   UNL     1      -9.196   7.926  73.397  1.00  0.00    -0.286 C  
HETATM   18  C   UNL     1     -11.366   8.200  72.214  1.00  0.00    -0.364 C  
ENDBRANCH  14  15
ENDBRANCH  13  14
ENDBRANCH  12  13
ENDBRANCH  11  12
ENDBRANCH  10  11
ENDBRANCH   9  10
ENDBRANCH   8   9
ENDBRANCH   7   8
ENDBRANCH   6   7
ENDBRANCH   5   6
ENDBRANCH   2   5
TORSDOF 11
ENDMDL
MODEL      259
REMARK 921   NORMALIZED FREE ENERGY PREDICTED BY IDOCK:   -1.84 KCAL/MOL
REMARK 922        TOTAL FREE ENERGY PREDICTED BY IDOCK:   -3.79 KCAL/MOL
REMARK 923 INTER-LIGAND FREE ENERGY PREDICTED BY IDOCK:   -3.36 KCAL/MOL
REMARK 924 INTRA-LIGAND FREE ENERGY PREDICTED BY IDOCK:   -0.43 KCAL/MOL
REMARK 927      BINDING AFFINITY PREDICTED BY RF-SCORE:    0.00 PKD
ROOT
HETATM    1  C   UNL     1      -6.140  13.431  70.056  1.00  0.00    -0.125 C  
HETATM    2  N   UNL     1      -6.417  13.860  68.610  1.00  0.00    -0.085 N  
HETATM    3  C   UNL     1      -5.976  12.741  67.676  1.00  0.00    -0.150 C  
HETATM    4  C   UNL     1      -5.615  15.120  68.324  1.00  0.00    -0.120 C  
ENDROOT
BRANCH   2   5
HETATM    5  C   UNL     1      -7.916  14.110  68.507  1.00  0.00    -0.145 C  
BRANCH   5   6
HETATM    6  C   UNL     1      -8.583  13.491  67.277  1.00  0.00    -0.218 C  
BRANCH   6   7
HETATM    7  C   UNL     1      -9.946  14.146  67.022  1.00  0.00    -0.260 C  
BRANCH   7   8
HETATM    8  C   UNL     1     -10.884  13.292  66.159  1.00  0.00    -0.290 C  
BRANCH   8   9
HETATM    9  C   UNL     1     -10.709  11.786  66.387  1.00  0.00    -0.306 C  
BRANCH   9  10
HETATM   10  C   UNL     1     -10.345  11.037  65.102  1.00  0.00    -0.346 C  
BRANCH  10  11
HETATM   11  C   UNL     1      -8.898  10.535  65.105  1.00  0.00    -0.206 C  
BRANCH  11  12
HETATM   12  C   UNL     1      -8.530   9.758  66.375  1.00  0.00    -0.128 C  
BRANCH  12  13
HETATM   13  C   UNL     1      -9.689   8.928  66.940  1.00  0.00    -0.263 C  
BRANCH  13  14
HETATM   14  C   UNL     1      -9.160   7.865  67.902  1.00  0.00    -0.131 C  
BRANCH  14  15
HETATM   15  N   UNL     1      -9.774   7.916  69.298  1.00  0.00    -0.157 N  
HETATM   16  C   UNL     1     -10.010   9.350  69.756  1.00  0.00    -0.200 C  
HETATM   17  C   UNL     1      -8.909   7.180  70.314  1.00  0.00    -0.148 C  
HETATM   18  C   UNL     1     -11.137   7.213  69.209  1.00  0.00    -0.080 C  
ENDBRANCH  14  15
ENDBRANCH  13  14
ENDBRANCH  12  13
ENDBRANCH  11  12
ENDBRANCH  10  11
ENDBRANCH   9  10
ENDBRANCH   8   9
ENDBRANCH   7   8
ENDBRANCH   6   7
ENDBRANCH   5   6
ENDBRANCH   2   5
TORSDOF 11
ENDMDL
MODEL      260
REMARK 921   NORMALIZED FREE ENERGY PREDICTED BY IDOCK:   -1.74 KCAL/MOL
REMARK 922        TOTAL FREE ENERGY PREDICTED BY IDOCK:   -3.62 KCAL/MOL
REMARK 923 INTER-LIGAND FREE ENERGY PREDICTED BY IDOCK:   -2.96 KCAL/MOL
REMARK 924 INTRA-LIGAND FREE ENERGY PREDICTED BY IDOCK:   -0.66 KCAL/MOL
REMARK 927      BINDING AFFINITY PREDICTED BY RF-SCORE:    0.00 PKD
ROOT
HETATM    1  C   UNL     1      -7.430  10.084  64.950  1.00  0.00    -0.140 C  
HETATM    2  N   UNL     1      -7.816   8.709  64.389  1.00  0.00    -0.130 N  
HETATM    3  C   UNL     1      -6.549   7.885  64.201  1.00  0.00    -0.061 C  
HETATM    4  C   UNL     1      -8.503   8.918  63.048  1.00  0.00    -0.169 C  
ENDROOT
BRANCH   2   5
HETATM    5  C   UNL     1      -8.750   8.068  65.407  1.00  0.00    -0.068 C  
BRANCH   5   6
HETATM    6  C   UNL     1      -8.078   7.057  66.339  1.00  0.00    -0.112 C  
BRANCH   6   7
HETATM    7  C   UNL     1      -9.077   5.971  66.757  1.00  0.00    -0.134 C  
BRANCH   7   8
HETATM    8  C   UNL     1      -8.778   5.360  68.133  1.00  0.00    -0.105 C  
BRANCH   8   9
HETATM    9  C   UNL     1      -9.873   5.642  69.169  1.00  0.00    -0.216 C  
BRANCH   9  10
HETATM   10  C   UNL     1     -10.920   6.634  68.658  1.00  0.00    -0.317 C  
BRANCH  10  11
HETATM   11  C   UNL     1     -11.411   7.586  69.754  1.00  0.00     0.007 C  
BRANCH  11  12
HETATM   12  C   UNL     1     -11.619   6.893  71.107  1.00  0.00    -0.363 C  
BRANCH  12  13
HETATM   13  C   UNL     1     -11.081   7.700  72.295  1.00  0.00    -0.336 C  
BRANCH  13  14
HETATM   14  C   UNL     1     -10.298   6.791  73.242  1.00  0.00    -0.269 C  
BRANCH  14  15
HETATM   15  N   UNL     1      -8.781   6.920  73.130  1.00  0.00    -0.121 N  
HETATM   16  C   UNL     1      -8.374   8.264  72.538  1.00  0.00    -0.174 C  
HETATM   17  C   UNL     1      -8.185   5.787  72.306  1.00  0.00    -0.108 C  
HETATM   18  C   UNL     1      -8.223   6.839  74.558  1.00  0.00    -0.143 C  
ENDBRANCH  14  15
ENDBRANCH  13  14
ENDBRANCH  12  13
ENDBRANCH  11  12
ENDBRANCH  10  11
ENDBRANCH   9  10
ENDBRANCH   8   9
ENDBRANCH   7   8
ENDBRANCH   6   7
ENDBRANCH   5   6
ENDBRANCH   2   5
TORSDOF 11
ENDMDL
MODEL      261
REMARK 921   NORMALIZED FREE ENERGY PREDICTED BY IDOCK:   -1.74 KCAL/MOL
REMARK 922        TOTAL FREE ENERGY PREDICTED BY IDOCK:   -3.62 KCAL/MOL
REMARK 923 INTER-LIGAND FREE ENERGY PREDICTED BY IDOCK:   -3.46 KCAL/MOL
REMARK 924 INTRA-LIGAND FREE ENERGY PREDICTED BY IDOCK:   -0.16 KCAL/MOL
REMARK 927      BINDING AFFINITY PREDICTED BY RF-SCORE:    0.00 PKD
ROOT
HETATM    1  C   UNL     1      -6.737   8.955  69.081  1.00  0.00    -0.051 C  
HETATM    2  N   UNL     1      -8.186   8.464  69.185  1.00  0.00    -0.119 N  
HETATM    3  C   UNL     1      -9.097   9.668  69.381  1.00  0.00    -0.188 C  
HETATM    4  C   UNL     1      -8.288   7.534  70.384  1.00  0.00    -0.128 C  
ENDROOT
BRANCH   2   5
HETATM    5  C   UNL     1      -8.497   7.739  67.881  1.00  0.00    -0.122 C  
BRANCH   5   6
HETATM    6  C   UNL     1      -7.398   7.836  66.821  1.00  0.00    -0.089 C  
BRANCH   6   7
HETATM    7  C   UNL     1      -7.723   8.948  65.815  1.00  0.00    -0.094 C  
BRANCH   7   8
HETATM    8  C   UNL     1      -9.138   8.849  65.229  1.00  0.00    -0.196 C  
BRANCH   8   9
HETATM    9  C   UNL     1     -10.141   9.786  65.911  1.00  0.00    -0.314 C  
BRANCH   9  10
HETATM   10  C   UNL     1      -9.872  11.260  65.597  1.00  0.00    -0.277 C  
BRANCH  10  11
HETATM   11  C   UNL     1      -9.304  12.022  66.799  1.00  0.00    -0.206 C  
BRANCH  11  12
HETATM   12  C   UNL     1     -10.212  13.161  67.276  1.00  0.00    -0.243 C  
BRANCH  12  13
HETATM   13  C   UNL     1      -9.466  14.256  68.049  1.00  0.00    -0.204 C  
BRANCH  13  14
HETATM   14  C   UNL     1     -10.058  15.628  67.729  1.00  0.00    -0.226 C  
BRANCH  14  15
HETATM   15  N   UNL     1      -9.056  16.777  67.787  1.00  0.00    -0.219 N  
HETATM   16  C   UNL     1      -8.131  16.655  68.993  1.00  0.00    -0.199 C  
HETATM   17  C   UNL     1      -9.758  18.128  67.805  1.00  0.00    -0.293 C  
HETATM   18  C   UNL     1      -8.199  16.683  66.516  1.00  0.00    -0.295 C  
ENDBRANCH  14  15
ENDBRANCH  13  14
ENDBRANCH  12  13
ENDBRANCH  11  12
ENDBRANCH  10  11
ENDBRANCH   9  10
ENDBRANCH   8   9
ENDBRANCH   7   8
ENDBRANCH   6   7
ENDBRANCH   5   6
ENDBRANCH   2   5
TORSDOF 11
ENDMDL
MODEL      262
REMARK 921   NORMALIZED FREE ENERGY PREDICTED BY IDOCK:   -1.72 KCAL/MOL
REMARK 922        TOTAL FREE ENERGY PREDICTED BY IDOCK:   -3.59 KCAL/MOL
REMARK 923 INTER-LIGAND FREE ENERGY PREDICTED BY IDOCK:   -3.05 KCAL/MOL
REMARK 924 INTRA-LIGAND FREE ENERGY PREDICTED BY IDOCK:   -0.54 KCAL/MOL
REMARK 927      BINDING AFFINITY PREDICTED BY RF-SCORE:    0.00 PKD
ROOT
HETATM    1  C   UNL     1     -11.836  15.847  70.935  1.00  0.00    -0.417 C  
HETATM    2  N   UNL     1     -11.473  15.365  69.525  1.00  0.00    -0.295 N  
HETATM    3  C   UNL     1      -9.998  14.987  69.503  1.00  0.00    -0.142 C  
HETATM    4  C   UNL     1     -11.730  16.506  68.551  1.00  0.00     0.128 C  
ENDROOT
BRANCH   2   5
HETATM    5  C   UNL     1     -12.359  14.162  69.231  1.00  0.00    -0.169 C  
BRANCH   5   6
HETATM    6  C   UNL     1     -11.640  12.813  69.290  1.00  0.00    -0.372 C  
BRANCH   6   7
HETATM    7  C   UNL     1     -11.481  12.230  67.880  1.00  0.00    -0.390 C  
BRANCH   7   8
HETATM    8  C   UNL     1     -11.092  10.745  67.871  1.00  0.00    -0.369 C  
BRANCH   8   9
HETATM    9  C   UNL     1     -11.012  10.151  66.460  1.00  0.00     0.063 C  
BRANCH   9  10
HETATM   10  C   UNL     1      -9.680   9.445  66.197  1.00  0.00    -0.334 C  
BRANCH  10  11
HETATM   11  C   UNL     1      -8.588   9.864  67.187  1.00  0.00    -0.125 C  
BRANCH  11  12
HETATM   12  C   UNL     1      -7.243   9.172  66.932  1.00  0.00    -0.086 C  
BRANCH  12  13
HETATM   13  C   UNL     1      -6.930   8.057  67.937  1.00  0.00    -0.078 C  
BRANCH  13  14
HETATM   14  C   UNL     1      -6.679   6.739  67.205  1.00  0.00    -0.059 C  
BRANCH  14  15
HETATM   15  N   UNL     1      -7.755   5.679  67.427  1.00  0.00    -0.099 N  
HETATM   16  C   UNL     1      -7.148   4.335  67.811  1.00  0.00    -0.064 C  
HETATM   17  C   UNL     1      -8.640   5.518  66.198  1.00  0.00    -0.129 C  
HETATM   18  C   UNL     1      -8.620   6.165  68.599  1.00  0.00    -0.113 C  
ENDBRANCH  14  15
ENDBRANCH  13  14
ENDBRANCH  12  13
ENDBRANCH  11  12
ENDBRANCH  10  11
ENDBRANCH   9  10
ENDBRANCH   8   9
ENDBRANCH   7   8
ENDBRANCH   6   7
ENDBRANCH   5   6
ENDBRANCH   2   5
TORSDOF 11
ENDMDL
MODEL      263
REMARK 921   NORMALIZED FREE ENERGY PREDICTED BY IDOCK:   -1.71 KCAL/MOL
REMARK 922        TOTAL FREE ENERGY PREDICTED BY IDOCK:   -3.57 KCAL/MOL
REMARK 923 INTER-LIGAND FREE ENERGY PREDICTED BY IDOCK:   -2.84 KCAL/MOL
REMARK 924 INTRA-LIGAND FREE ENERGY PREDICTED BY IDOCK:   -0.73 KCAL/MOL
REMARK 927      BINDING AFFINITY PREDICTED BY RF-SCORE:    0.00 PKD
ROOT
HETATM    1  C   UNL     1      -5.149   9.397  66.099  1.00  0.00    -0.035 C  
HETATM    2  N   UNL     1      -6.039   8.274  66.648  1.00  0.00    -0.052 N  
HETATM    3  C   UNL     1      -5.502   7.847  68.008  1.00  0.00    -0.033 C  
HETATM    4  C   UNL     1      -5.983   7.104  65.678  1.00  0.00    -0.037 C  
ENDROOT
BRANCH   2   5
HETATM    5  C   UNL     1      -7.445   8.846  66.762  1.00  0.00    -0.083 C  
BRANCH   5   6
HETATM    6  C   UNL     1      -8.164   8.517  68.071  1.00  0.00    -0.120 C  
BRANCH   6   7
HETATM    7  C   UNL     1      -8.923   9.745  68.589  1.00  0.00    -0.130 C  
BRANCH   7   8
HETATM    8  C   UNL     1      -8.240  10.430  69.780  1.00  0.00    -0.037 C  
BRANCH   8   9
HETATM    9  C   UNL     1      -6.887  11.055  69.423  1.00  0.00    -0.119 C  
BRANCH   9  10
HETATM   10  C   UNL     1      -6.999  12.095  68.306  1.00  0.00    -0.080 C  
BRANCH  10  11
HETATM   11  C   UNL     1      -7.161  13.520  68.846  1.00  0.00    -0.093 C  
BRANCH  11  12
HETATM   12  C   UNL     1      -8.325  14.281  68.200  1.00  0.00    -0.162 C  
BRANCH  12  13
HETATM   13  C   UNL     1      -8.561  13.907  66.732  1.00  0.00    -0.066 C  
BRANCH  13  14
HETATM   14  C   UNL     1      -9.802  13.025  66.603  1.00  0.00    -0.252 C  
BRANCH  14  15
HETATM   15  N   UNL     1     -11.044  13.753  66.096  1.00  0.00    -0.295 N  
HETATM   16  C   UNL     1     -10.684  14.849  65.100  1.00  0.00    -0.411 C  
HETATM   17  C   UNL     1     -11.853  14.339  67.246  1.00  0.00    -0.413 C  
HETATM   18  C   UNL     1     -11.904  12.710  65.368  1.00  0.00    -0.427 C  
ENDBRANCH  14  15
ENDBRANCH  13  14
ENDBRANCH  12  13
ENDBRANCH  11  12
ENDBRANCH  10  11
ENDBRANCH   9  10
ENDBRANCH   8   9
ENDBRANCH   7   8
ENDBRANCH   6   7
ENDBRANCH   5   6
ENDBRANCH   2   5
TORSDOF 11
ENDMDL
MODEL      264
REMARK 921   NORMALIZED FREE ENERGY PREDICTED BY IDOCK:   -1.66 KCAL/MOL
REMARK 922        TOTAL FREE ENERGY PREDICTED BY IDOCK:   -3.50 KCAL/MOL
REMARK 923 INTER-LIGAND FREE ENERGY PREDICTED BY IDOCK:   -2.65 KCAL/MOL
REMARK 924 INTRA-LIGAND FREE ENERGY PREDICTED BY IDOCK:   -0.85 KCAL/MOL
REMARK 927      BINDING AFFINITY PREDICTED BY RF-SCORE:    0.00 PKD
ROOT
HETATM    1  C   UNL     1      -5.810  13.567  70.243  1.00  0.00    -0.156 C  
HETATM    2  N   UNL     1      -6.274  14.834  69.513  1.00  0.00    -0.110 N  
HETATM    3  C   UNL     1      -6.429  14.515  68.032  1.00  0.00    -0.150 C  
HETATM    4  C   UNL     1      -5.215  15.908  69.705  1.00  0.00    -0.116 C  
ENDROOT
BRANCH   2   5
HETATM    5  C   UNL     1      -7.604  15.235  70.137  1.00  0.00     0.295 C  
BRANCH   5   6
HETATM    6  C   UNL     1      -8.717  15.529  69.129  1.00  0.00    -0.247 C  
BRANCH   6   7
HETATM    7  C   UNL     1     -10.090  15.247  69.752  1.00  0.00    -0.230 C  
BRANCH   7   8
HETATM    8  C   UNL     1     -11.217  15.118  68.718  1.00  0.00    -0.293 C  
BRANCH   8   9
HETATM    9  C   UNL     1     -10.703  14.939  67.285  1.00  0.00    -0.294 C  
BRANCH   9  10
HETATM   10  C   UNL     1     -11.342  15.928  66.307  1.00  0.00     0.225 C  
BRANCH  10  11
HETATM   11  C   UNL     1     -10.302  16.670  65.461  1.00  0.00    -0.268 C  
BRANCH  11  12
HETATM   12  C   UNL     1      -9.955  18.059  66.011  1.00  0.00    -0.221 C  
BRANCH  12  13
HETATM   13  C   UNL     1      -8.454  18.372  65.977  1.00  0.00    -0.037 C  
BRANCH  13  14
HETATM   14  C   UNL     1      -8.180  19.724  66.635  1.00  0.00    -0.323 C  
BRANCH  14  15
HETATM   15  N   UNL     1      -6.733  19.931  67.072  1.00  0.00    -0.205 N  
HETATM   16  C   UNL     1      -6.092  18.625  67.528  1.00  0.00    -0.182 C  
HETATM   17  C   UNL     1      -6.629  20.974  68.177  1.00  0.00    -0.143 C  
HETATM   18  C   UNL     1      -5.965  20.436  65.842  1.00  0.00    -0.194 C  
ENDBRANCH  14  15
ENDBRANCH  13  14
ENDBRANCH  12  13
ENDBRANCH  11  12
ENDBRANCH  10  11
ENDBRANCH   9  10
ENDBRANCH   8   9
ENDBRANCH   7   8
ENDBRANCH   6   7
ENDBRANCH   5   6
ENDBRANCH   2   5
TORSDOF 11
ENDMDL
MODEL      265
REMARK 921   NORMALIZED FREE ENERGY PREDICTED BY IDOCK:   -1.65 KCAL/MOL
REMARK 922        TOTAL FREE ENERGY PREDICTED BY IDOCK:   -3.48 KCAL/MOL
REMARK 923 INTER-LIGAND FREE ENERGY PREDICTED BY IDOCK:   -2.93 KCAL/MOL
REMARK 924 INTRA-LIGAND FREE ENERGY PREDICTED BY IDOCK:   -0.56 KCAL/MOL
REMARK 927      BINDING AFFINITY PREDICTED BY RF-SCORE:    0.00 PKD
ROOT
HETATM    1  C   UNL     1      -7.873   4.561  71.704  1.00  0.00    -0.091 C  
HETATM    2  N   UNL     1      -9.124   4.954  72.499  1.00  0.00    -0.131 N  
HETATM    3  C   UNL     1      -8.925   6.356  73.060  1.00  0.00    -0.129 C  
HETATM    4  C   UNL     1      -9.297   3.960  73.637  1.00  0.00    -0.103 C  
ENDROOT
BRANCH   2   5
HETATM    5  C   UNL     1     -10.294   4.907  71.526  1.00  0.00    -0.158 C  
BRANCH   5   6
HETATM    6  C   UNL     1     -10.695   6.265  70.945  1.00  0.00    -0.314 C  
BRANCH   6   7
HETATM    7  C   UNL     1     -11.166   6.107  69.494  1.00  0.00    -0.482 C  
BRANCH   7   8
HETATM    8  C   UNL     1     -10.515   7.105  68.526  1.00  0.00    -0.229 C  
BRANCH   8   9
HETATM    9  C   UNL     1      -9.447   7.980  69.191  1.00  0.00    -0.155 C  
BRANCH   9  10
HETATM   10  C   UNL     1     -10.014   9.303  69.713  1.00  0.00    -0.213 C  
BRANCH  10  11
HETATM   11  C   UNL     1      -9.019  10.461  69.578  1.00  0.00    -0.127 C  
BRANCH  11  12
HETATM   12  C   UNL     1      -7.704  10.053  68.902  1.00  0.00    -0.089 C  
BRANCH  12  13
HETATM   13  C   UNL     1      -7.473  10.740  67.551  1.00  0.00    -0.093 C  
BRANCH  13  14
HETATM   14  C   UNL     1      -8.809  11.144  66.927  1.00  0.00    -0.157 C  
BRANCH  14  15
HETATM   15  N   UNL     1      -9.151  10.406  65.636  1.00  0.00    -0.167 N  
HETATM   16  C   UNL     1      -7.994   9.531  65.166  1.00  0.00    -0.117 C  
HETATM   17  C   UNL     1      -9.553  11.374  64.531  1.00  0.00    -0.192 C  
HETATM   18  C   UNL     1     -10.344   9.492  65.950  1.00  0.00     0.019 C  
ENDBRANCH  14  15
ENDBRANCH  13  14
ENDBRANCH  12  13
ENDBRANCH  11  12
ENDBRANCH  10  11
ENDBRANCH   9  10
ENDBRANCH   8   9
ENDBRANCH   7   8
ENDBRANCH   6   7
ENDBRANCH   5   6
ENDBRANCH   2   5
TORSDOF 11
ENDMDL
MODEL      266
REMARK 921   NORMALIZED FREE ENERGY PREDICTED BY IDOCK:   -1.65 KCAL/MOL
REMARK 922        TOTAL FREE ENERGY PREDICTED BY IDOCK:   -3.48 KCAL/MOL
REMARK 923 INTER-LIGAND FREE ENERGY PREDICTED BY IDOCK:   -2.83 KCAL/MOL
REMARK 924 INTRA-LIGAND FREE ENERGY PREDICTED BY IDOCK:   -0.65 KCAL/MOL
REMARK 927      BINDING AFFINITY PREDICTED BY RF-SCORE:    0.00 PKD
ROOT
HETATM    1  C   UNL     1      -6.889   4.962  66.711  1.00  0.00    -0.062 C  
HETATM    2  N   UNL     1      -8.218   4.432  66.158  1.00  0.00    -0.102 N  
HETATM    3  C   UNL     1      -8.854   3.525  67.203  1.00  0.00    -0.131 C  
HETATM    4  C   UNL     1      -7.925   3.640  64.893  1.00  0.00    -0.090 C  
ENDROOT
BRANCH   2   5
HETATM    5  C   UNL     1      -9.090   5.648  65.873  1.00  0.00    -0.148 C  
BRANCH   5   6
HETATM    6  C   UNL     1      -8.323   6.884  65.400  1.00  0.00    -0.122 C  
BRANCH   6   7
HETATM    7  C   UNL     1      -9.052   8.163  65.835  1.00  0.00    -0.183 C  
BRANCH   7   8
HETATM    8  C   UNL     1     -10.047   7.941  66.982  1.00  0.00    -0.347 C  
BRANCH   8   9
HETATM    9  C   UNL     1     -10.627   9.247  67.537  1.00  0.00    -0.329 C  
BRANCH   9  10
HETATM   10  C   UNL     1     -10.576   9.306  69.066  1.00  0.00    -0.225 C  
BRANCH  10  11
HETATM   11  C   UNL     1     -11.073   8.013  69.720  1.00  0.00    -0.067 C  
BRANCH  11  12
HETATM   12  C   UNL     1     -10.571   7.833  71.158  1.00  0.00    -0.235 C  
BRANCH  12  13
HETATM   13  C   UNL     1      -9.065   7.557  71.250  1.00  0.00    -0.147 C  
BRANCH  13  14
HETATM   14  C   UNL     1      -8.443   8.381  72.376  1.00  0.00    -0.172 C  
BRANCH  14  15
HETATM   15  N   UNL     1      -7.695   7.558  73.421  1.00  0.00    -0.097 N  
HETATM   16  C   UNL     1      -8.613   6.554  74.108  1.00  0.00    -0.135 C  
HETATM   17  C   UNL     1      -7.029   8.451  74.460  1.00  0.00    -0.176 C  
HETATM   18  C   UNL     1      -6.606   6.776  72.672  1.00  0.00    -0.062 C  
ENDBRANCH  14  15
ENDBRANCH  13  14
ENDBRANCH  12  13
ENDBRANCH  11  12
ENDBRANCH  10  11
ENDBRANCH   9  10
ENDBRANCH   8   9
ENDBRANCH   7   8
ENDBRANCH   6   7
ENDBRANCH   5   6
ENDBRANCH   2   5
TORSDOF 11
ENDMDL
MODEL      267
REMARK 921   NORMALIZED FREE ENERGY PREDICTED BY IDOCK:   -1.64 KCAL/MOL
REMARK 922        TOTAL FREE ENERGY PREDICTED BY IDOCK:   -3.45 KCAL/MOL
REMARK 923 INTER-LIGAND FREE ENERGY PREDICTED BY IDOCK:   -2.79 KCAL/MOL
REMARK 924 INTRA-LIGAND FREE ENERGY PREDICTED BY IDOCK:   -0.67 KCAL/MOL
REMARK 927      BINDING AFFINITY PREDICTED BY RF-SCORE:    0.00 PKD
ROOT
HETATM    1  C   UNL     1      -6.120   9.981  64.994  1.00  0.00    -0.113 C  
HETATM    2  N   UNL     1      -6.702   8.575  65.188  1.00  0.00    -0.063 N  
HETATM    3  C   UNL     1      -6.269   8.052  66.551  1.00  0.00    -0.050 C  
HETATM    4  C   UNL     1      -6.154   7.677  64.089  1.00  0.00    -0.049 C  
ENDROOT
BRANCH   2   5
HETATM    5  C   UNL     1      -8.216   8.713  65.101  1.00  0.00    -0.151 C  
BRANCH   5   6
HETATM    6  C   UNL     1      -8.961   8.376  66.394  1.00  0.00    -0.207 C  
BRANCH   6   7
HETATM    7  C   UNL     1      -9.893   9.528  66.789  1.00  0.00    -0.277 C  
BRANCH   7   8
HETATM    8  C   UNL     1      -9.596  10.109  68.178  1.00  0.00    -0.151 C  
BRANCH   8   9
HETATM    9  C   UNL     1      -8.181  10.688  68.299  1.00  0.00    -0.120 C  
BRANCH   9  10
HETATM   10  C   UNL     1      -7.938  11.847  67.329  1.00  0.00    -0.171 C  
BRANCH  10  11
HETATM   11  C   UNL     1      -6.953  12.880  67.886  1.00  0.00    -0.122 C  
BRANCH  11  12
HETATM   12  C   UNL     1      -7.633  13.983  68.707  1.00  0.00    -0.113 C  
BRANCH  12  13
HETATM   13  C   UNL     1      -8.813  14.643  67.984  1.00  0.00    -0.169 C  
BRANCH  13  14
HETATM   14  C   UNL     1     -10.137  14.129  68.550  1.00  0.00    -0.243 C  
BRANCH  14  15
HETATM   15  N   UNL     1     -11.098  15.224  69.001  1.00  0.00    -0.245 N  
HETATM   16  C   UNL     1     -11.419  16.191  67.867  1.00  0.00    -0.103 C  
HETATM   17  C   UNL     1     -10.548  15.990  70.197  1.00  0.00    -0.266 C  
HETATM   18  C   UNL     1     -12.402  14.527  69.417  1.00  0.00    -0.177 C  
ENDBRANCH  14  15
ENDBRANCH  13  14
ENDBRANCH  12  13
ENDBRANCH  11  12
ENDBRANCH  10  11
ENDBRANCH   9  10
ENDBRANCH   8   9
ENDBRANCH   7   8
ENDBRANCH   6   7
ENDBRANCH   5   6
ENDBRANCH   2   5
TORSDOF 11
ENDMDL
MODEL      268
REMARK 921   NORMALIZED FREE ENERGY PREDICTED BY IDOCK:   -1.62 KCAL/MOL
REMARK 922        TOTAL FREE ENERGY PREDICTED BY IDOCK:   -3.42 KCAL/MOL
REMARK 923 INTER-LIGAND FREE ENERGY PREDICTED BY IDOCK:   -2.97 KCAL/MOL
REMARK 924 INTRA-LIGAND FREE ENERGY PREDICTED BY IDOCK:   -0.45 KCAL/MOL
REMARK 927      BINDING AFFINITY PREDICTED BY RF-SCORE:    0.00 PKD
ROOT
HETATM    1  C   UNL     1      -6.181   8.439  73.934  1.00  0.00    -0.121 C  
HETATM    2  N   UNL     1      -7.021   7.884  72.777  1.00  0.00    -0.077 N  
HETATM    3  C   UNL     1      -6.731   6.396  72.633  1.00  0.00    -0.065 C  
HETATM    4  C   UNL     1      -6.620   8.616  71.505  1.00  0.00    -0.075 C  
ENDROOT
BRANCH   2   5
HETATM    5  C   UNL     1      -8.480   8.134  73.135  1.00  0.00    -0.216 C  
BRANCH   5   6
HETATM    6  C   UNL     1      -9.338   8.661  71.983  1.00  0.00    -0.362 C  
BRANCH   6   7
HETATM    7  C   UNL     1     -10.707   7.971  71.978  1.00  0.00    -0.319 C  
BRANCH   7   8
HETATM    8  C   UNL     1     -10.912   7.023  70.789  1.00  0.00    -0.285 C  
BRANCH   8   9
HETATM    9  C   UNL     1     -10.513   7.645  69.446  1.00  0.00    -0.220 C  
BRANCH   9  10
HETATM   10  C   UNL     1      -9.102   7.244  69.010  1.00  0.00    -0.133 C  
BRANCH  10  11
HETATM   11  C   UNL     1      -9.083   5.929  68.223  1.00  0.00    -0.118 C  
BRANCH  11  12
HETATM   12  C   UNL     1     -10.186   5.845  67.161  1.00  0.00    -0.247 C  
BRANCH  12  13
HETATM   13  C   UNL     1     -10.265   4.478  66.469  1.00  0.00    -0.224 C  
BRANCH  13  14
HETATM   14  C   UNL     1      -9.020   3.651  66.788  1.00  0.00    -0.142 C  
BRANCH  14  15
HETATM   15  N   UNL     1      -8.307   3.086  65.562  1.00  0.00    -0.095 N  
HETATM   16  C   UNL     1      -8.794   1.681  65.227  1.00  0.00    -0.119 C  
HETATM   17  C   UNL     1      -6.795   3.081  65.751  1.00  0.00    -0.048 C  
HETATM   18  C   UNL     1      -8.655   4.007  64.383  1.00  0.00    -0.107 C  
ENDBRANCH  14  15
ENDBRANCH  13  14
ENDBRANCH  12  13
ENDBRANCH  11  12
ENDBRANCH  10  11
ENDBRANCH   9  10
ENDBRANCH   8   9
ENDBRANCH   7   8
ENDBRANCH   6   7
ENDBRANCH   5   6
ENDBRANCH   2   5
TORSDOF 11
ENDMDL
MODEL      269
REMARK 921   NORMALIZED FREE ENERGY PREDICTED BY IDOCK:   -1.60 KCAL/MOL
REMARK 922        TOTAL FREE ENERGY PREDICTED BY IDOCK:   -3.39 KCAL/MOL
REMARK 923 INTER-LIGAND FREE ENERGY PREDICTED BY IDOCK:   -2.81 KCAL/MOL
REMARK 924 INTRA-LIGAND FREE ENERGY PREDICTED BY IDOCK:   -0.58 KCAL/MOL
REMARK 927      BINDING AFFINITY PREDICTED BY RF-SCORE:    0.00 PKD
ROOT
HETATM    1  C   UNL     1     -10.804  11.321  63.445  1.00  0.00    -0.230 C  
HETATM    2  N   UNL     1     -10.896  12.155  64.729  1.00  0.00    -0.294 N  
HETATM    3  C   UNL     1     -12.353  12.534  64.961  1.00  0.00    -0.453 C  
HETATM    4  C   UNL     1     -10.057  13.410  64.543  1.00  0.00    -0.192 C  
ENDROOT
BRANCH   2   5
HETATM    5  C   UNL     1     -10.363  11.283  65.857  1.00  0.00    -0.253 C  
BRANCH   5   6
HETATM    6  C   UNL     1      -9.527  10.087  65.397  1.00  0.00    -0.310 C  
BRANCH   6   7
HETATM    7  C   UNL     1      -8.877   9.394  66.602  1.00  0.00    -0.151 C  
BRANCH   7   8
HETATM    8  C   UNL     1      -7.396   9.055  66.388  1.00  0.00    -0.088 C  
BRANCH   8   9
HETATM    9  C   UNL     1      -6.981   9.069  64.913  1.00  0.00    -0.077 C  
BRANCH   9  10
HETATM   10  C   UNL     1      -6.105   7.870  64.540  1.00  0.00    -0.048 C  
BRANCH  10  11
HETATM   11  C   UNL     1      -6.089   7.601  63.032  1.00  0.00    -0.055 C  
BRANCH  11  12
HETATM   12  C   UNL     1      -6.806   6.302  62.642  1.00  0.00    -0.041 C  
BRANCH  12  13
HETATM   13  C   UNL     1      -7.800   5.812  63.701  1.00  0.00    -0.106 C  
BRANCH  13  14
HETATM   14  C   UNL     1      -7.391   4.431  64.213  1.00  0.00    -0.069 C  
BRANCH  14  15
HETATM   15  N   UNL     1      -8.547   3.447  64.365  1.00  0.00    -0.093 N  
HETATM   16  C   UNL     1      -9.492   3.860  65.488  1.00  0.00    -0.171 C  
HETATM   17  C   UNL     1      -8.044   2.030  64.605  1.00  0.00    -0.074 C  
HETATM   18  C   UNL     1      -9.332   3.476  63.046  1.00  0.00    -0.098 C  
ENDBRANCH  14  15
ENDBRANCH  13  14
ENDBRANCH  12  13
ENDBRANCH  11  12
ENDBRANCH  10  11
ENDBRANCH   9  10
ENDBRANCH   8   9
ENDBRANCH   7   8
ENDBRANCH   6   7
ENDBRANCH   5   6
ENDBRANCH   2   5
TORSDOF 11
ENDMDL
MODEL      270
REMARK 921   NORMALIZED FREE ENERGY PREDICTED BY IDOCK:   -1.50 KCAL/MOL
REMARK 922        TOTAL FREE ENERGY PREDICTED BY IDOCK:   -3.23 KCAL/MOL
REMARK 923 INTER-LIGAND FREE ENERGY PREDICTED BY IDOCK:   -2.78 KCAL/MOL
REMARK 924 INTRA-LIGAND FREE ENERGY PREDICTED BY IDOCK:   -0.45 KCAL/MOL
REMARK 927      BINDING AFFINITY PREDICTED BY RF-SCORE:    0.00 PKD
ROOT
HETATM    1  C   UNL     1      -6.217  14.359  70.215  1.00  0.00    -0.172 C  
HETATM    2  N   UNL     1      -6.728  15.280  69.100  1.00  0.00    -0.125 N  
HETATM    3  C   UNL     1      -6.018  14.916  67.803  1.00  0.00    -0.112 C  
HETATM    4  C   UNL     1      -6.406  16.716  69.483  1.00  0.00    -0.227 C  
ENDROOT
BRANCH   2   5
HETATM    5  C   UNL     1      -8.230  15.047  68.995  1.00  0.00    -0.187 C  
BRANCH   5   6
HETATM    6  C   UNL     1      -8.679  14.360  67.704  1.00  0.00    -0.191 C  
BRANCH   6   7
HETATM    7  C   UNL     1      -9.598  13.174  68.022  1.00  0.00    -0.220 C  
BRANCH   7   8
HETATM    8  C   UNL     1      -9.624  12.106  66.920  1.00  0.00    -0.210 C  
BRANCH   8   9
HETATM    9  C   UNL     1      -8.566  11.014  67.113  1.00  0.00    -0.136 C  
BRANCH   9  10
HETATM   10  C   UNL     1      -8.144  10.860  68.576  1.00  0.00    -0.137 C  
BRANCH  10  11
HETATM   11  C   UNL     1      -7.538   9.483  68.870  1.00  0.00    -0.075 C  
BRANCH  11  12
HETATM   12  C   UNL     1      -8.523   8.329  68.646  1.00  0.00    -0.125 C  
BRANCH  12  13
HETATM   13  C   UNL     1      -7.848   6.954  68.580  1.00  0.00    -0.118 C  
BRANCH  13  14
HETATM   14  C   UNL     1      -8.249   6.228  67.296  1.00  0.00    -0.109 C  
BRANCH  14  15
HETATM   15  N   UNL     1      -9.128   5.000  67.514  1.00  0.00    -0.114 N  
HETATM   16  C   UNL     1      -9.974   5.131  68.775  1.00  0.00    -0.166 C  
HETATM   17  C   UNL     1      -8.297   3.725  67.575  1.00  0.00    -0.094 C  
HETATM   18  C   UNL     1     -10.077   4.914  66.309  1.00  0.00    -0.257 C  
ENDBRANCH  14  15
ENDBRANCH  13  14
ENDBRANCH  12  13
ENDBRANCH  11  12
ENDBRANCH  10  11
ENDBRANCH   9  10
ENDBRANCH   8   9
ENDBRANCH   7   8
ENDBRANCH   6   7
ENDBRANCH   5   6
ENDBRANCH   2   5
TORSDOF 11
ENDMDL
MODEL      271
REMARK 921   NORMALIZED FREE ENERGY PREDICTED BY IDOCK:   -1.42 KCAL/MOL
REMARK 922        TOTAL FREE ENERGY PREDICTED BY IDOCK:   -3.11 KCAL/MOL
REMARK 923 INTER-LIGAND FREE ENERGY PREDICTED BY IDOCK:   -2.59 KCAL/MOL
REMARK 924 INTRA-LIGAND FREE ENERGY PREDICTED BY IDOCK:   -0.52 KCAL/MOL
REMARK 927      BINDING AFFINITY PREDICTED BY RF-SCORE:    0.00 PKD
ROOT
HETATM    1  C   UNL     1      -5.463   9.305  71.213  1.00  0.00    -0.055 C  
HETATM    2  N   UNL     1      -6.319   8.094  70.824  1.00  0.00    -0.036 N  
HETATM    3  C   UNL     1      -7.567   8.078  71.697  1.00  0.00    -0.083 C  
HETATM    4  C   UNL     1      -5.501   6.835  71.066  1.00  0.00    -0.027 C  
ENDROOT
BRANCH   2   5
HETATM    5  C   UNL     1      -6.673   8.262  69.352  1.00  0.00    -0.042 C  
BRANCH   5   6
HETATM    6  C   UNL     1      -6.374   9.649  68.780  1.00  0.00    -0.046 C  
BRANCH   6   7
HETATM    7  C   UNL     1      -7.673  10.444  68.599  1.00  0.00    -0.101 C  
BRANCH   7   8
HETATM    8  C   UNL     1      -8.038  10.694  67.129  1.00  0.00    -0.121 C  
BRANCH   8   9
HETATM    9  C   UNL     1      -9.455  11.250  66.946  1.00  0.00    -0.193 C  
BRANCH   9  10
HETATM   10  C   UNL     1      -9.568  12.716  67.368  1.00  0.00    -0.194 C  
BRANCH  10  11
HETATM   11  C   UNL     1      -8.738  13.648  66.479  1.00  0.00     0.089 C  
BRANCH  11  12
HETATM   12  C   UNL     1      -7.863  14.623  67.276  1.00  0.00    -0.213 C  
BRANCH  12  13
HETATM   13  C   UNL     1      -8.604  15.894  67.709  1.00  0.00    -0.164 C  
BRANCH  13  14
HETATM   14  C   UNL     1      -8.689  16.880  66.544  1.00  0.00    -0.269 C  
BRANCH  14  15
HETATM   15  N   UNL     1      -8.149  18.273  66.856  1.00  0.00    -0.237 N  
HETATM   16  C   UNL     1      -7.555  18.344  68.258  1.00  0.00    -0.286 C  
HETATM   17  C   UNL     1      -9.227  19.337  66.693  1.00  0.00    -0.338 C  
HETATM   18  C   UNL     1      -7.026  18.550  65.847  1.00  0.00    -0.273 C  
ENDBRANCH  14  15
ENDBRANCH  13  14
ENDBRANCH  12  13
ENDBRANCH  11  12
ENDBRANCH  10  11
ENDBRANCH   9  10
ENDBRANCH   8   9
ENDBRANCH   7   8
ENDBRANCH   6   7
ENDBRANCH   5   6
ENDBRANCH   2   5
TORSDOF 11
ENDMDL
MODEL      272
REMARK 921   NORMALIZED FREE ENERGY PREDICTED BY IDOCK:   -1.42 KCAL/MOL
REMARK 922        TOTAL FREE ENERGY PREDICTED BY IDOCK:   -3.10 KCAL/MOL
REMARK 923 INTER-LIGAND FREE ENERGY PREDICTED BY IDOCK:   -2.63 KCAL/MOL
REMARK 924 INTRA-LIGAND FREE ENERGY PREDICTED BY IDOCK:   -0.46 KCAL/MOL
REMARK 927      BINDING AFFINITY PREDICTED BY RF-SCORE:    0.00 PKD
ROOT
HETATM    1  C   UNL     1     -11.249  11.584  64.119  1.00  0.00    -0.314 C  
HETATM    2  N   UNL     1     -11.306  12.475  65.366  1.00  0.00    -0.313 N  
HETATM    3  C   UNL     1     -12.742  12.941  65.567  1.00  0.00    -0.145 C  
HETATM    4  C   UNL     1     -10.399  13.674  65.136  1.00  0.00    -0.364 C  
ENDROOT
BRANCH   2   5
HETATM    5  C   UNL     1     -10.830  11.623  66.535  1.00  0.00    -0.284 C  
BRANCH   5   6
HETATM    6  C   UNL     1     -10.069  10.358  66.133  1.00  0.00    -0.299 C  
BRANCH   6   7
HETATM    7  C   UNL     1      -9.472   9.678  67.371  1.00  0.00    -0.170 C  
BRANCH   7   8
HETATM    8  C   UNL     1      -7.942   9.561  67.327  1.00  0.00    -0.106 C  
BRANCH   8   9
HETATM    9  C   UNL     1      -7.440   8.639  66.210  1.00  0.00    -0.090 C  
BRANCH   9  10
HETATM   10  C   UNL     1      -6.341   7.686  66.686  1.00  0.00    -0.046 C  
BRANCH  10  11
HETATM   11  C   UNL     1      -6.183   6.467  65.771  1.00  0.00    -0.038 C  
BRANCH  11  12
HETATM   12  C   UNL     1      -6.632   5.156  66.429  1.00  0.00    -0.049 C  
BRANCH  12  13
HETATM   13  C   UNL     1      -7.589   5.361  67.609  1.00  0.00    -0.088 C  
BRANCH  13  14
HETATM   14  C   UNL     1      -6.977   4.799  68.892  1.00  0.00    -0.052 C  
BRANCH  14  15
HETATM   15  N   UNL     1      -7.951   4.010  69.762  1.00  0.00    -0.055 N  
HETATM   16  C   UNL     1      -9.019   4.911  70.370  1.00  0.00    -0.112 C  
HETATM   17  C   UNL     1      -7.223   3.251  70.864  1.00  0.00    -0.033 C  
HETATM   18  C   UNL     1      -8.647   2.997  68.842  1.00  0.00    -0.074 C  
ENDBRANCH  14  15
ENDBRANCH  13  14
ENDBRANCH  12  13
ENDBRANCH  11  12
ENDBRANCH  10  11
ENDBRANCH   9  10
ENDBRANCH   8   9
ENDBRANCH   7   8
ENDBRANCH   6   7
ENDBRANCH   5   6
ENDBRANCH   2   5
TORSDOF 11
ENDMDL
MODEL      273
REMARK 921   NORMALIZED FREE ENERGY PREDICTED BY IDOCK:   -1.21 KCAL/MOL
REMARK 922        TOTAL FREE ENERGY PREDICTED BY IDOCK:   -2.75 KCAL/MOL
REMARK 923 INTER-LIGAND FREE ENERGY PREDICTED BY IDOCK:   -3.94 KCAL/MOL
REMARK 924 INTRA-LIGAND FREE ENERGY PREDICTED BY IDOCK:    1.19 KCAL/MOL
REMARK 927      BINDING AFFINITY PREDICTED BY RF-SCORE:    0.00 PKD
ROOT
HETATM    1  C   UNL     1      -8.490  16.693  67.229  1.00  0.00    -0.194 C  
HETATM    2  N   UNL     1      -9.200  15.338  67.123  1.00  0.00    -0.201 N  
HETATM    3  C   UNL     1      -9.967  15.087  68.414  1.00  0.00    -0.225 C  
HETATM    4  C   UNL     1      -8.144  14.261  66.928  1.00  0.00     0.083 C  
ENDROOT
BRANCH   2   5
HETATM    5  C   UNL     1     -10.140  15.429  65.928  1.00  0.00    -0.345 C  
BRANCH   5   6
HETATM    6  C   UNL     1     -10.952  14.161  65.658  1.00  0.00    -0.308 C  
BRANCH   6   7
HETATM    7  C   UNL     1     -10.178  12.922  66.123  1.00  0.00    -0.286 C  
BRANCH   7   8
HETATM    8  C   UNL     1     -11.057  11.878  66.824  1.00  0.00    -0.359 C  
BRANCH   8   9
HETATM    9  C   UNL     1     -10.254  10.892  67.682  1.00  0.00    -0.214 C  
BRANCH   9  10
HETATM   10  C   UNL     1     -11.032   9.608  67.980  1.00  0.00    -0.197 C  
BRANCH  10  11
HETATM   11  C   UNL     1     -10.134   8.367  67.991  1.00  0.00    -0.245 C  
BRANCH  11  12
HETATM   12  C   UNL     1     -10.709   7.198  67.182  1.00  0.00    -0.422 C  
BRANCH  12  13
HETATM   13  C   UNL     1     -10.203   5.826  67.646  1.00  0.00    -0.236 C  
BRANCH  13  14
HETATM   14  C   UNL     1      -9.184   5.992  68.773  1.00  0.00    -0.123 C  
BRANCH  14  15
HETATM   15  N   UNL     1      -9.625   5.410  70.113  1.00  0.00    -0.166 N  
HETATM   16  C   UNL     1     -10.944   6.014  70.580  1.00  0.00    -0.307 C  
HETATM   17  C   UNL     1      -8.557   5.603  71.182  1.00  0.00    -0.127 C  
HETATM   18  C   UNL     1      -9.839   3.906  69.895  1.00  0.00    -0.066 C  
ENDBRANCH  14  15
ENDBRANCH  13  14
ENDBRANCH  12  13
ENDBRANCH  11  12
ENDBRANCH  10  11
ENDBRANCH   9  10
ENDBRANCH   8   9
ENDBRANCH   7   8
ENDBRANCH   6   7
ENDBRANCH   5   6
ENDBRANCH   2   5
TORSDOF 11
ENDMDL
MODEL      274
REMARK 921   NORMALIZED FREE ENERGY PREDICTED BY IDOCK:   -0.87 KCAL/MOL
REMARK 922        TOTAL FREE ENERGY PREDICTED BY IDOCK:   -2.19 KCAL/MOL
REMARK 923 INTER-LIGAND FREE ENERGY PREDICTED BY IDOCK:   -4.30 KCAL/MOL
REMARK 924 INTRA-LIGAND FREE ENERGY PREDICTED BY IDOCK:    2.11 KCAL/MOL
REMARK 927      BINDING AFFINITY PREDICTED BY RF-SCORE:    0.00 PKD
ROOT
HETATM    1  C   UNL     1      -7.840  17.359  66.905  1.00  0.00    -0.226 C  
HETATM    2  N   UNL     1      -9.026  16.393  67.014  1.00  0.00    -0.204 N  
HETATM    3  C   UNL     1      -9.849  16.766  68.240  1.00  0.00    -0.257 C  
HETATM    4  C   UNL     1      -8.478  14.982  67.167  1.00  0.00    -0.218 C  
ENDROOT
BRANCH   2   5
HETATM    5  C   UNL     1      -9.836  16.548  65.734  1.00  0.00    -0.243 C  
BRANCH   5   6
HETATM    6  C   UNL     1     -10.574  15.283  65.289  1.00  0.00    -0.438 C  
BRANCH   6   7
HETATM    7  C   UNL     1     -10.097  14.073  66.102  1.00  0.00    -0.319 C  
BRANCH   7   8
HETATM    8  C   UNL     1     -10.312  12.732  65.388  1.00  0.00    -0.310 C  
BRANCH   8   9
HETATM    9  C   UNL     1     -10.356  11.538  66.348  1.00  0.00    -0.277 C  
BRANCH   9  10
HETATM   10  C   UNL     1     -10.265  10.196  65.617  1.00  0.00    -0.288 C  
BRANCH  10  11
HETATM   11  C   UNL     1      -9.535   9.129  66.439  1.00  0.00    -0.288 C  
BRANCH  11  12
HETATM   12  C   UNL     1      -8.684   8.183  65.582  1.00  0.00    -0.176 C  
BRANCH  12  13
HETATM   13  C   UNL     1      -8.224   6.927  66.332  1.00  0.00    -0.117 C  
BRANCH  13  14
HETATM   14  C   UNL     1      -8.787   6.922  67.753  1.00  0.00    -0.119 C  
BRANCH  14  15
HETATM   15  N   UNL     1      -9.826   5.835  68.015  1.00  0.00    -0.124 N  
HETATM   16  C   UNL     1     -10.266   5.155  66.724  1.00  0.00    -0.253 C  
HETATM   17  C   UNL     1     -11.039   6.391  68.750  1.00  0.00    -0.326 C  
HETATM   18  C   UNL     1      -9.150   4.781  68.904  1.00  0.00    -0.115 C  
ENDBRANCH  14  15
ENDBRANCH  13  14
ENDBRANCH  12  13
ENDBRANCH  11  12
ENDBRANCH  10  11
ENDBRANCH   9  10
ENDBRANCH   8   9
ENDBRANCH   7   8
ENDBRANCH   6   7
ENDBRANCH   5   6
ENDBRANCH   2   5
TORSDOF 11
ENDMDL
MODEL      275
REMARK 921   NORMALIZED FREE ENERGY PREDICTED BY IDOCK:   -0.23 KCAL/MOL
REMARK 922        TOTAL FREE ENERGY PREDICTED BY IDOCK:   -1.15 KCAL/MOL
REMARK 923 INTER-LIGAND FREE ENERGY PREDICTED BY IDOCK:   -3.44 KCAL/MOL
REMARK 924 INTRA-LIGAND FREE ENERGY PREDICTED BY IDOCK:    2.29 KCAL/MOL
REMARK 927      BINDING AFFINITY PREDICTED BY RF-SCORE:    0.00 PKD
ROOT
HETATM    1  C   UNL     1      -7.767  17.289  66.998  1.00  0.00    -0.197 C  
HETATM    2  N   UNL     1      -8.960  16.394  67.359  1.00  0.00    -0.190 N  
HETATM    3  C   UNL     1      -9.471  16.794  68.736  1.00  0.00    -0.259 C  
HETATM    4  C   UNL     1      -8.481  14.950  67.382  1.00  0.00    -0.195 C  
ENDROOT
BRANCH   2   5
HETATM    5  C   UNL     1     -10.017  16.620  66.286  1.00  0.00    -0.320 C  
BRANCH   5   6
HETATM    6  C   UNL     1     -10.716  15.348  65.802  1.00  0.00    -0.360 C  
BRANCH   6   7
HETATM    7  C   UNL     1     -10.042  14.107  66.401  1.00  0.00    -0.299 C  
BRANCH   7   8
HETATM    8  C   UNL     1     -10.287  12.826  65.591  1.00  0.00    -0.296 C  
BRANCH   8   9
HETATM    9  C   UNL     1     -10.211  11.552  66.441  1.00  0.00    -0.261 C  
BRANCH   9  10
HETATM   10  C   UNL     1     -10.405  10.282  65.610  1.00  0.00    -0.232 C  
BRANCH  10  11
HETATM   11  C   UNL     1      -9.572   9.107  66.131  1.00  0.00    -0.333 C  
BRANCH  11  12
HETATM   12  C   UNL     1      -8.451   9.537  67.085  1.00  0.00    -0.131 C  
BRANCH  12  13
HETATM   13  C   UNL     1      -7.471   8.407  67.425  1.00  0.00    -0.093 C  
BRANCH  13  14
HETATM   14  C   UNL     1      -7.720   7.200  66.520  1.00  0.00    -0.100 C  
BRANCH  14  15
HETATM   15  N   UNL     1      -6.612   6.933  65.506  1.00  0.00    -0.050 N  
HETATM   16  C   UNL     1      -5.591   8.064  65.479  1.00  0.00    -0.036 C  
HETATM   17  C   UNL     1      -7.177   6.709  64.110  1.00  0.00    -0.067 C  
HETATM   18  C   UNL     1      -5.894   5.653  65.960  1.00  0.00    -0.018 C  
ENDBRANCH  14  15
ENDBRANCH  13  14
ENDBRANCH  12  13
ENDBRANCH  11  12
ENDBRANCH  10  11
ENDBRANCH   9  10
ENDBRANCH   8   9
ENDBRANCH   7   8
ENDBRANCH   6   7
ENDBRANCH   5   6
ENDBRANCH   2   5
TORSDOF 11
ENDMDL
MODEL      276
REMARK 921   NORMALIZED FREE ENERGY PREDICTED BY IDOCK:   -0.12 KCAL/MOL
REMARK 922        TOTAL FREE ENERGY PREDICTED BY IDOCK:   -0.97 KCAL/MOL
REMARK 923 INTER-LIGAND FREE ENERGY PREDICTED BY IDOCK:   -0.81 KCAL/MOL
REMARK 924 INTRA-LIGAND FREE ENERGY PREDICTED BY IDOCK:   -0.16 KCAL/MOL
REMARK 927      BINDING AFFINITY PREDICTED BY RF-SCORE:    0.00 PKD
ROOT
HETATM    1  C   UNL     1      -6.159  13.550  68.986  1.00  0.00    -0.086 C  
HETATM    2  N   UNL     1      -7.372  12.978  68.241  1.00  0.00    -0.106 N  
HETATM    3  C   UNL     1      -7.557  13.752  66.942  1.00  0.00     0.477 C  
HETATM    4  C   UNL     1      -8.598  13.147  69.125  1.00  0.00     0.649 C  
ENDROOT
BRANCH   2   5
HETATM    5  C   UNL     1      -7.068  11.510  67.973  1.00  0.00    -0.079 C  
BRANCH   5   6
HETATM    6  C   UNL     1      -7.696  10.952  66.694  1.00  0.00    -0.146 C  
BRANCH   6   7
HETATM    7  C   UNL     1      -8.990  10.196  67.020  1.00  0.00    -0.148 C  
BRANCH   7   8
HETATM    8  C   UNL     1      -9.116   8.853  66.288  1.00  0.00    -0.236 C  
BRANCH   8   9
HETATM    9  C   UNL     1      -7.861   8.481  65.490  1.00  0.00    -0.104 C  
BRANCH   9  10
HETATM   10  C   UNL     1      -6.845   7.699  66.326  1.00  0.00    -0.062 C  
BRANCH  10  11
HETATM   11  C   UNL     1      -7.339   6.294  66.687  1.00  0.00    -0.078 C  
BRANCH  11  12
HETATM   12  C   UNL     1      -7.990   6.220  68.073  1.00  0.00    -0.108 C  
BRANCH  12  13
HETATM   13  C   UNL     1      -9.118   5.185  68.164  1.00  0.00    -0.125 C  
BRANCH  13  14
HETATM   14  C   UNL     1      -9.983   5.451  69.395  1.00  0.00    -0.210 C  
BRANCH  14  15
HETATM   15  N   UNL     1      -9.421   4.884  70.696  1.00  0.00    -0.161 N  
HETATM   16  C   UNL     1     -10.510   4.705  71.747  1.00  0.00    -0.079 C  
HETATM   17  C   UNL     1      -8.304   5.760  71.248  1.00  0.00    -0.127 C  
HETATM   18  C   UNL     1      -8.845   3.500  70.364  1.00  0.00    -0.082 C  
ENDBRANCH  14  15
ENDBRANCH  13  14
ENDBRANCH  12  13
ENDBRANCH  11  12
ENDBRANCH  10  11
ENDBRANCH   9  10
ENDBRANCH   8   9
ENDBRANCH   7   8
ENDBRANCH   6   7
ENDBRANCH   5   6
ENDBRANCH   2   5
TORSDOF 11
ENDMDL
MODEL      277
REMARK 921   NORMALIZED FREE ENERGY PREDICTED BY IDOCK:    1.74 KCAL/MOL
REMARK 922        TOTAL FREE ENERGY PREDICTED BY IDOCK:    2.09 KCAL/MOL
REMARK 923 INTER-LIGAND FREE ENERGY PREDICTED BY IDOCK:    2.51 KCAL/MOL
REMARK 924 INTRA-LIGAND FREE ENERGY PREDICTED BY IDOCK:   -0.42 KCAL/MOL
REMARK 927      BINDING AFFINITY PREDICTED BY RF-SCORE:    0.00 PKD
ROOT
HETATM    1  C   UNL     1     -10.821  16.729  68.375  1.00  0.00    -0.355 C  
HETATM    2  N   UNL     1     -10.196  17.229  69.684  1.00  0.00    -0.039 N  
HETATM    3  C   UNL     1     -10.425  16.180  70.765  1.00  0.00     0.523 C  
HETATM    4  C   UNL     1     -10.880  18.531  70.072  1.00  0.00     2.152 C  
ENDROOT
BRANCH   2   5
HETATM    5  C   UNL     1      -8.711  17.430  69.412  1.00  0.00     0.411 C  
BRANCH   5   6
HETATM    6  C   UNL     1      -8.025  16.252  68.719  1.00  0.00    -0.221 C  
BRANCH   6   7
HETATM    7  C   UNL     1      -7.553  16.658  67.317  1.00  0.00    -0.199 C  
BRANCH   7   8
HETATM    8  C   UNL     1      -7.342  15.466  66.373  1.00  0.00     1.148 C  
BRANCH   8   9
HETATM    9  C   UNL     1      -7.992  14.173  66.879  1.00  0.00     0.154 C  
BRANCH   9  10
HETATM   10  C   UNL     1      -6.959  13.124  67.298  1.00  0.00    -0.021 C  
BRANCH  10  11
HETATM   11  C   UNL     1      -7.571  11.727  67.450  1.00  0.00    -0.143 C  
BRANCH  11  12
HETATM   12  C   UNL     1      -8.250  11.509  68.808  1.00  0.00    -0.082 C  
BRANCH  12  13
HETATM   13  C   UNL     1      -9.104  10.237  68.866  1.00  0.00    -0.168 C  
BRANCH  13  14
HETATM   14  C   UNL     1      -8.209   8.998  68.882  1.00  0.00    -0.120 C  
BRANCH  14  15
HETATM   15  N   UNL     1      -8.631   7.902  67.907  1.00  0.00    -0.125 N  
HETATM   16  C   UNL     1      -8.167   8.204  66.487  1.00  0.00    -0.107 C  
HETATM   17  C   UNL     1     -10.139   7.690  67.927  1.00  0.00    -0.185 C  
HETATM   18  C   UNL     1      -7.944   6.609  68.369  1.00  0.00    -0.111 C  
ENDBRANCH  14  15
ENDBRANCH  13  14
ENDBRANCH  12  13
ENDBRANCH  11  12
ENDBRANCH  10  11
ENDBRANCH   9  10
ENDBRANCH   8   9
ENDBRANCH   7   8
ENDBRANCH   6   7
ENDBRANCH   5   6
ENDBRANCH   2   5
TORSDOF 11
ENDMDL
MODEL      278
REMARK 921   NORMALIZED FREE ENERGY PREDICTED BY IDOCK:   37.03 KCAL/MOL
REMARK 922        TOTAL FREE ENERGY PREDICTED BY IDOCK:   60.08 KCAL/MOL
REMARK 923 INTER-LIGAND FREE ENERGY PREDICTED BY IDOCK:   59.87 KCAL/MOL
REMARK 924 INTRA-LIGAND FREE ENERGY PREDICTED BY IDOCK:    0.21 KCAL/MOL
REMARK 927      BINDING AFFINITY PREDICTED BY RF-SCORE:    0.00 PKD
ROOT
HETATM    1  C   UNL     1     -10.726   8.746  63.664  1.00  0.00     8.727 C  
HETATM    2  N   UNL     1     -12.121   9.119  64.181  1.00  0.00    13.530 N  
HETATM    3  C   UNL     1     -13.147   8.215  63.510  1.00  0.00    22.701 C  
HETATM    4  C   UNL     1     -12.391  10.571  63.816  1.00  0.00     4.344 C  
ENDROOT
BRANCH   2   5
HETATM    5  C   UNL     1     -12.099   8.911  65.689  1.00  0.00    10.864 C  
BRANCH   5   6
HETATM    6  C   UNL     1     -10.713   8.634  66.274  1.00  0.00     0.732 C  
BRANCH   6   7
HETATM    7  C   UNL     1     -10.826   7.741  67.517  1.00  0.00    -0.182 C  
BRANCH   7   8
HETATM    8  C   UNL     1      -9.910   8.176  68.668  1.00  0.00    -0.191 C  
BRANCH   8   9
HETATM    9  C   UNL     1      -9.009   9.363  68.308  1.00  0.00    -0.128 C  
BRANCH   9  10
HETATM   10  C   UNL     1      -7.522   9.037  68.459  1.00  0.00    -0.085 C  
BRANCH  10  11
HETATM   11  C   UNL     1      -6.621  10.085  67.798  1.00  0.00    -0.067 C  
BRANCH  11  12
HETATM   12  C   UNL     1      -6.329   9.787  66.322  1.00  0.00    -0.070 C  
BRANCH  12  13
HETATM   13  C   UNL     1      -7.371   8.873  65.666  1.00  0.00    -0.085 C  
BRANCH  13  14
HETATM   14  C   UNL     1      -6.689   7.654  65.046  1.00  0.00    -0.047 C  
BRANCH  14  15
HETATM   15  N   UNL     1      -7.245   7.245  63.684  1.00  0.00    -0.069 N  
HETATM   16  C   UNL     1      -8.336   6.189  63.816  1.00  0.00     0.081 C  
HETATM   17  C   UNL     1      -6.142   6.742  62.762  1.00  0.00    -0.039 C  
HETATM   18  C   UNL     1      -7.870   8.504  63.065  1.00  0.00    -0.148 C  
ENDBRANCH  14  15
ENDBRANCH  13  14
ENDBRANCH  12  13
ENDBRANCH  11  12
ENDBRANCH  10  11
ENDBRANCH   9  10
ENDBRANCH   8   9
ENDBRANCH   7   8
ENDBRANCH   6   7
ENDBRANCH   5   6
ENDBRANCH   2   5
TORSDOF 11
ENDMDL
MODEL      279
REMARK 921   NORMALIZED FREE ENERGY PREDICTED BY IDOCK:   38.09 KCAL/MOL
REMARK 922        TOTAL FREE ENERGY PREDICTED BY IDOCK:   61.82 KCAL/MOL
REMARK 923 INTER-LIGAND FREE ENERGY PREDICTED BY IDOCK:   62.05 KCAL/MOL
REMARK 924 INTRA-LIGAND FREE ENERGY PREDICTED BY IDOCK:   -0.23 KCAL/MOL
REMARK 927      BINDING AFFINITY PREDICTED BY RF-SCORE:    0.00 PKD
ROOT
HETATM    1  C   UNL     1     -10.261   8.396  63.255  1.00  0.00     6.475 C  
HETATM    2  N   UNL     1     -11.671   8.737  63.752  1.00  0.00    15.165 N  
HETATM    3  C   UNL     1     -12.670   7.827  63.050  1.00  0.00    21.927 C  
HETATM    4  C   UNL     1     -11.960  10.190  63.405  1.00  0.00     6.013 C  
ENDROOT
BRANCH   2   5
HETATM    5  C   UNL     1     -11.673   8.506  65.258  1.00  0.00    10.645 C  
BRANCH   5   6
HETATM    6  C   UNL     1     -10.291   8.251  65.864  1.00  0.00     1.017 C  
BRANCH   6   7
HETATM    7  C   UNL     1     -10.405   7.324  67.081  1.00  0.00    -0.367 C  
BRANCH   7   8
HETATM    8  C   UNL     1      -9.535   7.761  68.267  1.00  0.00    -0.150 C  
BRANCH   8   9
HETATM    9  C   UNL     1      -8.675   8.993  67.963  1.00  0.00    -0.129 C  
BRANCH   9  10
HETATM   10  C   UNL     1      -7.180   8.723  68.145  1.00  0.00    -0.083 C  
BRANCH  10  11
HETATM   11  C   UNL     1      -6.803   8.471  69.608  1.00  0.00    -0.043 C  
BRANCH  11  12
HETATM   12  C   UNL     1      -6.469   9.756  70.376  1.00  0.00    -0.101 C  
BRANCH  12  13
HETATM   13  C   UNL     1      -7.080  11.016  69.753  1.00  0.00    -0.052 C  
BRANCH  13  14
HETATM   14  C   UNL     1      -5.990  12.052  69.476  1.00  0.00    -0.100 C  
BRANCH  14  15
HETATM   15  N   UNL     1      -6.385  13.488  69.810  1.00  0.00    -0.113 N  
HETATM   16  C   UNL     1      -6.832  13.624  71.261  1.00  0.00     2.138 C  
HETATM   17  C   UNL     1      -7.478  13.996  68.879  1.00  0.00    -0.095 C  
HETATM   18  C   UNL     1      -5.130  14.350  69.615  1.00  0.00    -0.091 C  
ENDBRANCH  14  15
ENDBRANCH  13  14
ENDBRANCH  12  13
ENDBRANCH  11  12
ENDBRANCH  10  11
ENDBRANCH   9  10
ENDBRANCH   8   9
ENDBRANCH   7   8
ENDBRANCH   6   7
ENDBRANCH   5   6
ENDBRANCH   2   5
TORSDOF 11
ENDMDL
