MODEL        1
REMARK 921   NORMALIZED FREE ENERGY PREDICTED BY IDOCK:   -6.68 KCAL/MOL
REMARK 922        TOTAL FREE ENERGY PREDICTED BY IDOCK:   -7.80 KCAL/MOL
REMARK 923 INTER-LIGAND FREE ENERGY PREDICTED BY IDOCK:   -7.46 KCAL/MOL
REMARK 924 INTRA-LIGAND FREE ENERGY PREDICTED BY IDOCK:   -0.34 KCAL/MOL
REMARK 927      BINDING AFFINITY PREDICTED BY RF-SCORE:    0.00 PKD
ROOT
HETATM    1  N   UNL     1     -11.644  16.590  63.884  1.00  0.00    -1.578 NA 
HETATM    2  C   UNL     1     -11.625  15.323  64.358  1.00  0.00    -0.263 C  
HETATM    3  H2  UNL     1     -12.184  16.815  63.049  1.00  0.00     0.000 HD 
HETATM    4  H1  UNL     1     -11.117  17.319  64.364  1.00  0.00     0.000 HD 
HETATM    5  N   UNL     1     -12.290  14.403  63.753  1.00  0.00    -1.079 N  
HETATM    6  H   UNL     1     -12.833  14.619  62.916  1.00  0.00     0.000 HD 
HETATM    7  C   UNL     1     -12.254  13.133  64.251  1.00  0.00    -0.396 C  
HETATM    8  N   UNL     1     -11.253  12.823  65.141  1.00  0.00    -0.285 N  
HETATM    9  O   UNL     1     -13.107  12.310  63.930  1.00  0.00    -0.772 OA 
HETATM   10  C   UNL     1     -10.741  13.873  65.826  1.00  0.00    -0.289 C  
HETATM   11  N   UNL     1     -10.911  15.101  65.486  1.00  0.00    -0.349 NA 
ENDROOT
BRANCH   8  12
HETATM   12  C1* UNL     1     -11.168  11.467  65.656  1.00  0.00    -0.148 C  
HETATM   13  C2* UNL     1      -9.741  10.960  65.846  1.00  0.00    -0.269 C  
HETATM   14  C3* UNL     1      -9.913   9.904  66.908  1.00  0.00    -0.212 C  
HETATM   15  O3* UNL     1     -10.331   8.688  66.280  1.00  0.00    -0.385 OA 
HETATM   16  C4* UNL     1     -11.053  10.447  67.770  1.00  0.00    -0.299 C  
HETATM   17  H3* UNL     1     -10.440   8.023  66.949  1.00  0.00     0.000 HD 
HETATM   18  O4* UNL     1     -11.772  11.409  66.964  1.00  0.00    -0.535 OA 
BRANCH  16  19
HETATM   19  C5* UNL     1     -10.570  11.165  69.032  1.00  0.00    -0.218 C  
HETATM   20  O5* UNL     1      -9.484  10.469  69.638  1.00  0.00    -0.386 OA 
HETATM   21  H5* UNL     1      -9.184  10.914  70.422  1.00  0.00     0.000 HD 
ENDBRANCH  16  19
ENDBRANCH   8  12
TORSDOF 2
ENDMDL
MODEL        2
REMARK 921   NORMALIZED FREE ENERGY PREDICTED BY IDOCK:   -6.54 KCAL/MOL
REMARK 922        TOTAL FREE ENERGY PREDICTED BY IDOCK:   -7.64 KCAL/MOL
REMARK 923 INTER-LIGAND FREE ENERGY PREDICTED BY IDOCK:   -7.33 KCAL/MOL
REMARK 924 INTRA-LIGAND FREE ENERGY PREDICTED BY IDOCK:   -0.31 KCAL/MOL
REMARK 927      BINDING AFFINITY PREDICTED BY RF-SCORE:    0.00 PKD
ROOT
HETATM    1  N   UNL     1     -12.462  11.466  71.152  1.00  0.00    -0.380 NA 
HETATM    2  C   UNL     1     -12.066  11.664  69.874  1.00  0.00    -0.301 C  
HETATM    3  H2  UNL     1     -12.548  10.519  71.519  1.00  0.00     0.000 HD 
HETATM    4  H1  UNL     1     -12.673  12.266  71.748  1.00  0.00     0.000 HD 
HETATM    5  N   UNL     1     -11.799  10.655  69.123  1.00  0.00    -0.489 N  
HETATM    6  H   UNL     1     -11.882   9.703  69.482  1.00  0.00     0.000 HD 
HETATM    7  C   UNL     1     -11.402  10.882  67.838  1.00  0.00    -0.308 C  
HETATM    8  N   UNL     1     -11.644  12.125  67.303  1.00  0.00    -0.340 N  
HETATM    9  O   UNL     1     -10.826  10.007  67.196  1.00  0.00    -0.243 OA 
HETATM   10  C   UNL     1     -11.755  13.131  68.204  1.00  0.00    -0.355 C  
HETATM   11  N   UNL     1     -11.947  12.947  69.461  1.00  0.00    -0.308 NA 
ENDROOT
BRANCH   8  12
HETATM   12  C1* UNL     1     -11.267  12.381  65.924  1.00  0.00    -0.336 C  
HETATM   13  C2* UNL     1     -12.449  12.629  64.989  1.00  0.00    -0.556 C  
HETATM   14  C3* UNL     1     -11.823  13.446  63.888  1.00  0.00    -0.439 C  
HETATM   15  O3* UNL     1     -11.194  12.557  62.961  1.00  0.00    -0.715 OA 
HETATM   16  C4* UNL     1     -10.754  14.263  64.613  1.00  0.00    -0.365 C  
HETATM   17  H3* UNL     1     -10.800  13.071  62.268  1.00  0.00     0.000 HD 
HETATM   18  O4* UNL     1     -10.468  13.578  65.855  1.00  0.00    -0.280 OA 
BRANCH  16  19
HETATM   19  C5* UNL     1     -11.205  15.684  64.957  1.00  0.00    -0.329 C  
HETATM   20  O5* UNL     1     -11.495  16.433  63.780  1.00  0.00    -1.590 OA 
HETATM   21  H5* UNL     1     -11.775  17.315  63.993  1.00  0.00     0.000 HD 
ENDBRANCH  16  19
ENDBRANCH   8  12
TORSDOF 2
ENDMDL
MODEL        3
REMARK 921   NORMALIZED FREE ENERGY PREDICTED BY IDOCK:   -6.45 KCAL/MOL
REMARK 922        TOTAL FREE ENERGY PREDICTED BY IDOCK:   -7.54 KCAL/MOL
REMARK 923 INTER-LIGAND FREE ENERGY PREDICTED BY IDOCK:   -7.19 KCAL/MOL
REMARK 924 INTRA-LIGAND FREE ENERGY PREDICTED BY IDOCK:   -0.35 KCAL/MOL
REMARK 927      BINDING AFFINITY PREDICTED BY RF-SCORE:    0.00 PKD
ROOT
HETATM    1  N   UNL     1     -11.574  11.007  70.618  1.00  0.00    -0.421 NA 
HETATM    2  C   UNL     1     -11.722  11.917  69.628  1.00  0.00    -0.343 C  
HETATM    3  H2  UNL     1     -11.439  11.317  71.580  1.00  0.00     0.000 HD 
HETATM    4  H1  UNL     1     -11.597  10.012  70.400  1.00  0.00     0.000 HD 
HETATM    5  N   UNL     1     -11.693  13.173  69.904  1.00  0.00    -0.469 N  
HETATM    6  H   UNL     1     -11.559  13.492  70.864  1.00  0.00     0.000 HD 
HETATM    7  C   UNL     1     -11.845  14.071  68.887  1.00  0.00    -0.355 C  
HETATM    8  N   UNL     1     -11.667  13.618  67.601  1.00  0.00    -0.342 N  
HETATM    9  O   UNL     1     -12.156  15.235  69.121  1.00  0.00    -0.304 OA 
HETATM   10  C   UNL     1     -11.878  12.292  67.420  1.00  0.00    -0.257 C  
HETATM   11  N   UNL     1     -11.925  11.437  68.379  1.00  0.00    -0.590 NA 
ENDROOT
BRANCH   8  12
HETATM   12  C1* UNL     1     -11.785  14.561  66.503  1.00  0.00    -0.368 C  
HETATM   13  C2* UNL     1     -10.484  14.793  65.738  1.00  0.00    -0.348 C  
HETATM   14  C3* UNL     1     -10.980  15.240  64.387  1.00  0.00    -0.028 C  
HETATM   15  O3* UNL     1     -11.271  16.639  64.447  1.00  0.00    -1.158 OA 
HETATM   16  C4* UNL     1     -12.282  14.459  64.209  1.00  0.00    -0.423 C  
HETATM   17  H3* UNL     1     -11.583  16.921  63.596  1.00  0.00     0.000 HD 
HETATM   18  O4* UNL     1     -12.717  14.054  65.528  1.00  0.00    -0.520 OA 
BRANCH  16  19
HETATM   19  C5* UNL     1     -12.121  13.195  63.362  1.00  0.00    -0.486 C  
HETATM   20  O5* UNL     1     -13.106  12.221  63.697  1.00  0.00    -0.780 OA 
HETATM   21  H5* UNL     1     -13.006  11.436  63.171  1.00  0.00     0.000 HD 
ENDBRANCH  16  19
ENDBRANCH   8  12
TORSDOF 2
ENDMDL
MODEL        4
REMARK 921   NORMALIZED FREE ENERGY PREDICTED BY IDOCK:   -6.36 KCAL/MOL
REMARK 922        TOTAL FREE ENERGY PREDICTED BY IDOCK:   -7.44 KCAL/MOL
REMARK 923 INTER-LIGAND FREE ENERGY PREDICTED BY IDOCK:   -7.20 KCAL/MOL
REMARK 924 INTRA-LIGAND FREE ENERGY PREDICTED BY IDOCK:   -0.25 KCAL/MOL
REMARK 927      BINDING AFFINITY PREDICTED BY RF-SCORE:    0.00 PKD
ROOT
HETATM    1  N   UNL     1     -11.855  11.711  63.114  1.00  0.00    -0.900 NA 
HETATM    2  C   UNL     1     -11.591  12.873  63.753  1.00  0.00    -0.475 C  
HETATM    3  H2  UNL     1     -12.655  11.644  62.485  1.00  0.00     0.000 HD 
HETATM    4  H1  UNL     1     -11.253  10.901  63.263  1.00  0.00     0.000 HD 
HETATM    5  N   UNL     1     -12.351  13.894  63.565  1.00  0.00    -1.087 N  
HETATM    6  H   UNL     1     -13.153  13.837  62.938  1.00  0.00     0.000 HD 
HETATM    7  C   UNL     1     -12.063  15.054  64.222  1.00  0.00    -0.306 C  
HETATM    8  N   UNL     1     -11.213  14.986  65.301  1.00  0.00    -0.358 N  
HETATM    9  O   UNL     1     -12.530  16.123  63.839  1.00  0.00    -0.824 OA 
HETATM   10  C   UNL     1     -10.357  13.936  65.298  1.00  0.00    -0.378 C  
HETATM   11  N   UNL     1     -10.499  12.899  64.552  1.00  0.00    -0.362 NA 
ENDROOT
BRANCH   8  12
HETATM   12  C1* UNL     1     -10.921  16.201  66.042  1.00  0.00    -0.056 C  
HETATM   13  C2* UNL     1     -10.433  15.959  67.469  1.00  0.00    -0.298 C  
HETATM   14  C3* UNL     1      -9.644  17.211  67.755  1.00  0.00    -0.256 C  
HETATM   15  O3* UNL     1     -10.551  18.238  68.169  1.00  0.00    -0.361 OA 
HETATM   16  C4* UNL     1      -9.050  17.578  66.396  1.00  0.00    -0.240 C  
HETATM   17  H3* UNL     1     -10.055  19.026  68.350  1.00  0.00     0.000 HD 
HETATM   18  O4* UNL     1      -9.856  16.920  65.390  1.00  0.00    -0.537 OA 
BRANCH  16  19
HETATM   19  C5* UNL     1      -7.605  17.108  66.218  1.00  0.00    -0.317 C  
HETATM   20  O5* UNL     1      -6.846  18.047  65.462  1.00  0.00    -0.442 OA 
HETATM   21  H5* UNL     1      -5.949  17.755  65.351  1.00  0.00     0.000 HD 
ENDBRANCH  16  19
ENDBRANCH   8  12
TORSDOF 2
ENDMDL
MODEL        5
REMARK 921   NORMALIZED FREE ENERGY PREDICTED BY IDOCK:   -6.21 KCAL/MOL
REMARK 922        TOTAL FREE ENERGY PREDICTED BY IDOCK:   -7.27 KCAL/MOL
REMARK 923 INTER-LIGAND FREE ENERGY PREDICTED BY IDOCK:   -6.93 KCAL/MOL
REMARK 924 INTRA-LIGAND FREE ENERGY PREDICTED BY IDOCK:   -0.34 KCAL/MOL
REMARK 927      BINDING AFFINITY PREDICTED BY RF-SCORE:    0.00 PKD
ROOT
HETATM    1  N   UNL     1     -12.634  12.030  63.103  1.00  0.00    -0.837 NA 
HETATM    2  C   UNL     1     -11.977  13.020  63.750  1.00  0.00    -0.518 C  
HETATM    3  H2  UNL     1     -13.419  12.253  62.491  1.00  0.00     0.000 HD 
HETATM    4  H1  UNL     1     -12.343  11.061  63.229  1.00  0.00     0.000 HD 
HETATM    5  N   UNL     1     -12.344  14.242  63.591  1.00  0.00    -1.109 N  
HETATM    6  H   UNL     1     -13.127  14.475  62.981  1.00  0.00     0.000 HD 
HETATM    7  C   UNL     1     -11.665  15.221  64.255  1.00  0.00    -0.215 C  
HETATM    8  N   UNL     1     -10.872  14.846  65.314  1.00  0.00    -0.359 N  
HETATM    9  O   UNL     1     -11.744  16.393  63.896  1.00  0.00    -1.085 OA 
HETATM   10  C   UNL     1     -10.427  13.567  65.279  1.00  0.00    -0.336 C  
HETATM   11  N   UNL     1     -10.928  12.655  64.524  1.00  0.00    -0.313 NA 
ENDROOT
BRANCH   8  12
HETATM   12  C1* UNL     1     -10.169  15.873  66.063  1.00  0.00    -0.334 C  
HETATM   13  C2* UNL     1     -10.720  16.110  67.467  1.00  0.00    -0.304 C  
HETATM   14  C3* UNL     1      -9.525  16.676  68.191  1.00  0.00    -0.228 C  
HETATM   15  O3* UNL     1      -9.447  18.078  67.915  1.00  0.00    -0.263 OA 
HETATM   16  C4* UNL     1      -8.342  15.964  67.538  1.00  0.00    -0.163 C  
HETATM   17  H3* UNL     1      -8.695  18.435  68.370  1.00  0.00     0.000 HD 
HETATM   18  O4* UNL     1      -8.796  15.478  66.253  1.00  0.00    -0.306 OA 
BRANCH  16  19
HETATM   19  C5* UNL     1      -7.839  14.761  68.340  1.00  0.00    -0.128 C  
HETATM   20  O5* UNL     1      -8.176  14.884  69.719  1.00  0.00    -0.430 OA 
HETATM   21  H5* UNL     1      -7.865  14.138  70.217  1.00  0.00     0.000 HD 
ENDBRANCH  16  19
ENDBRANCH   8  12
TORSDOF 2
ENDMDL
MODEL        6
REMARK 921   NORMALIZED FREE ENERGY PREDICTED BY IDOCK:   -6.10 KCAL/MOL
REMARK 922        TOTAL FREE ENERGY PREDICTED BY IDOCK:   -7.15 KCAL/MOL
REMARK 923 INTER-LIGAND FREE ENERGY PREDICTED BY IDOCK:   -6.82 KCAL/MOL
REMARK 924 INTRA-LIGAND FREE ENERGY PREDICTED BY IDOCK:   -0.33 KCAL/MOL
REMARK 927      BINDING AFFINITY PREDICTED BY RF-SCORE:    0.00 PKD
ROOT
HETATM    1  N   UNL     1     -13.189  14.006  71.969  1.00  0.00    -0.380 NA 
HETATM    2  C   UNL     1     -12.531  13.877  70.794  1.00  0.00    -0.375 C  
HETATM    3  H2  UNL     1     -13.324  13.195  72.571  1.00  0.00     0.000 HD 
HETATM    4  H1  UNL     1     -13.551  14.917  72.251  1.00  0.00     0.000 HD 
HETATM    5  N   UNL     1     -12.075  12.728  70.440  1.00  0.00    -0.472 N  
HETATM    6  H   UNL     1     -12.204  11.910  71.036  1.00  0.00     0.000 HD 
HETATM    7  C   UNL     1     -11.415  12.624  69.250  1.00  0.00    -0.294 C  
HETATM    8  N   UNL     1     -11.573  13.641  68.339  1.00  0.00    -0.319 N  
HETATM    9  O   UNL     1     -10.686  11.663  69.020  1.00  0.00    -0.209 OA 
HETATM   10  C   UNL     1     -11.910  14.843  68.866  1.00  0.00    -0.301 C  
HETATM   11  N   UNL     1     -12.365  15.000  70.058  1.00  0.00    -0.323 NA 
ENDROOT
BRANCH   8  12
HETATM   12  C1* UNL     1     -10.913  13.537  67.049  1.00  0.00    -0.288 C  
HETATM   13  C2* UNL     1     -11.861  13.262  65.884  1.00  0.00    -0.436 C  
HETATM   14  C3* UNL     1     -11.094  13.814  64.709  1.00  0.00    -0.377 C  
HETATM   15  O3* UNL     1     -10.160  12.823  64.268  1.00  0.00    -0.535 OA 
HETATM   16  C4* UNL     1     -10.334  14.998  65.303  1.00  0.00    -0.395 C  
HETATM   17  H3* UNL     1      -9.677  13.170  63.528  1.00  0.00     0.000 HD 
HETATM   18  O4* UNL     1     -10.270  14.787  66.733  1.00  0.00    -0.259 OA 
BRANCH  16  19
HETATM   19  C5* UNL     1     -11.022  16.344  65.060  1.00  0.00    -0.252 C  
HETATM   20  O5* UNL     1     -11.567  16.415  63.745  1.00  0.00    -1.605 OA 
HETATM   21  H5* UNL     1     -11.994  17.250  63.594  1.00  0.00     0.000 HD 
ENDBRANCH  16  19
ENDBRANCH   8  12
TORSDOF 2
ENDMDL
MODEL        7
REMARK 921   NORMALIZED FREE ENERGY PREDICTED BY IDOCK:   -6.05 KCAL/MOL
REMARK 922        TOTAL FREE ENERGY PREDICTED BY IDOCK:   -7.09 KCAL/MOL
REMARK 923 INTER-LIGAND FREE ENERGY PREDICTED BY IDOCK:   -6.76 KCAL/MOL
REMARK 924 INTRA-LIGAND FREE ENERGY PREDICTED BY IDOCK:   -0.34 KCAL/MOL
REMARK 927      BINDING AFFINITY PREDICTED BY RF-SCORE:    0.00 PKD
ROOT
HETATM    1  N   UNL     1     -10.444  11.068  62.583  1.00  0.00    -0.701 NA 
HETATM    2  C   UNL     1     -10.713  12.002  63.524  1.00  0.00    -0.455 C  
HETATM    3  H2  UNL     1     -10.982  11.046  61.718  1.00  0.00     0.000 HD 
HETATM    4  H1  UNL     1      -9.702  10.386  62.742  1.00  0.00     0.000 HD 
HETATM    5  N   UNL     1     -11.648  12.861  63.325  1.00  0.00    -0.802 N  
HETATM    6  H   UNL     1     -12.192  12.847  62.461  1.00  0.00     0.000 HD 
HETATM    7  C   UNL     1     -11.900  13.792  64.290  1.00  0.00    -0.417 C  
HETATM    8  N   UNL     1     -11.403  13.558  65.550  1.00  0.00    -0.295 N  
HETATM    9  O   UNL     1     -12.527  14.814  64.026  1.00  0.00    -0.803 OA 
HETATM   10  C   UNL     1     -10.317  12.750  65.604  1.00  0.00    -0.279 C  
HETATM   11  N   UNL     1      -9.942  11.990  64.637  1.00  0.00    -0.243 NA 
ENDROOT
BRANCH   8  12
HETATM   12  C1* UNL     1     -11.689  14.514  66.605  1.00  0.00    -0.371 C  
HETATM   13  C2* UNL     1     -11.769  13.898  68.001  1.00  0.00    -0.387 C  
HETATM   14  C3* UNL     1     -11.439  15.070  68.889  1.00  0.00    -0.314 C  
HETATM   15  O3* UNL     1     -12.628  15.840  69.090  1.00  0.00    -0.528 OA 
HETATM   16  C4* UNL     1     -10.445  15.880  68.058  1.00  0.00    -0.274 C  
HETATM   17  H3* UNL     1     -12.420  16.578  69.649  1.00  0.00     0.000 HD 
HETATM   18  O4* UNL     1     -10.628  15.487  66.678  1.00  0.00    -0.299 OA 
BRANCH  16  19
HETATM   19  C5* UNL     1      -8.985  15.614  68.429  1.00  0.00    -0.185 C  
HETATM   20  O5* UNL     1      -8.859  15.248  69.801  1.00  0.00    -0.403 OA 
HETATM   21  H5* UNL     1      -7.952  15.082  70.031  1.00  0.00     0.000 HD 
ENDBRANCH  16  19
ENDBRANCH   8  12
TORSDOF 2
ENDMDL
MODEL        8
REMARK 921   NORMALIZED FREE ENERGY PREDICTED BY IDOCK:   -5.93 KCAL/MOL
REMARK 922        TOTAL FREE ENERGY PREDICTED BY IDOCK:   -6.96 KCAL/MOL
REMARK 923 INTER-LIGAND FREE ENERGY PREDICTED BY IDOCK:   -6.70 KCAL/MOL
REMARK 924 INTRA-LIGAND FREE ENERGY PREDICTED BY IDOCK:   -0.26 KCAL/MOL
REMARK 927      BINDING AFFINITY PREDICTED BY RF-SCORE:    0.00 PKD
ROOT
HETATM    1  N   UNL     1     -10.476  19.755  66.788  1.00  0.00    -0.469 NA 
HETATM    2  C   UNL     1     -10.478  18.402  66.774  1.00  0.00    -0.385 C  
HETATM    3  H2  UNL     1     -10.566  20.257  67.670  1.00  0.00     0.000 HD 
HETATM    4  H1  UNL     1     -10.383  20.271  65.913  1.00  0.00     0.000 HD 
HETATM    5  N   UNL     1     -10.594  17.752  67.878  1.00  0.00    -0.396 N  
HETATM    6  H   UNL     1     -10.685  18.245  68.766  1.00  0.00     0.000 HD 
HETATM    7  C   UNL     1     -10.594  16.388  67.837  1.00  0.00    -0.320 C  
HETATM    8  N   UNL     1     -10.826  15.783  66.624  1.00  0.00    -0.285 N  
HETATM    9  O   UNL     1     -10.368  15.731  68.850  1.00  0.00    -0.208 OA 
HETATM   10  C   UNL     1     -10.517  16.530  65.537  1.00  0.00    -0.301 C  
HETATM   11  N   UNL     1     -10.327  17.801  65.572  1.00  0.00    -0.616 NA 
ENDROOT
BRANCH   8  12
HETATM   12  C1* UNL     1     -10.870  14.333  66.560  1.00  0.00    -0.304 C  
HETATM   13  C2* UNL     1     -12.267  13.743  66.737  1.00  0.00    -0.440 C  
HETATM   14  C3* UNL     1     -12.148  12.416  66.031  1.00  0.00    -0.254 C  
HETATM   15  O3* UNL     1     -11.563  11.471  66.932  1.00  0.00    -0.503 OA 
HETATM   16  C4* UNL     1     -11.170  12.704  64.893  1.00  0.00    -0.297 C  
HETATM   17  H3* UNL     1     -11.488  10.635  66.487  1.00  0.00     0.000 HD 
HETATM   18  O4* UNL     1     -10.431  13.893  65.260  1.00  0.00    -0.329 OA 
BRANCH  16  19
HETATM   19  C5* UNL     1     -11.859  12.978  63.555  1.00  0.00    -0.516 C  
HETATM   20  O5* UNL     1     -12.309  14.328  63.472  1.00  0.00    -1.080 OA 
HETATM   21  H5* UNL     1     -12.736  14.498  62.641  1.00  0.00     0.000 HD 
ENDBRANCH  16  19
ENDBRANCH   8  12
TORSDOF 2
ENDMDL
MODEL        9
REMARK 921   NORMALIZED FREE ENERGY PREDICTED BY IDOCK:   -5.91 KCAL/MOL
REMARK 922        TOTAL FREE ENERGY PREDICTED BY IDOCK:   -6.94 KCAL/MOL
REMARK 923 INTER-LIGAND FREE ENERGY PREDICTED BY IDOCK:   -6.67 KCAL/MOL
REMARK 924 INTRA-LIGAND FREE ENERGY PREDICTED BY IDOCK:   -0.27 KCAL/MOL
REMARK 927      BINDING AFFINITY PREDICTED BY RF-SCORE:    0.00 PKD
ROOT
HETATM    1  N   UNL     1      -9.697  18.769  68.356  1.00  0.00    -0.354 NA 
HETATM    2  C   UNL     1     -10.210  17.775  67.596  1.00  0.00    -0.358 C  
HETATM    3  H2  UNL     1      -9.396  19.641  67.922  1.00  0.00     0.000 HD 
HETATM    4  H1  UNL     1      -9.612  18.645  69.365  1.00  0.00     0.000 HD 
HETATM    5  N   UNL     1     -10.318  17.933  66.324  1.00  0.00    -0.379 N  
HETATM    6  H   UNL     1     -10.020  18.802  65.880  1.00  0.00     0.000 HD 
HETATM    7  C   UNL     1     -10.838  16.915  65.579  1.00  0.00    -0.096 C  
HETATM    8  N   UNL     1     -10.890  15.665  66.150  1.00  0.00    -0.298 N  
HETATM    9  O   UNL     1     -11.267  17.122  64.448  1.00  0.00    -1.143 OA 
HETATM   10  C   UNL     1     -10.924  15.649  67.505  1.00  0.00    -0.309 C  
HETATM   11  N   UNL     1     -10.615  16.656  68.241  1.00  0.00    -0.321 NA 
ENDROOT
BRANCH   8  12
HETATM   12  C1* UNL     1     -11.403  14.556  65.366  1.00  0.00    -0.341 C  
HETATM   13  C2* UNL     1     -10.328  13.767  64.622  1.00  0.00    -0.393 C  
HETATM   14  C3* UNL     1     -10.978  12.418  64.452  1.00  0.00    -0.334 C  
HETATM   15  O3* UNL     1     -11.831  12.463  63.304  1.00  0.00    -0.653 OA 
HETATM   16  C4* UNL     1     -11.830  12.271  65.712  1.00  0.00    -0.352 C  
HETATM   17  H3* UNL     1     -12.240  11.614  63.197  1.00  0.00     0.000 HD 
HETATM   18  O4* UNL     1     -12.043  13.603  66.237  1.00  0.00    -0.395 OA 
BRANCH  16  19
HETATM   19  C5* UNL     1     -11.158  11.440  66.806  1.00  0.00    -0.281 C  
HETATM   20  O5* UNL     1     -12.083  11.099  67.836  1.00  0.00    -0.659 OA 
HETATM   21  H5* UNL     1     -11.666  10.582  68.516  1.00  0.00     0.000 HD 
ENDBRANCH  16  19
ENDBRANCH   8  12
TORSDOF 2
ENDMDL
MODEL       10
REMARK 921   NORMALIZED FREE ENERGY PREDICTED BY IDOCK:   -5.82 KCAL/MOL
REMARK 922        TOTAL FREE ENERGY PREDICTED BY IDOCK:   -6.83 KCAL/MOL
REMARK 923 INTER-LIGAND FREE ENERGY PREDICTED BY IDOCK:   -6.49 KCAL/MOL
REMARK 924 INTRA-LIGAND FREE ENERGY PREDICTED BY IDOCK:   -0.34 KCAL/MOL
REMARK 927      BINDING AFFINITY PREDICTED BY RF-SCORE:    0.00 PKD
ROOT
HETATM    1  N   UNL     1     -12.616  14.004  63.206  1.00  0.00    -1.005 NA 
HETATM    2  C   UNL     1     -11.995  14.653  64.217  1.00  0.00    -0.386 C  
HETATM    3  H2  UNL     1     -12.796  13.003  63.275  1.00  0.00     0.000 HD 
HETATM    4  H1  UNL     1     -12.903  14.518  62.373  1.00  0.00     0.000 HD 
HETATM    5  N   UNL     1     -11.633  14.004  65.267  1.00  0.00    -0.326 N  
HETATM    6  H   UNL     1     -11.809  13.002  65.346  1.00  0.00     0.000 HD 
HETATM    7  C   UNL     1     -11.008  14.682  66.273  1.00  0.00    -0.327 C  
HETATM    8  N   UNL     1     -10.484  15.919  65.982  1.00  0.00    -0.331 N  
HETATM    9  O   UNL     1     -10.944  14.206  67.403  1.00  0.00    -0.288 OA 
HETATM   10  C   UNL     1     -11.062  16.563  64.939  1.00  0.00    -0.190 C  
HETATM   11  N   UNL     1     -11.812  15.986  64.070  1.00  0.00    -0.784 NA 
ENDROOT
BRANCH   8  12
HETATM   12  C1* UNL     1      -9.779  16.645  67.024  1.00  0.00    -0.249 C  
HETATM   13  C2* UNL     1      -8.497  17.328  66.552  1.00  0.00    -0.306 C  
HETATM   14  C3* UNL     1      -8.341  18.445  67.553  1.00  0.00    -0.252 C  
HETATM   15  O3* UNL     1      -7.708  17.922  68.725  1.00  0.00    -0.288 OA 
HETATM   16  C4* UNL     1      -9.781  18.832  67.884  1.00  0.00    -0.329 C  
HETATM   17  H3* UNL     1      -7.609  18.625  69.355  1.00  0.00     0.000 HD 
HETATM   18  O4* UNL     1     -10.616  17.707  67.524  1.00  0.00    -0.366 OA 
BRANCH  16  19
HETATM   19  C5* UNL     1     -10.277  20.050  67.102  1.00  0.00    -0.441 C  
HETATM   20  O5* UNL     1      -9.225  20.986  66.881  1.00  0.00    -0.625 OA 
HETATM   21  H5* UNL     1      -9.533  21.742  66.395  1.00  0.00     0.000 HD 
ENDBRANCH  16  19
ENDBRANCH   8  12
TORSDOF 2
ENDMDL
MODEL       11
REMARK 921   NORMALIZED FREE ENERGY PREDICTED BY IDOCK:   -5.69 KCAL/MOL
REMARK 922        TOTAL FREE ENERGY PREDICTED BY IDOCK:   -6.69 KCAL/MOL
REMARK 923 INTER-LIGAND FREE ENERGY PREDICTED BY IDOCK:   -6.35 KCAL/MOL
REMARK 924 INTRA-LIGAND FREE ENERGY PREDICTED BY IDOCK:   -0.35 KCAL/MOL
REMARK 927      BINDING AFFINITY PREDICTED BY RF-SCORE:    0.00 PKD
ROOT
HETATM    1  N   UNL     1     -11.298  12.257  64.649  1.00  0.00    -0.313 NA 
HETATM    2  C   UNL     1     -10.985  13.543  64.927  1.00  0.00    -0.352 C  
HETATM    3  H2  UNL     1     -12.075  12.044  64.025  1.00  0.00     0.000 HD 
HETATM    4  H1  UNL     1     -10.755  11.501  65.065  1.00  0.00     0.000 HD 
HETATM    5  N   UNL     1     -11.670  14.497  64.402  1.00  0.00    -0.605 N  
HETATM    6  H   UNL     1     -12.449  14.294  63.776  1.00  0.00     0.000 HD 
HETATM    7  C   UNL     1     -11.334  15.785  64.699  1.00  0.00    -0.337 C  
HETATM    8  N   UNL     1     -10.533  16.002  65.795  1.00  0.00    -0.358 N  
HETATM    9  O   UNL     1     -11.717  16.712  63.990  1.00  0.00    -1.143 OA 
HETATM   10  C   UNL     1      -9.746  14.959  66.152  1.00  0.00    -0.306 C  
HETATM   11  N   UNL     1      -9.925  13.754  65.741  1.00  0.00    -0.295 NA 
ENDROOT
BRANCH   8  12
HETATM   12  C1* UNL     1     -10.192  17.367  66.156  1.00  0.00    -0.328 C  
HETATM   13  C2* UNL     1     -10.436  17.703  67.626  1.00  0.00    -0.372 C  
HETATM   14  C3* UNL     1      -9.474  18.840  67.860  1.00  0.00    -0.304 C  
HETATM   15  O3* UNL     1     -10.085  20.054  67.414  1.00  0.00    -0.389 OA 
HETATM   16  C4* UNL     1      -8.294  18.502  66.950  1.00  0.00    -0.263 C  
HETATM   17  H3* UNL     1      -9.479  20.770  67.561  1.00  0.00     0.000 HD 
HETATM   18  O4* UNL     1      -8.784  17.587  65.943  1.00  0.00    -0.525 OA 
BRANCH  16  19
HETATM   19  C5* UNL     1      -7.140  17.814  67.684  1.00  0.00    -0.186 C  
HETATM   20  O5* UNL     1      -7.148  18.132  69.073  1.00  0.00    -0.271 OA 
HETATM   21  H5* UNL     1      -6.432  17.705  69.528  1.00  0.00     0.000 HD 
ENDBRANCH  16  19
ENDBRANCH   8  12
TORSDOF 2
ENDMDL
MODEL       12
REMARK 921   NORMALIZED FREE ENERGY PREDICTED BY IDOCK:   -5.66 KCAL/MOL
REMARK 922        TOTAL FREE ENERGY PREDICTED BY IDOCK:   -6.66 KCAL/MOL
REMARK 923 INTER-LIGAND FREE ENERGY PREDICTED BY IDOCK:   -6.37 KCAL/MOL
REMARK 924 INTRA-LIGAND FREE ENERGY PREDICTED BY IDOCK:   -0.29 KCAL/MOL
REMARK 927      BINDING AFFINITY PREDICTED BY RF-SCORE:    0.00 PKD
ROOT
HETATM    1  N   UNL     1      -9.483  20.956  67.058  1.00  0.00    -0.690 NA 
HETATM    2  C   UNL     1      -9.398  19.654  66.703  1.00  0.00    -0.376 C  
HETATM    3  H2  UNL     1      -8.674  21.430  67.460  1.00  0.00     0.000 HD 
HETATM    4  H1  UNL     1     -10.358  21.463  66.924  1.00  0.00     0.000 HD 
HETATM    5  N   UNL     1      -8.295  19.015  66.872  1.00  0.00    -0.269 N  
HETATM    6  H   UNL     1      -7.480  19.480  67.273  1.00  0.00     0.000 HD 
HETATM    7  C   UNL     1      -8.235  17.702  66.506  1.00  0.00    -0.273 C  
HETATM    8  N   UNL     1      -9.423  17.037  66.312  1.00  0.00    -0.266 N  
HETATM    9  O   UNL     1      -7.153  17.148  66.332  1.00  0.00    -0.237 OA 
HETATM   10  C   UNL     1     -10.479  17.820  65.989  1.00  0.00    -0.286 C  
HETATM   11  N   UNL     1     -10.500  19.095  66.151  1.00  0.00    -0.468 NA 
ENDROOT
BRANCH   8  12
HETATM   12  C1* UNL     1      -9.388  15.628  65.959  1.00  0.00    -0.349 C  
HETATM   13  C2* UNL     1     -10.081  14.715  66.969  1.00  0.00    -0.249 C  
HETATM   14  C3* UNL     1     -10.452  13.523  66.123  1.00  0.00    -0.296 C  
HETATM   15  O3* UNL     1      -9.314  12.661  66.026  1.00  0.00    -0.401 OA 
HETATM   16  C4* UNL     1     -10.743  14.134  64.753  1.00  0.00    -0.419 C  
HETATM   17  H3* UNL     1      -9.547  11.910  65.493  1.00  0.00     0.000 HD 
HETATM   18  O4* UNL     1     -10.087  15.423  64.716  1.00  0.00    -0.268 OA 
BRANCH  16  19
HETATM   19  C5* UNL     1     -12.234  14.362  64.495  1.00  0.00    -0.463 C  
HETATM   20  O5* UNL     1     -12.609  13.908  63.197  1.00  0.00    -1.057 OA 
HETATM   21  H5* UNL     1     -13.534  14.049  63.037  1.00  0.00     0.000 HD 
ENDBRANCH  16  19
ENDBRANCH   8  12
TORSDOF 2
ENDMDL
MODEL       13
REMARK 921   NORMALIZED FREE ENERGY PREDICTED BY IDOCK:   -5.62 KCAL/MOL
REMARK 922        TOTAL FREE ENERGY PREDICTED BY IDOCK:   -6.61 KCAL/MOL
REMARK 923 INTER-LIGAND FREE ENERGY PREDICTED BY IDOCK:   -6.31 KCAL/MOL
REMARK 924 INTRA-LIGAND FREE ENERGY PREDICTED BY IDOCK:   -0.30 KCAL/MOL
REMARK 927      BINDING AFFINITY PREDICTED BY RF-SCORE:    0.00 PKD
ROOT
HETATM    1  N   UNL     1      -9.939   8.438  66.056  1.00  0.00    -0.462 NA 
HETATM    2  C   UNL     1     -10.008   9.731  65.664  1.00  0.00    -0.282 C  
HETATM    3  H2  UNL     1      -9.835   7.699  65.362  1.00  0.00     0.000 HD 
HETATM    4  H1  UNL     1      -9.991   8.204  67.047  1.00  0.00     0.000 HD 
HETATM    5  N   UNL     1      -9.942  10.025  64.414  1.00  0.00    -0.425 N  
HETATM    6  H   UNL     1      -9.837   9.292  63.712  1.00  0.00     0.000 HD 
HETATM    7  C   UNL     1     -10.015  11.337  64.045  1.00  0.00    -0.312 C  
HETATM    8  N   UNL     1     -10.503  12.234  64.965  1.00  0.00    -0.281 N  
HETATM    9  O   UNL     1      -9.630  11.698  62.936  1.00  0.00    -0.384 OA 
HETATM   10  C   UNL     1     -10.372  11.864  66.261  1.00  0.00    -0.224 C  
HETATM   11  N   UNL     1     -10.119  10.662  66.640  1.00  0.00    -0.212 NA 
ENDROOT
BRANCH   8  12
HETATM   12  C1* UNL     1     -10.628  13.631  64.584  1.00  0.00    -0.430 C  
HETATM   13  C2* UNL     1     -12.040  14.194  64.730  1.00  0.00    -0.454 C  
HETATM   14  C3* UNL     1     -11.782  15.669  64.899  1.00  0.00    -0.055 C  
HETATM   15  O3* UNL     1     -11.612  16.254  63.604  1.00  0.00    -1.424 OA 
HETATM   16  C4* UNL     1     -10.454  15.716  65.654  1.00  0.00    -0.382 C  
HETATM   17  H3* UNL     1     -11.450  17.183  63.711  1.00  0.00     0.000 HD 
HETATM   18  O4* UNL     1      -9.802  14.441  65.443  1.00  0.00    -0.325 OA 
BRANCH  16  19
HETATM   19  C5* UNL     1     -10.620  15.911  67.163  1.00  0.00    -0.316 C  
HETATM   20  O5* UNL     1     -10.508  17.286  67.521  1.00  0.00    -0.345 OA 
HETATM   21  H5* UNL     1     -10.611  17.407  68.458  1.00  0.00     0.000 HD 
ENDBRANCH  16  19
ENDBRANCH   8  12
TORSDOF 2
ENDMDL
MODEL       14
REMARK 921   NORMALIZED FREE ENERGY PREDICTED BY IDOCK:   -5.58 KCAL/MOL
REMARK 922        TOTAL FREE ENERGY PREDICTED BY IDOCK:   -6.57 KCAL/MOL
REMARK 923 INTER-LIGAND FREE ENERGY PREDICTED BY IDOCK:   -6.21 KCAL/MOL
REMARK 924 INTRA-LIGAND FREE ENERGY PREDICTED BY IDOCK:   -0.36 KCAL/MOL
REMARK 927      BINDING AFFINITY PREDICTED BY RF-SCORE:    0.00 PKD
ROOT
HETATM    1  N   UNL     1     -12.853  15.984  72.062  1.00  0.00    -0.464 NA 
HETATM    2  C   UNL     1     -12.773  14.727  71.570  1.00  0.00    -0.330 C  
HETATM    3  H2  UNL     1     -12.471  16.766  71.531  1.00  0.00     0.000 HD 
HETATM    4  H1  UNL     1     -13.296  16.149  72.966  1.00  0.00     0.000 HD 
HETATM    5  N   UNL     1     -12.214  14.520  70.431  1.00  0.00    -0.308 N  
HETATM    6  H   UNL     1     -11.829  15.296  69.891  1.00  0.00     0.000 HD 
HETATM    7  C   UNL     1     -12.146  13.242  69.957  1.00  0.00    -0.315 C  
HETATM    8  N   UNL     1     -12.347  12.217  70.850  1.00  0.00    -0.347 N  
HETATM    9  O   UNL     1     -11.938  13.026  68.766  1.00  0.00    -0.314 OA 
HETATM   10  C   UNL     1     -13.084  12.535  71.941  1.00  0.00    -0.368 C  
HETATM   11  N   UNL     1     -13.324  13.741  72.315  1.00  0.00    -0.477 NA 
ENDROOT
BRANCH   8  12
HETATM   12  C1* UNL     1     -12.241  10.846  70.380  1.00  0.00    -0.365 C  
HETATM   13  C2* UNL     1     -10.927  10.160  70.748  1.00  0.00    -0.313 C  
HETATM   14  C3* UNL     1     -11.311   8.702  70.734  1.00  0.00    -0.263 C  
HETATM   15  O3* UNL     1     -11.255   8.229  69.384  1.00  0.00    -0.440 OA 
HETATM   16  C4* UNL     1     -12.763   8.710  71.209  1.00  0.00    -0.215 C  
HETATM   17  H3* UNL     1     -11.497   7.311  69.375  1.00  0.00     0.000 HD 
HETATM   18  O4* UNL     1     -13.274  10.046  70.988  1.00  0.00    -0.386 OA 
BRANCH  16  19
HETATM   19  C5* UNL     1     -12.916   8.393  72.698  1.00  0.00    -0.099 C  
HETATM   20  O5* UNL     1     -14.023   9.091  73.263  1.00  0.00    -1.205 OA 
HETATM   21  H5* UNL     1     -14.118   8.894  74.187  1.00  0.00     0.000 HD 
ENDBRANCH  16  19
ENDBRANCH   8  12
TORSDOF 2
ENDMDL
MODEL       15
REMARK 921   NORMALIZED FREE ENERGY PREDICTED BY IDOCK:   -5.56 KCAL/MOL
REMARK 922        TOTAL FREE ENERGY PREDICTED BY IDOCK:   -6.55 KCAL/MOL
REMARK 923 INTER-LIGAND FREE ENERGY PREDICTED BY IDOCK:   -6.18 KCAL/MOL
REMARK 924 INTRA-LIGAND FREE ENERGY PREDICTED BY IDOCK:   -0.37 KCAL/MOL
REMARK 927      BINDING AFFINITY PREDICTED BY RF-SCORE:    0.00 PKD
ROOT
HETATM    1  N   UNL     1     -12.173  16.026  72.638  1.00  0.00    -0.480 NA 
HETATM    2  C   UNL     1     -11.984  15.628  71.360  1.00  0.00    -0.418 C  
HETATM    3  H2  UNL     1     -11.901  16.965  72.927  1.00  0.00     0.000 HD 
HETATM    4  H1  UNL     1     -12.590  15.385  73.313  1.00  0.00     0.000 HD 
HETATM    5  N   UNL     1     -11.459  16.437  70.509  1.00  0.00    -0.509 N  
HETATM    6  H   UNL     1     -11.183  17.379  70.788  1.00  0.00     0.000 HD 
HETATM    7  C   UNL     1     -11.278  16.012  69.225  1.00  0.00    -0.346 C  
HETATM    8  N   UNL     1     -11.329  14.659  68.986  1.00  0.00    -0.261 N  
HETATM    9  O   UNL     1     -11.103  16.819  68.316  1.00  0.00    -0.361 OA 
HETATM   10  C   UNL     1     -12.045  13.939  69.883  1.00  0.00    -0.344 C  
HETATM   11  N   UNL     1     -12.394  14.379  71.039  1.00  0.00    -0.334 NA 
ENDROOT
BRANCH   8  12
HETATM   12  C1* UNL     1     -11.100  14.176  67.636  1.00  0.00    -0.282 C  
HETATM   13  C2* UNL     1      -9.672  13.704  67.374  1.00  0.00    -0.228 C  
HETATM   14  C3* UNL     1      -9.857  12.733  66.237  1.00  0.00    -0.267 C  
HETATM   15  O3* UNL     1      -9.907  13.470  65.011  1.00  0.00    -0.566 OA 
HETATM   16  C4* UNL     1     -11.226  12.115  66.513  1.00  0.00    -0.328 C  
HETATM   17  H3* UNL     1     -10.023  12.858  64.294  1.00  0.00     0.000 HD 
HETATM   18  O4* UNL     1     -11.934  13.027  67.385  1.00  0.00    -0.364 OA 
BRANCH  16  19
HETATM   19  C5* UNL     1     -11.150  10.760  67.219  1.00  0.00    -0.270 C  
HETATM   20  O5* UNL     1     -12.069  10.691  68.306  1.00  0.00    -0.817 OA 
HETATM   21  H5* UNL     1     -12.022   9.850  68.744  1.00  0.00     0.000 HD 
ENDBRANCH  16  19
ENDBRANCH   8  12
TORSDOF 2
ENDMDL
MODEL       16
REMARK 921   NORMALIZED FREE ENERGY PREDICTED BY IDOCK:   -5.56 KCAL/MOL
REMARK 922        TOTAL FREE ENERGY PREDICTED BY IDOCK:   -6.55 KCAL/MOL
REMARK 923 INTER-LIGAND FREE ENERGY PREDICTED BY IDOCK:   -6.25 KCAL/MOL
REMARK 924 INTRA-LIGAND FREE ENERGY PREDICTED BY IDOCK:   -0.29 KCAL/MOL
REMARK 927      BINDING AFFINITY PREDICTED BY RF-SCORE:    0.00 PKD
ROOT
HETATM    1  N   UNL     1     -12.859  11.808  62.957  1.00  0.00    -0.884 NA 
HETATM    2  C   UNL     1     -12.285  12.342  64.059  1.00  0.00    -0.475 C  
HETATM    3  H2  UNL     1     -12.307  11.234  62.320  1.00  0.00     0.000 HD 
HETATM    4  H1  UNL     1     -13.845  11.981  62.764  1.00  0.00     0.000 HD 
HETATM    5  N   UNL     1     -11.041  12.123  64.302  1.00  0.00    -0.322 N  
HETATM    6  H   UNL     1     -10.480  11.550  63.671  1.00  0.00     0.000 HD 
HETATM    7  C   UNL     1     -10.485  12.674  65.420  1.00  0.00    -0.283 C  
HETATM    8  N   UNL     1     -11.162  13.702  66.031  1.00  0.00    -0.294 N  
HETATM    9  O   UNL     1      -9.429  12.240  65.873  1.00  0.00    -0.229 OA 
HETATM   10  C   UNL     1     -12.498  13.727  65.812  1.00  0.00    -0.485 C  
HETATM   11  N   UNL     1     -13.082  13.070  64.874  1.00  0.00    -0.765 NA 
ENDROOT
BRANCH   8  12
HETATM   12  C1* UNL     1     -10.573  14.332  67.201  1.00  0.00    -0.279 C  
HETATM   13  C2* UNL     1     -11.089  15.743  67.475  1.00  0.00    -0.258 C  
HETATM   14  C3* UNL     1     -10.852  15.889  68.957  1.00  0.00    -0.266 C  
HETATM   15  O3* UNL     1      -9.490  16.276  69.165  1.00  0.00    -0.247 OA 
HETATM   16  C4* UNL     1     -11.065  14.475  69.494  1.00  0.00    -0.253 C  
HETATM   17  H3* UNL     1      -9.340  16.368  70.098  1.00  0.00     0.000 HD 
HETATM   18  O4* UNL     1     -10.903  13.569  68.378  1.00  0.00    -0.250 OA 
BRANCH  16  19
HETATM   19  C5* UNL     1     -12.462  14.251  70.077  1.00  0.00    -0.300 C  
HETATM   20  O5* UNL     1     -13.111  15.490  70.351  1.00  0.00    -0.662 OA 
HETATM   21  H5* UNL     1     -13.979  15.351  70.712  1.00  0.00     0.000 HD 
ENDBRANCH  16  19
ENDBRANCH   8  12
TORSDOF 2
ENDMDL
MODEL       17
REMARK 921   NORMALIZED FREE ENERGY PREDICTED BY IDOCK:   -5.56 KCAL/MOL
REMARK 922        TOTAL FREE ENERGY PREDICTED BY IDOCK:   -6.55 KCAL/MOL
REMARK 923 INTER-LIGAND FREE ENERGY PREDICTED BY IDOCK:   -6.24 KCAL/MOL
REMARK 924 INTRA-LIGAND FREE ENERGY PREDICTED BY IDOCK:   -0.30 KCAL/MOL
REMARK 927      BINDING AFFINITY PREDICTED BY RF-SCORE:    0.00 PKD
ROOT
HETATM    1  N   UNL     1     -12.579  11.581  62.883  1.00  0.00    -0.874 NA 
HETATM    2  C   UNL     1     -12.088  12.351  63.880  1.00  0.00    -0.499 C  
HETATM    3  H2  UNL     1     -12.277  10.611  62.790  1.00  0.00     0.000 HD 
HETATM    4  H1  UNL     1     -13.252  11.971  62.223  1.00  0.00     0.000 HD 
HETATM    5  N   UNL     1     -11.240  11.858  64.711  1.00  0.00    -0.310 N  
HETATM    6  H   UNL     1     -10.933  10.889  64.628  1.00  0.00     0.000 HD 
HETATM    7  C   UNL     1     -10.760  12.657  65.708  1.00  0.00    -0.268 C  
HETATM    8  N   UNL     1     -10.920  14.016  65.574  1.00  0.00    -0.301 N  
HETATM    9  O   UNL     1     -10.228  12.168  66.701  1.00  0.00    -0.199 OA 
HETATM   10  C   UNL     1     -11.951  14.402  64.784  1.00  0.00    -0.447 C  
HETATM   11  N   UNL     1     -12.553  13.620  63.960  1.00  0.00    -0.686 NA 
ENDROOT
BRANCH   8  12
HETATM   12  C1* UNL     1     -10.384  14.891  66.601  1.00  0.00    -0.283 C  
HETATM   13  C2* UNL     1      -8.985  15.424  66.299  1.00  0.00    -0.341 C  
HETATM   14  C3* UNL     1      -8.945  16.697  67.105  1.00  0.00    -0.210 C  
HETATM   15  O3* UNL     1      -8.600  16.372  68.455  1.00  0.00    -0.202 OA 
HETATM   16  C4* UNL     1     -10.388  17.196  67.056  1.00  0.00    -0.308 C  
HETATM   17  H3* UNL     1      -8.575  17.174  68.963  1.00  0.00     0.000 HD 
HETATM   18  O4* UNL     1     -11.219  16.058  66.727  1.00  0.00    -0.104 OA 
BRANCH  16  19
HETATM   19  C5* UNL     1     -10.624  18.270  65.991  1.00  0.00    -0.296 C  
HETATM   20  O5* UNL     1     -11.061  17.692  64.764  1.00  0.00    -0.915 OA 
HETATM   21  H5* UNL     1     -11.208  18.358  64.103  1.00  0.00     0.000 HD 
ENDBRANCH  16  19
ENDBRANCH   8  12
TORSDOF 2
ENDMDL
MODEL       18
REMARK 921   NORMALIZED FREE ENERGY PREDICTED BY IDOCK:   -5.56 KCAL/MOL
REMARK 922        TOTAL FREE ENERGY PREDICTED BY IDOCK:   -6.54 KCAL/MOL
REMARK 923 INTER-LIGAND FREE ENERGY PREDICTED BY IDOCK:   -6.21 KCAL/MOL
REMARK 924 INTRA-LIGAND FREE ENERGY PREDICTED BY IDOCK:   -0.33 KCAL/MOL
REMARK 927      BINDING AFFINITY PREDICTED BY RF-SCORE:    0.00 PKD
ROOT
HETATM    1  N   UNL     1     -11.578  14.611  67.675  1.00  0.00    -0.349 NA 
HETATM    2  C   UNL     1     -11.795  13.728  68.675  1.00  0.00    -0.374 C  
HETATM    3  H2  UNL     1     -11.913  15.571  67.759  1.00  0.00     0.000 HD 
HETATM    4  H1  UNL     1     -11.079  14.316  66.836  1.00  0.00     0.000 HD 
HETATM    5  N   UNL     1     -12.424  14.100  69.733  1.00  0.00    -0.449 N  
HETATM    6  H   UNL     1     -12.762  15.058  69.827  1.00  0.00     0.000 HD 
HETATM    7  C   UNL     1     -12.631  13.189  70.728  1.00  0.00    -0.260 C  
HETATM    8  N   UNL     1     -12.481  11.858  70.418  1.00  0.00    -0.218 N  
HETATM    9  O   UNL     1     -12.914  13.557  71.865  1.00  0.00    -0.350 OA 
HETATM   10  C   UNL     1     -11.666  11.596  69.368  1.00  0.00    -0.340 C  
HETATM   11  N   UNL     1     -11.300  12.479  68.509  1.00  0.00    -0.272 NA 
ENDROOT
BRANCH   8  12
HETATM   12  C1* UNL     1     -12.733  10.866  71.448  1.00  0.00    -0.434 C  
HETATM   13  C2* UNL     1     -13.860   9.891  71.114  1.00  0.00     0.015 C  
HETATM   14  C3* UNL     1     -13.502   8.687  71.948  1.00  0.00    -0.397 C  
HETATM   15  O3* UNL     1     -13.987   8.893  73.278  1.00  0.00    -1.203 OA 
HETATM   16  C4* UNL     1     -11.975   8.701  71.958  1.00  0.00    -0.372 C  
HETATM   17  H3* UNL     1     -13.762   8.135  73.803  1.00  0.00     0.000 HD 
HETATM   18  O4* UNL     1     -11.560  10.048  71.628  1.00  0.00    -0.317 OA 
BRANCH  16  19
HETATM   19  C5* UNL     1     -11.352   7.756  70.927  1.00  0.00    -0.275 C  
HETATM   20  O5* UNL     1     -12.321   6.848  70.409  1.00  0.00    -0.613 OA 
HETATM   21  H5* UNL     1     -11.935   6.262  69.769  1.00  0.00     0.000 HD 
ENDBRANCH  16  19
ENDBRANCH   8  12
TORSDOF 2
ENDMDL
MODEL       19
REMARK 921   NORMALIZED FREE ENERGY PREDICTED BY IDOCK:   -5.55 KCAL/MOL
REMARK 922        TOTAL FREE ENERGY PREDICTED BY IDOCK:   -6.54 KCAL/MOL
REMARK 923 INTER-LIGAND FREE ENERGY PREDICTED BY IDOCK:   -6.20 KCAL/MOL
REMARK 924 INTRA-LIGAND FREE ENERGY PREDICTED BY IDOCK:   -0.34 KCAL/MOL
REMARK 927      BINDING AFFINITY PREDICTED BY RF-SCORE:    0.00 PKD
ROOT
HETATM    1  N   UNL     1     -12.019  11.904  70.724  1.00  0.00    -0.443 NA 
HETATM    2  C   UNL     1     -11.597  12.075  69.450  1.00  0.00    -0.330 C  
HETATM    3  H2  UNL     1     -11.665  12.509  71.465  1.00  0.00     0.000 HD 
HETATM    4  H1  UNL     1     -12.692  11.170  70.941  1.00  0.00     0.000 HD 
HETATM    5  N   UNL     1     -10.748  13.001  69.176  1.00  0.00    -0.438 N  
HETATM    6  H   UNL     1     -10.388  13.611  69.911  1.00  0.00     0.000 HD 
HETATM    7  C   UNL     1     -10.337  13.152  67.884  1.00  0.00    -0.231 C  
HETATM    8  N   UNL     1     -10.564  12.112  67.014  1.00  0.00    -0.223 N  
HETATM    9  O   UNL     1      -9.809  14.197  67.513  1.00  0.00    -0.229 OA 
HETATM   10  C   UNL     1     -11.591  11.293  67.346  1.00  0.00    -0.130 C  
HETATM   11  N   UNL     1     -12.128  11.256  68.513  1.00  0.00    -0.591 NA 
ENDROOT
BRANCH   8  12
HETATM   12  C1* UNL     1     -10.102  12.231  65.642  1.00  0.00    -0.252 C  
HETATM   13  C2* UNL     1      -9.955  10.896  64.915  1.00  0.00    -0.361 C  
HETATM   14  C3* UNL     1     -10.100  11.300  63.470  1.00  0.00    -0.396 C  
HETATM   15  O3* UNL     1      -8.834  11.770  62.998  1.00  0.00    -0.625 OA 
HETATM   16  C4* UNL     1     -11.087  12.465  63.522  1.00  0.00    -0.458 C  
HETATM   17  H3* UNL     1      -8.925  12.024  62.088  1.00  0.00     0.000 HD 
HETATM   18  O4* UNL     1     -11.061  12.982  64.873  1.00  0.00    -0.286 OA 
BRANCH  16  19
HETATM   19  C5* UNL     1     -12.527  12.056  63.206  1.00  0.00    -0.425 C  
HETATM   20  O5* UNL     1     -13.385  12.286  64.321  1.00  0.00    -0.777 OA 
HETATM   21  H5* UNL     1     -14.279  12.032  64.125  1.00  0.00     0.000 HD 
ENDBRANCH  16  19
ENDBRANCH   8  12
TORSDOF 2
ENDMDL
MODEL       20
REMARK 921   NORMALIZED FREE ENERGY PREDICTED BY IDOCK:   -5.50 KCAL/MOL
REMARK 922        TOTAL FREE ENERGY PREDICTED BY IDOCK:   -6.48 KCAL/MOL
REMARK 923 INTER-LIGAND FREE ENERGY PREDICTED BY IDOCK:   -6.35 KCAL/MOL
REMARK 924 INTRA-LIGAND FREE ENERGY PREDICTED BY IDOCK:   -0.13 KCAL/MOL
REMARK 927      BINDING AFFINITY PREDICTED BY RF-SCORE:    0.00 PKD
ROOT
HETATM    1  N   UNL     1     -12.141  15.776  63.716  1.00  0.00    -1.173 NA 
HETATM    2  C   UNL     1     -11.890  14.661  64.439  1.00  0.00    -0.390 C  
HETATM    3  H2  UNL     1     -11.461  16.104  63.031  1.00  0.00     0.000 HD 
HETATM    4  H1  UNL     1     -13.011  16.288  63.858  1.00  0.00     0.000 HD 
HETATM    5  N   UNL     1     -10.792  14.016  64.260  1.00  0.00    -0.593 N  
HETATM    6  H   UNL     1     -10.106  14.336  63.576  1.00  0.00     0.000 HD 
HETATM    7  C   UNL     1     -10.563  12.894  65.002  1.00  0.00    -0.315 C  
HETATM    8  N   UNL     1     -11.324  12.706  66.131  1.00  0.00    -0.312 N  
HETATM    9  O   UNL     1      -9.720  12.072  64.651  1.00  0.00    -0.196 OA 
HETATM   10  C   UNL     1     -12.530  13.325  66.125  1.00  0.00    -0.268 C  
HETATM   11  N   UNL     1     -12.847  14.268  65.311  1.00  0.00    -0.649 NA 
ENDROOT
BRANCH   8  12
HETATM   12  C1* UNL     1     -11.074  11.541  66.960  1.00  0.00    -0.307 C  
HETATM   13  C2* UNL     1      -9.829  11.655  67.838  1.00  0.00    -0.189 C  
HETATM   14  C3* UNL     1     -10.143  10.706  68.966  1.00  0.00    -0.213 C  
HETATM   15  O3* UNL     1      -9.809   9.378  68.552  1.00  0.00    -0.150 OA 
HETATM   16  C4* UNL     1     -11.659  10.822  69.120  1.00  0.00    -0.305 C  
HETATM   17  H3* UNL     1     -10.007   8.780  69.262  1.00  0.00     0.000 HD 
HETATM   18  O4* UNL     1     -12.171  11.354  67.876  1.00  0.00    -0.592 OA 
BRANCH  16  19
HETATM   19  C5* UNL     1     -12.084  11.771  70.243  1.00  0.00    -0.342 C  
HETATM   20  O5* UNL     1     -12.956  11.121  71.165  1.00  0.00    -0.361 OA 
HETATM   21  H5* UNL     1     -13.220  11.710  71.862  1.00  0.00     0.000 HD 
ENDBRANCH  16  19
ENDBRANCH   8  12
TORSDOF 2
ENDMDL
MODEL       21
REMARK 921   NORMALIZED FREE ENERGY PREDICTED BY IDOCK:   -5.50 KCAL/MOL
REMARK 922        TOTAL FREE ENERGY PREDICTED BY IDOCK:   -6.47 KCAL/MOL
REMARK 923 INTER-LIGAND FREE ENERGY PREDICTED BY IDOCK:   -6.30 KCAL/MOL
REMARK 924 INTRA-LIGAND FREE ENERGY PREDICTED BY IDOCK:   -0.17 KCAL/MOL
REMARK 927      BINDING AFFINITY PREDICTED BY RF-SCORE:    0.00 PKD
ROOT
HETATM    1  N   UNL     1     -12.209  11.833  62.970  1.00  0.00    -0.916 NA 
HETATM    2  C   UNL     1     -12.135  12.320  64.229  1.00  0.00    -0.412 C  
HETATM    3  H2  UNL     1     -11.870  10.893  62.765  1.00  0.00     0.000 HD 
HETATM    4  H1  UNL     1     -12.605  12.407  62.226  1.00  0.00     0.000 HD 
HETATM    5  N   UNL     1     -11.635  11.596  65.167  1.00  0.00    -0.131 N  
HETATM    6  H   UNL     1     -11.294  10.655  64.972  1.00  0.00     0.000 HD 
HETATM    7  C   UNL     1     -11.571  12.112  66.429  1.00  0.00    -0.364 C  
HETATM    8  N   UNL     1     -11.706  13.472  66.573  1.00  0.00    -0.352 N  
HETATM    9  O   UNL     1     -11.425  11.374  67.400  1.00  0.00    -0.427 OA 
HETATM   10  C   UNL     1     -12.388  14.094  65.581  1.00  0.00    -0.456 C  
HETATM   11  N   UNL     1     -12.628  13.563  64.436  1.00  0.00    -0.649 NA 
ENDROOT
BRANCH   8  12
HETATM   12  C1* UNL     1     -11.603  14.051  67.901  1.00  0.00    -0.343 C  
HETATM   13  C2* UNL     1     -10.181  14.087  68.458  1.00  0.00    -0.237 C  
HETATM   14  C3* UNL     1     -10.251  15.222  69.446  1.00  0.00    -0.256 C  
HETATM   15  O3* UNL     1     -10.789  14.724  70.675  1.00  0.00    -0.500 OA 
HETATM   16  C4* UNL     1     -11.249  16.189  68.810  1.00  0.00    -0.365 C  
HETATM   17  H3* UNL     1     -10.833  15.439  71.298  1.00  0.00     0.000 HD 
HETATM   18  O4* UNL     1     -12.033  15.426  67.864  1.00  0.00    -0.192 OA 
BRANCH  16  19
HETATM   19  C5* UNL     1     -10.581  17.335  68.047  1.00  0.00    -0.394 C  
HETATM   20  O5* UNL     1     -10.527  17.061  66.649  1.00  0.00    -0.307 OA 
HETATM   21  H5* UNL     1     -10.113  17.773  66.175  1.00  0.00     0.000 HD 
ENDBRANCH  16  19
ENDBRANCH   8  12
TORSDOF 2
ENDMDL
MODEL       22
REMARK 921   NORMALIZED FREE ENERGY PREDICTED BY IDOCK:   -5.47 KCAL/MOL
REMARK 922        TOTAL FREE ENERGY PREDICTED BY IDOCK:   -6.44 KCAL/MOL
REMARK 923 INTER-LIGAND FREE ENERGY PREDICTED BY IDOCK:   -6.09 KCAL/MOL
REMARK 924 INTRA-LIGAND FREE ENERGY PREDICTED BY IDOCK:   -0.35 KCAL/MOL
REMARK 927      BINDING AFFINITY PREDICTED BY RF-SCORE:    0.00 PKD
ROOT
HETATM    1  N   UNL     1      -9.754  20.907  67.228  1.00  0.00    -0.615 NA 
HETATM    2  C   UNL     1     -10.116  19.615  67.059  1.00  0.00    -0.412 C  
HETATM    3  H2  UNL     1      -9.610  21.508  66.416  1.00  0.00     0.000 HD 
HETATM    4  H1  UNL     1      -9.624  21.280  68.168  1.00  0.00     0.000 HD 
HETATM    5  N   UNL     1     -10.279  19.146  65.872  1.00  0.00    -0.394 N  
HETATM    6  H   UNL     1     -10.138  19.740  65.054  1.00  0.00     0.000 HD 
HETATM    7  C   UNL     1     -10.644  17.839  65.729  1.00  0.00    -0.175 C  
HETATM    8  N   UNL     1     -10.476  17.005  66.809  1.00  0.00    -0.291 N  
HETATM    9  O   UNL     1     -11.129  17.436  64.675  1.00  0.00    -1.029 OA 
HETATM   10  C   UNL     1     -10.473  17.617  68.018  1.00  0.00    -0.394 C  
HETATM   11  N   UNL     1     -10.315  18.883  68.179  1.00  0.00    -0.380 NA 
ENDROOT
BRANCH   8  12
HETATM   12  C1* UNL     1     -10.820  15.601  66.671  1.00  0.00    -0.266 C  
HETATM   13  C2* UNL     1      -9.713  14.642  67.105  1.00  0.00    -0.235 C  
HETATM   14  C3* UNL     1     -10.487  13.398  67.461  1.00  0.00    -0.236 C  
HETATM   15  O3* UNL     1     -10.744  12.662  66.262  1.00  0.00    -0.251 OA 
HETATM   16  C4* UNL     1     -11.803  13.942  68.014  1.00  0.00    -0.375 C  
HETATM   17  H3* UNL     1     -11.231  11.878  66.486  1.00  0.00     0.000 HD 
HETATM   18  O4* UNL     1     -11.946  15.293  67.517  1.00  0.00    -0.155 OA 
BRANCH  16  19
HETATM   19  C5* UNL     1     -11.841  14.002  69.543  1.00  0.00    -0.325 C  
HETATM   20  O5* UNL     1     -12.690  15.053  69.997  1.00  0.00    -0.558 OA 
HETATM   21  H5* UNL     1     -12.714  15.090  70.946  1.00  0.00     0.000 HD 
ENDBRANCH  16  19
ENDBRANCH   8  12
TORSDOF 2
ENDMDL
MODEL       23
REMARK 921   NORMALIZED FREE ENERGY PREDICTED BY IDOCK:   -5.44 KCAL/MOL
REMARK 922        TOTAL FREE ENERGY PREDICTED BY IDOCK:   -6.42 KCAL/MOL
REMARK 923 INTER-LIGAND FREE ENERGY PREDICTED BY IDOCK:   -6.08 KCAL/MOL
REMARK 924 INTRA-LIGAND FREE ENERGY PREDICTED BY IDOCK:   -0.34 KCAL/MOL
REMARK 927      BINDING AFFINITY PREDICTED BY RF-SCORE:    0.00 PKD
ROOT
HETATM    1  N   UNL     1      -9.791   7.249  67.846  1.00  0.00    -0.140 NA 
HETATM    2  C   UNL     1     -10.216   8.491  67.520  1.00  0.00    -0.242 C  
HETATM    3  H2  UNL     1     -10.003   6.861  68.765  1.00  0.00     0.000 HD 
HETATM    4  H1  UNL     1      -9.257   6.702  67.171  1.00  0.00     0.000 HD 
HETATM    5  N   UNL     1     -10.889   9.181  68.372  1.00  0.00    -0.447 N  
HETATM    6  H   UNL     1     -11.106   8.801  69.293  1.00  0.00     0.000 HD 
HETATM    7  C   UNL     1     -11.306  10.431  68.019  1.00  0.00    -0.204 C  
HETATM    8  N   UNL     1     -10.701  11.026  66.937  1.00  0.00    -0.266 N  
HETATM    9  O   UNL     1     -12.209  10.988  68.636  1.00  0.00    -0.571 OA 
HETATM   10  C   UNL     1     -10.160  10.173  66.034  1.00  0.00    -0.248 C  
HETATM   11  N   UNL     1      -9.922   8.933  66.275  1.00  0.00    -0.293 NA 
ENDROOT
BRANCH   8  12
HETATM   12  C1* UNL     1     -11.099  12.372  66.563  1.00  0.00    -0.301 C  
HETATM   13  C2* UNL     1      -9.997  13.183  65.884  1.00  0.00    -0.275 C  
HETATM   14  C3* UNL     1     -10.784  14.186  65.081  1.00  0.00    -0.388 C  
HETATM   15  O3* UNL     1     -11.146  15.274  65.937  1.00  0.00    -0.334 OA 
HETATM   16  C4* UNL     1     -12.041  13.416  64.681  1.00  0.00    -0.410 C  
HETATM   17  H3* UNL     1     -11.642  15.906  65.431  1.00  0.00     0.000 HD 
HETATM   18  O4* UNL     1     -12.174  12.311  65.605  1.00  0.00    -0.605 OA 
BRANCH  16  19
HETATM   19  C5* UNL     1     -11.973  12.835  63.266  1.00  0.00    -0.443 C  
HETATM   20  O5* UNL     1     -12.648  11.582  63.190  1.00  0.00    -0.909 OA 
HETATM   21  H5* UNL     1     -12.605  11.221  62.312  1.00  0.00     0.000 HD 
ENDBRANCH  16  19
ENDBRANCH   8  12
TORSDOF 2
ENDMDL
MODEL       24
REMARK 921   NORMALIZED FREE ENERGY PREDICTED BY IDOCK:   -5.42 KCAL/MOL
REMARK 922        TOTAL FREE ENERGY PREDICTED BY IDOCK:   -6.39 KCAL/MOL
REMARK 923 INTER-LIGAND FREE ENERGY PREDICTED BY IDOCK:   -6.09 KCAL/MOL
REMARK 924 INTRA-LIGAND FREE ENERGY PREDICTED BY IDOCK:   -0.31 KCAL/MOL
REMARK 927      BINDING AFFINITY PREDICTED BY RF-SCORE:    0.00 PKD
ROOT
HETATM    1  N   UNL     1      -9.617   7.837  66.022  1.00  0.00    -0.433 NA 
HETATM    2  C   UNL     1     -10.113   9.073  66.260  1.00  0.00    -0.241 C  
HETATM    3  H2  UNL     1      -9.700   7.108  66.730  1.00  0.00     0.000 HD 
HETATM    4  H1  UNL     1      -9.160   7.637  65.133  1.00  0.00     0.000 HD 
HETATM    5  N   UNL     1     -10.690   9.325  67.382  1.00  0.00    -0.377 N  
HETATM    6  H   UNL     1     -10.778   8.602  68.096  1.00  0.00     0.000 HD 
HETATM    7  C   UNL     1     -11.181  10.580  67.598  1.00  0.00    -0.265 C  
HETATM    8  N   UNL     1     -10.735  11.592  66.781  1.00  0.00    -0.257 N  
HETATM    9  O   UNL     1     -12.013  10.784  68.478  1.00  0.00    -0.487 OA 
HETATM   10  C   UNL     1     -10.291  11.199  65.563  1.00  0.00    -0.268 C  
HETATM   11  N   UNL     1      -9.992   9.984  65.267  1.00  0.00    -0.324 NA 
ENDROOT
BRANCH   8  12
HETATM   12  C1* UNL     1     -11.212  12.944  67.014  1.00  0.00    -0.288 C  
HETATM   13  C2* UNL     1     -10.110  14.001  67.028  1.00  0.00    -0.255 C  
HETATM   14  C3* UNL     1     -10.861  15.253  66.653  1.00  0.00    -0.310 C  
HETATM   15  O3* UNL     1     -11.477  15.785  67.830  1.00  0.00    -0.316 OA 
HETATM   16  C4* UNL     1     -11.942  14.749  65.699  1.00  0.00    -0.164 C  
HETATM   17  H3* UNL     1     -11.949  16.574  67.594  1.00  0.00     0.000 HD 
HETATM   18  O4* UNL     1     -12.102  13.333  65.949  1.00  0.00    -0.398 OA 
BRANCH  16  19
HETATM   19  C5* UNL     1     -11.579  14.924  64.223  1.00  0.00    -0.191 C  
HETATM   20  O5* UNL     1     -11.680  16.289  63.825  1.00  0.00    -1.511 OA 
HETATM   21  H5* UNL     1     -11.454  16.398  62.909  1.00  0.00     0.000 HD 
ENDBRANCH  16  19
ENDBRANCH   8  12
TORSDOF 2
ENDMDL
MODEL       25
REMARK 921   NORMALIZED FREE ENERGY PREDICTED BY IDOCK:   -5.39 KCAL/MOL
REMARK 922        TOTAL FREE ENERGY PREDICTED BY IDOCK:   -6.36 KCAL/MOL
REMARK 923 INTER-LIGAND FREE ENERGY PREDICTED BY IDOCK:   -6.04 KCAL/MOL
REMARK 924 INTRA-LIGAND FREE ENERGY PREDICTED BY IDOCK:   -0.31 KCAL/MOL
REMARK 927      BINDING AFFINITY PREDICTED BY RF-SCORE:    0.00 PKD
ROOT
HETATM    1  N   UNL     1      -7.118  21.366  67.278  1.00  0.00    -0.780 NA 
HETATM    2  C   UNL     1      -8.036  20.374  67.206  1.00  0.00    -0.335 C  
HETATM    3  H2  UNL     1      -7.145  22.135  66.609  1.00  0.00     0.000 HD 
HETATM    4  H1  UNL     1      -6.401  21.342  68.002  1.00  0.00     0.000 HD 
HETATM    5  N   UNL     1      -8.940  20.404  66.293  1.00  0.00    -0.587 N  
HETATM    6  H   UNL     1      -8.975  21.170  65.620  1.00  0.00     0.000 HD 
HETATM    7  C   UNL     1      -9.854  19.391  66.242  1.00  0.00    -0.403 C  
HETATM    8  N   UNL     1      -9.562  18.232  66.920  1.00  0.00    -0.285 N  
HETATM    9  O   UNL     1     -10.909  19.530  65.631  1.00  0.00    -0.458 OA 
HETATM   10  C   UNL     1      -8.706  18.369  67.961  1.00  0.00    -0.287 C  
HETATM   11  N   UNL     1      -7.959  19.399  68.142  1.00  0.00    -0.307 NA 
ENDROOT
BRANCH   8  12
HETATM   12  C1* UNL     1     -10.499  17.124  66.850  1.00  0.00    -0.274 C  
HETATM   13  C2* UNL     1      -9.858  15.786  66.487  1.00  0.00    -0.286 C  
HETATM   14  C3* UNL     1     -10.825  14.794  67.081  1.00  0.00    -0.311 C  
HETATM   15  O3* UNL     1     -11.904  14.601  66.160  1.00  0.00    -0.352 OA 
HETATM   16  C4* UNL     1     -11.345  15.505  68.329  1.00  0.00    -0.357 C  
HETATM   17  H3* UNL     1     -12.513  13.976  66.534  1.00  0.00     0.000 HD 
HETATM   18  O4* UNL     1     -11.103  16.919  68.143  1.00  0.00    -0.347 OA 
BRANCH  16  19
HETATM   19  C5* UNL     1     -10.632  15.075  69.613  1.00  0.00    -0.238 C  
HETATM   20  O5* UNL     1     -10.865  13.698  69.896  1.00  0.00    -0.436 OA 
HETATM   21  H5* UNL     1     -10.422  13.431  70.693  1.00  0.00     0.000 HD 
ENDBRANCH  16  19
ENDBRANCH   8  12
TORSDOF 2
ENDMDL
MODEL       26
REMARK 921   NORMALIZED FREE ENERGY PREDICTED BY IDOCK:   -5.36 KCAL/MOL
REMARK 922        TOTAL FREE ENERGY PREDICTED BY IDOCK:   -6.32 KCAL/MOL
REMARK 923 INTER-LIGAND FREE ENERGY PREDICTED BY IDOCK:   -6.03 KCAL/MOL
REMARK 924 INTRA-LIGAND FREE ENERGY PREDICTED BY IDOCK:   -0.29 KCAL/MOL
REMARK 927      BINDING AFFINITY PREDICTED BY RF-SCORE:    0.00 PKD
ROOT
HETATM    1  N   UNL     1      -6.976  11.570  69.846  1.00  0.00    -0.367 NA 
HETATM    2  C   UNL     1      -7.843  11.693  68.815  1.00  0.00    -0.096 C  
HETATM    3  H2  UNL     1      -6.906  10.688  70.353  1.00  0.00     0.000 HD 
HETATM    4  H1  UNL     1      -6.392  12.361  70.116  1.00  0.00     0.000 HD 
HETATM    5  N   UNL     1      -8.578  10.695  68.475  1.00  0.00    -0.130 N  
HETATM    6  H   UNL     1      -8.515   9.808  68.975  1.00  0.00     0.000 HD 
HETATM    7  C   UNL     1      -9.445  10.845  67.432  1.00  0.00    -0.155 C  
HETATM    8  N   UNL     1      -9.748  12.124  67.030  1.00  0.00    -0.199 N  
HETATM    9  O   UNL     1      -9.912   9.864  66.860  1.00  0.00    -0.191 OA 
HETATM   10  C   UNL     1      -8.812  13.059  67.321  1.00  0.00    -0.208 C  
HETATM   11  N   UNL     1      -7.864  12.883  68.171  1.00  0.00    -0.137 NA 
ENDROOT
BRANCH   8  12
HETATM   12  C1* UNL     1     -10.698  12.313  65.948  1.00  0.00    -0.258 C  
HETATM   13  C2* UNL     1     -12.058  12.844  66.396  1.00  0.00    -0.400 C  
HETATM   14  C3* UNL     1     -12.568  13.517  65.147  1.00  0.00    -0.436 C  
HETATM   15  O3* UNL     1     -13.160  12.524  64.304  1.00  0.00    -0.759 OA 
HETATM   16  C4* UNL     1     -11.299  14.052  64.486  1.00  0.00    -0.358 C  
HETATM   17  H3* UNL     1     -13.482  12.948  63.518  1.00  0.00     0.000 HD 
HETATM   18  O4* UNL     1     -10.189  13.296  65.025  1.00  0.00    -0.321 OA 
BRANCH  16  19
HETATM   19  C5* UNL     1     -11.041  15.532  64.778  1.00  0.00    -0.407 C  
HETATM   20  O5* UNL     1     -11.582  16.362  63.753  1.00  0.00    -1.605 OA 
HETATM   21  H5* UNL     1     -11.422  17.280  63.934  1.00  0.00     0.000 HD 
ENDBRANCH  16  19
ENDBRANCH   8  12
TORSDOF 2
ENDMDL
MODEL       27
REMARK 921   NORMALIZED FREE ENERGY PREDICTED BY IDOCK:   -5.32 KCAL/MOL
REMARK 922        TOTAL FREE ENERGY PREDICTED BY IDOCK:   -6.28 KCAL/MOL
REMARK 923 INTER-LIGAND FREE ENERGY PREDICTED BY IDOCK:   -6.02 KCAL/MOL
REMARK 924 INTRA-LIGAND FREE ENERGY PREDICTED BY IDOCK:   -0.25 KCAL/MOL
REMARK 927      BINDING AFFINITY PREDICTED BY RF-SCORE:    0.00 PKD
ROOT
HETATM    1  N   UNL     1     -12.839  15.806  74.432  1.00  0.00    -0.865 NA 
HETATM    2  C   UNL     1     -12.567  15.414  73.166  1.00  0.00    -0.465 C  
HETATM    3  H2  UNL     1     -13.375  15.198  75.050  1.00  0.00     0.000 HD 
HETATM    4  H1  UNL     1     -12.505  16.709  74.766  1.00  0.00     0.000 HD 
HETATM    5  N   UNL     1     -12.988  14.275  72.744  1.00  0.00    -0.462 N  
HETATM    6  H   UNL     1     -13.526  13.660  73.356  1.00  0.00     0.000 HD 
HETATM    7  C   UNL     1     -12.701  13.904  71.463  1.00  0.00    -0.357 C  
HETATM    8  N   UNL     1     -12.298  14.884  70.587  1.00  0.00    -0.320 N  
HETATM    9  O   UNL     1     -12.778  12.727  71.119  1.00  0.00    -0.359 OA 
HETATM   10  C   UNL     1     -11.731  15.973  71.159  1.00  0.00    -0.439 C  
HETATM   11  N   UNL     1     -11.827  16.257  72.409  1.00  0.00    -0.533 NA 
ENDROOT
BRANCH   8  12
HETATM   12  C1* UNL     1     -12.025  14.523  69.207  1.00  0.00    -0.319 C  
HETATM   13  C2* UNL     1     -11.867  15.717  68.269  1.00  0.00    -0.153 C  
HETATM   14  C3* UNL     1     -11.014  15.148  67.164  1.00  0.00    -0.326 C  
HETATM   15  O3* UNL     1     -11.862  14.454  66.244  1.00  0.00    -0.378 OA 
HETATM   16  C4* UNL     1     -10.119  14.142  67.886  1.00  0.00    -0.235 C  
HETATM   17  H3* UNL     1     -11.325  14.095  65.548  1.00  0.00     0.000 HD 
HETATM   18  O4* UNL     1     -10.774  13.810  69.133  1.00  0.00    -0.215 OA 
BRANCH  16  19
HETATM   19  C5* UNL     1      -8.732  14.694  68.220  1.00  0.00    -0.173 C  
HETATM   20  O5* UNL     1      -8.524  14.748  69.629  1.00  0.00    -0.421 OA 
HETATM   21  H5* UNL     1      -7.662  15.091  69.837  1.00  0.00     0.000 HD 
ENDBRANCH  16  19
ENDBRANCH   8  12
TORSDOF 2
ENDMDL
MODEL       28
REMARK 921   NORMALIZED FREE ENERGY PREDICTED BY IDOCK:   -5.28 KCAL/MOL
REMARK 922        TOTAL FREE ENERGY PREDICTED BY IDOCK:   -6.23 KCAL/MOL
REMARK 923 INTER-LIGAND FREE ENERGY PREDICTED BY IDOCK:   -5.92 KCAL/MOL
REMARK 924 INTRA-LIGAND FREE ENERGY PREDICTED BY IDOCK:   -0.30 KCAL/MOL
REMARK 927      BINDING AFFINITY PREDICTED BY RF-SCORE:    0.00 PKD
ROOT
HETATM    1  N   UNL     1      -8.007  10.306  70.170  1.00  0.00    -0.390 NA 
HETATM    2  C   UNL     1      -8.980  10.758  69.348  1.00  0.00     0.041 C  
HETATM    3  H2  UNL     1      -8.246   9.936  71.090  1.00  0.00     0.000 HD 
HETATM    4  H1  UNL     1      -7.033  10.335  69.868  1.00  0.00     0.000 HD 
HETATM    5  N   UNL     1     -10.208  10.721  69.728  1.00  0.00    -0.448 N  
HETATM    6  H   UNL     1     -10.457  10.353  70.646  1.00  0.00     0.000 HD 
HETATM    7  C   UNL     1     -11.171  11.184  68.880  1.00  0.00    -0.256 C  
HETATM    8  N   UNL     1     -10.773  11.980  67.832  1.00  0.00    -0.203 N  
HETATM    9  O   UNL     1     -12.349  10.874  69.040  1.00  0.00    -0.464 OA 
HETATM   10  C   UNL     1      -9.491  11.809  67.430  1.00  0.00    -0.173 C  
HETATM   11  N   UNL     1      -8.595  11.210  68.132  1.00  0.00    -0.134 NA 
ENDROOT
BRANCH   8  12
HETATM   12  C1* UNL     1     -11.782  12.518  66.937  1.00  0.00    -0.377 C  
HETATM   13  C2* UNL     1     -11.522  13.957  66.496  1.00  0.00    -0.361 C  
HETATM   14  C3* UNL     1     -12.267  14.032  65.188  1.00  0.00    -0.436 C  
HETATM   15  O3* UNL     1     -13.646  14.297  65.463  1.00  0.00    -0.650 OA 
HETATM   16  C4* UNL     1     -12.127  12.623  64.615  1.00  0.00    -0.420 C  
HETATM   17  H3* UNL     1     -14.116  14.345  64.639  1.00  0.00     0.000 HD 
HETATM   18  O4* UNL     1     -11.813  11.745  65.721  1.00  0.00    -0.379 OA 
BRANCH  16  19
HETATM   19  C5* UNL     1     -11.002  12.495  63.585  1.00  0.00    -0.456 C  
HETATM   20  O5* UNL     1     -11.089  11.261  62.877  1.00  0.00    -0.818 OA 
HETATM   21  H5* UNL     1     -10.391  11.182  62.237  1.00  0.00     0.000 HD 
ENDBRANCH  16  19
ENDBRANCH   8  12
TORSDOF 2
ENDMDL
MODEL       29
REMARK 921   NORMALIZED FREE ENERGY PREDICTED BY IDOCK:   -5.27 KCAL/MOL
REMARK 922        TOTAL FREE ENERGY PREDICTED BY IDOCK:   -6.22 KCAL/MOL
REMARK 923 INTER-LIGAND FREE ENERGY PREDICTED BY IDOCK:   -5.94 KCAL/MOL
REMARK 924 INTRA-LIGAND FREE ENERGY PREDICTED BY IDOCK:   -0.29 KCAL/MOL
REMARK 927      BINDING AFFINITY PREDICTED BY RF-SCORE:    0.00 PKD
ROOT
HETATM    1  N   UNL     1     -14.065   9.076  73.194  1.00  0.00    -1.223 NA 
HETATM    2  C   UNL     1     -13.198   9.540  72.265  1.00  0.00    -0.421 C  
HETATM    3  H2  UNL     1     -14.103   8.079  73.404  1.00  0.00     0.000 HD 
HETATM    4  H1  UNL     1     -14.680   9.725  73.683  1.00  0.00     0.000 HD 
HETATM    5  N   UNL     1     -12.423   8.720  71.647  1.00  0.00    -0.323 N  
HETATM    6  H   UNL     1     -12.453   7.721  71.851  1.00  0.00     0.000 HD 
HETATM    7  C   UNL     1     -11.558   9.214  70.714  1.00  0.00    -0.276 C  
HETATM    8  N   UNL     1     -11.794  10.477  70.227  1.00  0.00    -0.303 N  
HETATM    9  O   UNL     1     -10.589   8.554  70.348  1.00  0.00    -0.212 OA 
HETATM   10  C   UNL     1     -12.499  11.292  71.048  1.00  0.00    -0.400 C  
HETATM   11  N   UNL     1     -13.182  10.877  72.055  1.00  0.00    -0.458 NA 
ENDROOT
BRANCH   8  12
HETATM   12  C1* UNL     1     -10.912  11.011  69.204  1.00  0.00    -0.237 C  
HETATM   13  C2* UNL     1     -11.294  10.614  67.780  1.00  0.00    -0.320 C  
HETATM   14  C3* UNL     1     -10.690  11.727  66.963  1.00  0.00    -0.246 C  
HETATM   15  O3* UNL     1      -9.307  11.432  66.743  1.00  0.00    -0.173 OA 
HETATM   16  C4* UNL     1     -10.809  12.946  67.875  1.00  0.00    -0.227 C  
HETATM   17  H3* UNL     1      -8.926  12.133  66.228  1.00  0.00     0.000 HD 
HETATM   18  O4* UNL     1     -10.962  12.451  69.226  1.00  0.00    -0.191 OA 
BRANCH  16  19
HETATM   19  C5* UNL     1     -12.023  13.824  67.561  1.00  0.00    -0.376 C  
HETATM   20  O5* UNL     1     -12.548  14.421  68.743  1.00  0.00    -0.548 OA 
HETATM   21  H5* UNL     1     -13.302  14.966  68.548  1.00  0.00     0.000 HD 
ENDBRANCH  16  19
ENDBRANCH   8  12
TORSDOF 2
ENDMDL
MODEL       30
REMARK 921   NORMALIZED FREE ENERGY PREDICTED BY IDOCK:   -5.27 KCAL/MOL
REMARK 922        TOTAL FREE ENERGY PREDICTED BY IDOCK:   -6.22 KCAL/MOL
REMARK 923 INTER-LIGAND FREE ENERGY PREDICTED BY IDOCK:   -5.82 KCAL/MOL
REMARK 924 INTRA-LIGAND FREE ENERGY PREDICTED BY IDOCK:   -0.40 KCAL/MOL
REMARK 927      BINDING AFFINITY PREDICTED BY RF-SCORE:    0.00 PKD
ROOT
HETATM    1  N   UNL     1     -11.689  16.295  63.708  1.00  0.00    -1.488 NA 
HETATM    2  C   UNL     1     -11.263  15.400  64.629  1.00  0.00    -0.364 C  
HETATM    3  H2  UNL     1     -11.355  17.258  63.739  1.00  0.00     0.000 HD 
HETATM    4  H1  UNL     1     -12.345  16.004  62.983  1.00  0.00     0.000 HD 
HETATM    5  N   UNL     1     -10.436  15.766  65.543  1.00  0.00    -0.379 N  
HETATM    6  H   UNL     1     -10.096  16.727  65.582  1.00  0.00     0.000 HD 
HETATM    7  C   UNL     1     -10.022  14.844  66.460  1.00  0.00    -0.265 C  
HETATM    8  N   UNL     1     -10.759  13.690  66.585  1.00  0.00    -0.279 N  
HETATM    9  O   UNL     1      -9.010  15.036  67.127  1.00  0.00    -0.194 OA 
HETATM   10  C   UNL     1     -11.471  13.336  65.488  1.00  0.00    -0.311 C  
HETATM   11  N   UNL     1     -11.725  14.133  64.512  1.00  0.00    -0.405 NA 
ENDROOT
BRANCH   8  12
HETATM   12  C1* UNL     1     -10.363  12.710  67.581  1.00  0.00    -0.220 C  
HETATM   13  C2* UNL     1     -11.531  11.957  68.214  1.00  0.00    -0.372 C  
HETATM   14  C3* UNL     1     -10.881  10.674  68.664  1.00  0.00    -0.227 C  
HETATM   15  O3* UNL     1     -10.254  10.899  69.930  1.00  0.00    -0.431 OA 
HETATM   16  C4* UNL     1      -9.808  10.426  67.604  1.00  0.00    -0.170 C  
HETATM   17  H3* UNL     1      -9.844  10.091  70.214  1.00  0.00     0.000 HD 
HETATM   18  O4* UNL     1      -9.545  11.696  66.963  1.00  0.00    -0.181 OA 
BRANCH  16  19
HETATM   19  C5* UNL     1     -10.242   9.437  66.520  1.00  0.00    -0.238 C  
HETATM   20  O5* UNL     1     -10.229  10.045  65.232  1.00  0.00    -0.296 OA 
HETATM   21  H5* UNL     1     -10.499   9.431  64.559  1.00  0.00     0.000 HD 
ENDBRANCH  16  19
ENDBRANCH   8  12
TORSDOF 2
ENDMDL
MODEL       31
REMARK 921   NORMALIZED FREE ENERGY PREDICTED BY IDOCK:   -5.25 KCAL/MOL
REMARK 922        TOTAL FREE ENERGY PREDICTED BY IDOCK:   -6.20 KCAL/MOL
REMARK 923 INTER-LIGAND FREE ENERGY PREDICTED BY IDOCK:   -6.01 KCAL/MOL
REMARK 924 INTRA-LIGAND FREE ENERGY PREDICTED BY IDOCK:   -0.19 KCAL/MOL
REMARK 927      BINDING AFFINITY PREDICTED BY RF-SCORE:    0.00 PKD
ROOT
HETATM    1  N   UNL     1     -13.148  10.699  72.141  1.00  0.00    -0.546 NA 
HETATM    2  C   UNL     1     -12.714  11.432  71.091  1.00  0.00    -0.377 C  
HETATM    3  H2  UNL     1     -13.376  11.155  73.024  1.00  0.00     0.000 HD 
HETATM    4  H1  UNL     1     -13.248   9.688  72.048  1.00  0.00     0.000 HD 
HETATM    5  N   UNL     1     -12.589  12.706  71.208  1.00  0.00    -0.313 N  
HETATM    6  H   UNL     1     -12.814  13.172  72.087  1.00  0.00     0.000 HD 
HETATM    7  C   UNL     1     -12.149  13.423  70.134  1.00  0.00    -0.344 C  
HETATM    8  N   UNL     1     -11.532  12.736  69.115  1.00  0.00    -0.291 N  
HETATM    9  O   UNL     1     -12.325  14.637  70.076  1.00  0.00    -0.319 OA 
HETATM   10  C   UNL     1     -11.870  11.429  69.010  1.00  0.00    -0.348 C  
HETATM   11  N   UNL     1     -12.457  10.765  69.942  1.00  0.00    -0.281 NA 
ENDROOT
BRANCH   8  12
HETATM   12  C1* UNL     1     -11.019  13.480  67.978  1.00  0.00    -0.251 C  
HETATM   13  C2* UNL     1     -10.049  12.690  67.101  1.00  0.00    -0.224 C  
HETATM   14  C3* UNL     1     -10.180  13.384  65.770  1.00  0.00    -0.295 C  
HETATM   15  O3* UNL     1      -9.337  14.540  65.773  1.00  0.00    -0.520 OA 
HETATM   16  C4* UNL     1     -11.643  13.823  65.738  1.00  0.00    -0.331 C  
HETATM   17  H3* UNL     1      -9.420  14.977  64.935  1.00  0.00     0.000 HD 
HETATM   18  O4* UNL     1     -12.109  13.846  67.108  1.00  0.00    -0.407 OA 
BRANCH  16  19
HETATM   19  C5* UNL     1     -12.547  12.869  64.954  1.00  0.00    -0.458 C  
HETATM   20  O5* UNL     1     -12.714  13.306  63.608  1.00  0.00    -0.704 OA 
HETATM   21  H5* UNL     1     -13.275  12.714  63.121  1.00  0.00     0.000 HD 
ENDBRANCH  16  19
ENDBRANCH   8  12
TORSDOF 2
ENDMDL
MODEL       32
REMARK 921   NORMALIZED FREE ENERGY PREDICTED BY IDOCK:   -5.23 KCAL/MOL
REMARK 922        TOTAL FREE ENERGY PREDICTED BY IDOCK:   -6.17 KCAL/MOL
REMARK 923 INTER-LIGAND FREE ENERGY PREDICTED BY IDOCK:   -5.89 KCAL/MOL
REMARK 924 INTRA-LIGAND FREE ENERGY PREDICTED BY IDOCK:   -0.28 KCAL/MOL
REMARK 927      BINDING AFFINITY PREDICTED BY RF-SCORE:    0.00 PKD
ROOT
HETATM    1  N   UNL     1     -11.824  11.876  67.045  1.00  0.00    -0.613 NA 
HETATM    2  C   UNL     1     -11.700  13.200  67.294  1.00  0.00    -0.374 C  
HETATM    3  H2  UNL     1     -12.117  11.242  67.787  1.00  0.00     0.000 HD 
HETATM    4  H1  UNL     1     -11.623  11.514  66.113  1.00  0.00     0.000 HD 
HETATM    5  N   UNL     1     -11.953  13.656  68.470  1.00  0.00    -0.369 N  
HETATM    6  H   UNL     1     -12.248  13.029  69.219  1.00  0.00     0.000 HD 
HETATM    7  C   UNL     1     -11.820  14.995  68.696  1.00  0.00    -0.296 C  
HETATM    8  N   UNL     1     -11.097  15.729  67.786  1.00  0.00    -0.331 N  
HETATM    9  O   UNL     1     -12.355  15.522  69.668  1.00  0.00    -0.313 OA 
HETATM   10  C   UNL     1     -11.036  15.206  66.538  1.00  0.00    -0.318 C  
HETATM   11  N   UNL     1     -11.333  13.988  66.257  1.00  0.00    -0.324 NA 
ENDROOT
BRANCH   8  12
HETATM   12  C1* UNL     1     -10.907  17.149  68.023  1.00  0.00    -0.317 C  
HETATM   13  C2* UNL     1      -9.788  17.473  69.011  1.00  0.00    -0.225 C  
HETATM   14  C3* UNL     1      -9.395  18.871  68.605  1.00  0.00    -0.369 C  
HETATM   15  O3* UNL     1     -10.297  19.795  69.222  1.00  0.00    -0.636 OA 
HETATM   16  C4* UNL     1      -9.617  18.880  67.094  1.00  0.00    -0.306 C  
HETATM   17  H3* UNL     1     -10.049  20.676  68.967  1.00  0.00     0.000 HD 
HETATM   18  O4* UNL     1     -10.530  17.799  66.793  1.00  0.00    -0.340 OA 
BRANCH  16  19
HETATM   19  C5* UNL     1      -8.335  18.644  66.291  1.00  0.00    -0.230 C  
HETATM   20  O5* UNL     1      -8.303  17.328  65.745  1.00  0.00    -0.535 OA 
HETATM   21  H5* UNL     1      -7.507  17.182  65.246  1.00  0.00     0.000 HD 
ENDBRANCH  16  19
ENDBRANCH   8  12
TORSDOF 2
ENDMDL
MODEL       33
REMARK 921   NORMALIZED FREE ENERGY PREDICTED BY IDOCK:   -5.21 KCAL/MOL
REMARK 922        TOTAL FREE ENERGY PREDICTED BY IDOCK:   -6.16 KCAL/MOL
REMARK 923 INTER-LIGAND FREE ENERGY PREDICTED BY IDOCK:   -5.92 KCAL/MOL
REMARK 924 INTRA-LIGAND FREE ENERGY PREDICTED BY IDOCK:   -0.23 KCAL/MOL
REMARK 927      BINDING AFFINITY PREDICTED BY RF-SCORE:    0.00 PKD
ROOT
HETATM    1  N   UNL     1      -8.615   9.181  62.768  1.00  0.00    -0.246 NA 
HETATM    2  C   UNL     1      -9.333   9.984  63.586  1.00  0.00    -0.253 C  
HETATM    3  H2  UNL     1      -8.194   8.327  63.132  1.00  0.00     0.000 HD 
HETATM    4  H1  UNL     1      -8.496   9.432  61.787  1.00  0.00     0.000 HD 
HETATM    5  N   UNL     1      -9.483   9.668  64.823  1.00  0.00    -0.410 N  
HETATM    6  H   UNL     1      -9.065   8.815  65.197  1.00  0.00     0.000 HD 
HETATM    7  C   UNL     1     -10.211  10.495  65.628  1.00  0.00    -0.246 C  
HETATM    8  N   UNL     1     -10.445  11.776  65.185  1.00  0.00    -0.271 N  
HETATM    9  O   UNL     1     -10.661  10.093  66.697  1.00  0.00    -0.212 OA 
HETATM   10  C   UNL     1     -10.405  11.940  63.841  1.00  0.00    -0.389 C  
HETATM   11  N   UNL     1      -9.886  11.087  63.031  1.00  0.00    -0.339 NA 
ENDROOT
BRANCH   8  12
HETATM   12  C1* UNL     1     -11.184  12.689  66.039  1.00  0.00    -0.306 C  
HETATM   13  C2* UNL     1     -10.320  13.426  67.060  1.00  0.00    -0.247 C  
HETATM   14  C3* UNL     1     -11.130  14.669  67.329  1.00  0.00    -0.328 C  
HETATM   15  O3* UNL     1     -12.131  14.359  68.303  1.00  0.00    -0.512 OA 
HETATM   16  C4* UNL     1     -11.800  14.956  65.987  1.00  0.00    -0.114 C  
HETATM   17  H3* UNL     1     -12.641  15.141  68.473  1.00  0.00     0.000 HD 
HETATM   18  O4* UNL     1     -11.788  13.721  65.234  1.00  0.00    -0.327 OA 
BRANCH  16  19
HETATM   19  C5* UNL     1     -11.069  16.015  65.158  1.00  0.00    -0.283 C  
HETATM   20  O5* UNL     1     -11.761  16.284  63.941  1.00  0.00    -1.441 OA 
HETATM   21  H5* UNL     1     -11.307  16.942  63.426  1.00  0.00     0.000 HD 
ENDBRANCH  16  19
ENDBRANCH   8  12
TORSDOF 2
ENDMDL
MODEL       34
REMARK 921   NORMALIZED FREE ENERGY PREDICTED BY IDOCK:   -5.16 KCAL/MOL
REMARK 922        TOTAL FREE ENERGY PREDICTED BY IDOCK:   -6.10 KCAL/MOL
REMARK 923 INTER-LIGAND FREE ENERGY PREDICTED BY IDOCK:   -5.76 KCAL/MOL
REMARK 924 INTRA-LIGAND FREE ENERGY PREDICTED BY IDOCK:   -0.35 KCAL/MOL
REMARK 927      BINDING AFFINITY PREDICTED BY RF-SCORE:    0.00 PKD
ROOT
HETATM    1  N   UNL     1     -14.159   8.903  73.261  1.00  0.00    -1.248 NA 
HETATM    2  C   UNL     1     -13.312   9.322  72.293  1.00  0.00    -0.477 C  
HETATM    3  H2  UNL     1     -14.694   9.582  73.800  1.00  0.00     0.000 HD 
HETATM    4  H1  UNL     1     -14.261   7.906  73.449  1.00  0.00     0.000 HD 
HETATM    5  N   UNL     1     -13.183  10.579  72.056  1.00  0.00    -0.519 N  
HETATM    6  H   UNL     1     -13.715  11.267  72.590  1.00  0.00     0.000 HD 
HETATM    7  C   UNL     1     -12.321  10.976  71.075  1.00  0.00    -0.385 C  
HETATM    8  N   UNL     1     -11.386  10.068  70.639  1.00  0.00    -0.323 N  
HETATM    9  O   UNL     1     -12.404  12.099  70.585  1.00  0.00    -0.357 OA 
HETATM   10  C   UNL     1     -11.717   8.766  70.815  1.00  0.00    -0.219 C  
HETATM   11  N   UNL     1     -12.654   8.365  71.598  1.00  0.00    -0.321 NA 
ENDROOT
BRANCH   8  12
HETATM   12  C1* UNL     1     -10.431  10.477  69.623  1.00  0.00    -0.219 C  
HETATM   13  C2* UNL     1      -9.070   9.794  69.735  1.00  0.00    -0.246 C  
HETATM   14  C3* UNL     1      -8.552   9.877  68.322  1.00  0.00    -0.115 C  
HETATM   15  O3* UNL     1      -7.962  11.166  68.127  1.00  0.00    -0.113 OA 
HETATM   16  C4* UNL     1      -9.815   9.763  67.471  1.00  0.00    -0.167 C  
HETATM   17  H3* UNL     1      -7.635  11.218  67.237  1.00  0.00     0.000 HD 
HETATM   18  O4* UNL     1     -10.931  10.122  68.319  1.00  0.00    -0.245 OA 
BRANCH  16  19
HETATM   19  C5* UNL     1     -10.066   8.349  66.942  1.00  0.00    -0.294 C  
HETATM   20  O5* UNL     1     -11.120   7.710  67.658  1.00  0.00    -0.508 OA 
HETATM   21  H5* UNL     1     -11.276   6.833  67.330  1.00  0.00     0.000 HD 
ENDBRANCH  16  19
ENDBRANCH   8  12
TORSDOF 2
ENDMDL
MODEL       35
REMARK 921   NORMALIZED FREE ENERGY PREDICTED BY IDOCK:   -5.15 KCAL/MOL
REMARK 922        TOTAL FREE ENERGY PREDICTED BY IDOCK:   -6.09 KCAL/MOL
REMARK 923 INTER-LIGAND FREE ENERGY PREDICTED BY IDOCK:   -5.84 KCAL/MOL
REMARK 924 INTRA-LIGAND FREE ENERGY PREDICTED BY IDOCK:   -0.24 KCAL/MOL
REMARK 927      BINDING AFFINITY PREDICTED BY RF-SCORE:    0.00 PKD
ROOT
HETATM    1  N   UNL     1      -9.598  18.193  67.529  1.00  0.00    -0.275 NA 
HETATM    2  C   UNL     1     -10.114  17.031  67.067  1.00  0.00    -0.295 C  
HETATM    3  H2  UNL     1      -9.763  18.478  68.494  1.00  0.00     0.000 HD 
HETATM    4  H1  UNL     1      -9.042  18.784  66.910  1.00  0.00     0.000 HD 
HETATM    5  N   UNL     1     -10.814  16.287  67.848  1.00  0.00    -0.334 N  
HETATM    6  H   UNL     1     -10.985  16.564  68.815  1.00  0.00     0.000 HD 
HETATM    7  C   UNL     1     -11.324  15.121  67.357  1.00  0.00    -0.306 C  
HETATM    8  N   UNL     1     -11.372  14.966  65.992  1.00  0.00    -0.333 N  
HETATM    9  O   UNL     1     -11.701  14.233  68.118  1.00  0.00    -0.314 OA 
HETATM   10  C   UNL     1     -10.473  15.701  65.295  1.00  0.00    -0.412 C  
HETATM   11  N   UNL     1      -9.832  16.702  65.785  1.00  0.00    -0.536 NA 
ENDROOT
BRANCH   8  12
HETATM   12  C1* UNL     1     -11.946  13.751  65.443  1.00  0.00    -0.379 C  
HETATM   13  C2* UNL     1     -12.387  13.871  63.986  1.00  0.00    -0.355 C  
HETATM   14  C3* UNL     1     -12.326  12.441  63.512  1.00  0.00    -0.546 C  
HETATM   15  O3* UNL     1     -13.538  11.782  63.893  1.00  0.00    -0.382 OA 
HETATM   16  C4* UNL     1     -11.159  11.852  64.303  1.00  0.00    -0.356 C  
HETATM   17  H3* UNL     1     -13.500  10.882  63.594  1.00  0.00     0.000 HD 
HETATM   18  O4* UNL     1     -10.959  12.700  65.458  1.00  0.00    -0.270 OA 
BRANCH  16  19
HETATM   19  C5* UNL     1      -9.848  11.820  63.516  1.00  0.00    -0.365 C  
HETATM   20  O5* UNL     1      -8.787  11.285  64.303  1.00  0.00    -0.383 OA 
HETATM   21  H5* UNL     1      -7.972  11.264  63.814  1.00  0.00     0.000 HD 
ENDBRANCH  16  19
ENDBRANCH   8  12
TORSDOF 2
ENDMDL
MODEL       36
REMARK 921   NORMALIZED FREE ENERGY PREDICTED BY IDOCK:   -5.13 KCAL/MOL
REMARK 922        TOTAL FREE ENERGY PREDICTED BY IDOCK:   -6.07 KCAL/MOL
REMARK 923 INTER-LIGAND FREE ENERGY PREDICTED BY IDOCK:   -6.53 KCAL/MOL
REMARK 924 INTRA-LIGAND FREE ENERGY PREDICTED BY IDOCK:    0.46 KCAL/MOL
REMARK 927      BINDING AFFINITY PREDICTED BY RF-SCORE:    0.00 PKD
ROOT
HETATM    1  N   UNL     1     -12.642  13.279  62.846  1.00  0.00    -0.686 NA 
HETATM    2  C   UNL     1     -11.887  13.957  63.740  1.00  0.00    -0.198 C  
HETATM    3  H2  UNL     1     -13.288  13.782  62.238  1.00  0.00     0.000 HD 
HETATM    4  H1  UNL     1     -12.564  12.264  62.781  1.00  0.00     0.000 HD 
HETATM    5  N   UNL     1     -11.985  15.237  63.821  1.00  0.00    -0.863 N  
HETATM    6  H   UNL     1     -12.628  15.748  63.216  1.00  0.00     0.000 HD 
HETATM    7  C   UNL     1     -11.213  15.897  64.732  1.00  0.00    -0.355 C  
HETATM    8  N   UNL     1     -10.643  15.160  65.743  1.00  0.00    -0.330 N  
HETATM    9  O   UNL     1     -11.017  17.105  64.628  1.00  0.00    -1.005 OA 
HETATM   10  C   UNL     1     -10.457  13.847  65.467  1.00  0.00    -0.323 C  
HETATM   11  N   UNL     1     -11.031  13.231  64.496  1.00  0.00    -0.362 NA 
ENDROOT
BRANCH   8  12
HETATM   12  C1* UNL     1      -9.849  15.844  66.748  1.00  0.00    -0.244 C  
HETATM   13  C2* UNL     1      -8.670  16.632  66.181  1.00  0.00    -0.322 C  
HETATM   14  C3* UNL     1      -8.442  17.678  67.243  1.00  0.00    -0.216 C  
HETATM   15  O3* UNL     1      -7.643  17.105  68.283  1.00  0.00    -0.205 OA 
HETATM   16  C4* UNL     1      -9.846  17.956  67.778  1.00  0.00    -0.300 C  
HETATM   17  H3* UNL     1      -7.499  17.763  68.952  1.00  0.00     0.000 HD 
HETATM   18  O4* UNL     1     -10.665  16.815  67.431  1.00  0.00    -0.314 OA 
BRANCH  16  19
HETATM   19  C5* UNL     1     -10.493  19.199  67.164  1.00  0.00    -0.447 C  
HETATM   20  O5* UNL     1     -10.362  20.328  68.025  1.00  0.00    -0.359 OA 
HETATM   21  H5* UNL     1     -10.764  21.100  67.644  1.00  0.00     0.000 HD 
ENDBRANCH  16  19
ENDBRANCH   8  12
TORSDOF 2
ENDMDL
MODEL       37
REMARK 921   NORMALIZED FREE ENERGY PREDICTED BY IDOCK:   -5.13 KCAL/MOL
REMARK 922        TOTAL FREE ENERGY PREDICTED BY IDOCK:   -6.07 KCAL/MOL
REMARK 923 INTER-LIGAND FREE ENERGY PREDICTED BY IDOCK:   -5.76 KCAL/MOL
REMARK 924 INTRA-LIGAND FREE ENERGY PREDICTED BY IDOCK:   -0.30 KCAL/MOL
REMARK 927      BINDING AFFINITY PREDICTED BY RF-SCORE:    0.00 PKD
ROOT
HETATM    1  N   UNL     1     -10.123  20.197  65.930  1.00  0.00    -0.562 NA 
HETATM    2  C   UNL     1     -10.141  18.967  66.492  1.00  0.00    -0.398 C  
HETATM    3  H2  UNL     1     -10.372  21.015  66.484  1.00  0.00     0.000 HD 
HETATM    4  H1  UNL     1      -9.860  20.304  64.950  1.00  0.00     0.000 HD 
HETATM    5  N   UNL     1     -10.472  18.832  67.727  1.00  0.00    -0.417 N  
HETATM    6  H   UNL     1     -10.722  19.646  68.290  1.00  0.00     0.000 HD 
HETATM    7  C   UNL     1     -10.483  17.581  68.270  1.00  0.00    -0.383 C  
HETATM    8  N   UNL     1     -10.489  16.509  67.410  1.00  0.00    -0.309 N  
HETATM    9  O   UNL     1     -10.461  17.426  69.489  1.00  0.00    -0.248 OA 
HETATM   10  C   UNL     1      -9.970  16.750  66.182  1.00  0.00    -0.327 C  
HETATM   11  N   UNL     1      -9.773  17.928  65.706  1.00  0.00    -0.507 NA 
ENDROOT
BRANCH   8  12
HETATM   12  C1* UNL     1     -10.540  15.166  67.961  1.00  0.00    -0.258 C  
HETATM   13  C2* UNL     1     -11.950  14.593  68.080  1.00  0.00    -0.292 C  
HETATM   14  C3* UNL     1     -11.697  13.107  68.046  1.00  0.00    -0.355 C  
HETATM   15  O3* UNL     1     -11.341  12.675  69.363  1.00  0.00    -0.343 OA 
HETATM   16  C4* UNL     1     -10.487  12.972  67.123  1.00  0.00    -0.243 C  
HETATM   17  H3* UNL     1     -11.182  11.740  69.342  1.00  0.00     0.000 HD 
HETATM   18  O4* UNL     1      -9.830  14.260  67.093  1.00  0.00    -0.243 OA 
BRANCH  16  19
HETATM   19  C5* UNL     1     -10.859  12.604  65.685  1.00  0.00    -0.274 C  
HETATM   20  O5* UNL     1     -12.231  12.229  65.586  1.00  0.00    -0.605 OA 
HETATM   21  H5* UNL     1     -12.462  12.001  64.693  1.00  0.00     0.000 HD 
ENDBRANCH  16  19
ENDBRANCH   8  12
TORSDOF 2
ENDMDL
MODEL       38
REMARK 921   NORMALIZED FREE ENERGY PREDICTED BY IDOCK:   -5.12 KCAL/MOL
REMARK 922        TOTAL FREE ENERGY PREDICTED BY IDOCK:   -6.06 KCAL/MOL
REMARK 923 INTER-LIGAND FREE ENERGY PREDICTED BY IDOCK:   -5.74 KCAL/MOL
REMARK 924 INTRA-LIGAND FREE ENERGY PREDICTED BY IDOCK:   -0.32 KCAL/MOL
REMARK 927      BINDING AFFINITY PREDICTED BY RF-SCORE:    0.00 PKD
ROOT
HETATM    1  N   UNL     1     -13.326  10.754  72.312  1.00  0.00    -0.576 NA 
HETATM    2  C   UNL     1     -13.031  11.873  71.611  1.00  0.00    -0.342 C  
HETATM    3  H2  UNL     1     -13.860  10.821  73.178  1.00  0.00     0.000 HD 
HETATM    4  H1  UNL     1     -13.014   9.845  71.973  1.00  0.00     0.000 HD 
HETATM    5  N   UNL     1     -13.425  13.019  72.039  1.00  0.00    -0.506 N  
HETATM    6  H   UNL     1     -13.960  13.096  72.905  1.00  0.00     0.000 HD 
HETATM    7  C   UNL     1     -13.113  14.132  71.314  1.00  0.00    -0.350 C  
HETATM    8  N   UNL     1     -12.114  14.026  70.376  1.00  0.00    -0.335 N  
HETATM    9  O   UNL     1     -13.728  15.182  71.482  1.00  0.00    -0.418 OA 
HETATM   10  C   UNL     1     -11.903  12.777  69.894  1.00  0.00    -0.301 C  
HETATM   11  N   UNL     1     -12.343  11.709  70.457  1.00  0.00    -0.341 NA 
ENDROOT
BRANCH   8  12
HETATM   12  C1* UNL     1     -11.736  15.205  69.617  1.00  0.00    -0.327 C  
HETATM   13  C2* UNL     1     -10.271  15.607  69.777  1.00  0.00    -0.303 C  
HETATM   14  C3* UNL     1     -10.005  16.366  68.502  1.00  0.00    -0.239 C  
HETATM   15  O3* UNL     1     -10.460  17.713  68.670  1.00  0.00    -0.356 OA 
HETATM   16  C4* UNL     1     -10.885  15.658  67.474  1.00  0.00    -0.316 C  
HETATM   17  H3* UNL     1     -10.292  18.191  67.867  1.00  0.00     0.000 HD 
HETATM   18  O4* UNL     1     -11.911  14.951  68.209  1.00  0.00    -0.324 OA 
BRANCH  16  19
HETATM   19  C5* UNL     1     -10.126  14.633  66.629  1.00  0.00    -0.273 C  
HETATM   20  O5* UNL     1      -9.067  15.247  65.900  1.00  0.00    -0.436 OA 
HETATM   21  H5* UNL     1      -8.596  14.611  65.375  1.00  0.00     0.000 HD 
ENDBRANCH  16  19
ENDBRANCH   8  12
TORSDOF 2
ENDMDL
MODEL       39
REMARK 921   NORMALIZED FREE ENERGY PREDICTED BY IDOCK:   -5.12 KCAL/MOL
REMARK 922        TOTAL FREE ENERGY PREDICTED BY IDOCK:   -6.05 KCAL/MOL
REMARK 923 INTER-LIGAND FREE ENERGY PREDICTED BY IDOCK:   -5.77 KCAL/MOL
REMARK 924 INTRA-LIGAND FREE ENERGY PREDICTED BY IDOCK:   -0.28 KCAL/MOL
REMARK 927      BINDING AFFINITY PREDICTED BY RF-SCORE:    0.00 PKD
ROOT
HETATM    1  N   UNL     1     -10.143  19.535  65.931  1.00  0.00    -0.449 NA 
HETATM    2  C   UNL     1     -10.286  18.287  66.434  1.00  0.00    -0.403 C  
HETATM    3  H2  UNL     1     -10.291  20.347  66.529  1.00  0.00     0.000 HD 
HETATM    4  H1  UNL     1      -9.888  19.661  64.952  1.00  0.00     0.000 HD 
HETATM    5  N   UNL     1     -10.607  18.129  67.669  1.00  0.00    -0.420 N  
HETATM    6  H   UNL     1     -10.756  18.935  68.276  1.00  0.00     0.000 HD 
HETATM    7  C   UNL     1     -10.745  16.860  68.152  1.00  0.00    -0.375 C  
HETATM    8  N   UNL     1     -10.884  15.840  67.242  1.00  0.00    -0.317 N  
HETATM    9  O   UNL     1     -10.717  16.643  69.361  1.00  0.00    -0.321 OA 
HETATM   10  C   UNL     1     -10.365  16.084  66.015  1.00  0.00    -0.351 C  
HETATM   11  N   UNL     1     -10.049  17.256  65.592  1.00  0.00    -0.591 NA 
ENDROOT
BRANCH   8  12
HETATM   12  C1* UNL     1     -11.072  14.485  67.730  1.00  0.00    -0.285 C  
HETATM   13  C2* UNL     1     -11.604  13.511  66.680  1.00  0.00    -0.396 C  
HETATM   14  C3* UNL     1     -11.118  12.182  67.199  1.00  0.00    -0.291 C  
HETATM   15  O3* UNL     1     -12.038  11.716  68.191  1.00  0.00    -0.577 OA 
HETATM   16  C4* UNL     1      -9.785  12.523  67.863  1.00  0.00    -0.205 C  
HETATM   17  H3* UNL     1     -11.732  10.878  68.518  1.00  0.00     0.000 HD 
HETATM   18  O4* UNL     1      -9.804  13.941  68.148  1.00  0.00    -0.226 OA 
BRANCH  16  19
HETATM   19  C5* UNL     1      -8.573  12.242  66.973  1.00  0.00    -0.191 C  
HETATM   20  O5* UNL     1      -7.699  13.366  66.921  1.00  0.00    -0.373 OA 
HETATM   21  H5* UNL     1      -6.946  13.192  66.368  1.00  0.00     0.000 HD 
ENDBRANCH  16  19
ENDBRANCH   8  12
TORSDOF 2
ENDMDL
MODEL       40
REMARK 921   NORMALIZED FREE ENERGY PREDICTED BY IDOCK:   -5.09 KCAL/MOL
REMARK 922        TOTAL FREE ENERGY PREDICTED BY IDOCK:   -6.02 KCAL/MOL
REMARK 923 INTER-LIGAND FREE ENERGY PREDICTED BY IDOCK:   -6.45 KCAL/MOL
REMARK 924 INTRA-LIGAND FREE ENERGY PREDICTED BY IDOCK:    0.43 KCAL/MOL
REMARK 927      BINDING AFFINITY PREDICTED BY RF-SCORE:    0.00 PKD
ROOT
HETATM    1  N   UNL     1     -11.756   9.899  70.613  1.00  0.00    -0.303 NA 
HETATM    2  C   UNL     1     -11.614  10.795  69.610  1.00  0.00    -0.316 C  
HETATM    3  H2  UNL     1     -11.688   8.900  70.419  1.00  0.00     0.000 HD 
HETATM    4  H1  UNL     1     -11.930  10.225  71.564  1.00  0.00     0.000 HD 
HETATM    5  N   UNL     1     -11.394  10.384  68.411  1.00  0.00    -0.462 N  
HETATM    6  H   UNL     1     -11.325   9.387  68.208  1.00  0.00     0.000 HD 
HETATM    7  C   UNL     1     -11.256  11.308  67.417  1.00  0.00    -0.303 C  
HETATM    8  N   UNL     1     -11.702  12.585  67.663  1.00  0.00    -0.360 N  
HETATM    9  O   UNL     1     -10.726  11.007  66.351  1.00  0.00    -0.262 OA 
HETATM   10  C   UNL     1     -11.742  12.943  68.969  1.00  0.00    -0.327 C  
HETATM   11  N   UNL     1     -11.689  12.105  69.942  1.00  0.00    -0.311 NA 
ENDROOT
BRANCH   8  12
HETATM   12  C1* UNL     1     -11.602  13.578  66.608  1.00  0.00    -0.363 C  
HETATM   13  C2* UNL     1     -10.177  13.827  66.117  1.00  0.00    -0.305 C  
HETATM   14  C3* UNL     1     -10.404  14.341  64.718  1.00  0.00    -0.343 C  
HETATM   15  O3* UNL     1     -10.694  15.740  64.787  1.00  0.00    -0.599 OA 
HETATM   16  C4* UNL     1     -11.651  13.587  64.258  1.00  0.00    -0.397 C  
HETATM   17  H3* UNL     1     -10.837  16.064  63.906  1.00  0.00     0.000 HD 
HETATM   18  O4* UNL     1     -12.332  13.128  65.449  1.00  0.00    -0.433 OA 
BRANCH  16  19
HETATM   19  C5* UNL     1     -11.337  12.360  63.399  1.00  0.00    -0.433 C  
HETATM   20  O5* UNL     1     -12.503  11.570  63.182  1.00  0.00    -0.936 OA 
HETATM   21  H5* UNL     1     -12.307  10.808  62.648  1.00  0.00     0.000 HD 
ENDBRANCH  16  19
ENDBRANCH   8  12
TORSDOF 2
ENDMDL
MODEL       41
REMARK 921   NORMALIZED FREE ENERGY PREDICTED BY IDOCK:   -5.05 KCAL/MOL
REMARK 922        TOTAL FREE ENERGY PREDICTED BY IDOCK:   -5.98 KCAL/MOL
REMARK 923 INTER-LIGAND FREE ENERGY PREDICTED BY IDOCK:   -5.98 KCAL/MOL
REMARK 924 INTRA-LIGAND FREE ENERGY PREDICTED BY IDOCK:   -0.00 KCAL/MOL
REMARK 927      BINDING AFFINITY PREDICTED BY RF-SCORE:    0.00 PKD
ROOT
HETATM    1  N   UNL     1      -9.999  10.176  62.336  1.00  0.00    -0.658 NA 
HETATM    2  C   UNL     1     -10.098  10.999  63.405  1.00  0.00    -0.370 C  
HETATM    3  H2  UNL     1     -10.375  10.464  61.433  1.00  0.00     0.000 HD 
HETATM    4  H1  UNL     1      -9.547   9.267  62.435  1.00  0.00     0.000 HD 
HETATM    5  N   UNL     1     -10.668  12.145  63.280  1.00  0.00    -0.624 N  
HETATM    6  H   UNL     1     -11.047  12.442  62.380  1.00  0.00     0.000 HD 
HETATM    7  C   UNL     1     -10.755  12.956  64.373  1.00  0.00    -0.386 C  
HETATM    8  N   UNL     1     -10.560  12.388  65.610  1.00  0.00    -0.258 N  
HETATM    9  O   UNL     1     -10.975  14.158  64.246  1.00  0.00    -0.285 OA 
HETATM   10  C   UNL     1      -9.811  11.259  65.616  1.00  0.00    -0.234 C  
HETATM   11  N   UNL     1      -9.553  10.565  64.565  1.00  0.00    -0.273 NA 
ENDROOT
BRANCH   8  12
HETATM   12  C1* UNL     1     -10.687  13.221  66.793  1.00  0.00    -0.276 C  
HETATM   13  C2* UNL     1     -12.110  13.698  67.071  1.00  0.00    -0.423 C  
HETATM   14  C3* UNL     1     -12.081  13.949  68.557  1.00  0.00    -0.296 C  
HETATM   15  O3* UNL     1     -11.530  15.249  68.790  1.00  0.00    -0.294 OA 
HETATM   16  C4* UNL     1     -11.114  12.888  69.080  1.00  0.00    -0.233 C  
HETATM   17  H3* UNL     1     -11.511  15.407  69.725  1.00  0.00     0.000 HD 
HETATM   18  O4* UNL     1     -10.302  12.466  67.959  1.00  0.00    -0.204 OA 
BRANCH  16  19
HETATM   19  C5* UNL     1     -11.816  11.649  69.639  1.00  0.00    -0.352 C  
HETATM   20  O5* UNL     1     -12.236  10.777  68.593  1.00  0.00    -0.813 OA 
HETATM   21  H5* UNL     1     -12.672  10.008  68.940  1.00  0.00     0.000 HD 
ENDBRANCH  16  19
ENDBRANCH   8  12
TORSDOF 2
ENDMDL
MODEL       42
REMARK 921   NORMALIZED FREE ENERGY PREDICTED BY IDOCK:   -5.04 KCAL/MOL
REMARK 922        TOTAL FREE ENERGY PREDICTED BY IDOCK:   -5.96 KCAL/MOL
REMARK 923 INTER-LIGAND FREE ENERGY PREDICTED BY IDOCK:   -5.62 KCAL/MOL
REMARK 924 INTRA-LIGAND FREE ENERGY PREDICTED BY IDOCK:   -0.35 KCAL/MOL
REMARK 927      BINDING AFFINITY PREDICTED BY RF-SCORE:    0.00 PKD
ROOT
HETATM    1  N   UNL     1     -12.234  14.893  63.822  1.00  0.00    -1.026 NA 
HETATM    2  C   UNL     1     -11.280  15.380  64.648  1.00  0.00    -0.364 C  
HETATM    3  H2  UNL     1     -12.362  13.886  63.727  1.00  0.00     0.000 HD 
HETATM    4  H1  UNL     1     -12.826  15.536  63.295  1.00  0.00     0.000 HD 
HETATM    5  N   UNL     1     -10.535  14.570  65.313  1.00  0.00    -0.363 N  
HETATM    6  H   UNL     1     -10.656  13.560  65.224  1.00  0.00     0.000 HD 
HETATM    7  C   UNL     1      -9.580  15.086  66.139  1.00  0.00    -0.314 C  
HETATM    8  N   UNL     1      -9.221  16.401  65.960  1.00  0.00    -0.320 N  
HETATM    9  O   UNL     1      -9.081  14.399  67.026  1.00  0.00    -0.214 OA 
HETATM   10  C   UNL     1     -10.163  17.184  65.381  1.00  0.00     0.066 C  
HETATM   11  N   UNL     1     -11.184  16.726  64.747  1.00  0.00    -0.745 NA 
ENDROOT
BRANCH   8  12
HETATM   12  C1* UNL     1      -8.179  16.965  66.800  1.00  0.00    -0.240 C  
HETATM   13  C2* UNL     1      -7.065  17.667  66.026  1.00  0.00    -0.318 C  
HETATM   14  C3* UNL     1      -6.529  18.639  67.046  1.00  0.00    -0.187 C  
HETATM   15  O3* UNL     1      -5.599  17.950  67.887  1.00  0.00    -0.149 OA 
HETATM   16  C4* UNL     1      -7.763  19.020  67.860  1.00  0.00    -0.266 C  
HETATM   17  H3* UNL     1      -5.260  18.562  68.529  1.00  0.00     0.000 HD 
HETATM   18  O4* UNL     1      -8.744  17.975  67.659  1.00  0.00    -0.243 OA 
BRANCH  16  19
HETATM   19  C5* UNL     1      -8.395  20.343  67.422  1.00  0.00    -0.318 C  
HETATM   20  O5* UNL     1      -7.454  21.160  66.730  1.00  0.00    -0.615 OA 
HETATM   21  H5* UNL     1      -7.847  21.981  66.458  1.00  0.00     0.000 HD 
ENDBRANCH  16  19
ENDBRANCH   8  12
TORSDOF 2
ENDMDL
MODEL       43
REMARK 921   NORMALIZED FREE ENERGY PREDICTED BY IDOCK:   -5.02 KCAL/MOL
REMARK 922        TOTAL FREE ENERGY PREDICTED BY IDOCK:   -5.94 KCAL/MOL
REMARK 923 INTER-LIGAND FREE ENERGY PREDICTED BY IDOCK:   -5.64 KCAL/MOL
REMARK 924 INTRA-LIGAND FREE ENERGY PREDICTED BY IDOCK:   -0.30 KCAL/MOL
REMARK 927      BINDING AFFINITY PREDICTED BY RF-SCORE:    0.00 PKD
ROOT
HETATM    1  N   UNL     1      -7.157  20.724  65.372  1.00  0.00    -0.525 NA 
HETATM    2  C   UNL     1      -7.963  19.775  65.901  1.00  0.00    -0.280 C  
HETATM    3  H2  UNL     1      -7.458  21.697  65.352  1.00  0.00     0.000 HD 
HETATM    4  H1  UNL     1      -6.246  20.463  64.994  1.00  0.00     0.000 HD 
HETATM    5  N   UNL     1      -9.111  20.104  66.378  1.00  0.00    -0.537 N  
HETATM    6  H   UNL     1      -9.421  21.076  66.363  1.00  0.00     0.000 HD 
HETATM    7  C   UNL     1      -9.906  19.129  66.905  1.00  0.00    -0.335 C  
HETATM    8  N   UNL     1      -9.612  17.823  66.589  1.00  0.00    -0.296 N  
HETATM    9  O   UNL     1     -10.834  19.415  67.657  1.00  0.00    -0.455 OA 
HETATM   10  C   UNL     1      -8.323  17.586  66.247  1.00  0.00    -0.224 C  
HETATM   11  N   UNL     1      -7.489  18.508  65.920  1.00  0.00    -0.470 NA 
ENDROOT
BRANCH   8  12
HETATM   12  C1* UNL     1     -10.466  16.768  67.105  1.00  0.00    -0.299 C  
HETATM   13  C2* UNL     1     -10.753  15.651  66.103  1.00  0.00    -0.305 C  
HETATM   14  C3* UNL     1     -11.064  14.483  67.003  1.00  0.00    -0.322 C  
HETATM   15  O3* UNL     1     -12.436  14.567  67.402  1.00  0.00    -0.580 OA 
HETATM   16  C4* UNL     1     -10.168  14.719  68.218  1.00  0.00    -0.227 C  
HETATM   17  H3* UNL     1     -12.632  13.831  67.969  1.00  0.00     0.000 HD 
HETATM   18  O4* UNL     1      -9.818  16.123  68.219  1.00  0.00    -0.219 OA 
BRANCH  16  19
HETATM   19  C5* UNL     1      -8.867  13.914  68.178  1.00  0.00    -0.184 C  
HETATM   20  O5* UNL     1      -9.004  12.677  68.872  1.00  0.00    -0.382 OA 
HETATM   21  H5* UNL     1      -8.197  12.177  68.847  1.00  0.00     0.000 HD 
ENDBRANCH  16  19
ENDBRANCH   8  12
TORSDOF 2
ENDMDL
MODEL       44
REMARK 921   NORMALIZED FREE ENERGY PREDICTED BY IDOCK:   -4.98 KCAL/MOL
REMARK 922        TOTAL FREE ENERGY PREDICTED BY IDOCK:   -5.89 KCAL/MOL
REMARK 923 INTER-LIGAND FREE ENERGY PREDICTED BY IDOCK:   -5.59 KCAL/MOL
REMARK 924 INTRA-LIGAND FREE ENERGY PREDICTED BY IDOCK:   -0.30 KCAL/MOL
REMARK 927      BINDING AFFINITY PREDICTED BY RF-SCORE:    0.00 PKD
ROOT
HETATM    1  N   UNL     1     -12.749  10.320  71.426  1.00  0.00    -0.403 NA 
HETATM    2  C   UNL     1     -12.273  10.925  70.313  1.00  0.00    -0.348 C  
HETATM    3  H2  UNL     1     -12.854   9.306  71.450  1.00  0.00     0.000 HD 
HETATM    4  H1  UNL     1     -13.001  10.880  72.240  1.00  0.00     0.000 HD 
HETATM    5  N   UNL     1     -11.955  10.218  69.287  1.00  0.00    -0.515 N  
HETATM    6  H   UNL     1     -12.056   9.203  69.302  1.00  0.00     0.000 HD 
HETATM    7  C   UNL     1     -11.478  10.853  68.177  1.00  0.00    -0.295 C  
HETATM    8  N   UNL     1     -11.690  12.207  68.073  1.00  0.00    -0.348 N  
HETATM    9  O   UNL     1     -10.859  10.232  67.318  1.00  0.00    -0.277 OA 
HETATM   10  C   UNL     1     -11.863  12.858  69.249  1.00  0.00    -0.309 C  
HETATM   11  N   UNL     1     -12.133  12.270  70.359  1.00  0.00    -0.349 NA 
ENDROOT
BRANCH   8  12
HETATM   12  C1* UNL     1     -11.228  12.900  66.884  1.00  0.00    -0.291 C  
HETATM   13  C2* UNL     1     -12.311  13.705  66.169  1.00  0.00    -0.476 C  
HETATM   14  C3* UNL     1     -11.507  14.752  65.441  1.00  0.00    -0.341 C  
HETATM   15  O3* UNL     1     -11.026  14.188  64.217  1.00  0.00    -0.592 OA 
HETATM   16  C4* UNL     1     -10.328  15.011  66.377  1.00  0.00    -0.287 C  
HETATM   17  H3* UNL     1     -10.520  14.848  63.758  1.00  0.00     0.000 HD 
HETATM   18  O4* UNL     1     -10.215  13.860  67.247  1.00  0.00    -0.246 OA 
BRANCH  16  19
HETATM   19  C5* UNL     1     -10.515  16.247  67.261  1.00  0.00    -0.300 C  
HETATM   20  O5* UNL     1      -9.330  16.538  67.998  1.00  0.00    -0.213 OA 
HETATM   21  H5* UNL     1      -9.446  17.305  68.547  1.00  0.00     0.000 HD 
ENDBRANCH  16  19
ENDBRANCH   8  12
TORSDOF 2
ENDMDL
MODEL       45
REMARK 921   NORMALIZED FREE ENERGY PREDICTED BY IDOCK:   -4.97 KCAL/MOL
REMARK 922        TOTAL FREE ENERGY PREDICTED BY IDOCK:   -5.89 KCAL/MOL
REMARK 923 INTER-LIGAND FREE ENERGY PREDICTED BY IDOCK:   -5.55 KCAL/MOL
REMARK 924 INTRA-LIGAND FREE ENERGY PREDICTED BY IDOCK:   -0.34 KCAL/MOL
REMARK 927      BINDING AFFINITY PREDICTED BY RF-SCORE:    0.00 PKD
ROOT
HETATM    1  N   UNL     1     -13.856  15.055  72.955  1.00  0.00    -0.539 NA 
HETATM    2  C   UNL     1     -13.180  14.664  71.851  1.00  0.00    -0.349 C  
HETATM    3  H2  UNL     1     -14.183  14.361  73.627  1.00  0.00     0.000 HD 
HETATM    4  H1  UNL     1     -14.039  16.046  73.114  1.00  0.00     0.000 HD 
HETATM    5  N   UNL     1     -12.950  13.415  71.651  1.00  0.00    -0.367 N  
HETATM    6  H   UNL     1     -13.272  12.713  72.317  1.00  0.00     0.000 HD 
HETATM    7  C   UNL     1     -12.266  13.046  70.529  1.00  0.00    -0.313 C  
HETATM    8  N   UNL     1     -12.168  13.962  69.509  1.00  0.00    -0.336 N  
HETATM    9  O   UNL     1     -11.736  11.941  70.453  1.00  0.00    -0.283 OA 
HETATM   10  C   UNL     1     -12.279  15.260  69.883  1.00  0.00    -0.323 C  
HETATM   11  N   UNL     1     -12.752  15.639  71.016  1.00  0.00    -0.466 NA 
ENDROOT
BRANCH   8  12
HETATM   12  C1* UNL     1     -11.479  13.582  68.288  1.00  0.00    -0.310 C  
HETATM   13  C2* UNL     1     -12.247  13.911  67.010  1.00  0.00    -0.392 C  
HETATM   14  C3* UNL     1     -11.142  14.022  65.990  1.00  0.00    -0.303 C  
HETATM   15  O3* UNL     1     -10.811  12.707  65.531  1.00  0.00    -0.270 OA 
HETATM   16  C4* UNL     1      -9.971  14.587  66.792  1.00  0.00    -0.264 C  
HETATM   17  H3* UNL     1     -10.115  12.776  64.889  1.00  0.00     0.000 HD 
HETATM   18  O4* UNL     1     -10.238  14.308  68.187  1.00  0.00    -0.222 OA 
BRANCH  16  19
HETATM   19  C5* UNL     1      -9.808  16.101  66.643  1.00  0.00    -0.249 C  
HETATM   20  O5* UNL     1     -10.054  16.517  65.302  1.00  0.00    -0.564 OA 
HETATM   21  H5* UNL     1      -9.953  17.457  65.209  1.00  0.00     0.000 HD 
ENDBRANCH  16  19
ENDBRANCH   8  12
TORSDOF 2
ENDMDL
MODEL       46
REMARK 921   NORMALIZED FREE ENERGY PREDICTED BY IDOCK:   -4.97 KCAL/MOL
REMARK 922        TOTAL FREE ENERGY PREDICTED BY IDOCK:   -5.89 KCAL/MOL
REMARK 923 INTER-LIGAND FREE ENERGY PREDICTED BY IDOCK:   -5.58 KCAL/MOL
REMARK 924 INTRA-LIGAND FREE ENERGY PREDICTED BY IDOCK:   -0.31 KCAL/MOL
REMARK 927      BINDING AFFINITY PREDICTED BY RF-SCORE:    0.00 PKD
ROOT
HETATM    1  N   UNL     1      -9.904  12.209  66.758  1.00  0.00    -0.203 NA 
HETATM    2  C   UNL     1     -10.439  11.764  67.918  1.00  0.00    -0.196 C  
HETATM    3  H2  UNL     1     -10.155  13.131  66.400  1.00  0.00     0.000 HD 
HETATM    4  H1  UNL     1      -9.249  11.622  66.243  1.00  0.00     0.000 HD 
HETATM    5  N   UNL     1     -11.265  12.506  68.568  1.00  0.00    -0.261 N  
HETATM    6  H   UNL     1     -11.522  13.429  68.218  1.00  0.00     0.000 HD 
HETATM    7  C   UNL     1     -11.792  12.033  69.734  1.00  0.00    -0.331 C  
HETATM    8  N   UNL     1     -11.702  10.683  69.977  1.00  0.00    -0.296 N  
HETATM    9  O   UNL     1     -12.303  12.800  70.546  1.00  0.00    -0.339 OA 
HETATM   10  C   UNL     1     -10.688  10.047  69.342  1.00  0.00    -0.233 C  
HETATM   11  N   UNL     1     -10.042  10.544  68.348  1.00  0.00    -0.158 NA 
ENDROOT
BRANCH   8  12
HETATM   12  C1* UNL     1     -12.289  10.148  71.193  1.00  0.00    -0.385 C  
HETATM   13  C2* UNL     1     -13.493   9.239  70.958  1.00  0.00    -0.120 C  
HETATM   14  C3* UNL     1     -13.491   8.376  72.194  1.00  0.00    -0.315 C  
HETATM   15  O3* UNL     1     -14.150   9.086  73.247  1.00  0.00    -1.218 OA 
HETATM   16  C4* UNL     1     -12.007   8.236  72.530  1.00  0.00    -0.356 C  
HETATM   17  H3* UNL     1     -14.149   8.543  74.025  1.00  0.00     0.000 HD 
HETATM   18  O4* UNL     1     -11.320   9.330  71.879  1.00  0.00    -0.374 OA 
BRANCH  16  19
HETATM   19  C5* UNL     1     -11.390   6.931  72.022  1.00  0.00    -0.265 C  
HETATM   20  O5* UNL     1     -11.917   5.805  72.721  1.00  0.00    -0.527 OA 
HETATM   21  H5* UNL     1     -11.534   4.995  72.406  1.00  0.00     0.000 HD 
ENDBRANCH  16  19
ENDBRANCH   8  12
TORSDOF 2
ENDMDL
MODEL       47
REMARK 921   NORMALIZED FREE ENERGY PREDICTED BY IDOCK:   -4.96 KCAL/MOL
REMARK 922        TOTAL FREE ENERGY PREDICTED BY IDOCK:   -5.88 KCAL/MOL
REMARK 923 INTER-LIGAND FREE ENERGY PREDICTED BY IDOCK:   -5.56 KCAL/MOL
REMARK 924 INTRA-LIGAND FREE ENERGY PREDICTED BY IDOCK:   -0.31 KCAL/MOL
REMARK 927      BINDING AFFINITY PREDICTED BY RF-SCORE:    0.00 PKD
ROOT
HETATM    1  N   UNL     1     -10.253   7.567  71.662  1.00  0.00    -0.185 NA 
HETATM    2  C   UNL     1     -10.719   8.611  70.938  1.00  0.00    -0.219 C  
HETATM    3  H2  UNL     1     -10.441   7.514  72.662  1.00  0.00     0.000 HD 
HETATM    4  H1  UNL     1      -9.714   6.833  71.204  1.00  0.00     0.000 HD 
HETATM    5  N   UNL     1     -11.399   9.537  71.516  1.00  0.00    -0.390 N  
HETATM    6  H   UNL     1     -11.593   9.493  72.517  1.00  0.00     0.000 HD 
HETATM    7  C   UNL     1     -11.857  10.579  70.764  1.00  0.00    -0.365 C  
HETATM    8  N   UNL     1     -11.286  10.779  69.530  1.00  0.00    -0.259 N  
HETATM    9  O   UNL     1     -12.768  11.294  71.174  1.00  0.00    -0.384 OA 
HETATM   10  C   UNL     1     -10.733   9.679  68.964  1.00  0.00    -0.211 C  
HETATM   11  N   UNL     1     -10.456   8.604  69.611  1.00  0.00    -0.219 NA 
ENDROOT
BRANCH   8  12
HETATM   12  C1* UNL     1     -11.727  11.905  68.726  1.00  0.00    -0.321 C  
HETATM   13  C2* UNL     1     -10.726  13.056  68.661  1.00  0.00    -0.273 C  
HETATM   14  C3* UNL     1     -11.093  13.729  67.363  1.00  0.00    -0.296 C  
HETATM   15  O3* UNL     1     -12.193  14.612  67.602  1.00  0.00    -0.593 OA 
HETATM   16  C4* UNL     1     -11.556  12.572  66.479  1.00  0.00    -0.388 C  
HETATM   17  H3* UNL     1     -12.425  15.036  66.785  1.00  0.00     0.000 HD 
HETATM   18  O4* UNL     1     -11.911  11.481  67.361  1.00  0.00    -0.623 OA 
BRANCH  16  19
HETATM   19  C5* UNL     1     -10.471  12.066  65.525  1.00  0.00    -0.269 C  
HETATM   20  O5* UNL     1     -10.022  13.104  64.658  1.00  0.00    -0.571 OA 
HETATM   21  H5* UNL     1      -9.349  12.790  64.065  1.00  0.00     0.000 HD 
ENDBRANCH  16  19
ENDBRANCH   8  12
TORSDOF 2
ENDMDL
MODEL       48
REMARK 921   NORMALIZED FREE ENERGY PREDICTED BY IDOCK:   -4.94 KCAL/MOL
REMARK 922        TOTAL FREE ENERGY PREDICTED BY IDOCK:   -5.85 KCAL/MOL
REMARK 923 INTER-LIGAND FREE ENERGY PREDICTED BY IDOCK:   -5.70 KCAL/MOL
REMARK 924 INTRA-LIGAND FREE ENERGY PREDICTED BY IDOCK:   -0.15 KCAL/MOL
REMARK 927      BINDING AFFINITY PREDICTED BY RF-SCORE:    0.00 PKD
ROOT
HETATM    1  N   UNL     1      -6.987  13.976  69.916  1.00  0.00    -0.362 NA 
HETATM    2  C   UNL     1      -8.001  14.241  69.061  1.00  0.00    -0.027 C  
HETATM    3  H2  UNL     1      -6.959  14.424  70.831  1.00  0.00     0.000 HD 
HETATM    4  H1  UNL     1      -6.250  13.326  69.643  1.00  0.00     0.000 HD 
HETATM    5  N   UNL     1      -8.930  15.061  69.406  1.00  0.00    -0.403 N  
HETATM    6  H   UNL     1      -8.912  15.514  70.320  1.00  0.00     0.000 HD 
HETATM    7  C   UNL     1      -9.942  15.312  68.525  1.00  0.00    -0.222 C  
HETATM    8  N   UNL     1      -9.745  14.969  67.209  1.00  0.00    -0.219 N  
HETATM    9  O   UNL     1     -11.000  15.803  68.910  1.00  0.00    -0.248 OA 
HETATM   10  C   UNL     1      -8.842  13.981  66.996  1.00  0.00    -0.219 C  
HETATM   11  N   UNL     1      -7.989  13.591  67.875  1.00  0.00    -0.146 NA 
ENDROOT
BRANCH   8  12
HETATM   12  C1* UNL     1     -10.790  15.261  66.244  1.00  0.00    -0.312 C  
HETATM   13  C2* UNL     1     -10.372  15.056  64.789  1.00  0.00    -0.201 C  
HETATM   14  C3* UNL     1     -11.693  14.801  64.108  1.00  0.00    -0.147 C  
HETATM   15  O3* UNL     1     -12.308  16.061  63.821  1.00  0.00    -1.167 OA 
HETATM   16  C4* UNL     1     -12.509  14.070  65.172  1.00  0.00    -0.452 C  
HETATM   17  H3* UNL     1     -13.139  15.901  63.392  1.00  0.00     0.000 HD 
HETATM   18  O4* UNL     1     -11.903  14.370  66.451  1.00  0.00    -0.384 OA 
BRANCH  16  19
HETATM   19  C5* UNL     1     -12.506  12.549  65.000  1.00  0.00    -0.420 C  
HETATM   20  O5* UNL     1     -13.042  12.172  63.735  1.00  0.00    -0.774 OA 
HETATM   21  H5* UNL     1     -13.040  11.228  63.627  1.00  0.00     0.000 HD 
ENDBRANCH  16  19
ENDBRANCH   8  12
TORSDOF 2
ENDMDL
MODEL       49
REMARK 921   NORMALIZED FREE ENERGY PREDICTED BY IDOCK:   -4.91 KCAL/MOL
REMARK 922        TOTAL FREE ENERGY PREDICTED BY IDOCK:   -5.82 KCAL/MOL
REMARK 923 INTER-LIGAND FREE ENERGY PREDICTED BY IDOCK:   -5.51 KCAL/MOL
REMARK 924 INTRA-LIGAND FREE ENERGY PREDICTED BY IDOCK:   -0.31 KCAL/MOL
REMARK 927      BINDING AFFINITY PREDICTED BY RF-SCORE:    0.00 PKD
ROOT
HETATM    1  N   UNL     1     -11.722  16.332  63.712  1.00  0.00    -1.488 NA 
HETATM    2  C   UNL     1     -10.972  16.326  64.837  1.00  0.00    -0.307 C  
HETATM    3  H2  UNL     1     -11.919  15.459  63.224  1.00  0.00     0.000 HD 
HETATM    4  H1  UNL     1     -12.090  17.213  63.352  1.00  0.00     0.000 HD 
HETATM    5  N   UNL     1     -10.508  15.215  65.291  1.00  0.00    -0.385 N  
HETATM    6  H   UNL     1     -10.700  14.336  64.810  1.00  0.00     0.000 HD 
HETATM    7  C   UNL     1      -9.753  15.236  66.427  1.00  0.00    -0.285 C  
HETATM    8  N   UNL     1      -9.234  16.444  66.829  1.00  0.00    -0.223 N  
HETATM    9  O   UNL     1      -9.572  14.210  67.078  1.00  0.00    -0.244 OA 
HETATM   10  C   UNL     1      -9.911  17.536  66.402  1.00  0.00    -0.325 C  
HETATM   11  N   UNL     1     -10.772  17.517  65.448  1.00  0.00    -0.586 NA 
ENDROOT
BRANCH   8  12
HETATM   12  C1* UNL     1      -8.394  16.487  68.014  1.00  0.00    -0.180 C  
HETATM   13  C2* UNL     1      -6.930  16.141  67.755  1.00  0.00    -0.161 C  
HETATM   14  C3* UNL     1      -6.228  16.843  68.889  1.00  0.00    -0.173 C  
HETATM   15  O3* UNL     1      -6.287  16.007  70.049  1.00  0.00    -0.177 OA 
HETATM   16  C4* UNL     1      -7.079  18.090  69.119  1.00  0.00    -0.183 C  
HETATM   17  H3* UNL     1      -5.845  16.449  70.763  1.00  0.00     0.000 HD 
HETATM   18  O4* UNL     1      -8.382  17.825  68.549  1.00  0.00    -0.290 OA 
BRANCH  16  19
HETATM   19  C5* UNL     1      -6.519  19.342  68.439  1.00  0.00    -0.243 C  
HETATM   20  O5* UNL     1      -7.485  19.937  67.576  1.00  0.00    -0.260 OA 
HETATM   21  H5* UNL     1      -7.137  20.714  67.154  1.00  0.00     0.000 HD 
ENDBRANCH  16  19
ENDBRANCH   8  12
TORSDOF 2
ENDMDL
MODEL       50
REMARK 921   NORMALIZED FREE ENERGY PREDICTED BY IDOCK:   -4.88 KCAL/MOL
REMARK 922        TOTAL FREE ENERGY PREDICTED BY IDOCK:   -5.79 KCAL/MOL
REMARK 923 INTER-LIGAND FREE ENERGY PREDICTED BY IDOCK:   -5.62 KCAL/MOL
REMARK 924 INTRA-LIGAND FREE ENERGY PREDICTED BY IDOCK:   -0.17 KCAL/MOL
REMARK 927      BINDING AFFINITY PREDICTED BY RF-SCORE:    0.00 PKD
ROOT
HETATM    1  N   UNL     1     -11.149  10.296  70.953  1.00  0.00    -0.359 NA 
HETATM    2  C   UNL     1     -10.789  10.753  69.732  1.00  0.00    -0.226 C  
HETATM    3  H2  UNL     1     -10.436   9.982  71.611  1.00  0.00     0.000 HD 
HETATM    4  H1  UNL     1     -12.134  10.265  71.214  1.00  0.00     0.000 HD 
HETATM    5  N   UNL     1      -9.546  10.791  69.404  1.00  0.00    -0.410 N  
HETATM    6  H   UNL     1      -8.826  10.480  70.056  1.00  0.00     0.000 HD 
HETATM    7  C   UNL     1      -9.210  11.257  68.166  1.00  0.00    -0.170 C  
HETATM    8  N   UNL     1     -10.201  11.325  67.216  1.00  0.00    -0.190 N  
HETATM    9  O   UNL     1      -8.063  11.625  67.926  1.00  0.00    -0.124 OA 
HETATM   10  C   UNL     1     -11.461  11.435  67.702  1.00  0.00    -0.273 C  
HETATM   11  N   UNL     1     -11.784  11.179  68.920  1.00  0.00    -0.316 NA 
ENDROOT
BRANCH   8  12
HETATM   12  C1* UNL     1      -9.862  11.780  65.879  1.00  0.00    -0.238 C  
HETATM   13  C2* UNL     1     -10.590  11.035  64.763  1.00  0.00    -0.350 C  
HETATM   14  C3* UNL     1     -10.574  12.042  63.641  1.00  0.00    -0.454 C  
HETATM   15  O3* UNL     1      -9.315  11.954  62.967  1.00  0.00    -0.630 OA 
HETATM   16  C4* UNL     1     -10.669  13.385  64.364  1.00  0.00    -0.408 C  
HETATM   17  H3* UNL     1      -9.304  12.587  62.260  1.00  0.00     0.000 HD 
HETATM   18  O4* UNL     1     -10.241  13.162  65.728  1.00  0.00    -0.282 OA 
BRANCH  16  19
HETATM   19  C5* UNL     1     -12.089  13.952  64.406  1.00  0.00    -0.443 C  
HETATM   20  O5* UNL     1     -13.050  12.922  64.622  1.00  0.00    -0.742 OA 
HETATM   21  H5* UNL     1     -13.932  13.274  64.648  1.00  0.00     0.000 HD 
ENDBRANCH  16  19
ENDBRANCH   8  12
TORSDOF 2
ENDMDL
MODEL       51
REMARK 921   NORMALIZED FREE ENERGY PREDICTED BY IDOCK:   -4.88 KCAL/MOL
REMARK 922        TOTAL FREE ENERGY PREDICTED BY IDOCK:   -5.78 KCAL/MOL
REMARK 923 INTER-LIGAND FREE ENERGY PREDICTED BY IDOCK:   -6.18 KCAL/MOL
REMARK 924 INTRA-LIGAND FREE ENERGY PREDICTED BY IDOCK:    0.40 KCAL/MOL
REMARK 927      BINDING AFFINITY PREDICTED BY RF-SCORE:    0.00 PKD
ROOT
HETATM    1  N   UNL     1     -12.069  15.919  70.326  1.00  0.00    -0.373 NA 
HETATM    2  C   UNL     1     -11.593  15.178  69.300  1.00  0.00    -0.324 C  
HETATM    3  H2  UNL     1     -13.069  16.107  70.399  1.00  0.00     0.000 HD 
HETATM    4  H1  UNL     1     -11.427  16.289  71.026  1.00  0.00     0.000 HD 
HETATM    5  N   UNL     1     -12.403  14.710  68.417  1.00  0.00    -0.606 N  
HETATM    6  H   UNL     1     -13.405  14.892  68.483  1.00  0.00     0.000 HD 
HETATM    7  C   UNL     1     -11.897  13.966  67.392  1.00  0.00    -0.402 C  
HETATM    8  N   UNL     1     -10.547  14.045  67.149  1.00  0.00    -0.273 N  
HETATM    9  O   UNL     1     -12.628  13.233  66.730  1.00  0.00    -0.215 OA 
HETATM   10  C   UNL     1      -9.787  14.405  68.212  1.00  0.00    -0.229 C  
HETATM   11  N   UNL     1     -10.260  14.945  69.279  1.00  0.00    -0.230 NA 
ENDROOT
BRANCH   8  12
HETATM   12  C1* UNL     1      -9.988  13.293  66.039  1.00  0.00    -0.292 C  
HETATM   13  C2* UNL     1     -10.346  11.808  66.048  1.00  0.00    -0.276 C  
HETATM   14  C3* UNL     1     -10.222  11.439  64.591  1.00  0.00    -0.294 C  
HETATM   15  O3* UNL     1      -8.846  11.172  64.304  1.00  0.00    -0.370 OA 
HETATM   16  C4* UNL     1     -10.655  12.710  63.862  1.00  0.00    -0.428 C  
HETATM   17  H3* UNL     1      -8.768  10.940  63.387  1.00  0.00     0.000 HD 
HETATM   18  O4* UNL     1     -10.511  13.805  64.797  1.00  0.00    -0.400 OA 
BRANCH  16  19
HETATM   19  C5* UNL     1     -12.115  12.678  63.403  1.00  0.00    -0.525 C  
HETATM   20  O5* UNL     1     -12.463  11.400  62.877  1.00  0.00    -0.949 OA 
HETATM   21  H5* UNL     1     -13.369  11.380  62.592  1.00  0.00     0.000 HD 
ENDBRANCH  16  19
ENDBRANCH   8  12
TORSDOF 2
ENDMDL
MODEL       52
REMARK 921   NORMALIZED FREE ENERGY PREDICTED BY IDOCK:   -4.83 KCAL/MOL
REMARK 922        TOTAL FREE ENERGY PREDICTED BY IDOCK:   -5.73 KCAL/MOL
REMARK 923 INTER-LIGAND FREE ENERGY PREDICTED BY IDOCK:   -5.95 KCAL/MOL
REMARK 924 INTRA-LIGAND FREE ENERGY PREDICTED BY IDOCK:    0.22 KCAL/MOL
REMARK 927      BINDING AFFINITY PREDICTED BY RF-SCORE:    0.00 PKD
ROOT
HETATM    1  N   UNL     1      -7.390  21.315  66.837  1.00  0.00    -0.779 NA 
HETATM    2  C   UNL     1      -8.018  20.136  67.051  1.00  0.00    -0.323 C  
HETATM    3  H2  UNL     1      -7.564  21.838  65.979  1.00  0.00     0.000 HD 
HETATM    4  H1  UNL     1      -6.742  21.679  67.535  1.00  0.00     0.000 HD 
HETATM    5  N   UNL     1      -8.835  19.677  66.171  1.00  0.00    -0.364 N  
HETATM    6  H   UNL     1      -9.016  20.194  65.309  1.00  0.00     0.000 HD 
HETATM    7  C   UNL     1      -9.456  18.486  66.411  1.00  0.00    -0.301 C  
HETATM    8  N   UNL     1      -8.927  17.674  67.386  1.00  0.00    -0.230 N  
HETATM    9  O   UNL     1     -10.467  18.171  65.790  1.00  0.00    -0.584 OA 
HETATM   10  C   UNL     1      -8.209  18.310  68.342  1.00  0.00    -0.311 C  
HETATM   11  N   UNL     1      -7.762  19.509  68.222  1.00  0.00    -0.312 NA 
ENDROOT
BRANCH   8  12
HETATM   12  C1* UNL     1      -9.545  16.383  67.635  1.00  0.00    -0.227 C  
HETATM   13  C2* UNL     1     -10.978  16.467  68.156  1.00  0.00    -0.336 C  
HETATM   14  C3* UNL     1     -11.553  15.139  67.733  1.00  0.00    -0.289 C  
HETATM   15  O3* UNL     1     -11.188  14.154  68.704  1.00  0.00    -0.241 OA 
HETATM   16  C4* UNL     1     -10.836  14.843  66.417  1.00  0.00    -0.325 C  
HETATM   17  H3* UNL     1     -11.550  13.318  68.438  1.00  0.00     0.000 HD 
HETATM   18  O4* UNL     1      -9.630  15.642  66.401  1.00  0.00    -0.248 OA 
BRANCH  16  19
HETATM   19  C5* UNL     1     -11.658  15.216  65.181  1.00  0.00    -0.245 C  
HETATM   20  O5* UNL     1     -10.859  15.896  64.215  1.00  0.00    -0.838 OA 
HETATM   21  H5* UNL     1     -11.369  16.127  63.448  1.00  0.00     0.000 HD 
ENDBRANCH  16  19
ENDBRANCH   8  12
TORSDOF 2
ENDMDL
MODEL       53
REMARK 921   NORMALIZED FREE ENERGY PREDICTED BY IDOCK:   -4.80 KCAL/MOL
REMARK 922        TOTAL FREE ENERGY PREDICTED BY IDOCK:   -5.70 KCAL/MOL
REMARK 923 INTER-LIGAND FREE ENERGY PREDICTED BY IDOCK:   -5.32 KCAL/MOL
REMARK 924 INTRA-LIGAND FREE ENERGY PREDICTED BY IDOCK:   -0.38 KCAL/MOL
REMARK 927      BINDING AFFINITY PREDICTED BY RF-SCORE:    0.00 PKD
ROOT
HETATM    1  N   UNL     1     -12.536  13.579  62.648  1.00  0.00    -0.607 NA 
HETATM    2  C   UNL     1     -12.033  13.213  63.849  1.00  0.00    -0.488 C  
HETATM    3  H2  UNL     1     -13.334  14.211  62.600  1.00  0.00     0.000 HD 
HETATM    4  H1  UNL     1     -12.115  13.220  61.791  1.00  0.00     0.000 HD 
HETATM    5  N   UNL     1     -12.563  13.666  64.930  1.00  0.00    -0.631 N  
HETATM    6  H   UNL     1     -13.362  14.299  64.892  1.00  0.00     0.000 HD 
HETATM    7  C   UNL     1     -12.037  13.281  66.129  1.00  0.00    -0.421 C  
HETATM    8  N   UNL     1     -11.217  12.178  66.144  1.00  0.00    -0.323 N  
HETATM    9  O   UNL     1     -12.272  13.921  67.150  1.00  0.00    -0.406 OA 
HETATM   10  C   UNL     1     -10.599  11.900  64.971  1.00  0.00    -0.289 C  
HETATM   11  N   UNL     1     -10.956  12.393  63.839  1.00  0.00    -0.378 NA 
ENDROOT
BRANCH   8  12
HETATM   12  C1* UNL     1     -10.675  11.724  67.413  1.00  0.00    -0.236 C  
HETATM   13  C2* UNL     1     -10.809  10.221  67.647  1.00  0.00    -0.363 C  
HETATM   14  C3* UNL     1      -9.689   9.945  68.617  1.00  0.00    -0.157 C  
HETATM   15  O3* UNL     1     -10.143  10.257  69.938  1.00  0.00    -0.326 OA 
HETATM   16  C4* UNL     1      -8.606  10.941  68.205  1.00  0.00    -0.139 C  
HETATM   17  H3* UNL     1      -9.438  10.084  70.549  1.00  0.00     0.000 HD 
HETATM   18  O4* UNL     1      -9.260  11.993  67.458  1.00  0.00    -0.171 OA 
BRANCH  16  19
HETATM   19  C5* UNL     1      -7.530  10.329  67.305  1.00  0.00    -0.094 C  
HETATM   20  O5* UNL     1      -7.121  11.246  66.293  1.00  0.00    -0.296 OA 
HETATM   21  H5* UNL     1      -6.453  10.867  65.735  1.00  0.00     0.000 HD 
ENDBRANCH  16  19
ENDBRANCH   8  12
TORSDOF 2
ENDMDL
MODEL       54
REMARK 921   NORMALIZED FREE ENERGY PREDICTED BY IDOCK:   -4.73 KCAL/MOL
REMARK 922        TOTAL FREE ENERGY PREDICTED BY IDOCK:   -5.62 KCAL/MOL
REMARK 923 INTER-LIGAND FREE ENERGY PREDICTED BY IDOCK:   -5.82 KCAL/MOL
REMARK 924 INTRA-LIGAND FREE ENERGY PREDICTED BY IDOCK:    0.20 KCAL/MOL
REMARK 927      BINDING AFFINITY PREDICTED BY RF-SCORE:    0.00 PKD
ROOT
HETATM    1  N   UNL     1     -11.986  15.815  68.901  1.00  0.00    -0.548 NA 
HETATM    2  C   UNL     1     -11.697  14.834  68.016  1.00  0.00    -0.333 C  
HETATM    3  H2  UNL     1     -12.613  15.630  69.683  1.00  0.00     0.000 HD 
HETATM    4  H1  UNL     1     -11.574  16.741  68.784  1.00  0.00     0.000 HD 
HETATM    5  N   UNL     1     -12.215  13.666  68.164  1.00  0.00    -0.382 N  
HETATM    6  H   UNL     1     -12.844  13.471  68.943  1.00  0.00     0.000 HD 
HETATM    7  C   UNL     1     -11.908  12.694  67.257  1.00  0.00    -0.328 C  
HETATM    8  N   UNL     1     -11.362  13.085  66.058  1.00  0.00    -0.300 N  
HETATM    9  O   UNL     1     -12.093  11.509  67.523  1.00  0.00    -0.614 OA 
HETATM   10  C   UNL     1     -10.710  14.273  66.079  1.00  0.00    -0.304 C  
HETATM   11  N   UNL     1     -10.835  15.141  67.019  1.00  0.00    -0.309 NA 
ENDROOT
BRANCH   8  12
HETATM   12  C1* UNL     1     -11.062  12.074  65.060  1.00  0.00    -0.316 C  
HETATM   13  C2* UNL     1     -10.190  12.571  63.910  1.00  0.00    -0.386 C  
HETATM   14  C3* UNL     1      -9.539  11.300  63.426  1.00  0.00    -0.333 C  
HETATM   15  O3* UNL     1     -10.443  10.634  62.539  1.00  0.00    -0.719 OA 
HETATM   16  C4* UNL     1      -9.379  10.473  64.701  1.00  0.00    -0.248 C  
HETATM   17  H3* UNL     1     -10.034   9.833  62.234  1.00  0.00     0.000 HD 
HETATM   18  O4* UNL     1     -10.316  11.000  65.669  1.00  0.00    -0.246 OA 
BRANCH  16  19
HETATM   19  C5* UNL     1      -7.978  10.565  65.311  1.00  0.00    -0.112 C  
HETATM   20  O5* UNL     1      -6.978  10.648  64.298  1.00  0.00    -0.346 OA 
HETATM   21  H5* UNL     1      -6.109  10.705  64.677  1.00  0.00     0.000 HD 
ENDBRANCH  16  19
ENDBRANCH   8  12
TORSDOF 2
ENDMDL
MODEL       55
REMARK 921   NORMALIZED FREE ENERGY PREDICTED BY IDOCK:   -4.70 KCAL/MOL
REMARK 922        TOTAL FREE ENERGY PREDICTED BY IDOCK:   -5.59 KCAL/MOL
REMARK 923 INTER-LIGAND FREE ENERGY PREDICTED BY IDOCK:   -6.01 KCAL/MOL
REMARK 924 INTRA-LIGAND FREE ENERGY PREDICTED BY IDOCK:    0.43 KCAL/MOL
REMARK 927      BINDING AFFINITY PREDICTED BY RF-SCORE:    0.00 PKD
ROOT
HETATM    1  N   UNL     1     -10.061   7.932  68.506  1.00  0.00    -0.192 NA 
HETATM    2  C   UNL     1     -10.379   8.943  67.666  1.00  0.00    -0.251 C  
HETATM    3  H2  UNL     1     -10.265   8.011  69.502  1.00  0.00     0.000 HD 
HETATM    4  H1  UNL     1      -9.616   7.090  68.142  1.00  0.00     0.000 HD 
HETATM    5  N   UNL     1     -10.941  10.004  68.126  1.00  0.00    -0.389 N  
HETATM    6  H   UNL     1     -11.149  10.093  69.121  1.00  0.00     0.000 HD 
HETATM    7  C   UNL     1     -11.252  11.010  67.258  1.00  0.00    -0.258 C  
HETATM    8  N   UNL     1     -10.646  11.001  66.024  1.00  0.00    -0.240 N  
HETATM    9  O   UNL     1     -12.066  11.875  67.568  1.00  0.00    -0.573 OA 
HETATM   10  C   UNL     1     -10.234   9.785  65.591  1.00  0.00    -0.108 C  
HETATM   11  N   UNL     1     -10.105   8.759  66.354  1.00  0.00    -0.283 NA 
ENDROOT
BRANCH   8  12
HETATM   12  C1* UNL     1     -10.929  12.081  65.095  1.00  0.00    -0.310 C  
HETATM   13  C2* UNL     1     -12.400  12.487  65.041  1.00  0.00    -0.522 C  
HETATM   14  C3* UNL     1     -12.322  13.915  64.563  1.00  0.00    -0.372 C  
HETATM   15  O3* UNL     1     -12.202  13.913  63.137  1.00  0.00    -1.071 OA 
HETATM   16  C4* UNL     1     -11.021  14.427  65.180  1.00  0.00    -0.373 C  
HETATM   17  H3* UNL     1     -12.153  14.812  62.836  1.00  0.00     0.000 HD 
HETATM   18  O4* UNL     1     -10.219  13.267  65.503  1.00  0.00    -0.289 OA 
BRANCH  16  19
HETATM   19  C5* UNL     1     -11.234  15.222  66.471  1.00  0.00    -0.228 C  
HETATM   20  O5* UNL     1     -12.319  14.693  67.229  1.00  0.00    -0.554 OA 
HETATM   21  H5* UNL     1     -12.451  15.186  68.030  1.00  0.00     0.000 HD 
ENDBRANCH  16  19
ENDBRANCH   8  12
TORSDOF 2
ENDMDL
MODEL       56
REMARK 921   NORMALIZED FREE ENERGY PREDICTED BY IDOCK:   -4.69 KCAL/MOL
REMARK 922        TOTAL FREE ENERGY PREDICTED BY IDOCK:   -5.58 KCAL/MOL
REMARK 923 INTER-LIGAND FREE ENERGY PREDICTED BY IDOCK:   -5.18 KCAL/MOL
REMARK 924 INTRA-LIGAND FREE ENERGY PREDICTED BY IDOCK:   -0.40 KCAL/MOL
REMARK 927      BINDING AFFINITY PREDICTED BY RF-SCORE:    0.00 PKD
ROOT
HETATM    1  N   UNL     1     -12.786  14.796  70.141  1.00  0.00    -0.586 NA 
HETATM    2  C   UNL     1     -12.250  14.100  69.112  1.00  0.00    -0.255 C  
HETATM    3  H2  UNL     1     -13.292  15.663  69.962  1.00  0.00     0.000 HD 
HETATM    4  H1  UNL     1     -12.683  14.452  71.095  1.00  0.00     0.000 HD 
HETATM    5  N   UNL     1     -12.381  14.534  67.909  1.00  0.00    -0.599 N  
HETATM    6  H   UNL     1     -12.886  15.400  67.720  1.00  0.00     0.000 HD 
HETATM    7  C   UNL     1     -11.830  13.813  66.889  1.00  0.00    -0.413 C  
HETATM    8  N   UNL     1     -10.879  12.873  67.210  1.00  0.00    -0.252 N  
HETATM    9  O   UNL     1     -12.197  13.986  65.730  1.00  0.00    -0.404 OA 
HETATM   10  C   UNL     1     -10.950  12.386  68.472  1.00  0.00    -0.245 C  
HETATM   11  N   UNL     1     -11.615  12.945  69.419  1.00  0.00    -0.300 NA 
ENDROOT
BRANCH   8  12
HETATM   12  C1* UNL     1     -10.249  12.120  66.140  1.00  0.00    -0.227 C  
HETATM   13  C2* UNL     1      -8.784  11.774  66.399  1.00  0.00    -0.147 C  
HETATM   14  C3* UNL     1      -8.587  10.549  65.543  1.00  0.00    -0.180 C  
HETATM   15  O3* UNL     1      -8.318  10.968  64.202  1.00  0.00    -0.369 OA 
HETATM   16  C4* UNL     1      -9.946   9.854  65.594  1.00  0.00    -0.283 C  
HETATM   17  H3* UNL     1      -8.193  10.197  63.662  1.00  0.00     0.000 HD 
HETATM   18  O4* UNL     1     -10.918  10.853  65.982  1.00  0.00    -0.143 OA 
BRANCH  16  19
HETATM   19  C5* UNL     1     -10.010   8.719  66.619  1.00  0.00    -0.285 C  
HETATM   20  O5* UNL     1     -11.004   8.972  67.608  1.00  0.00    -0.492 OA 
HETATM   21  H5* UNL     1     -11.044   8.268  68.244  1.00  0.00     0.000 HD 
ENDBRANCH  16  19
ENDBRANCH   8  12
TORSDOF 2
ENDMDL
MODEL       57
REMARK 921   NORMALIZED FREE ENERGY PREDICTED BY IDOCK:   -4.68 KCAL/MOL
REMARK 922        TOTAL FREE ENERGY PREDICTED BY IDOCK:   -5.56 KCAL/MOL
REMARK 923 INTER-LIGAND FREE ENERGY PREDICTED BY IDOCK:   -5.26 KCAL/MOL
REMARK 924 INTRA-LIGAND FREE ENERGY PREDICTED BY IDOCK:   -0.31 KCAL/MOL
REMARK 927      BINDING AFFINITY PREDICTED BY RF-SCORE:    0.00 PKD
ROOT
HETATM    1  N   UNL     1     -11.212  12.390  66.511  1.00  0.00    -0.301 NA 
HETATM    2  C   UNL     1     -11.227  11.381  67.411  1.00  0.00    -0.305 C  
HETATM    3  H2  UNL     1     -10.684  12.293  65.643  1.00  0.00     0.000 HD 
HETATM    4  H1  UNL     1     -11.729  13.248  66.701  1.00  0.00     0.000 HD 
HETATM    5  N   UNL     1     -10.574  10.299  67.171  1.00  0.00    -0.261 N  
HETATM    6  H   UNL     1     -10.044  10.192  66.306  1.00  0.00     0.000 HD 
HETATM    7  C   UNL     1     -10.606   9.296  68.096  1.00  0.00    -0.198 C  
HETATM    8  N   UNL     1     -11.022   9.611  69.367  1.00  0.00    -0.219 N  
HETATM    9  O   UNL     1     -10.295   8.149  67.786  1.00  0.00    -0.214 OA 
HETATM   10  C   UNL     1     -11.832  10.693  69.460  1.00  0.00    -0.273 C  
HETATM   11  N   UNL     1     -11.968  11.567  68.528  1.00  0.00    -0.529 NA 
ENDROOT
BRANCH   8  12
HETATM   12  C1* UNL     1     -11.027   8.571  70.381  1.00  0.00    -0.238 C  
HETATM   13  C2* UNL     1     -10.864   9.089  71.808  1.00  0.00    -0.437 C  
HETATM   14  C3* UNL     1     -11.511   7.999  72.623  1.00  0.00    -0.402 C  
HETATM   15  O3* UNL     1     -10.557   6.952  72.825  1.00  0.00    -0.211 OA 
HETATM   16  C4* UNL     1     -12.633   7.494  71.717  1.00  0.00    -0.334 C  
HETATM   17  H3* UNL     1     -10.964   6.265  73.338  1.00  0.00     0.000 HD 
HETATM   18  O4* UNL     1     -12.296   7.887  70.366  1.00  0.00     0.161 OA 
BRANCH  16  19
HETATM   19  C5* UNL     1     -14.000   8.096  72.050  1.00  0.00    -0.335 C  
HETATM   20  O5* UNL     1     -13.965   8.803  73.287  1.00  0.00    -1.160 OA 
HETATM   21  H5* UNL     1     -14.813   9.177  73.494  1.00  0.00     0.000 HD 
ENDBRANCH  16  19
ENDBRANCH   8  12
TORSDOF 2
ENDMDL
MODEL       58
REMARK 921   NORMALIZED FREE ENERGY PREDICTED BY IDOCK:   -4.67 KCAL/MOL
REMARK 922        TOTAL FREE ENERGY PREDICTED BY IDOCK:   -5.56 KCAL/MOL
REMARK 923 INTER-LIGAND FREE ENERGY PREDICTED BY IDOCK:   -5.20 KCAL/MOL
REMARK 924 INTRA-LIGAND FREE ENERGY PREDICTED BY IDOCK:   -0.35 KCAL/MOL
REMARK 927      BINDING AFFINITY PREDICTED BY RF-SCORE:    0.00 PKD
ROOT
HETATM    1  N   UNL     1     -12.235  15.721  69.087  1.00  0.00    -0.552 NA 
HETATM    2  C   UNL     1     -12.068  14.434  68.704  1.00  0.00    -0.239 C  
HETATM    3  H2  UNL     1     -12.367  16.449  68.386  1.00  0.00     0.000 HD 
HETATM    4  H1  UNL     1     -12.229  15.960  70.078  1.00  0.00     0.000 HD 
HETATM    5  N   UNL     1     -12.077  14.132  67.454  1.00  0.00    -0.538 N  
HETATM    6  H   UNL     1     -12.208  14.854  66.745  1.00  0.00     0.000 HD 
HETATM    7  C   UNL     1     -11.906  12.827  67.094  1.00  0.00    -0.350 C  
HETATM    8  N   UNL     1     -11.387  11.967  68.032  1.00  0.00    -0.264 N  
HETATM    9  O   UNL     1     -12.231  12.438  65.975  1.00  0.00    -0.636 OA 
HETATM   10  C   UNL     1     -11.582  12.332  69.322  1.00  0.00    -0.324 C  
HETATM   11  N   UNL     1     -11.926  13.516  69.687  1.00  0.00    -0.329 NA 
ENDROOT
BRANCH   8  12
HETATM   12  C1* UNL     1     -11.159  10.581  67.663  1.00  0.00    -0.309 C  
HETATM   13  C2* UNL     1      -9.775  10.312  67.075  1.00  0.00    -0.217 C  
HETATM   14  C3* UNL     1      -9.577   8.848  67.375  1.00  0.00    -0.157 C  
HETATM   15  O3* UNL     1     -10.230   8.082  66.358  1.00  0.00    -0.466 OA 
HETATM   16  C4* UNL     1     -10.307   8.653  68.703  1.00  0.00    -0.193 C  
HETATM   17  H3* UNL     1     -10.106   7.160  66.546  1.00  0.00     0.000 HD 
HETATM   18  O4* UNL     1     -11.244   9.748  68.836  1.00  0.00    -0.151 OA 
BRANCH  16  19
HETATM   19  C5* UNL     1      -9.376   8.686  69.917  1.00  0.00    -0.159 C  
HETATM   20  O5* UNL     1      -9.741   9.728  70.818  1.00  0.00    -0.321 OA 
HETATM   21  H5* UNL     1      -9.163   9.749  71.572  1.00  0.00     0.000 HD 
ENDBRANCH  16  19
ENDBRANCH   8  12
TORSDOF 2
ENDMDL
MODEL       59
REMARK 921   NORMALIZED FREE ENERGY PREDICTED BY IDOCK:   -4.67 KCAL/MOL
REMARK 922        TOTAL FREE ENERGY PREDICTED BY IDOCK:   -5.55 KCAL/MOL
REMARK 923 INTER-LIGAND FREE ENERGY PREDICTED BY IDOCK:   -5.96 KCAL/MOL
REMARK 924 INTRA-LIGAND FREE ENERGY PREDICTED BY IDOCK:    0.40 KCAL/MOL
REMARK 927      BINDING AFFINITY PREDICTED BY RF-SCORE:    0.00 PKD
ROOT
HETATM    1  N   UNL     1     -10.186  12.573  65.242  1.00  0.00    -0.283 NA 
HETATM    2  C   UNL     1     -10.188  13.762  65.888  1.00  0.00    -0.313 C  
HETATM    3  H2  UNL     1      -9.711  12.480  64.345  1.00  0.00     0.000 HD 
HETATM    4  H1  UNL     1     -10.660  11.770  65.655  1.00  0.00     0.000 HD 
HETATM    5  N   UNL     1      -9.590  14.774  65.367  1.00  0.00    -0.477 N  
HETATM    6  H   UNL     1      -9.111  14.690  64.469  1.00  0.00     0.000 HD 
HETATM    7  C   UNL     1      -9.607  15.962  66.037  1.00  0.00    -0.350 C  
HETATM    8  N   UNL     1     -10.538  16.120  67.036  1.00  0.00    -0.310 N  
HETATM    9  O   UNL     1      -8.796  16.844  65.769  1.00  0.00    -0.522 OA 
HETATM   10  C   UNL     1     -10.977  14.972  67.606  1.00  0.00    -0.305 C  
HETATM   11  N   UNL     1     -10.814  13.808  67.087  1.00  0.00    -0.281 NA 
ENDROOT
BRANCH   8  12
HETATM   12  C1* UNL     1     -10.604  17.389  67.739  1.00  0.00    -0.371 C  
HETATM   13  C2* UNL     1      -9.296  17.799  68.412  1.00  0.00    -0.294 C  
HETATM   14  C3* UNL     1      -9.428  19.299  68.485  1.00  0.00    -0.389 C  
HETATM   15  O3* UNL     1     -10.202  19.633  69.641  1.00  0.00    -0.595 OA 
HETATM   16  C4* UNL     1     -10.219  19.650  67.226  1.00  0.00    -0.433 C  
HETATM   17  H3* UNL     1     -10.285  20.577  69.687  1.00  0.00     0.000 HD 
HETATM   18  O4* UNL     1     -10.901  18.445  66.805  1.00  0.00    -0.297 OA 
BRANCH  16  19
HETATM   19  C5* UNL     1      -9.338  20.117  66.066  1.00  0.00    -0.210 C  
HETATM   20  O5* UNL     1      -8.127  20.701  66.540  1.00  0.00    -0.527 OA 
HETATM   21  H5* UNL     1      -7.580  20.991  65.819  1.00  0.00     0.000 HD 
ENDBRANCH  16  19
ENDBRANCH   8  12
TORSDOF 2
ENDMDL
MODEL       60
REMARK 921   NORMALIZED FREE ENERGY PREDICTED BY IDOCK:   -4.66 KCAL/MOL
REMARK 922        TOTAL FREE ENERGY PREDICTED BY IDOCK:   -5.54 KCAL/MOL
REMARK 923 INTER-LIGAND FREE ENERGY PREDICTED BY IDOCK:   -5.87 KCAL/MOL
REMARK 924 INTRA-LIGAND FREE ENERGY PREDICTED BY IDOCK:    0.32 KCAL/MOL
REMARK 927      BINDING AFFINITY PREDICTED BY RF-SCORE:    0.00 PKD
ROOT
HETATM    1  N   UNL     1     -12.616  13.728  63.322  1.00  0.00    -0.993 NA 
HETATM    2  C   UNL     1     -12.036  14.532  64.243  1.00  0.00    -0.425 C  
HETATM    3  H2  UNL     1     -12.713  12.729  63.505  1.00  0.00     0.000 HD 
HETATM    4  H1  UNL     1     -12.955  14.122  62.445  1.00  0.00     0.000 HD 
HETATM    5  N   UNL     1     -11.608  14.034  65.349  1.00  0.00    -0.319 N  
HETATM    6  H   UNL     1     -11.701  13.037  65.541  1.00  0.00     0.000 HD 
HETATM    7  C   UNL     1     -11.027  14.867  66.260  1.00  0.00    -0.338 C  
HETATM    8  N   UNL     1     -10.609  16.102  65.824  1.00  0.00    -0.346 N  
HETATM    9  O   UNL     1     -10.910  14.526  67.434  1.00  0.00    -0.281 OA 
HETATM   10  C   UNL     1     -11.252  16.578  64.731  1.00  0.00    -0.143 C  
HETATM   11  N   UNL     1     -11.965  15.851  63.947  1.00  0.00    -0.731 NA 
ENDROOT
BRANCH   8  12
HETATM   12  C1* UNL     1      -9.952  16.992  66.765  1.00  0.00    -0.295 C  
HETATM   13  C2* UNL     1     -10.744  17.241  68.047  1.00  0.00    -0.367 C  
HETATM   14  C3* UNL     1      -9.661  17.611  69.028  1.00  0.00    -0.140 C  
HETATM   15  O3* UNL     1      -9.356  19.000  68.869  1.00  0.00    -0.354 OA 
HETATM   16  C4* UNL     1      -8.466  16.774  68.572  1.00  0.00    -0.244 C  
HETATM   17  H3* UNL     1      -8.674  19.233  69.487  1.00  0.00     0.000 HD 
HETATM   18  O4* UNL     1      -8.706  16.409  67.193  1.00  0.00    -0.176 OA 
BRANCH  16  19
HETATM   19  C5* UNL     1      -8.289  15.482  69.373  1.00  0.00    -0.249 C  
HETATM   20  O5* UNL     1      -9.499  15.112  70.029  1.00  0.00    -0.466 OA 
HETATM   21  H5* UNL     1      -9.389  14.310  70.526  1.00  0.00     0.000 HD 
ENDBRANCH  16  19
ENDBRANCH   8  12
TORSDOF 2
ENDMDL
MODEL       61
REMARK 921   NORMALIZED FREE ENERGY PREDICTED BY IDOCK:   -4.65 KCAL/MOL
REMARK 922        TOTAL FREE ENERGY PREDICTED BY IDOCK:   -5.53 KCAL/MOL
REMARK 923 INTER-LIGAND FREE ENERGY PREDICTED BY IDOCK:   -6.26 KCAL/MOL
REMARK 924 INTRA-LIGAND FREE ENERGY PREDICTED BY IDOCK:    0.72 KCAL/MOL
REMARK 927      BINDING AFFINITY PREDICTED BY RF-SCORE:    0.00 PKD
ROOT
HETATM    1  N   UNL     1      -9.701  15.584  66.052  1.00  0.00    -0.318 NA 
HETATM    2  C   UNL     1     -10.442  15.301  67.147  1.00  0.00    -0.280 C  
HETATM    3  H2  UNL     1      -9.086  16.397  66.047  1.00  0.00     0.000 HD 
HETATM    4  H1  UNL     1      -9.758  14.981  65.231  1.00  0.00     0.000 HD 
HETATM    5  N   UNL     1     -10.369  16.061  68.182  1.00  0.00    -0.253 N  
HETATM    6  H   UNL     1      -9.757  16.877  68.187  1.00  0.00     0.000 HD 
HETATM    7  C   UNL     1     -11.128  15.754  69.275  1.00  0.00    -0.297 C  
HETATM    8  N   UNL     1     -12.176  14.882  69.102  1.00  0.00    -0.211 N  
HETATM    9  O   UNL     1     -10.859  16.226  70.376  1.00  0.00    -0.303 OA 
HETATM   10  C   UNL     1     -12.053  14.029  68.056  1.00  0.00    -0.277 C  
HETATM   11  N   UNL     1     -11.215  14.191  67.095  1.00  0.00    -0.306 NA 
ENDROOT
BRANCH   8  12
HETATM   12  C1* UNL     1     -13.023  14.569  70.240  1.00  0.00    -0.100 C  
HETATM   13  C2* UNL     1     -12.431  13.531  71.192  1.00  0.00    -0.424 C  
HETATM   14  C3* UNL     1     -13.124  13.855  72.491  1.00  0.00    -0.437 C  
HETATM   15  O3* UNL     1     -14.407  13.221  72.493  1.00  0.00    -0.662 OA 
HETATM   16  C4* UNL     1     -13.308  15.370  72.430  1.00  0.00    -0.458 C  
HETATM   17  H3* UNL     1     -14.844  13.425  73.312  1.00  0.00     0.000 HD 
HETATM   18  O4* UNL     1     -13.218  15.753  71.038  1.00  0.00    -0.547 OA 
BRANCH  16  19
HETATM   19  C5* UNL     1     -12.232  16.143  73.196  1.00  0.00    -0.542 C  
HETATM   20  O5* UNL     1     -12.718  16.589  74.460  1.00  0.00    -0.843 OA 
HETATM   21  H5* UNL     1     -12.051  17.068  74.936  1.00  0.00     0.000 HD 
ENDBRANCH  16  19
ENDBRANCH   8  12
TORSDOF 2
ENDMDL
MODEL       62
REMARK 921   NORMALIZED FREE ENERGY PREDICTED BY IDOCK:   -4.63 KCAL/MOL
REMARK 922        TOTAL FREE ENERGY PREDICTED BY IDOCK:   -5.51 KCAL/MOL
REMARK 923 INTER-LIGAND FREE ENERGY PREDICTED BY IDOCK:   -5.25 KCAL/MOL
REMARK 924 INTRA-LIGAND FREE ENERGY PREDICTED BY IDOCK:   -0.26 KCAL/MOL
REMARK 927      BINDING AFFINITY PREDICTED BY RF-SCORE:    0.00 PKD
ROOT
HETATM    1  N   UNL     1      -8.566  16.116  69.015  1.00  0.00    -0.245 NA 
HETATM    2  C   UNL     1      -9.191  15.230  68.207  1.00  0.00    -0.189 C  
HETATM    3  H2  UNL     1      -9.082  16.905  69.403  1.00  0.00     0.000 HD 
HETATM    4  H1  UNL     1      -7.578  15.994  69.236  1.00  0.00     0.000 HD 
HETATM    5  N   UNL     1     -10.437  15.385  67.929  1.00  0.00    -0.251 N  
HETATM    6  H   UNL     1     -10.961  16.171  68.312  1.00  0.00     0.000 HD 
HETATM    7  C   UNL     1     -11.043  14.476  67.111  1.00  0.00    -0.321 C  
HETATM    8  N   UNL     1     -10.238  13.662  66.350  1.00  0.00    -0.285 N  
HETATM    9  O   UNL     1     -12.267  14.379  67.081  1.00  0.00    -0.390 OA 
HETATM   10  C   UNL     1      -8.991  13.461  66.839  1.00  0.00    -0.209 C  
HETATM   11  N   UNL     1      -8.453  14.191  67.750  1.00  0.00    -0.165 NA 
ENDROOT
BRANCH   8  12
HETATM   12  C1* UNL     1     -10.858  12.714  65.441  1.00  0.00    -0.287 C  
HETATM   13  C2* UNL     1     -10.881  13.169  63.984  1.00  0.00    -0.348 C  
HETATM   14  C3* UNL     1     -10.954  11.860  63.239  1.00  0.00    -0.321 C  
HETATM   15  O3* UNL     1     -12.320  11.436  63.196  1.00  0.00    -0.895 OA 
HETATM   16  C4* UNL     1     -10.154  10.902  64.120  1.00  0.00    -0.355 C  
HETATM   17  H3* UNL     1     -12.367  10.612  62.727  1.00  0.00     0.000 HD 
HETATM   18  O4* UNL     1     -10.111  11.481  65.445  1.00  0.00    -0.237 OA 
BRANCH  16  19
HETATM   19  C5* UNL     1      -8.711  10.707  63.649  1.00  0.00    -0.145 C  
HETATM   20  O5* UNL     1      -8.421  11.527  62.520  1.00  0.00    -0.608 OA 
HETATM   21  H5* UNL     1      -7.525  11.406  62.228  1.00  0.00     0.000 HD 
ENDBRANCH  16  19
ENDBRANCH   8  12
TORSDOF 2
ENDMDL
MODEL       63
REMARK 921   NORMALIZED FREE ENERGY PREDICTED BY IDOCK:   -4.62 KCAL/MOL
REMARK 922        TOTAL FREE ENERGY PREDICTED BY IDOCK:   -5.50 KCAL/MOL
REMARK 923 INTER-LIGAND FREE ENERGY PREDICTED BY IDOCK:   -5.16 KCAL/MOL
REMARK 924 INTRA-LIGAND FREE ENERGY PREDICTED BY IDOCK:   -0.33 KCAL/MOL
REMARK 927      BINDING AFFINITY PREDICTED BY RF-SCORE:    0.00 PKD
ROOT
HETATM    1  N   UNL     1     -12.882  15.627  71.871  1.00  0.00    -0.425 NA 
HETATM    2  C   UNL     1     -12.585  14.774  70.864  1.00  0.00    -0.336 C  
HETATM    3  H2  UNL     1     -12.864  16.634  71.710  1.00  0.00     0.000 HD 
HETATM    4  H1  UNL     1     -13.123  15.261  72.792  1.00  0.00     0.000 HD 
HETATM    5  N   UNL     1     -12.281  15.236  69.703  1.00  0.00    -0.509 N  
HETATM    6  H   UNL     1     -12.261  16.242  69.532  1.00  0.00     0.000 HD 
HETATM    7  C   UNL     1     -11.985  14.355  68.705  1.00  0.00    -0.297 C  
HETATM    8  N   UNL     1     -11.682  13.062  69.060  1.00  0.00    -0.311 N  
HETATM    9  O   UNL     1     -12.018  14.707  67.529  1.00  0.00    -0.375 OA 
HETATM   10  C   UNL     1     -12.194  12.652  70.246  1.00  0.00    -0.271 C  
HETATM   11  N   UNL     1     -12.655  13.451  71.141  1.00  0.00    -0.367 NA 
ENDROOT
BRANCH   8  12
HETATM   12  C1* UNL     1     -11.325  12.113  68.020  1.00  0.00    -0.295 C  
HETATM   13  C2* UNL     1      -9.821  11.944  67.819  1.00  0.00    -0.187 C  
HETATM   14  C3* UNL     1      -9.730  10.562  67.222  1.00  0.00    -0.169 C  
HETATM   15  O3* UNL     1      -9.974  10.656  65.815  1.00  0.00    -0.232 OA 
HETATM   16  C4* UNL     1     -10.881   9.810  67.887  1.00  0.00    -0.242 C  
HETATM   17  H3* UNL     1      -9.916   9.786  65.439  1.00  0.00     0.000 HD 
HETATM   18  O4* UNL     1     -11.814  10.804  68.372  1.00  0.00    -0.478 OA 
BRANCH  16  19
HETATM   19  C5* UNL     1     -10.442   8.961  69.082  1.00  0.00    -0.223 C  
HETATM   20  O5* UNL     1     -11.509   8.786  70.011  1.00  0.00    -0.449 OA 
HETATM   21  H5* UNL     1     -11.236   8.258  70.753  1.00  0.00     0.000 HD 
ENDBRANCH  16  19
ENDBRANCH   8  12
TORSDOF 2
ENDMDL
MODEL       64
REMARK 921   NORMALIZED FREE ENERGY PREDICTED BY IDOCK:   -4.60 KCAL/MOL
REMARK 922        TOTAL FREE ENERGY PREDICTED BY IDOCK:   -5.48 KCAL/MOL
REMARK 923 INTER-LIGAND FREE ENERGY PREDICTED BY IDOCK:   -5.25 KCAL/MOL
REMARK 924 INTRA-LIGAND FREE ENERGY PREDICTED BY IDOCK:   -0.23 KCAL/MOL
REMARK 927      BINDING AFFINITY PREDICTED BY RF-SCORE:    0.00 PKD
ROOT
HETATM    1  N   UNL     1      -9.930   8.285  70.703  1.00  0.00    -0.182 NA 
HETATM    2  C   UNL     1     -10.672   9.407  70.564  1.00  0.00    -0.276 C  
HETATM    3  H2  UNL     1     -10.081   7.667  71.501  1.00  0.00     0.000 HD 
HETATM    4  H1  UNL     1      -9.219   8.057  70.009  1.00  0.00     0.000 HD 
HETATM    5  N   UNL     1     -11.569   9.693  71.440  1.00  0.00    -0.385 N  
HETATM    6  H   UNL     1     -11.729   9.082  72.241  1.00  0.00     0.000 HD 
HETATM    7  C   UNL     1     -12.304  10.831  71.277  1.00  0.00    -0.365 C  
HETATM    8  N   UNL     1     -11.827  11.782  70.407  1.00  0.00    -0.325 N  
HETATM    9  O   UNL     1     -13.368  10.980  71.872  1.00  0.00    -0.422 OA 
HETATM   10  C   UNL     1     -11.006  11.318  69.435  1.00  0.00    -0.228 C  
HETATM   11  N   UNL     1     -10.437  10.165  69.469  1.00  0.00    -0.224 NA 
ENDROOT
BRANCH   8  12
HETATM   12  C1* UNL     1     -12.570  13.020  70.244  1.00  0.00    -0.038 C  
HETATM   13  C2* UNL     1     -12.286  14.064  71.321  1.00  0.00    -0.436 C  
HETATM   14  C3* UNL     1     -12.629  15.353  70.618  1.00  0.00    -0.439 C  
HETATM   15  O3* UNL     1     -14.043  15.556  70.702  1.00  0.00    -0.849 OA 
HETATM   16  C4* UNL     1     -12.241  15.081  69.166  1.00  0.00    -0.151 C  
HETATM   17  H3* UNL     1     -14.259  16.368  70.259  1.00  0.00     0.000 HD 
HETATM   18  O4* UNL     1     -12.201  13.645  68.999  1.00  0.00    -0.334 OA 
BRANCH  16  19
HETATM   19  C5* UNL     1     -10.863  15.632  68.792  1.00  0.00    -0.262 C  
HETATM   20  O5* UNL     1     -10.680  16.952  69.298  1.00  0.00    -0.335 OA 
HETATM   21  H5* UNL     1      -9.825  17.294  69.067  1.00  0.00     0.000 HD 
ENDBRANCH  16  19
ENDBRANCH   8  12
TORSDOF 2
ENDMDL
MODEL       65
REMARK 921   NORMALIZED FREE ENERGY PREDICTED BY IDOCK:   -4.59 KCAL/MOL
REMARK 922        TOTAL FREE ENERGY PREDICTED BY IDOCK:   -5.46 KCAL/MOL
REMARK 923 INTER-LIGAND FREE ENERGY PREDICTED BY IDOCK:   -5.13 KCAL/MOL
REMARK 924 INTRA-LIGAND FREE ENERGY PREDICTED BY IDOCK:   -0.33 KCAL/MOL
REMARK 927      BINDING AFFINITY PREDICTED BY RF-SCORE:    0.00 PKD
ROOT
HETATM    1  N   UNL     1      -8.443   8.277  62.911  1.00  0.00    -0.403 NA 
HETATM    2  C   UNL     1      -8.991   9.098  63.835  1.00  0.00     0.035 C  
HETATM    3  H2  UNL     1      -8.145   7.338  63.175  1.00  0.00     0.000 HD 
HETATM    4  H1  UNL     1      -8.330   8.598  61.950  1.00  0.00     0.000 HD 
HETATM    5  N   UNL     1      -9.135   8.693  65.047  1.00  0.00    -0.428 N  
HETATM    6  H   UNL     1      -8.840   7.756  65.320  1.00  0.00     0.000 HD 
HETATM    7  C   UNL     1      -9.690   9.542  65.960  1.00  0.00    -0.272 C  
HETATM    8  N   UNL     1      -9.740  10.879  65.644  1.00  0.00    -0.219 N  
HETATM    9  O   UNL     1     -10.150   9.113  67.014  1.00  0.00    -0.207 OA 
HETATM   10  C   UNL     1      -9.734  11.161  64.319  1.00  0.00    -0.271 C  
HETATM   11  N   UNL     1      -9.390  10.320  63.410  1.00  0.00    -0.285 NA 
ENDROOT
BRANCH   8  12
HETATM   12  C1* UNL     1     -10.290  11.809  66.614  1.00  0.00    -0.218 C  
HETATM   13  C2* UNL     1      -9.786  13.242  66.461  1.00  0.00    -0.281 C  
HETATM   14  C3* UNL     1     -10.900  14.043  67.084  1.00  0.00    -0.286 C  
HETATM   15  O3* UNL     1     -10.712  14.060  68.503  1.00  0.00    -0.242 OA 
HETATM   16  C4* UNL     1     -12.153  13.235  66.749  1.00  0.00    -0.345 C  
HETATM   17  H3* UNL     1     -11.413  14.565  68.896  1.00  0.00     0.000 HD 
HETATM   18  O4* UNL     1     -11.720  11.887  66.453  1.00  0.00    -0.522 OA 
BRANCH  16  19
HETATM   19  C5* UNL     1     -12.907  13.763  65.527  1.00  0.00    -0.419 C  
HETATM   20  O5* UNL     1     -13.361  12.695  64.700  1.00  0.00    -0.767 OA 
HETATM   21  H5* UNL     1     -13.830  13.022  63.941  1.00  0.00     0.000 HD 
ENDBRANCH  16  19
ENDBRANCH   8  12
TORSDOF 2
ENDMDL
MODEL       66
REMARK 921   NORMALIZED FREE ENERGY PREDICTED BY IDOCK:   -4.55 KCAL/MOL
REMARK 922        TOTAL FREE ENERGY PREDICTED BY IDOCK:   -5.42 KCAL/MOL
REMARK 923 INTER-LIGAND FREE ENERGY PREDICTED BY IDOCK:   -5.56 KCAL/MOL
REMARK 924 INTRA-LIGAND FREE ENERGY PREDICTED BY IDOCK:    0.14 KCAL/MOL
REMARK 927      BINDING AFFINITY PREDICTED BY RF-SCORE:    0.00 PKD
ROOT
HETATM    1  N   UNL     1     -10.407  20.133  69.054  1.00  0.00    -0.476 NA 
HETATM    2  C   UNL     1     -10.385  18.999  68.316  1.00  0.00    -0.339 C  
HETATM    3  H2  UNL     1     -10.430  20.080  70.072  1.00  0.00     0.000 HD 
HETATM    4  H1  UNL     1     -10.401  21.041  68.589  1.00  0.00     0.000 HD 
HETATM    5  N   UNL     1     -10.392  17.855  68.902  1.00  0.00    -0.400 N  
HETATM    6  H   UNL     1     -10.414  17.791  69.920  1.00  0.00     0.000 HD 
HETATM    7  C   UNL     1     -10.369  16.726  68.135  1.00  0.00    -0.318 C  
HETATM    8  N   UNL     1     -10.694  16.849  66.805  1.00  0.00    -0.183 N  
HETATM    9  O   UNL     1     -10.043  15.646  68.620  1.00  0.00    -0.202 OA 
HETATM   10  C   UNL     1     -10.495  18.079  66.272  1.00  0.00    -0.335 C  
HETATM   11  N   UNL     1     -10.327  19.144  66.972  1.00  0.00    -0.384 NA 
ENDROOT
BRANCH   8  12
HETATM   12  C1* UNL     1     -10.716  15.658  65.975  1.00  0.00    -0.317 C  
HETATM   13  C2* UNL     1      -9.497  14.754  66.147  1.00  0.00    -0.324 C  
HETATM   14  C3* UNL     1     -10.031  13.409  65.727  1.00  0.00    -0.252 C  
HETATM   15  O3* UNL     1      -9.976  13.321  64.300  1.00  0.00    -0.647 OA 
HETATM   16  C4* UNL     1     -11.491  13.449  66.176  1.00  0.00    -0.327 C  
HETATM   17  H3* UNL     1     -10.312  12.474  64.036  1.00  0.00     0.000 HD 
HETATM   18  O4* UNL     1     -11.850  14.842  66.330  1.00  0.00    -0.319 OA 
BRANCH  16  19
HETATM   19  C5* UNL     1     -11.733  12.754  67.518  1.00  0.00    -0.364 C  
HETATM   20  O5* UNL     1     -12.310  13.649  68.466  1.00  0.00    -0.368 OA 
HETATM   21  H5* UNL     1     -12.460  13.218  69.299  1.00  0.00     0.000 HD 
ENDBRANCH  16  19
ENDBRANCH   8  12
TORSDOF 2
ENDMDL
MODEL       67
REMARK 921   NORMALIZED FREE ENERGY PREDICTED BY IDOCK:   -4.54 KCAL/MOL
REMARK 922        TOTAL FREE ENERGY PREDICTED BY IDOCK:   -5.41 KCAL/MOL
REMARK 923 INTER-LIGAND FREE ENERGY PREDICTED BY IDOCK:   -5.05 KCAL/MOL
REMARK 924 INTRA-LIGAND FREE ENERGY PREDICTED BY IDOCK:   -0.36 KCAL/MOL
REMARK 927      BINDING AFFINITY PREDICTED BY RF-SCORE:    0.00 PKD
ROOT
HETATM    1  N   UNL     1     -12.090  10.957  68.021  1.00  0.00    -0.704 NA 
HETATM    2  C   UNL     1     -11.321  12.052  67.827  1.00  0.00    -0.303 C  
HETATM    3  H2  UNL     1     -11.709  10.027  67.847  1.00  0.00     0.000 HD 
HETATM    4  H1  UNL     1     -13.052  11.063  68.343  1.00  0.00     0.000 HD 
HETATM    5  N   UNL     1     -10.108  11.918  67.422  1.00  0.00    -0.195 N  
HETATM    6  H   UNL     1      -9.717  10.992  67.245  1.00  0.00     0.000 HD 
HETATM    7  C   UNL     1      -9.353  13.039  67.233  1.00  0.00    -0.220 C  
HETATM    8  N   UNL     1     -10.008  14.244  67.138  1.00  0.00    -0.251 N  
HETATM    9  O   UNL     1      -8.128  12.967  67.176  1.00  0.00    -0.171 OA 
HETATM   10  C   UNL     1     -11.220  14.293  67.741  1.00  0.00    -0.291 C  
HETATM   11  N   UNL     1     -11.882  13.252  68.103  1.00  0.00    -0.353 NA 
ENDROOT
BRANCH   8  12
HETATM   12  C1* UNL     1      -9.231  15.448  66.897  1.00  0.00    -0.233 C  
HETATM   13  C2* UNL     1      -9.929  16.472  66.005  1.00  0.00    -0.359 C  
HETATM   14  C3* UNL     1      -9.271  17.763  66.423  1.00  0.00    -0.240 C  
HETATM   15  O3* UNL     1      -8.033  17.894  65.717  1.00  0.00    -0.540 OA 
HETATM   16  C4* UNL     1      -8.986  17.554  67.910  1.00  0.00    -0.251 C  
HETATM   17  H3* UNL     1      -7.619  18.706  65.979  1.00  0.00     0.000 HD 
HETATM   18  O4* UNL     1      -8.993  16.127  68.146  1.00  0.00    -0.181 OA 
BRANCH  16  19
HETATM   19  C5* UNL     1     -10.040  18.183  68.824  1.00  0.00    -0.376 C  
HETATM   20  O5* UNL     1     -10.823  17.184  69.472  1.00  0.00    -0.380 OA 
HETATM   21  H5* UNL     1     -11.477  17.574  70.039  1.00  0.00     0.000 HD 
ENDBRANCH  16  19
ENDBRANCH   8  12
TORSDOF 2
ENDMDL
MODEL       68
REMARK 921   NORMALIZED FREE ENERGY PREDICTED BY IDOCK:   -4.52 KCAL/MOL
REMARK 922        TOTAL FREE ENERGY PREDICTED BY IDOCK:   -5.38 KCAL/MOL
REMARK 923 INTER-LIGAND FREE ENERGY PREDICTED BY IDOCK:   -5.00 KCAL/MOL
REMARK 924 INTRA-LIGAND FREE ENERGY PREDICTED BY IDOCK:   -0.39 KCAL/MOL
REMARK 927      BINDING AFFINITY PREDICTED BY RF-SCORE:    0.00 PKD
ROOT
HETATM    1  N   UNL     1     -10.459  15.372  65.609  1.00  0.00    -0.344 NA 
HETATM    2  C   UNL     1     -10.807  15.331  66.916  1.00  0.00    -0.317 C  
HETATM    3  H2  UNL     1     -10.128  16.243  65.196  1.00  0.00     0.000 HD 
HETATM    4  H1  UNL     1     -10.528  14.530  65.039  1.00  0.00     0.000 HD 
HETATM    5  N   UNL     1     -10.720  16.394  67.635  1.00  0.00    -0.326 N  
HETATM    6  H   UNL     1     -10.390  17.270  67.230  1.00  0.00     0.000 HD 
HETATM    7  C   UNL     1     -11.078  16.326  68.950  1.00  0.00    -0.345 C  
HETATM    8  N   UNL     1     -11.835  15.252  69.353  1.00  0.00    -0.333 N  
HETATM    9  O   UNL     1     -10.710  17.187  69.744  1.00  0.00    -0.181 OA 
HETATM   10  C   UNL     1     -11.717  14.140  68.587  1.00  0.00    -0.350 C  
HETATM   11  N   UNL     1     -11.211  14.136  67.405  1.00  0.00    -0.306 NA 
ENDROOT
BRANCH   8  12
HETATM   12  C1* UNL     1     -12.263  15.176  70.739  1.00  0.00    -0.340 C  
HETATM   13  C2* UNL     1     -13.776  15.091  70.921  1.00  0.00    -0.319 C  
HETATM   14  C3* UNL     1     -13.901  14.413  72.262  1.00  0.00    -0.491 C  
HETATM   15  O3* UNL     1     -13.768  15.403  73.287  1.00  0.00    -0.559 OA 
HETATM   16  C4* UNL     1     -12.696  13.476  72.303  1.00  0.00    -0.090 C  
HETATM   17  H3* UNL     1     -13.847  14.977  74.132  1.00  0.00     0.000 HD 
HETATM   18  O4* UNL     1     -11.737  13.977  71.342  1.00  0.00    -0.067 OA 
BRANCH  16  19
HETATM   19  C5* UNL     1     -13.034  12.035  71.916  1.00  0.00    -0.323 C  
HETATM   20  O5* UNL     1     -12.091  11.516  70.981  1.00  0.00    -0.307 OA 
HETATM   21  H5* UNL     1     -12.301  10.621  70.742  1.00  0.00     0.000 HD 
ENDBRANCH  16  19
ENDBRANCH   8  12
TORSDOF 2
ENDMDL
MODEL       69
REMARK 921   NORMALIZED FREE ENERGY PREDICTED BY IDOCK:   -4.52 KCAL/MOL
REMARK 922        TOTAL FREE ENERGY PREDICTED BY IDOCK:   -5.38 KCAL/MOL
REMARK 923 INTER-LIGAND FREE ENERGY PREDICTED BY IDOCK:   -5.52 KCAL/MOL
REMARK 924 INTRA-LIGAND FREE ENERGY PREDICTED BY IDOCK:    0.14 KCAL/MOL
REMARK 927      BINDING AFFINITY PREDICTED BY RF-SCORE:    0.00 PKD
ROOT
HETATM    1  N   UNL     1      -9.901  20.249  66.250  1.00  0.00    -0.618 NA 
HETATM    2  C   UNL     1     -10.060  18.945  66.570  1.00  0.00    -0.398 C  
HETATM    3  H2  UNL     1     -10.026  20.969  66.962  1.00  0.00     0.000 HD 
HETATM    4  H1  UNL     1      -9.655  20.511  65.296  1.00  0.00     0.000 HD 
HETATM    5  N   UNL     1     -10.370  18.614  67.774  1.00  0.00    -0.391 N  
HETATM    6  H   UNL     1     -10.497  19.327  68.493  1.00  0.00     0.000 HD 
HETATM    7  C   UNL     1     -10.525  17.292  68.071  1.00  0.00    -0.375 C  
HETATM    8  N   UNL     1     -10.694  16.416  67.025  1.00  0.00    -0.268 N  
HETATM    9  O   UNL     1     -10.488  16.903  69.235  1.00  0.00    -0.319 OA 
HETATM   10  C   UNL     1     -10.184  16.826  65.838  1.00  0.00    -0.328 C  
HETATM   11  N   UNL     1      -9.852  18.042  65.584  1.00  0.00    -0.414 NA 
ENDROOT
BRANCH   8  12
HETATM   12  C1* UNL     1     -10.901  15.008  67.315  1.00  0.00    -0.310 C  
HETATM   13  C2* UNL     1      -9.851  14.401  68.243  1.00  0.00    -0.229 C  
HETATM   14  C3* UNL     1     -10.595  13.242  68.856  1.00  0.00    -0.140 C  
HETATM   15  O3* UNL     1     -10.534  12.132  67.954  1.00  0.00    -0.199 OA 
HETATM   16  C4* UNL     1     -12.034  13.747  68.942  1.00  0.00    -0.359 C  
HETATM   17  H3* UNL     1     -11.002  11.402  68.340  1.00  0.00     0.000 HD 
HETATM   18  O4* UNL     1     -12.159  14.834  67.996  1.00  0.00    -0.272 OA 
BRANCH  16  19
HETATM   19  C5* UNL     1     -12.407  14.286  70.325  1.00  0.00    -0.354 C  
HETATM   20  O5* UNL     1     -12.739  15.671  70.266  1.00  0.00    -0.547 OA 
HETATM   21  H5* UNL     1     -12.970  16.005  71.125  1.00  0.00     0.000 HD 
ENDBRANCH  16  19
ENDBRANCH   8  12
TORSDOF 2
ENDMDL
MODEL       70
REMARK 921   NORMALIZED FREE ENERGY PREDICTED BY IDOCK:   -4.51 KCAL/MOL
REMARK 922        TOTAL FREE ENERGY PREDICTED BY IDOCK:   -5.37 KCAL/MOL
REMARK 923 INTER-LIGAND FREE ENERGY PREDICTED BY IDOCK:   -5.05 KCAL/MOL
REMARK 924 INTRA-LIGAND FREE ENERGY PREDICTED BY IDOCK:   -0.32 KCAL/MOL
REMARK 927      BINDING AFFINITY PREDICTED BY RF-SCORE:    0.00 PKD
ROOT
HETATM    1  N   UNL     1      -9.885  18.244  65.731  1.00  0.00    -0.483 NA 
HETATM    2  C   UNL     1     -10.369  17.026  66.065  1.00  0.00    -0.315 C  
HETATM    3  H2  UNL     1      -9.769  18.497  64.750  1.00  0.00     0.000 HD 
HETATM    4  H1  UNL     1      -9.638  18.910  66.463  1.00  0.00     0.000 HD 
HETATM    5  N   UNL     1     -10.681  16.187  65.142  1.00  0.00    -0.413 N  
HETATM    6  H   UNL     1     -10.569  16.431  64.157  1.00  0.00     0.000 HD 
HETATM    7  C   UNL     1     -11.166  14.964  65.505  1.00  0.00    -0.348 C  
HETATM    8  N   UNL     1     -10.969  14.556  66.802  1.00  0.00    -0.309 N  
HETATM    9  O   UNL     1     -11.781  14.270  64.699  1.00  0.00    -0.389 OA 
HETATM   10  C   UNL     1     -10.801  15.554  67.704  1.00  0.00    -0.306 C  
HETATM   11  N   UNL     1     -10.523  16.767  67.384  1.00  0.00    -0.314 NA 
ENDROOT
BRANCH   8  12
HETATM   12  C1* UNL     1     -11.440  13.243  67.204  1.00  0.00    -0.341 C  
HETATM   13  C2* UNL     1     -10.345  12.323  67.740  1.00  0.00    -0.216 C  
HETATM   14  C3* UNL     1     -11.121  11.376  68.619  1.00  0.00    -0.236 C  
HETATM   15  O3* UNL     1     -11.677  10.344  67.799  1.00  0.00    -0.677 OA 
HETATM   16  C4* UNL     1     -12.248  12.246  69.173  1.00  0.00    -0.023 C  
HETATM   17  H3* UNL     1     -12.166   9.747  68.352  1.00  0.00     0.000 HD 
HETATM   18  O4* UNL     1     -12.387  13.378  68.283  1.00  0.00    -0.187 OA 
BRANCH  16  19
HETATM   19  C5* UNL     1     -11.964  12.787  70.576  1.00  0.00    -0.191 C  
HETATM   20  O5* UNL     1     -12.933  13.759  70.960  1.00  0.00    -0.306 OA 
HETATM   21  H5* UNL     1     -12.757  14.095  71.831  1.00  0.00     0.000 HD 
ENDBRANCH  16  19
ENDBRANCH   8  12
TORSDOF 2
ENDMDL
MODEL       71
REMARK 921   NORMALIZED FREE ENERGY PREDICTED BY IDOCK:   -4.49 KCAL/MOL
REMARK 922        TOTAL FREE ENERGY PREDICTED BY IDOCK:   -5.35 KCAL/MOL
REMARK 923 INTER-LIGAND FREE ENERGY PREDICTED BY IDOCK:   -5.07 KCAL/MOL
REMARK 924 INTRA-LIGAND FREE ENERGY PREDICTED BY IDOCK:   -0.29 KCAL/MOL
REMARK 927      BINDING AFFINITY PREDICTED BY RF-SCORE:    0.00 PKD
ROOT
HETATM    1  N   UNL     1      -6.106  14.431  69.051  1.00  0.00    -0.088 NA 
HETATM    2  C   UNL     1      -7.344  14.215  68.551  1.00  0.00    -0.120 C  
HETATM    3  H2  UNL     1      -5.982  15.031  69.866  1.00  0.00     0.000 HD 
HETATM    4  H1  UNL     1      -5.297  13.993  68.611  1.00  0.00     0.000 HD 
HETATM    5  N   UNL     1      -8.364  14.767  69.107  1.00  0.00    -0.306 N  
HETATM    6  H   UNL     1      -8.250  15.368  69.923  1.00  0.00     0.000 HD 
HETATM    7  C   UNL     1      -9.602  14.533  68.583  1.00  0.00    -0.219 C  
HETATM    8  N   UNL     1      -9.673  14.025  67.307  1.00  0.00    -0.231 N  
HETATM    9  O   UNL     1     -10.614  14.748  69.246  1.00  0.00    -0.239 OA 
HETATM   10  C   UNL     1      -8.582  13.332  66.900  1.00  0.00    -0.105 C  
HETATM   11  N   UNL     1      -7.439  13.387  67.485  1.00  0.00    -0.168 NA 
ENDROOT
BRANCH   8  12
HETATM   12  C1* UNL     1     -10.978  13.804  66.711  1.00  0.00    -0.304 C  
HETATM   13  C2* UNL     1     -11.407  14.889  65.726  1.00  0.00    -0.314 C  
HETATM   14  C3* UNL     1     -12.383  14.154  64.843  1.00  0.00    -0.430 C  
HETATM   15  O3* UNL     1     -13.661  14.142  65.486  1.00  0.00    -0.685 OA 
HETATM   16  C4* UNL     1     -11.824  12.733  64.798  1.00  0.00    -0.374 C  
HETATM   17  H3* UNL     1     -14.276  13.679  64.930  1.00  0.00     0.000 HD 
HETATM   18  O4* UNL     1     -10.961  12.581  65.949  1.00  0.00    -0.265 OA 
BRANCH  16  19
HETATM   19  C5* UNL     1     -10.990  12.448  63.547  1.00  0.00    -0.450 C  
HETATM   20  O5* UNL     1     -11.124  11.090  63.136  1.00  0.00    -0.770 OA 
HETATM   21  H5* UNL     1     -10.606  10.913  62.360  1.00  0.00     0.000 HD 
ENDBRANCH  16  19
ENDBRANCH   8  12
TORSDOF 2
ENDMDL
MODEL       72
REMARK 921   NORMALIZED FREE ENERGY PREDICTED BY IDOCK:   -4.49 KCAL/MOL
REMARK 922        TOTAL FREE ENERGY PREDICTED BY IDOCK:   -5.35 KCAL/MOL
REMARK 923 INTER-LIGAND FREE ENERGY PREDICTED BY IDOCK:   -5.26 KCAL/MOL
REMARK 924 INTRA-LIGAND FREE ENERGY PREDICTED BY IDOCK:   -0.09 KCAL/MOL
REMARK 927      BINDING AFFINITY PREDICTED BY RF-SCORE:    0.00 PKD
ROOT
HETATM    1  N   UNL     1     -13.755  12.138  72.085  1.00  0.00    -0.360 NA 
HETATM    2  C   UNL     1     -12.981  11.069  71.786  1.00  0.00    -0.438 C  
HETATM    3  H2  UNL     1     -14.388  12.103  72.883  1.00  0.00     0.000 HD 
HETATM    4  H1  UNL     1     -13.703  12.979  71.510  1.00  0.00     0.000 HD 
HETATM    5  N   UNL     1     -13.046  10.010  72.511  1.00  0.00    -0.457 N  
HETATM    6  H   UNL     1     -13.676   9.965  73.313  1.00  0.00     0.000 HD 
HETATM    7  C   UNL     1     -12.256   8.945  72.188  1.00  0.00    -0.367 C  
HETATM    8  N   UNL     1     -11.705   8.915  70.929  1.00  0.00    -0.281 N  
HETATM    9  O   UNL     1     -12.029   8.062  73.010  1.00  0.00    -0.240 OA 
HETATM   10  C   UNL     1     -11.553  10.123  70.335  1.00  0.00    -0.316 C  
HETATM   11  N   UNL     1     -12.145  11.194  70.730  1.00  0.00    -0.361 NA 
ENDROOT
BRANCH   8  12
HETATM   12  C1* UNL     1     -10.892   7.775  70.546  1.00  0.00    -0.241 C  
HETATM   13  C2* UNL     1     -11.696   6.531  70.174  1.00  0.00    -0.419 C  
HETATM   14  C3* UNL     1     -10.745   5.793  69.267  1.00  0.00    -0.316 C  
HETATM   15  O3* UNL     1      -9.835   5.041  70.075  1.00  0.00    -0.186 OA 
HETATM   16  C4* UNL     1      -9.986   6.912  68.557  1.00  0.00    -0.148 C  
HETATM   17  H3* UNL     1      -9.236   4.575  69.505  1.00  0.00     0.000 HD 
HETATM   18  O4* UNL     1     -10.125   8.101  69.370  1.00  0.00    -0.185 OA 
BRANCH  16  19
HETATM   19  C5* UNL     1     -10.538   7.232  67.166  1.00  0.00    -0.346 C  
HETATM   20  O5* UNL     1     -11.762   6.543  66.925  1.00  0.00    -0.595 OA 
HETATM   21  H5* UNL     1     -12.105   6.741  66.062  1.00  0.00     0.000 HD 
ENDBRANCH  16  19
ENDBRANCH   8  12
TORSDOF 2
ENDMDL
MODEL       73
REMARK 921   NORMALIZED FREE ENERGY PREDICTED BY IDOCK:   -4.47 KCAL/MOL
REMARK 922        TOTAL FREE ENERGY PREDICTED BY IDOCK:   -5.33 KCAL/MOL
REMARK 923 INTER-LIGAND FREE ENERGY PREDICTED BY IDOCK:   -5.02 KCAL/MOL
REMARK 924 INTRA-LIGAND FREE ENERGY PREDICTED BY IDOCK:   -0.31 KCAL/MOL
REMARK 927      BINDING AFFINITY PREDICTED BY RF-SCORE:    0.00 PKD
ROOT
HETATM    1  N   UNL     1      -6.359  15.971  69.809  1.00  0.00    -0.190 NA 
HETATM    2  C   UNL     1      -7.237  15.409  68.948  1.00  0.00    -0.139 C  
HETATM    3  H2  UNL     1      -5.560  15.435  70.146  1.00  0.00     0.000 HD 
HETATM    4  H1  UNL     1      -6.497  16.932  70.121  1.00  0.00     0.000 HD 
HETATM    5  N   UNL     1      -7.062  14.197  68.555  1.00  0.00    -0.095 N  
HETATM    6  H   UNL     1      -6.266  13.653  68.886  1.00  0.00     0.000 HD 
HETATM    7  C   UNL     1      -7.963  13.654  67.686  1.00  0.00    -0.177 C  
HETATM    8  N   UNL     1      -9.180  14.279  67.550  1.00  0.00    -0.191 N  
HETATM    9  O   UNL     1      -7.678  12.654  67.032  1.00  0.00    -0.123 OA 
HETATM   10  C   UNL     1      -9.189  15.599  67.855  1.00  0.00    -0.190 C  
HETATM   11  N   UNL     1      -8.259  16.187  68.520  1.00  0.00    -0.176 NA 
ENDROOT
BRANCH   8  12
HETATM   12  C1* UNL     1     -10.171  13.699  66.661  1.00  0.00    -0.276 C  
HETATM   13  C2* UNL     1     -11.595  13.728  67.212  1.00  0.00    -0.391 C  
HETATM   14  C3* UNL     1     -12.427  13.690  65.955  1.00  0.00    -0.426 C  
HETATM   15  O3* UNL     1     -12.549  12.329  65.529  1.00  0.00    -0.548 OA 
HETATM   16  C4* UNL     1     -11.582  14.463  64.944  1.00  0.00    -0.395 C  
HETATM   17  H3* UNL     1     -13.072  12.305  64.738  1.00  0.00     0.000 HD 
HETATM   18  O4* UNL     1     -10.221  14.454  65.434  1.00  0.00    -0.341 OA 
BRANCH  16  19
HETATM   19  C5* UNL     1     -12.010  15.924  64.786  1.00  0.00     0.186 C  
HETATM   20  O5* UNL     1     -11.299  16.558  63.726  1.00  0.00    -1.553 OA 
HETATM   21  H5* UNL     1     -11.565  17.465  63.628  1.00  0.00     0.000 HD 
ENDBRANCH  16  19
ENDBRANCH   8  12
TORSDOF 2
ENDMDL
MODEL       74
REMARK 921   NORMALIZED FREE ENERGY PREDICTED BY IDOCK:   -4.44 KCAL/MOL
REMARK 922        TOTAL FREE ENERGY PREDICTED BY IDOCK:   -5.29 KCAL/MOL
REMARK 923 INTER-LIGAND FREE ENERGY PREDICTED BY IDOCK:   -4.98 KCAL/MOL
REMARK 924 INTRA-LIGAND FREE ENERGY PREDICTED BY IDOCK:   -0.31 KCAL/MOL
REMARK 927      BINDING AFFINITY PREDICTED BY RF-SCORE:    0.00 PKD
ROOT
HETATM    1  N   UNL     1      -8.582   8.930  63.042  1.00  0.00    -0.367 NA 
HETATM    2  C   UNL     1      -9.252   9.392  64.122  1.00  0.00     0.018 C  
HETATM    3  H2  UNL     1      -8.184   7.991  63.051  1.00  0.00     0.000 HD 
HETATM    4  H1  UNL     1      -8.477   9.522  62.218  1.00  0.00     0.000 HD 
HETATM    5  N   UNL     1      -9.385   8.646  65.160  1.00  0.00    -0.408 N  
HETATM    6  H   UNL     1      -8.991   7.705  65.179  1.00  0.00     0.000 HD 
HETATM    7  C   UNL     1     -10.065   9.136  66.237  1.00  0.00    -0.249 C  
HETATM    8  N   UNL     1     -10.262  10.495  66.305  1.00  0.00    -0.237 N  
HETATM    9  O   UNL     1     -10.505   8.379  67.098  1.00  0.00    -0.294 OA 
HETATM   10  C   UNL     1     -10.247  11.143  65.115  1.00  0.00    -0.289 C  
HETATM   11  N   UNL     1      -9.778  10.636  64.031  1.00  0.00    -0.290 NA 
ENDROOT
BRANCH   8  12
HETATM   12  C1* UNL     1     -10.948  11.047  67.460  1.00  0.00    -0.281 C  
HETATM   13  C2* UNL     1     -10.062  11.902  68.363  1.00  0.00    -0.206 C  
HETATM   14  C3* UNL     1     -11.063  12.805  69.036  1.00  0.00    -0.233 C  
HETATM   15  O3* UNL     1     -11.633  12.106  70.147  1.00  0.00    -0.504 OA 
HETATM   16  C4* UNL     1     -12.133  13.013  67.966  1.00  0.00    -0.174 C  
HETATM   17  H3* UNL     1     -12.264  12.675  70.572  1.00  0.00     0.000 HD 
HETATM   18  O4* UNL     1     -12.005  11.924  67.021  1.00  0.00    -0.615 OA 
BRANCH  16  19
HETATM   19  C5* UNL     1     -11.971  14.323  67.192  1.00  0.00    -0.417 C  
HETATM   20  O5* UNL     1     -12.111  15.451  68.052  1.00  0.00    -0.433 OA 
HETATM   21  H5* UNL     1     -12.010  16.264  67.572  1.00  0.00     0.000 HD 
ENDBRANCH  16  19
ENDBRANCH   8  12
TORSDOF 2
ENDMDL
MODEL       75
REMARK 921   NORMALIZED FREE ENERGY PREDICTED BY IDOCK:   -4.43 KCAL/MOL
REMARK 922        TOTAL FREE ENERGY PREDICTED BY IDOCK:   -5.29 KCAL/MOL
REMARK 923 INTER-LIGAND FREE ENERGY PREDICTED BY IDOCK:   -4.99 KCAL/MOL
REMARK 924 INTRA-LIGAND FREE ENERGY PREDICTED BY IDOCK:   -0.30 KCAL/MOL
REMARK 927      BINDING AFFINITY PREDICTED BY RF-SCORE:    0.00 PKD
ROOT
HETATM    1  N   UNL     1      -5.517  19.534  70.194  1.00  0.00    -0.215 NA 
HETATM    2  C   UNL     1      -6.522  19.048  69.429  1.00  0.00    -0.294 C  
HETATM    3  H2  UNL     1      -5.408  20.541  70.314  1.00  0.00     0.000 HD 
HETATM    4  H1  UNL     1      -4.870  18.891  70.650  1.00  0.00     0.000 HD 
HETATM    5  N   UNL     1      -7.338  19.859  68.854  1.00  0.00    -0.279 N  
HETATM    6  H   UNL     1      -7.237  20.868  68.969  1.00  0.00     0.000 HD 
HETATM    7  C   UNL     1      -8.342  19.343  68.087  1.00  0.00    -0.328 C  
HETATM    8  N   UNL     1      -8.229  18.036  67.679  1.00  0.00    -0.238 N  
HETATM    9  O   UNL     1      -9.322  20.024  67.799  1.00  0.00    -0.344 OA 
HETATM   10  C   UNL     1      -7.455  17.249  68.465  1.00  0.00    -0.241 C  
HETATM   11  N   UNL     1      -6.624  17.702  69.335  1.00  0.00    -0.239 NA 
ENDROOT
BRANCH   8  12
HETATM   12  C1* UNL     1      -9.264  17.474  66.830  1.00  0.00    -0.265 C  
HETATM   13  C2* UNL     1      -8.805  16.285  65.989  1.00  0.00    -0.308 C  
HETATM   14  C3* UNL     1     -10.097  15.550  65.738  1.00  0.00    -0.360 C  
HETATM   15  O3* UNL     1     -10.762  16.161  64.629  1.00  0.00    -0.777 OA 
HETATM   16  C4* UNL     1     -10.903  15.799  67.012  1.00  0.00    -0.273 C  
HETATM   17  H3* UNL     1     -11.576  15.698  64.471  1.00  0.00     0.000 HD 
HETATM   18  O4* UNL     1     -10.340  16.972  67.647  1.00  0.00    -0.310 OA 
BRANCH  16  19
HETATM   19  C5* UNL     1     -10.828  14.645  68.014  1.00  0.00    -0.257 C  
HETATM   20  O5* UNL     1     -10.989  13.387  67.365  1.00  0.00    -0.264 OA 
HETATM   21  H5* UNL     1     -10.942  12.670  67.987  1.00  0.00     0.000 HD 
ENDBRANCH  16  19
ENDBRANCH   8  12
TORSDOF 2
ENDMDL
MODEL       76
REMARK 921   NORMALIZED FREE ENERGY PREDICTED BY IDOCK:   -4.42 KCAL/MOL
REMARK 922        TOTAL FREE ENERGY PREDICTED BY IDOCK:   -5.27 KCAL/MOL
REMARK 923 INTER-LIGAND FREE ENERGY PREDICTED BY IDOCK:   -4.96 KCAL/MOL
REMARK 924 INTRA-LIGAND FREE ENERGY PREDICTED BY IDOCK:   -0.31 KCAL/MOL
REMARK 927      BINDING AFFINITY PREDICTED BY RF-SCORE:    0.00 PKD
ROOT
HETATM    1  N   UNL     1     -11.478  12.125  67.701  1.00  0.00    -0.310 NA 
HETATM    2  C   UNL     1     -10.947  13.331  68.007  1.00  0.00    -0.244 C  
HETATM    3  H2  UNL     1     -10.936  11.274  67.854  1.00  0.00     0.000 HD 
HETATM    4  H1  UNL     1     -12.421  12.067  67.318  1.00  0.00     0.000 HD 
HETATM    5  N   UNL     1      -9.758  13.403  68.490  1.00  0.00    -0.346 N  
HETATM    6  H   UNL     1      -9.208  12.558  68.647  1.00  0.00     0.000 HD 
HETATM    7  C   UNL     1      -9.246  14.631  68.789  1.00  0.00    -0.184 C  
HETATM    8  N   UNL     1      -9.862  15.732  68.243  1.00  0.00    -0.211 N  
HETATM    9  O   UNL     1      -8.282  14.742  69.543  1.00  0.00    -0.083 OA 
HETATM   10  C   UNL     1     -11.165  15.563  67.915  1.00  0.00    -0.325 C  
HETATM   11  N   UNL     1     -11.732  14.415  67.804  1.00  0.00    -0.362 NA 
ENDROOT
BRANCH   8  12
HETATM   12  C1* UNL     1      -9.313  17.050  68.514  1.00  0.00    -0.265 C  
HETATM   13  C2* UNL     1      -8.308  17.533  67.471  1.00  0.00    -0.220 C  
HETATM   14  C3* UNL     1      -8.395  19.032  67.610  1.00  0.00    -0.287 C  
HETATM   15  O3* UNL     1      -7.561  19.438  68.699  1.00  0.00    -0.337 OA 
HETATM   16  C4* UNL     1      -9.859  19.271  67.977  1.00  0.00    -0.365 C  
HETATM   17  H3* UNL     1      -7.615  20.382  68.787  1.00  0.00     0.000 HD 
HETATM   18  O4* UNL     1     -10.373  18.026  68.504  1.00  0.00    -0.373 OA 
BRANCH  16  19
HETATM   19  C5* UNL     1     -10.728  19.666  66.781  1.00  0.00    -0.447 C  
HETATM   20  O5* UNL     1      -9.944  20.252  65.745  1.00  0.00    -0.599 OA 
HETATM   21  H5* UNL     1     -10.483  20.497  65.002  1.00  0.00     0.000 HD 
ENDBRANCH  16  19
ENDBRANCH   8  12
TORSDOF 2
ENDMDL
MODEL       77
REMARK 921   NORMALIZED FREE ENERGY PREDICTED BY IDOCK:   -4.38 KCAL/MOL
REMARK 922        TOTAL FREE ENERGY PREDICTED BY IDOCK:   -5.23 KCAL/MOL
REMARK 923 INTER-LIGAND FREE ENERGY PREDICTED BY IDOCK:   -4.86 KCAL/MOL
REMARK 924 INTRA-LIGAND FREE ENERGY PREDICTED BY IDOCK:   -0.37 KCAL/MOL
REMARK 927      BINDING AFFINITY PREDICTED BY RF-SCORE:    0.00 PKD
ROOT
HETATM    1  N   UNL     1      -9.570   9.720  65.646  1.00  0.00    -0.244 NA 
HETATM    2  C   UNL     1     -10.174  10.771  66.247  1.00  0.00    -0.245 C  
HETATM    3  H2  UNL     1      -9.977   9.308  64.807  1.00  0.00     0.000 HD 
HETATM    4  H1  UNL     1      -8.706   9.341  66.034  1.00  0.00     0.000 HD 
HETATM    5  N   UNL     1     -11.263  11.248  65.757  1.00  0.00    -0.097 N  
HETATM    6  H   UNL     1     -11.677  10.843  64.917  1.00  0.00     0.000 HD 
HETATM    7  C   UNL     1     -11.853  12.308  66.382  1.00  0.00    -0.311 C  
HETATM    8  N   UNL     1     -11.470  12.584  67.673  1.00  0.00    -0.312 N  
HETATM    9  O   UNL     1     -12.678  13.001  65.794  1.00  0.00    -0.476 OA 
HETATM   10  C   UNL     1     -10.232  12.154  68.014  1.00  0.00    -0.201 C  
HETATM   11  N   UNL     1      -9.565  11.285  67.340  1.00  0.00    -0.169 NA 
ENDROOT
BRANCH   8  12
HETATM   12  C1* UNL     1     -12.111  13.682  68.375  1.00  0.00    -0.277 C  
HETATM   13  C2* UNL     1     -12.086  13.550  69.896  1.00  0.00    -0.408 C  
HETATM   14  C3* UNL     1     -12.199  14.985  70.345  1.00  0.00    -0.341 C  
HETATM   15  O3* UNL     1     -13.580  15.358  70.336  1.00  0.00    -0.751 OA 
HETATM   16  C4* UNL     1     -11.457  15.760  69.258  1.00  0.00    -0.365 C  
HETATM   17  H3* UNL     1     -13.652  16.261  70.619  1.00  0.00     0.000 HD 
HETATM   18  O4* UNL     1     -11.416  14.912  68.086  1.00  0.00    -0.304 OA 
BRANCH  16  19
HETATM   19  C5* UNL     1     -10.014  16.104  69.635  1.00  0.00    -0.179 C  
HETATM   20  O5* UNL     1      -9.085  15.430  68.791  1.00  0.00    -0.183 OA 
HETATM   21  H5* UNL     1      -8.190  15.644  69.025  1.00  0.00     0.000 HD 
ENDBRANCH  16  19
ENDBRANCH   8  12
TORSDOF 2
ENDMDL
MODEL       78
REMARK 921   NORMALIZED FREE ENERGY PREDICTED BY IDOCK:   -4.38 KCAL/MOL
REMARK 922        TOTAL FREE ENERGY PREDICTED BY IDOCK:   -5.23 KCAL/MOL
REMARK 923 INTER-LIGAND FREE ENERGY PREDICTED BY IDOCK:   -5.39 KCAL/MOL
REMARK 924 INTRA-LIGAND FREE ENERGY PREDICTED BY IDOCK:    0.16 KCAL/MOL
REMARK 927      BINDING AFFINITY PREDICTED BY RF-SCORE:    0.00 PKD
ROOT
HETATM    1  N   UNL     1     -11.994  12.340  66.385  1.00  0.00    -0.624 NA 
HETATM    2  C   UNL     1     -11.561  13.620  66.345  1.00  0.00    -0.350 C  
HETATM    3  H2  UNL     1     -11.939  11.809  67.253  1.00  0.00     0.000 HD 
HETATM    4  H1  UNL     1     -12.377  11.907  65.545  1.00  0.00     0.000 HD 
HETATM    5  N   UNL     1     -11.079  14.166  67.405  1.00  0.00    -0.298 N  
HETATM    6  H   UNL     1     -11.019  13.643  68.278  1.00  0.00     0.000 HD 
HETATM    7  C   UNL     1     -10.648  15.459  67.337  1.00  0.00    -0.289 C  
HETATM    8  N   UNL     1     -10.418  15.994  66.092  1.00  0.00    -0.319 N  
HETATM    9  O   UNL     1     -10.497  16.123  68.359  1.00  0.00    -0.252 OA 
HETATM   10  C   UNL     1     -11.109  15.418  65.079  1.00  0.00    -0.418 C  
HETATM   11  N   UNL     1     -11.689  14.274  65.167  1.00  0.00    -0.352 NA 
ENDROOT
BRANCH   8  12
HETATM   12  C1* UNL     1      -9.922  17.355  65.993  1.00  0.00    -0.215 C  
HETATM   13  C2* UNL     1     -10.769  18.384  66.739  1.00  0.00    -0.274 C  
HETATM   14  C3* UNL     1      -9.774  19.483  67.012  1.00  0.00    -0.347 C  
HETATM   15  O3* UNL     1      -9.676  20.310  65.848  1.00  0.00    -0.623 OA 
HETATM   16  C4* UNL     1      -8.458  18.732  67.211  1.00  0.00    -0.270 C  
HETATM   17  H3* UNL     1      -9.050  21.002  66.019  1.00  0.00     0.000 HD 
HETATM   18  O4* UNL     1      -8.611  17.436  66.588  1.00  0.00    -0.230 OA 
BRANCH  16  19
HETATM   19  C5* UNL     1      -8.106  18.504  68.683  1.00  0.00    -0.310 C  
HETATM   20  O5* UNL     1      -8.052  17.113  68.991  1.00  0.00    -0.220 OA 
HETATM   21  H5* UNL     1      -7.833  16.972  69.904  1.00  0.00     0.000 HD 
ENDBRANCH  16  19
ENDBRANCH   8  12
TORSDOF 2
ENDMDL
MODEL       79
REMARK 921   NORMALIZED FREE ENERGY PREDICTED BY IDOCK:   -4.36 KCAL/MOL
REMARK 922        TOTAL FREE ENERGY PREDICTED BY IDOCK:   -5.20 KCAL/MOL
REMARK 923 INTER-LIGAND FREE ENERGY PREDICTED BY IDOCK:   -4.82 KCAL/MOL
REMARK 924 INTRA-LIGAND FREE ENERGY PREDICTED BY IDOCK:   -0.39 KCAL/MOL
REMARK 927      BINDING AFFINITY PREDICTED BY RF-SCORE:    0.00 PKD
ROOT
HETATM    1  N   UNL     1      -9.483   8.508  65.458  1.00  0.00    -0.438 NA 
HETATM    2  C   UNL     1      -9.943   8.212  66.695  1.00  0.00    -0.269 C  
HETATM    3  H2  UNL     1      -9.310   7.762  64.785  1.00  0.00     0.000 HD 
HETATM    4  H1  UNL     1      -9.309   9.479  65.200  1.00  0.00     0.000 HD 
HETATM    5  N   UNL     1     -10.162   6.987  67.020  1.00  0.00    -0.234 N  
HETATM    6  H   UNL     1      -9.993   6.233  66.353  1.00  0.00     0.000 HD 
HETATM    7  C   UNL     1     -10.626   6.715  68.274  1.00  0.00    -0.241 C  
HETATM    8  N   UNL     1     -10.501   7.695  69.230  1.00  0.00    -0.218 N  
HETATM    9  O   UNL     1     -11.158   5.637  68.525  1.00  0.00    -0.119 OA 
HETATM   10  C   UNL     1     -10.431   8.962  68.754  1.00  0.00    -0.200 C  
HETATM   11  N   UNL     1     -10.176   9.252  67.528  1.00  0.00    -0.225 NA 
ENDROOT
BRANCH   8  12
HETATM   12  C1* UNL     1     -10.951   7.418  70.583  1.00  0.00    -0.256 C  
HETATM   13  C2* UNL     1     -10.217   8.213  71.660  1.00  0.00    -0.266 C  
HETATM   14  C3* UNL     1     -11.223   8.239  72.782  1.00  0.00    -0.251 C  
HETATM   15  O3* UNL     1     -11.116   7.017  73.519  1.00  0.00    -0.546 OA 
HETATM   16  C4* UNL     1     -12.567   8.276  72.056  1.00  0.00    -0.349 C  
HETATM   17  H3* UNL     1     -11.749   7.033  74.226  1.00  0.00     0.000 HD 
HETATM   18  O4* UNL     1     -12.338   7.783  70.716  1.00  0.00    -0.164 OA 
BRANCH  16  19
HETATM   19  C5* UNL     1     -13.156   9.684  71.942  1.00  0.00    -0.436 C  
HETATM   20  O5* UNL     1     -13.337  10.058  70.578  1.00  0.00    -0.605 OA 
HETATM   21  H5* UNL     1     -13.702  10.932  70.507  1.00  0.00     0.000 HD 
ENDBRANCH  16  19
ENDBRANCH   8  12
TORSDOF 2
ENDMDL
MODEL       80
REMARK 921   NORMALIZED FREE ENERGY PREDICTED BY IDOCK:   -4.35 KCAL/MOL
REMARK 922        TOTAL FREE ENERGY PREDICTED BY IDOCK:   -5.19 KCAL/MOL
REMARK 923 INTER-LIGAND FREE ENERGY PREDICTED BY IDOCK:   -5.43 KCAL/MOL
REMARK 924 INTRA-LIGAND FREE ENERGY PREDICTED BY IDOCK:    0.24 KCAL/MOL
REMARK 927      BINDING AFFINITY PREDICTED BY RF-SCORE:    0.00 PKD
ROOT
HETATM    1  N   UNL     1      -6.383  18.037  67.601  1.00  0.00    -0.171 NA 
HETATM    2  C   UNL     1      -7.307  17.081  67.353  1.00  0.00    -0.158 C  
HETATM    3  H2  UNL     1      -6.627  19.022  67.501  1.00  0.00     0.000 HD 
HETATM    4  H1  UNL     1      -5.441  17.770  67.887  1.00  0.00     0.000 HD 
HETATM    5  N   UNL     1      -8.495  17.418  66.992  1.00  0.00    -0.217 N  
HETATM    6  H   UNL     1      -8.748  18.401  66.890  1.00  0.00     0.000 HD 
HETATM    7  C   UNL     1      -9.409  16.434  66.748  1.00  0.00    -0.245 C  
HETATM    8  N   UNL     1      -8.939  15.157  66.553  1.00  0.00    -0.286 N  
HETATM    9  O   UNL     1     -10.610  16.687  66.731  1.00  0.00    -0.293 OA 
HETATM   10  C   UNL     1      -7.737  14.890  67.118  1.00  0.00    -0.142 C  
HETATM   11  N   UNL     1      -6.923  15.796  67.531  1.00  0.00    -0.169 NA 
ENDROOT
BRANCH   8  12
HETATM   12  C1* UNL     1      -9.887  14.099  66.253  1.00  0.00    -0.306 C  
HETATM   13  C2* UNL     1     -11.101  14.068  67.178  1.00  0.00    -0.313 C  
HETATM   14  C3* UNL     1     -12.139  13.385  66.324  1.00  0.00    -0.422 C  
HETATM   15  O3* UNL     1     -11.948  11.970  66.420  1.00  0.00    -0.611 OA 
HETATM   16  C4* UNL     1     -11.798  13.847  64.909  1.00  0.00    -0.387 C  
HETATM   17  H3* UNL     1     -12.602  11.539  65.882  1.00  0.00     0.000 HD 
HETATM   18  O4* UNL     1     -10.420  14.290  64.928  1.00  0.00    -0.407 OA 
BRANCH  16  19
HETATM   19  C5* UNL     1     -12.658  15.019  64.430  1.00  0.00     0.030 C  
HETATM   20  O5* UNL     1     -11.862  16.017  63.796  1.00  0.00    -1.334 OA 
HETATM   21  H5* UNL     1     -12.396  16.745  63.498  1.00  0.00     0.000 HD 
ENDBRANCH  16  19
ENDBRANCH   8  12
TORSDOF 2
ENDMDL
MODEL       81
REMARK 921   NORMALIZED FREE ENERGY PREDICTED BY IDOCK:   -4.31 KCAL/MOL
REMARK 922        TOTAL FREE ENERGY PREDICTED BY IDOCK:   -5.15 KCAL/MOL
REMARK 923 INTER-LIGAND FREE ENERGY PREDICTED BY IDOCK:   -4.95 KCAL/MOL
REMARK 924 INTRA-LIGAND FREE ENERGY PREDICTED BY IDOCK:   -0.20 KCAL/MOL
REMARK 927      BINDING AFFINITY PREDICTED BY RF-SCORE:    0.00 PKD
ROOT
HETATM    1  N   UNL     1      -6.903  17.749  69.123  1.00  0.00    -0.249 NA 
HETATM    2  C   UNL     1      -7.933  17.275  68.386  1.00  0.00    -0.253 C  
HETATM    3  H2  UNL     1      -6.431  18.610  68.847  1.00  0.00     0.000 HD 
HETATM    4  H1  UNL     1      -6.599  17.244  69.955  1.00  0.00     0.000 HD 
HETATM    5  N   UNL     1      -8.316  17.913  67.337  1.00  0.00    -0.222 N  
HETATM    6  H   UNL     1      -7.851  18.775  67.053  1.00  0.00     0.000 HD 
HETATM    7  C   UNL     1      -9.358  17.413  66.611  1.00  0.00    -0.265 C  
HETATM    8  N   UNL     1      -9.711  16.100  66.817  1.00  0.00    -0.233 N  
HETATM    9  O   UNL     1      -9.970  18.127  65.821  1.00  0.00    -0.547 OA 
HETATM   10  C   UNL     1      -9.379  15.595  68.029  1.00  0.00    -0.193 C  
HETATM   11  N   UNL     1      -8.531  16.143  68.825  1.00  0.00    -0.222 NA 
ENDROOT
BRANCH   8  12
HETATM   12  C1* UNL     1     -10.790  15.532  66.028  1.00  0.00    -0.300 C  
HETATM   13  C2* UNL     1     -10.383  15.124  64.614  1.00  0.00     0.023 C  
HETATM   14  C3* UNL     1     -11.399  14.062  64.280  1.00  0.00    -0.262 C  
HETATM   15  O3* UNL     1     -12.594  14.701  63.822  1.00  0.00    -0.992 OA 
HETATM   16  C4* UNL     1     -11.668  13.390  65.626  1.00  0.00    -0.346 C  
HETATM   17  H3* UNL     1     -13.234  14.032  63.611  1.00  0.00     0.000 HD 
HETATM   18  O4* UNL     1     -11.261  14.322  66.654  1.00  0.00    -0.316 OA 
BRANCH  16  19
HETATM   19  C5* UNL     1     -10.875  12.097  65.828  1.00  0.00    -0.281 C  
HETATM   20  O5* UNL     1     -10.938  11.266  64.672  1.00  0.00    -0.294 OA 
HETATM   21  H5* UNL     1     -10.446  10.464  64.797  1.00  0.00     0.000 HD 
ENDBRANCH  16  19
ENDBRANCH   8  12
TORSDOF 2
ENDMDL
MODEL       82
REMARK 921   NORMALIZED FREE ENERGY PREDICTED BY IDOCK:   -4.29 KCAL/MOL
REMARK 922        TOTAL FREE ENERGY PREDICTED BY IDOCK:   -5.13 KCAL/MOL
REMARK 923 INTER-LIGAND FREE ENERGY PREDICTED BY IDOCK:   -4.80 KCAL/MOL
REMARK 924 INTRA-LIGAND FREE ENERGY PREDICTED BY IDOCK:   -0.33 KCAL/MOL
REMARK 927      BINDING AFFINITY PREDICTED BY RF-SCORE:    0.00 PKD
ROOT
HETATM    1  N   UNL     1     -10.975  14.821  64.477  1.00  0.00    -0.628 NA 
HETATM    2  C   UNL     1     -10.602  13.815  65.300  1.00  0.00    -0.353 C  
HETATM    3  H2  UNL     1     -10.420  15.675  64.430  1.00  0.00     0.000 HD 
HETATM    4  H1  UNL     1     -11.812  14.724  63.903  1.00  0.00     0.000 HD 
HETATM    5  N   UNL     1      -9.546  13.938  66.024  1.00  0.00    -0.468 N  
HETATM    6  H   UNL     1      -8.984  14.789  65.984  1.00  0.00     0.000 HD 
HETATM    7  C   UNL     1      -9.192  12.909  66.847  1.00  0.00    -0.234 C  
HETATM    8  N   UNL     1     -10.144  11.959  67.130  1.00  0.00    -0.203 N  
HETATM    9  O   UNL     1      -8.051  12.828  67.293  1.00  0.00    -0.178 OA 
HETATM   10  C   UNL     1     -11.125  11.828  66.204  1.00  0.00    -0.307 C  
HETATM   11  N   UNL     1     -11.369  12.700  65.292  1.00  0.00    -0.305 NA 
ENDROOT
BRANCH   8  12
HETATM   12  C1* UNL     1      -9.806  10.874  68.034  1.00  0.00    -0.171 C  
HETATM   13  C2* UNL     1     -10.978  10.375  68.877  1.00  0.00    -0.289 C  
HETATM   14  C3* UNL     1     -10.564   8.961  69.197  1.00  0.00    -0.195 C  
HETATM   15  O3* UNL     1      -9.682   8.987  70.323  1.00  0.00    -0.174 OA 
HETATM   16  C4* UNL     1      -9.788   8.526  67.955  1.00  0.00    -0.170 C  
HETATM   17  H3* UNL     1      -9.421   8.097  70.525  1.00  0.00     0.000 HD 
HETATM   18  O4* UNL     1      -9.367   9.731  67.275  1.00  0.00    -0.136 OA 
BRANCH  16  19
HETATM   19  C5* UNL     1     -10.626   7.704  66.972  1.00  0.00    -0.336 C  
HETATM   20  O5* UNL     1     -11.442   6.756  67.657  1.00  0.00    -0.650 OA 
HETATM   21  H5* UNL     1     -11.962   6.247  67.047  1.00  0.00     0.000 HD 
ENDBRANCH  16  19
ENDBRANCH   8  12
TORSDOF 2
ENDMDL
MODEL       83
REMARK 921   NORMALIZED FREE ENERGY PREDICTED BY IDOCK:   -4.28 KCAL/MOL
REMARK 922        TOTAL FREE ENERGY PREDICTED BY IDOCK:   -5.12 KCAL/MOL
REMARK 923 INTER-LIGAND FREE ENERGY PREDICTED BY IDOCK:   -5.60 KCAL/MOL
REMARK 924 INTRA-LIGAND FREE ENERGY PREDICTED BY IDOCK:    0.48 KCAL/MOL
REMARK 927      BINDING AFFINITY PREDICTED BY RF-SCORE:    0.00 PKD
ROOT
HETATM    1  N   UNL     1     -11.939  10.941  70.555  1.00  0.00    -0.343 NA 
HETATM    2  C   UNL     1     -11.728  11.792  69.525  1.00  0.00    -0.343 C  
HETATM    3  H2  UNL     1     -11.674  11.210  71.502  1.00  0.00     0.000 HD 
HETATM    4  H1  UNL     1     -12.363  10.030  70.382  1.00  0.00     0.000 HD 
HETATM    5  N   UNL     1     -11.194  12.941  69.743  1.00  0.00    -0.489 N  
HETATM    6  H   UNL     1     -10.926  13.220  70.687  1.00  0.00     0.000 HD 
HETATM    7  C   UNL     1     -10.992  13.781  68.687  1.00  0.00    -0.266 C  
HETATM    8  N   UNL     1     -11.034  13.242  67.423  1.00  0.00    -0.267 N  
HETATM    9  O   UNL     1     -10.806  14.981  68.868  1.00  0.00    -0.226 OA 
HETATM   10  C   UNL     1     -11.761  12.105  67.302  1.00  0.00    -0.299 C  
HETATM   11  N   UNL     1     -12.129  11.382  68.299  1.00  0.00    -0.608 NA 
ENDROOT
BRANCH   8  12
HETATM   12  C1* UNL     1     -10.783  14.106  66.283  1.00  0.00    -0.293 C  
HETATM   13  C2* UNL     1     -11.505  15.451  66.348  1.00  0.00     0.001 C  
HETATM   14  C3* UNL     1     -10.637  16.324  65.479  1.00  0.00    -0.353 C  
HETATM   15  O3* UNL     1     -11.006  16.118  64.112  1.00  0.00    -1.061 OA 
HETATM   16  C4* UNL     1      -9.230  15.775  65.711  1.00  0.00    -0.219 C  
HETATM   17  H3* UNL     1     -10.460  16.669  63.564  1.00  0.00     0.000 HD 
HETATM   18  O4* UNL     1      -9.380  14.428  66.219  1.00  0.00    -0.283 OA 
BRANCH  16  19
HETATM   19  C5* UNL     1      -8.429  16.575  66.741  1.00  0.00    -0.238 C  
HETATM   20  O5* UNL     1      -7.581  17.529  66.106  1.00  0.00    -0.316 OA 
HETATM   21  H5* UNL     1      -7.083  18.026  66.745  1.00  0.00     0.000 HD 
ENDBRANCH  16  19
ENDBRANCH   8  12
TORSDOF 2
ENDMDL
MODEL       84
REMARK 921   NORMALIZED FREE ENERGY PREDICTED BY IDOCK:   -4.28 KCAL/MOL
REMARK 922        TOTAL FREE ENERGY PREDICTED BY IDOCK:   -5.12 KCAL/MOL
REMARK 923 INTER-LIGAND FREE ENERGY PREDICTED BY IDOCK:   -4.79 KCAL/MOL
REMARK 924 INTRA-LIGAND FREE ENERGY PREDICTED BY IDOCK:   -0.32 KCAL/MOL
REMARK 927      BINDING AFFINITY PREDICTED BY RF-SCORE:    0.00 PKD
ROOT
HETATM    1  N   UNL     1      -7.467   6.823  68.441  1.00  0.00    -0.093 NA 
HETATM    2  C   UNL     1      -8.379   7.418  69.243  1.00  0.00    -0.132 C  
HETATM    3  H2  UNL     1      -6.485   6.799  68.715  1.00  0.00     0.000 HD 
HETATM    4  H1  UNL     1      -7.763   6.398  67.563  1.00  0.00     0.000 HD 
HETATM    5  N   UNL     1      -8.005   7.954  70.350  1.00  0.00    -0.096 N  
HETATM    6  H   UNL     1      -7.025   7.935  70.633  1.00  0.00     0.000 HD 
HETATM    7  C   UNL     1      -8.945   8.549  71.141  1.00  0.00    -0.186 C  
HETATM    8  N   UNL     1     -10.157   8.860  70.571  1.00  0.00    -0.194 N  
HETATM    9  O   UNL     1      -8.716   8.771  72.326  1.00  0.00    -0.375 OA 
HETATM   10  C   UNL     1     -10.499   8.113  69.494  1.00  0.00    -0.227 C  
HETATM   11  N   UNL     1      -9.668   7.390  68.831  1.00  0.00    -0.149 NA 
ENDROOT
BRANCH   8  12
HETATM   12  C1* UNL     1     -11.161   9.530  71.379  1.00  0.00    -0.368 C  
HETATM   13  C2* UNL     1     -12.204  10.297  70.570  1.00  0.00    -0.390 C  
HETATM   14  C3* UNL     1     -13.382  10.328  71.510  1.00  0.00    -0.318 C  
HETATM   15  O3* UNL     1     -13.204  11.410  72.429  1.00  0.00    -0.531 OA 
HETATM   16  C4* UNL     1     -13.273   9.002  72.262  1.00  0.00    -0.460 C  
HETATM   17  H3* UNL     1     -13.945  11.430  73.021  1.00  0.00     0.000 HD 
HETATM   18  O4* UNL     1     -11.905   8.552  72.133  1.00  0.00    -0.333 OA 
BRANCH  16  19
HETATM   19  C5* UNL     1     -14.180   7.907  71.696  1.00  0.00    -0.459 C  
HETATM   20  O5* UNL     1     -13.443   6.996  70.884  1.00  0.00    -0.485 OA 
HETATM   21  H5* UNL     1     -14.005   6.316  70.532  1.00  0.00     0.000 HD 
ENDBRANCH  16  19
ENDBRANCH   8  12
TORSDOF 2
ENDMDL
MODEL       85
REMARK 921   NORMALIZED FREE ENERGY PREDICTED BY IDOCK:   -4.27 KCAL/MOL
REMARK 922        TOTAL FREE ENERGY PREDICTED BY IDOCK:   -5.11 KCAL/MOL
REMARK 923 INTER-LIGAND FREE ENERGY PREDICTED BY IDOCK:   -5.59 KCAL/MOL
REMARK 924 INTRA-LIGAND FREE ENERGY PREDICTED BY IDOCK:    0.49 KCAL/MOL
REMARK 927      BINDING AFFINITY PREDICTED BY RF-SCORE:    0.00 PKD
ROOT
HETATM    1  N   UNL     1     -13.625  16.077  73.665  1.00  0.00    -0.844 NA 
HETATM    2  C   UNL     1     -13.050  15.159  72.854  1.00  0.00    -0.479 C  
HETATM    3  H2  UNL     1     -14.481  15.848  74.169  1.00  0.00     0.000 HD 
HETATM    4  H1  UNL     1     -13.200  16.998  73.771  1.00  0.00     0.000 HD 
HETATM    5  N   UNL     1     -13.585  13.998  72.721  1.00  0.00    -0.500 N  
HETATM    6  H   UNL     1     -14.442  13.759  73.221  1.00  0.00     0.000 HD 
HETATM    7  C   UNL     1     -12.986  13.091  71.897  1.00  0.00    -0.312 C  
HETATM    8  N   UNL     1     -12.064  13.559  70.991  1.00  0.00    -0.248 N  
HETATM    9  O   UNL     1     -13.248  11.894  71.986  1.00  0.00    -0.495 OA 
HETATM   10  C   UNL     1     -11.460  14.724  71.330  1.00  0.00    -0.202 C  
HETATM   11  N   UNL     1     -11.900  15.521  72.238  1.00  0.00    -0.425 NA 
ENDROOT
BRANCH   8  12
HETATM   12  C1* UNL     1     -11.440  12.621  70.076  1.00  0.00    -0.013 C  
HETATM   13  C2* UNL     1     -12.391  11.562  69.522  1.00  0.00    -0.190 C  
HETATM   14  C3* UNL     1     -11.726  11.178  68.225  1.00  0.00    -0.252 C  
HETATM   15  O3* UNL     1     -10.708  10.211  68.503  1.00  0.00    -0.207 OA 
HETATM   16  C4* UNL     1     -11.074  12.479  67.759  1.00  0.00    -0.249 C  
HETATM   17  H3* UNL     1     -10.289   9.969  67.687  1.00  0.00     0.000 HD 
HETATM   18  O4* UNL     1     -10.942  13.328  68.923  1.00  0.00    -0.248 OA 
BRANCH  16  19
HETATM   19  C5* UNL     1     -11.906  13.237  66.721  1.00  0.00    -0.394 C  
HETATM   20  O5* UNL     1     -12.542  14.374  67.301  1.00  0.00    -0.538 OA 
HETATM   21  H5* UNL     1     -13.058  14.844  66.657  1.00  0.00     0.000 HD 
ENDBRANCH  16  19
ENDBRANCH   8  12
TORSDOF 2
ENDMDL
MODEL       86
REMARK 921   NORMALIZED FREE ENERGY PREDICTED BY IDOCK:   -4.26 KCAL/MOL
REMARK 922        TOTAL FREE ENERGY PREDICTED BY IDOCK:   -5.10 KCAL/MOL
REMARK 923 INTER-LIGAND FREE ENERGY PREDICTED BY IDOCK:   -4.80 KCAL/MOL
REMARK 924 INTRA-LIGAND FREE ENERGY PREDICTED BY IDOCK:   -0.29 KCAL/MOL
REMARK 927      BINDING AFFINITY PREDICTED BY RF-SCORE:    0.00 PKD
ROOT
HETATM    1  N   UNL     1      -9.640   5.376  65.641  1.00  0.00    -0.342 NA 
HETATM    2  C   UNL     1     -10.002   5.470  66.941  1.00  0.00    -0.179 C  
HETATM    3  H2  UNL     1      -8.944   4.690  65.352  1.00  0.00     0.000 HD 
HETATM    4  H1  UNL     1     -10.065   5.994  64.950  1.00  0.00     0.000 HD 
HETATM    5  N   UNL     1      -9.466   4.690  67.812  1.00  0.00    -0.144 N  
HETATM    6  H   UNL     1      -8.768   4.000  67.533  1.00  0.00     0.000 HD 
HETATM    7  C   UNL     1      -9.848   4.805  69.117  1.00  0.00    -0.184 C  
HETATM    8  N   UNL     1     -10.502   5.954  69.494  1.00  0.00    -0.248 N  
HETATM    9  O   UNL     1      -9.633   3.897  69.914  1.00  0.00    -0.188 OA 
HETATM   10  C   UNL     1     -11.156   6.601  68.499  1.00  0.00    -0.206 C  
HETATM   11  N   UNL     1     -10.951   6.384  67.249  1.00  0.00    -0.380 NA 
ENDROOT
BRANCH   8  12
HETATM   12  C1* UNL     1     -10.885   6.119  70.885  1.00  0.00    -0.281 C  
HETATM   13  C2* UNL     1     -10.054   7.152  71.643  1.00  0.00    -0.197 C  
HETATM   14  C3* UNL     1     -10.991   7.571  72.747  1.00  0.00    -0.359 C  
HETATM   15  O3* UNL     1     -10.898   6.619  73.811  1.00  0.00    -0.479 OA 
HETATM   16  C4* UNL     1     -12.372   7.474  72.099  1.00  0.00    -0.217 C  
HETATM   17  H3* UNL     1     -11.488   6.884  74.506  1.00  0.00     0.000 HD 
HETATM   18  O4* UNL     1     -12.244   6.592  70.959  1.00  0.00    -0.367 OA 
BRANCH  16  19
HETATM   19  C5* UNL     1     -12.900   8.818  71.593  1.00  0.00    -0.348 C  
HETATM   20  O5* UNL     1     -13.560   9.538  72.631  1.00  0.00    -0.682 OA 
HETATM   21  H5* UNL     1     -13.888  10.372  72.317  1.00  0.00     0.000 HD 
ENDBRANCH  16  19
ENDBRANCH   8  12
TORSDOF 2
ENDMDL
MODEL       87
REMARK 921   NORMALIZED FREE ENERGY PREDICTED BY IDOCK:   -4.25 KCAL/MOL
REMARK 922        TOTAL FREE ENERGY PREDICTED BY IDOCK:   -5.09 KCAL/MOL
REMARK 923 INTER-LIGAND FREE ENERGY PREDICTED BY IDOCK:   -4.80 KCAL/MOL
REMARK 924 INTRA-LIGAND FREE ENERGY PREDICTED BY IDOCK:   -0.29 KCAL/MOL
REMARK 927      BINDING AFFINITY PREDICTED BY RF-SCORE:    0.00 PKD
ROOT
HETATM    1  N   UNL     1     -13.227  15.791  70.888  1.00  0.00    -0.694 NA 
HETATM    2  C   UNL     1     -12.747  14.566  70.573  1.00  0.00    -0.345 C  
HETATM    3  H2  UNL     1     -13.908  15.894  71.640  1.00  0.00     0.000 HD 
HETATM    4  H1  UNL     1     -12.905  16.610  70.373  1.00  0.00     0.000 HD 
HETATM    5  N   UNL     1     -13.153  13.533  71.223  1.00  0.00    -0.298 N  
HETATM    6  H   UNL     1     -13.834  13.627  71.976  1.00  0.00     0.000 HD 
HETATM    7  C   UNL     1     -12.654  12.309  70.885  1.00  0.00    -0.241 C  
HETATM    8  N   UNL     1     -12.031  12.185  69.666  1.00  0.00    -0.303 N  
HETATM    9  O   UNL     1     -12.740  11.361  71.661  1.00  0.00    -0.375 OA 
HETATM   10  C   UNL     1     -11.513  13.331  69.162  1.00  0.00    -0.305 C  
HETATM   11  N   UNL     1     -11.825  14.504  69.585  1.00  0.00    -0.299 NA 
ENDROOT
BRANCH   8  12
HETATM   12  C1* UNL     1     -11.526  10.884  69.264  1.00  0.00    -0.302 C  
HETATM   13  C2* UNL     1     -11.387  10.707  67.754  1.00  0.00    -0.320 C  
HETATM   14  C3* UNL     1     -10.325   9.642  67.651  1.00  0.00    -0.237 C  
HETATM   15  O3* UNL     1     -10.945   8.363  67.810  1.00  0.00    -0.496 OA 
HETATM   16  C4* UNL     1      -9.423   9.920  68.852  1.00  0.00    -0.170 C  
HETATM   17  H3* UNL     1     -10.277   7.692  67.745  1.00  0.00     0.000 HD 
HETATM   18  O4* UNL     1     -10.199  10.696  69.795  1.00  0.00    -0.183 OA 
BRANCH  16  19
HETATM   19  C5* UNL     1      -8.174  10.731  68.499  1.00  0.00    -0.136 C  
HETATM   20  O5* UNL     1      -7.481  10.155  67.394  1.00  0.00    -0.093 OA 
HETATM   21  H5* UNL     1      -6.706  10.658  67.174  1.00  0.00     0.000 HD 
ENDBRANCH  16  19
ENDBRANCH   8  12
TORSDOF 2
ENDMDL
MODEL       88
REMARK 921   NORMALIZED FREE ENERGY PREDICTED BY IDOCK:   -4.23 KCAL/MOL
REMARK 922        TOTAL FREE ENERGY PREDICTED BY IDOCK:   -5.06 KCAL/MOL
REMARK 923 INTER-LIGAND FREE ENERGY PREDICTED BY IDOCK:   -4.72 KCAL/MOL
REMARK 924 INTRA-LIGAND FREE ENERGY PREDICTED BY IDOCK:   -0.34 KCAL/MOL
REMARK 927      BINDING AFFINITY PREDICTED BY RF-SCORE:    0.00 PKD
ROOT
HETATM    1  N   UNL     1     -10.847   4.596  66.198  1.00  0.00    -0.550 NA 
HETATM    2  C   UNL     1     -10.410   5.866  66.360  1.00  0.00    -0.111 C  
HETATM    3  H2  UNL     1     -10.392   3.982  65.524  1.00  0.00     0.000 HD 
HETATM    4  H1  UNL     1     -11.632   4.255  66.752  1.00  0.00     0.000 HD 
HETATM    5  N   UNL     1      -9.419   6.296  65.662  1.00  0.00    -0.369 N  
HETATM    6  H   UNL     1      -8.957   5.688  64.985  1.00  0.00     0.000 HD 
HETATM    7  C   UNL     1      -8.997   7.581  65.844  1.00  0.00    -0.089 C  
HETATM    8  N   UNL     1      -9.849   8.449  66.485  1.00  0.00    -0.263 N  
HETATM    9  O   UNL     1      -7.883   7.933  65.469  1.00  0.00    -0.098 OA 
HETATM   10  C   UNL     1     -10.752   7.870  67.312  1.00  0.00    -0.229 C  
HETATM   11  N   UNL     1     -11.041   6.618  67.291  1.00  0.00    -0.379 NA 
ENDROOT
BRANCH   8  12
HETATM   12  C1* UNL     1      -9.441   9.833  66.657  1.00  0.00    -0.171 C  
HETATM   13  C2* UNL     1     -10.055  10.795  65.643  1.00  0.00    -0.327 C  
HETATM   14  C3* UNL     1     -10.011  12.110  66.379  1.00  0.00    -0.225 C  
HETATM   15  O3* UNL     1      -8.706  12.676  66.224  1.00  0.00    -0.418 OA 
HETATM   16  C4* UNL     1     -10.219  11.709  67.838  1.00  0.00    -0.189 C  
HETATM   17  H3* UNL     1      -8.677  13.504  66.687  1.00  0.00     0.000 HD 
HETATM   18  O4* UNL     1      -9.876  10.308  67.946  1.00  0.00    -0.154 OA 
BRANCH  16  19
HETATM   19  C5* UNL     1     -11.665  11.873  68.312  1.00  0.00    -0.321 C  
HETATM   20  O5* UNL     1     -12.283  10.607  68.532  1.00  0.00    -0.822 OA 
HETATM   21  H5* UNL     1     -13.180  10.709  68.826  1.00  0.00     0.000 HD 
ENDBRANCH  16  19
ENDBRANCH   8  12
TORSDOF 2
ENDMDL
MODEL       89
REMARK 921   NORMALIZED FREE ENERGY PREDICTED BY IDOCK:   -4.20 KCAL/MOL
REMARK 922        TOTAL FREE ENERGY PREDICTED BY IDOCK:   -5.03 KCAL/MOL
REMARK 923 INTER-LIGAND FREE ENERGY PREDICTED BY IDOCK:   -5.48 KCAL/MOL
REMARK 924 INTRA-LIGAND FREE ENERGY PREDICTED BY IDOCK:    0.45 KCAL/MOL
REMARK 927      BINDING AFFINITY PREDICTED BY RF-SCORE:    0.00 PKD
ROOT
HETATM    1  N   UNL     1      -5.910   9.865  67.551  1.00  0.00    -0.053 NA 
HETATM    2  C   UNL     1      -7.075  10.335  67.050  1.00  0.00    -0.090 C  
HETATM    3  H2  UNL     1      -5.302  10.479  68.093  1.00  0.00     0.000 HD 
HETATM    4  H1  UNL     1      -5.640   8.896  67.387  1.00  0.00     0.000 HD 
HETATM    5  N   UNL     1      -7.415  11.557  67.258  1.00  0.00    -0.130 N  
HETATM    6  H   UNL     1      -6.814  12.180  67.799  1.00  0.00     0.000 HD 
HETATM    7  C   UNL     1      -8.595  12.007  66.741  1.00  0.00    -0.177 C  
HETATM    8  N   UNL     1      -9.183  11.262  65.746  1.00  0.00    -0.217 N  
HETATM    9  O   UNL     1      -9.120  13.028  67.175  1.00  0.00    -0.209 OA 
HETATM   10  C   UNL     1      -8.852   9.948  65.734  1.00  0.00    -0.147 C  
HETATM   11  N   UNL     1      -7.845   9.458  66.365  1.00  0.00    -0.100 NA 
ENDROOT
BRANCH   8  12
HETATM   12  C1* UNL     1     -10.419  11.738  65.152  1.00  0.00    -0.283 C  
HETATM   13  C2* UNL     1     -11.485  12.143  66.167  1.00  0.00    -0.429 C  
HETATM   14  C3* UNL     1     -12.318  13.126  65.385  1.00  0.00    -0.481 C  
HETATM   15  O3* UNL     1     -13.259  12.396  64.591  1.00  0.00    -0.822 OA 
HETATM   16  C4* UNL     1     -11.302  13.806  64.468  1.00  0.00    -0.380 C  
HETATM   17  H3* UNL     1     -13.784  13.015  64.098  1.00  0.00     0.000 HD 
HETATM   18  O4* UNL     1     -10.158  12.925  64.377  1.00  0.00    -0.326 OA 
BRANCH  16  19
HETATM   19  C5* UNL     1     -10.812  15.154  65.001  1.00  0.00    -0.440 C  
HETATM   20  O5* UNL     1     -11.230  16.225  64.157  1.00  0.00    -1.193 OA 
HETATM   21  H5* UNL     1     -10.925  17.062  64.488  1.00  0.00     0.000 HD 
ENDBRANCH  16  19
ENDBRANCH   8  12
TORSDOF 2
ENDMDL
MODEL       90
REMARK 921   NORMALIZED FREE ENERGY PREDICTED BY IDOCK:   -4.18 KCAL/MOL
REMARK 922        TOTAL FREE ENERGY PREDICTED BY IDOCK:   -5.01 KCAL/MOL
REMARK 923 INTER-LIGAND FREE ENERGY PREDICTED BY IDOCK:   -4.76 KCAL/MOL
REMARK 924 INTRA-LIGAND FREE ENERGY PREDICTED BY IDOCK:   -0.25 KCAL/MOL
REMARK 927      BINDING AFFINITY PREDICTED BY RF-SCORE:    0.00 PKD
ROOT
HETATM    1  N   UNL     1     -11.003  15.464  66.227  1.00  0.00    -0.311 NA 
HETATM    2  C   UNL     1     -11.249  14.276  66.826  1.00  0.00    -0.332 C  
HETATM    3  H2  UNL     1     -10.623  15.490  65.281  1.00  0.00     0.000 HD 
HETATM    4  H1  UNL     1     -11.197  16.333  66.724  1.00  0.00     0.000 HD 
HETATM    5  N   UNL     1     -11.003  13.181  66.199  1.00  0.00    -0.281 N  
HETATM    6  H   UNL     1     -10.624  13.197  65.252  1.00  0.00     0.000 HD 
HETATM    7  C   UNL     1     -11.260  11.996  66.825  1.00  0.00    -0.322 C  
HETATM    8  N   UNL     1     -11.425  12.015  68.190  1.00  0.00    -0.297 N  
HETATM    9  O   UNL     1     -11.364  10.956  66.180  1.00  0.00    -0.023 OA 
HETATM   10  C   UNL     1     -11.834  13.199  68.706  1.00  0.00    -0.324 C  
HETATM   11  N   UNL     1     -11.777  14.315  68.071  1.00  0.00    -0.334 NA 
ENDROOT
BRANCH   8  12
HETATM   12  C1* UNL     1     -11.660  10.762  68.886  1.00  0.00    -0.291 C  
HETATM   13  C2* UNL     1     -10.592  10.413  69.920  1.00  0.00    -0.299 C  
HETATM   14  C3* UNL     1     -11.344   9.513  70.867  1.00  0.00    -0.341 C  
HETATM   15  O3* UNL     1     -11.350   8.187  70.329  1.00  0.00    -0.389 OA 
HETATM   16  C4* UNL     1     -12.764  10.076  70.843  1.00  0.00    -0.325 C  
HETATM   17  H3* UNL     1     -11.823   7.620  70.926  1.00  0.00     0.000 HD 
HETATM   18  O4* UNL     1     -12.895  10.844  69.624  1.00  0.00    -0.197 OA 
BRANCH  16  19
HETATM   19  C5* UNL     1     -13.066  11.010  72.018  1.00  0.00    -0.344 C  
HETATM   20  O5* UNL     1     -12.876  12.375  71.654  1.00  0.00    -0.348 OA 
HETATM   21  H5* UNL     1     -13.064  12.954  72.383  1.00  0.00     0.000 HD 
ENDBRANCH  16  19
ENDBRANCH   8  12
TORSDOF 2
ENDMDL
MODEL       91
REMARK 921   NORMALIZED FREE ENERGY PREDICTED BY IDOCK:   -4.16 KCAL/MOL
REMARK 922        TOTAL FREE ENERGY PREDICTED BY IDOCK:   -4.98 KCAL/MOL
REMARK 923 INTER-LIGAND FREE ENERGY PREDICTED BY IDOCK:   -4.70 KCAL/MOL
REMARK 924 INTRA-LIGAND FREE ENERGY PREDICTED BY IDOCK:   -0.28 KCAL/MOL
REMARK 927      BINDING AFFINITY PREDICTED BY RF-SCORE:    0.00 PKD
ROOT
HETATM    1  N   UNL     1     -10.196   3.902  65.468  1.00  0.00    -0.430 NA 
HETATM    2  C   UNL     1     -10.260   4.742  66.526  1.00  0.00    -0.259 C  
HETATM    3  H2  UNL     1     -10.483   4.222  64.543  1.00  0.00     0.000 HD 
HETATM    4  H1  UNL     1      -9.861   2.947  65.597  1.00  0.00     0.000 HD 
HETATM    5  N   UNL     1     -10.682   5.946  66.363  1.00  0.00    -0.576 N  
HETATM    6  H   UNL     1     -10.971   6.275  65.441  1.00  0.00     0.000 HD 
HETATM    7  C   UNL     1     -10.737   6.773  67.446  1.00  0.00    -0.335 C  
HETATM    8  N   UNL     1     -10.683   6.199  68.694  1.00  0.00    -0.276 N  
HETATM    9  O   UNL     1     -10.806   7.991  67.301  1.00  0.00    -0.261 OA 
HETATM   10  C   UNL     1     -10.074   4.991  68.749  1.00  0.00    -0.130 C  
HETATM   11  N   UNL     1      -9.839   4.260  67.718  1.00  0.00    -0.120 NA 
ENDROOT
BRANCH   8  12
HETATM   12  C1* UNL     1     -10.779   7.054  69.864  1.00  0.00    -0.240 C  
HETATM   13  C2* UNL     1     -12.161   7.071  70.514  1.00  0.00    -0.278 C  
HETATM   14  C3* UNL     1     -11.843   7.456  71.936  1.00  0.00    -0.297 C  
HETATM   15  O3* UNL     1     -11.721   8.880  72.007  1.00  0.00    -0.350 OA 
HETATM   16  C4* UNL     1     -10.477   6.818  72.183  1.00  0.00    -0.206 C  
HETATM   17  H3* UNL     1     -11.521   9.123  72.902  1.00  0.00     0.000 HD 
HETATM   18  O4* UNL     1      -9.881   6.577  70.886  1.00  0.00    -0.182 OA 
BRANCH  16  19
HETATM   19  C5* UNL     1     -10.557   5.477  72.915  1.00  0.00    -0.229 C  
HETATM   20  O5* UNL     1     -11.903   5.154  73.256  1.00  0.00    -0.527 OA 
HETATM   21  H5* UNL     1     -11.952   4.322  73.711  1.00  0.00     0.000 HD 
ENDBRANCH  16  19
ENDBRANCH   8  12
TORSDOF 2
ENDMDL
MODEL       92
REMARK 921   NORMALIZED FREE ENERGY PREDICTED BY IDOCK:   -4.15 KCAL/MOL
REMARK 922        TOTAL FREE ENERGY PREDICTED BY IDOCK:   -4.97 KCAL/MOL
REMARK 923 INTER-LIGAND FREE ENERGY PREDICTED BY IDOCK:   -5.13 KCAL/MOL
REMARK 924 INTRA-LIGAND FREE ENERGY PREDICTED BY IDOCK:    0.16 KCAL/MOL
REMARK 927      BINDING AFFINITY PREDICTED BY RF-SCORE:    0.00 PKD
ROOT
HETATM    1  N   UNL     1     -12.532  14.892  63.808  1.00  0.00    -1.062 NA 
HETATM    2  C   UNL     1     -11.843  13.877  64.377  1.00  0.00    -0.429 C  
HETATM    3  H2  UNL     1     -12.531  15.006  62.795  1.00  0.00     0.000 HD 
HETATM    4  H1  UNL     1     -13.054  15.543  64.395  1.00  0.00     0.000 HD 
HETATM    5  N   UNL     1     -11.186  13.056  63.637  1.00  0.00    -0.583 N  
HETATM    6  H   UNL     1     -11.179  13.162  62.622  1.00  0.00     0.000 HD 
HETATM    7  C   UNL     1     -10.498  12.040  64.235  1.00  0.00    -0.328 C  
HETATM    8  N   UNL     1     -10.247  12.144  65.583  1.00  0.00    -0.250 N  
HETATM    9  O   UNL     1     -10.143  11.059  63.589  1.00  0.00    -0.312 OA 
HETATM   10  C   UNL     1     -11.111  12.926  66.274  1.00  0.00    -0.288 C  
HETATM   11  N   UNL     1     -11.911  13.769  65.724  1.00  0.00    -0.354 NA 
ENDROOT
BRANCH   8  12
HETATM   12  C1* UNL     1      -9.484  11.096  66.237  1.00  0.00    -0.196 C  
HETATM   13  C2* UNL     1      -9.918   9.681  65.862  1.00  0.00    -0.351 C  
HETATM   14  C3* UNL     1      -8.667   8.881  66.122  1.00  0.00    -0.153 C  
HETATM   15  O3* UNL     1      -8.609   8.564  67.516  1.00  0.00    -0.127 OA 
HETATM   16  C4* UNL     1      -7.542   9.855  65.776  1.00  0.00    -0.113 C  
HETATM   17  H3* UNL     1      -7.821   8.060  67.679  1.00  0.00     0.000 HD 
HETATM   18  O4* UNL     1      -8.100  11.188  65.843  1.00  0.00    -0.123 OA 
BRANCH  16  19
HETATM   19  C5* UNL     1      -6.978   9.655  64.367  1.00  0.00    -0.118 C  
HETATM   20  O5* UNL     1      -7.330  10.740  63.512  1.00  0.00    -0.349 OA 
HETATM   21  H5* UNL     1      -6.979  10.616  62.638  1.00  0.00     0.000 HD 
ENDBRANCH  16  19
ENDBRANCH   8  12
TORSDOF 2
ENDMDL
MODEL       93
REMARK 921   NORMALIZED FREE ENERGY PREDICTED BY IDOCK:   -4.12 KCAL/MOL
REMARK 922        TOTAL FREE ENERGY PREDICTED BY IDOCK:   -4.94 KCAL/MOL
REMARK 923 INTER-LIGAND FREE ENERGY PREDICTED BY IDOCK:   -4.67 KCAL/MOL
REMARK 924 INTRA-LIGAND FREE ENERGY PREDICTED BY IDOCK:   -0.27 KCAL/MOL
REMARK 927      BINDING AFFINITY PREDICTED BY RF-SCORE:    0.00 PKD
ROOT
HETATM    1  N   UNL     1     -13.082  15.438  70.450  1.00  0.00    -0.685 NA 
HETATM    2  C   UNL     1     -12.345  14.543  69.753  1.00  0.00    -0.272 C  
HETATM    3  H2  UNL     1     -13.609  15.138  71.269  1.00  0.00     0.000 HD 
HETATM    4  H1  UNL     1     -13.108  16.414  70.154  1.00  0.00     0.000 HD 
HETATM    5  N   UNL     1     -12.312  13.313  70.126  1.00  0.00    -0.276 N  
HETATM    6  H   UNL     1     -12.836  13.003  70.945  1.00  0.00     0.000 HD 
HETATM    7  C   UNL     1     -11.562  12.429  69.406  1.00  0.00    -0.307 C  
HETATM    8  N   UNL     1     -11.173  12.802  68.141  1.00  0.00    -0.253 N  
HETATM    9  O   UNL     1     -11.227  11.351  69.889  1.00  0.00    -0.235 OA 
HETATM   10  C   UNL     1     -11.105  14.138  67.926  1.00  0.00    -0.268 C  
HETATM   11  N   UNL     1     -11.649  15.014  68.692  1.00  0.00    -0.312 NA 
ENDROOT
BRANCH   8  12
HETATM   12  C1* UNL     1     -10.408  11.865  67.337  1.00  0.00    -0.207 C  
HETATM   13  C2* UNL     1     -11.259  10.833  66.600  1.00  0.00     0.003 C  
HETATM   14  C3* UNL     1     -10.374  10.456  65.440  1.00  0.00    -0.200 C  
HETATM   15  O3* UNL     1      -9.440   9.466  65.881  1.00  0.00    -0.211 OA 
HETATM   16  C4* UNL     1      -9.628  11.751  65.124  1.00  0.00    -0.153 C  
HETATM   17  H3* UNL     1      -8.883   9.228  65.151  1.00  0.00     0.000 HD 
HETATM   18  O4* UNL     1      -9.696  12.580  66.308  1.00  0.00    -0.247 OA 
BRANCH  16  19
HETATM   19  C5* UNL     1     -10.244  12.540  63.966  1.00  0.00    -0.364 C  
HETATM   20  O5* UNL     1     -10.148  13.944  64.190  1.00  0.00    -0.681 OA 
HETATM   21  H5* UNL     1     -10.531  14.434  63.471  1.00  0.00     0.000 HD 
ENDBRANCH  16  19
ENDBRANCH   8  12
TORSDOF 2
ENDMDL
MODEL       94
REMARK 921   NORMALIZED FREE ENERGY PREDICTED BY IDOCK:   -4.11 KCAL/MOL
REMARK 922        TOTAL FREE ENERGY PREDICTED BY IDOCK:   -4.93 KCAL/MOL
REMARK 923 INTER-LIGAND FREE ENERGY PREDICTED BY IDOCK:   -4.93 KCAL/MOL
REMARK 924 INTRA-LIGAND FREE ENERGY PREDICTED BY IDOCK:    0.00 KCAL/MOL
REMARK 927      BINDING AFFINITY PREDICTED BY RF-SCORE:    0.00 PKD
ROOT
HETATM    1  N   UNL     1      -9.077   9.228  71.161  1.00  0.00    -0.271 NA 
HETATM    2  C   UNL     1      -9.635   9.897  70.127  1.00  0.00    -0.185 C  
HETATM    3  H2  UNL     1      -9.658   8.907  71.935  1.00  0.00     0.000 HD 
HETATM    4  H1  UNL     1      -8.073   9.046  71.166  1.00  0.00     0.000 HD 
HETATM    5  N   UNL     1     -10.901  10.126  70.121  1.00  0.00    -0.294 N  
HETATM    6  H   UNL     1     -11.490   9.808  70.891  1.00  0.00     0.000 HD 
HETATM    7  C   UNL     1     -11.439  10.803  69.066  1.00  0.00    -0.298 C  
HETATM    8  N   UNL     1     -10.583  11.506  68.252  1.00  0.00    -0.191 N  
HETATM    9  O   UNL     1     -12.646  10.759  68.844  1.00  0.00    -0.283 OA 
HETATM   10  C   UNL     1      -9.303  11.062  68.237  1.00  0.00    -0.172 C  
HETATM   11  N   UNL     1      -8.810  10.270  69.121  1.00  0.00    -0.167 NA 
ENDROOT
BRANCH   8  12
HETATM   12  C1* UNL     1     -11.134  12.268  67.145  1.00  0.00    -0.278 C  
HETATM   13  C2* UNL     1     -11.993  13.457  67.571  1.00  0.00    -0.381 C  
HETATM   14  C3* UNL     1     -11.893  14.370  66.377  1.00  0.00    -0.388 C  
HETATM   15  O3* UNL     1     -12.848  13.948  65.398  1.00  0.00    -0.662 OA 
HETATM   16  C4* UNL     1     -10.482  14.117  65.850  1.00  0.00    -0.306 C  
HETATM   17  H3* UNL     1     -12.786  14.523  64.646  1.00  0.00     0.000 HD 
HETATM   18  O4* UNL     1     -10.062  12.831  66.364  1.00  0.00    -0.248 OA 
BRANCH  16  19
HETATM   19  C5* UNL     1      -9.464  15.160  66.314  1.00  0.00    -0.309 C  
HETATM   20  O5* UNL     1      -9.649  16.400  65.636  1.00  0.00    -0.495 OA 
HETATM   21  H5* UNL     1      -9.018  17.048  65.924  1.00  0.00     0.000 HD 
ENDBRANCH  16  19
ENDBRANCH   8  12
TORSDOF 2
ENDMDL
MODEL       95
REMARK 921   NORMALIZED FREE ENERGY PREDICTED BY IDOCK:   -4.11 KCAL/MOL
REMARK 922        TOTAL FREE ENERGY PREDICTED BY IDOCK:   -4.92 KCAL/MOL
REMARK 923 INTER-LIGAND FREE ENERGY PREDICTED BY IDOCK:   -4.63 KCAL/MOL
REMARK 924 INTRA-LIGAND FREE ENERGY PREDICTED BY IDOCK:   -0.30 KCAL/MOL
REMARK 927      BINDING AFFINITY PREDICTED BY RF-SCORE:    0.00 PKD
ROOT
HETATM    1  N   UNL     1     -14.151   9.042  73.225  1.00  0.00    -1.211 NA 
HETATM    2  C   UNL     1     -13.219   8.772  72.283  1.00  0.00    -0.412 C  
HETATM    3  H2  UNL     1     -14.329  10.006  73.506  1.00  0.00     0.000 HD 
HETATM    4  H1  UNL     1     -14.675   8.280  73.654  1.00  0.00     0.000 HD 
HETATM    5  N   UNL     1     -12.558   9.733  71.742  1.00  0.00    -0.399 N  
HETATM    6  H   UNL     1     -12.730  10.701  72.016  1.00  0.00     0.000 HD 
HETATM    7  C   UNL     1     -11.623   9.434  70.794  1.00  0.00    -0.298 C  
HETATM    8  N   UNL     1     -11.183   8.134  70.717  1.00  0.00    -0.261 N  
HETATM    9  O   UNL     1     -11.214  10.298  70.024  1.00  0.00    -0.266 OA 
HETATM   10  C   UNL     1     -12.046   7.202  71.188  1.00  0.00    -0.358 C  
HETATM   11  N   UNL     1     -13.053   7.473  71.939  1.00  0.00    -0.289 NA 
ENDROOT
BRANCH   8  12
HETATM   12  C1* UNL     1     -10.159   7.796  69.744  1.00  0.00    -0.194 C  
HETATM   13  C2* UNL     1      -8.895   7.192  70.351  1.00  0.00    -0.151 C  
HETATM   14  C3* UNL     1      -8.334   6.396  69.200  1.00  0.00    -0.122 C  
HETATM   15  O3* UNL     1      -7.586   7.279  68.358  1.00  0.00    -0.112 OA 
HETATM   16  C4* UNL     1      -9.580   5.919  68.455  1.00  0.00    -0.122 C  
HETATM   17  H3* UNL     1      -7.232   6.778  67.633  1.00  0.00     0.000 HD 
HETATM   18  O4* UNL     1     -10.665   6.796  68.838  1.00  0.00    -0.215 OA 
BRANCH  16  19
HETATM   19  C5* UNL     1      -9.988   4.488  68.810  1.00  0.00    -0.050 C  
HETATM   20  O5* UNL     1      -9.720   3.593  67.734  1.00  0.00    -0.167 OA 
HETATM   21  H5* UNL     1      -9.974   2.704  67.954  1.00  0.00     0.000 HD 
ENDBRANCH  16  19
ENDBRANCH   8  12
TORSDOF 2
ENDMDL
MODEL       96
REMARK 921   NORMALIZED FREE ENERGY PREDICTED BY IDOCK:   -4.10 KCAL/MOL
REMARK 922        TOTAL FREE ENERGY PREDICTED BY IDOCK:   -4.92 KCAL/MOL
REMARK 923 INTER-LIGAND FREE ENERGY PREDICTED BY IDOCK:   -4.58 KCAL/MOL
REMARK 924 INTRA-LIGAND FREE ENERGY PREDICTED BY IDOCK:   -0.34 KCAL/MOL
REMARK 927      BINDING AFFINITY PREDICTED BY RF-SCORE:    0.00 PKD
ROOT
HETATM    1  N   UNL     1      -8.572   8.793  62.468  1.00  0.00    -0.340 NA 
HETATM    2  C   UNL     1      -9.050   9.796  63.239  1.00  0.00    -0.237 C  
HETATM    3  H2  UNL     1      -9.018   8.576  61.577  1.00  0.00     0.000 HD 
HETATM    4  H1  UNL     1      -7.763   8.255  62.779  1.00  0.00     0.000 HD 
HETATM    5  N   UNL     1     -10.069  10.475  62.846  1.00  0.00    -0.670 N  
HETATM    6  H   UNL     1     -10.523  10.265  61.956  1.00  0.00     0.000 HD 
HETATM    7  C   UNL     1     -10.533  11.481  63.642  1.00  0.00    -0.427 C  
HETATM    8  N   UNL     1     -10.130  11.495  64.957  1.00  0.00    -0.257 N  
HETATM    9  O   UNL     1     -11.264  12.356  63.185  1.00  0.00    -0.387 OA 
HETATM   10  C   UNL     1      -8.955  10.869  65.209  1.00  0.00    -0.186 C  
HETATM   11  N   UNL     1      -8.393  10.048  64.394  1.00  0.00    -0.159 NA 
ENDROOT
BRANCH   8  12
HETATM   12  C1* UNL     1     -10.640  12.533  65.836  1.00  0.00    -0.265 C  
HETATM   13  C2* UNL     1     -11.758  12.069  66.767  1.00  0.00    -0.339 C  
HETATM   14  C3* UNL     1     -11.650  13.045  67.910  1.00  0.00    -0.342 C  
HETATM   15  O3* UNL     1     -12.352  14.241  67.557  1.00  0.00    -0.600 OA 
HETATM   16  C4* UNL     1     -10.153  13.340  67.988  1.00  0.00    -0.235 C  
HETATM   17  H3* UNL     1     -12.284  14.855  68.277  1.00  0.00     0.000 HD 
HETATM   18  O4* UNL     1      -9.585  12.992  66.704  1.00  0.00    -0.247 OA 
BRANCH  16  19
HETATM   19  C5* UNL     1      -9.427  12.520  69.057  1.00  0.00     0.420 C  
HETATM   20  O5* UNL     1      -8.042  12.385  68.752  1.00  0.00    -0.309 OA 
HETATM   21  H5* UNL     1      -7.591  11.876  69.416  1.00  0.00     0.000 HD 
ENDBRANCH  16  19
ENDBRANCH   8  12
TORSDOF 2
ENDMDL
MODEL       97
REMARK 921   NORMALIZED FREE ENERGY PREDICTED BY IDOCK:   -4.10 KCAL/MOL
REMARK 922        TOTAL FREE ENERGY PREDICTED BY IDOCK:   -4.91 KCAL/MOL
REMARK 923 INTER-LIGAND FREE ENERGY PREDICTED BY IDOCK:   -5.16 KCAL/MOL
REMARK 924 INTRA-LIGAND FREE ENERGY PREDICTED BY IDOCK:    0.25 KCAL/MOL
REMARK 927      BINDING AFFINITY PREDICTED BY RF-SCORE:    0.00 PKD
ROOT
HETATM    1  N   UNL     1     -11.192   4.409  65.299  1.00  0.00    -0.983 NA 
HETATM    2  C   UNL     1     -10.836   5.195  66.341  1.00  0.00    -0.103 C  
HETATM    3  H2  UNL     1     -11.707   4.805  64.513  1.00  0.00     0.000 HD 
HETATM    4  H1  UNL     1     -10.944   3.420  65.301  1.00  0.00     0.000 HD 
HETATM    5  N   UNL     1     -11.148   6.443  66.338  1.00  0.00    -0.583 N  
HETATM    6  H   UNL     1     -11.663   6.848  65.556  1.00  0.00     0.000 HD 
HETATM    7  C   UNL     1     -10.778   7.213  67.401  1.00  0.00    -0.298 C  
HETATM    8  N   UNL     1     -10.413   6.572  68.561  1.00  0.00    -0.198 N  
HETATM    9  O   UNL     1     -10.748   8.437  67.307  1.00  0.00    -0.285 OA 
HETATM   10  C   UNL     1      -9.957   5.306  68.404  1.00  0.00    -0.159 C  
HETATM   11  N   UNL     1     -10.130   4.610  67.337  1.00  0.00    -0.137 NA 
ENDROOT
BRANCH   8  12
HETATM   12  C1* UNL     1     -10.052   7.369  69.720  1.00  0.00    -0.193 C  
HETATM   13  C2* UNL     1      -8.787   8.203  69.534  1.00  0.00    -0.143 C  
HETATM   14  C3* UNL     1      -8.992   9.324  70.521  1.00  0.00    -0.250 C  
HETATM   15  O3* UNL     1      -8.583   8.872  71.816  1.00  0.00    -0.318 OA 
HETATM   16  C4* UNL     1     -10.506   9.534  70.513  1.00  0.00    -0.296 C  
HETATM   17  H3* UNL     1      -8.712   9.578  72.438  1.00  0.00     0.000 HD 
HETATM   18  O4* UNL     1     -11.099   8.320  69.998  1.00  0.00    -0.235 OA 
BRANCH  16  19
HETATM   19  C5* UNL     1     -10.953  10.690  69.615  1.00  0.00    -0.278 C  
HETATM   20  O5* UNL     1     -12.229  10.429  69.036  1.00  0.00    -0.701 OA 
HETATM   21  H5* UNL     1     -12.507  11.146  68.479  1.00  0.00     0.000 HD 
ENDBRANCH  16  19
ENDBRANCH   8  12
TORSDOF 2
ENDMDL
MODEL       98
REMARK 921   NORMALIZED FREE ENERGY PREDICTED BY IDOCK:   -4.07 KCAL/MOL
REMARK 922        TOTAL FREE ENERGY PREDICTED BY IDOCK:   -4.88 KCAL/MOL
REMARK 923 INTER-LIGAND FREE ENERGY PREDICTED BY IDOCK:   -5.53 KCAL/MOL
REMARK 924 INTRA-LIGAND FREE ENERGY PREDICTED BY IDOCK:    0.65 KCAL/MOL
REMARK 927      BINDING AFFINITY PREDICTED BY RF-SCORE:    0.00 PKD
ROOT
HETATM    1  N   UNL     1     -13.697  15.402  72.660  1.00  0.00    -0.523 NA 
HETATM    2  C   UNL     1     -12.923  15.365  71.551  1.00  0.00    -0.447 C  
HETATM    3  H2  UNL     1     -13.531  16.110  73.375  1.00  0.00     0.000 HD 
HETATM    4  H1  UNL     1     -14.446  14.720  72.779  1.00  0.00     0.000 HD 
HETATM    5  N   UNL     1     -11.978  16.224  71.401  1.00  0.00    -0.644 N  
HETATM    6  H   UNL     1     -11.805  16.937  72.111  1.00  0.00     0.000 HD 
HETATM    7  C   UNL     1     -11.211  16.165  70.274  1.00  0.00    -0.381 C  
HETATM    8  N   UNL     1     -11.243  15.005  69.538  1.00  0.00    -0.261 N  
HETATM    9  O   UNL     1     -10.538  17.131  69.923  1.00  0.00    -0.137 OA 
HETATM   10  C   UNL     1     -12.369  14.263  69.675  1.00  0.00    -0.266 C  
HETATM   11  N   UNL     1     -13.215  14.417  70.631  1.00  0.00    -0.251 NA 
ENDROOT
BRANCH   8  12
HETATM   12  C1* UNL     1     -10.407  14.901  68.355  1.00  0.00    -0.233 C  
HETATM   13  C2* UNL     1     -11.179  14.633  67.066  1.00  0.00    -0.348 C  
HETATM   14  C3* UNL     1     -10.251  15.184  66.014  1.00  0.00    -0.307 C  
HETATM   15  O3* UNL     1      -9.267  14.191  65.708  1.00  0.00    -0.505 OA 
HETATM   16  C4* UNL     1      -9.579  16.364  66.714  1.00  0.00    -0.248 C  
HETATM   17  H3* UNL     1      -8.682  14.538  65.045  1.00  0.00     0.000 HD 
HETATM   18  O4* UNL     1      -9.721  16.150  68.137  1.00  0.00    -0.218 OA 
BRANCH  16  19
HETATM   19  C5* UNL     1     -10.220  17.713  66.379  1.00  0.00    -0.364 C  
HETATM   20  O5* UNL     1     -10.835  18.291  67.528  1.00  0.00    -0.399 OA 
HETATM   21  H5* UNL     1     -11.233  19.128  67.320  1.00  0.00     0.000 HD 
ENDBRANCH  16  19
ENDBRANCH   8  12
TORSDOF 2
ENDMDL
MODEL       99
REMARK 921   NORMALIZED FREE ENERGY PREDICTED BY IDOCK:   -4.05 KCAL/MOL
REMARK 922        TOTAL FREE ENERGY PREDICTED BY IDOCK:   -4.86 KCAL/MOL
REMARK 923 INTER-LIGAND FREE ENERGY PREDICTED BY IDOCK:   -5.32 KCAL/MOL
REMARK 924 INTRA-LIGAND FREE ENERGY PREDICTED BY IDOCK:    0.47 KCAL/MOL
REMARK 927      BINDING AFFINITY PREDICTED BY RF-SCORE:    0.00 PKD
ROOT
HETATM    1  N   UNL     1     -14.085   8.951  73.132  1.00  0.00    -1.225 NA 
HETATM    2  C   UNL     1     -13.207   9.181  72.129  1.00  0.00    -0.458 C  
HETATM    3  H2  UNL     1     -14.860   9.595  73.291  1.00  0.00     0.000 HD 
HETATM    4  H1  UNL     1     -13.972   8.132  73.728  1.00  0.00     0.000 HD 
HETATM    5  N   UNL     1     -13.351  10.214  71.377  1.00  0.00    -0.354 N  
HETATM    6  H   UNL     1     -14.123  10.864  71.528  1.00  0.00     0.000 HD 
HETATM    7  C   UNL     1     -12.452  10.424  70.372  1.00  0.00    -0.268 C  
HETATM    8  N   UNL     1     -11.259   9.742  70.429  1.00  0.00    -0.278 N  
HETATM    9  O   UNL     1     -12.718  11.177  69.440  1.00  0.00    -0.240 OA 
HETATM   10  C   UNL     1     -11.286   8.585  71.133  1.00  0.00    -0.267 C  
HETATM   11  N   UNL     1     -12.221   8.271  71.957  1.00  0.00    -0.327 NA 
ENDROOT
BRANCH   8  12
HETATM   12  C1* UNL     1     -10.268   9.977  69.393  1.00  0.00    -0.222 C  
HETATM   13  C2* UNL     1     -10.686   9.491  68.007  1.00  0.00    -0.266 C  
HETATM   14  C3* UNL     1      -9.862  10.366  67.098  1.00  0.00    -0.181 C  
HETATM   15  O3* UNL     1      -8.556   9.795  66.975  1.00  0.00    -0.124 OA 
HETATM   16  C4* UNL     1      -9.769  11.686  67.860  1.00  0.00    -0.179 C  
HETATM   17  H3* UNL     1      -8.037  10.346  66.402  1.00  0.00     0.000 HD 
HETATM   18  O4* UNL     1     -10.043  11.393  69.250  1.00  0.00    -0.090 OA 
BRANCH  16  19
HETATM   19  C5* UNL     1     -10.786  12.730  67.394  1.00  0.00    -0.240 C  
HETATM   20  O5* UNL     1     -11.984  12.112  66.931  1.00  0.00    -0.603 OA 
HETATM   21  H5* UNL     1     -12.616  12.760  66.642  1.00  0.00     0.000 HD 
ENDBRANCH  16  19
ENDBRANCH   8  12
TORSDOF 2
ENDMDL
MODEL      100
REMARK 921   NORMALIZED FREE ENERGY PREDICTED BY IDOCK:   -4.04 KCAL/MOL
REMARK 922        TOTAL FREE ENERGY PREDICTED BY IDOCK:   -4.85 KCAL/MOL
REMARK 923 INTER-LIGAND FREE ENERGY PREDICTED BY IDOCK:   -4.53 KCAL/MOL
REMARK 924 INTRA-LIGAND FREE ENERGY PREDICTED BY IDOCK:   -0.31 KCAL/MOL
REMARK 927      BINDING AFFINITY PREDICTED BY RF-SCORE:    0.00 PKD
ROOT
HETATM    1  N   UNL     1      -9.512   9.462  64.862  1.00  0.00    -0.451 NA 
HETATM    2  C   UNL     1      -9.919   9.718  66.127  1.00  0.00    -0.268 C  
HETATM    3  H2  UNL     1      -9.464  10.216  64.179  1.00  0.00     0.000 HD 
HETATM    4  H1  UNL     1      -9.254   8.512  64.594  1.00  0.00     0.000 HD 
HETATM    5  N   UNL     1     -10.244  10.915  66.464  1.00  0.00    -0.225 N  
HETATM    6  H   UNL     1     -10.199  11.677  65.787  1.00  0.00     0.000 HD 
HETATM    7  C   UNL     1     -10.652  11.147  67.746  1.00  0.00    -0.209 C  
HETATM    8  N   UNL     1     -11.032  10.064  68.502  1.00  0.00    -0.228 N  
HETATM    9  O   UNL     1     -10.650  12.285  68.207  1.00  0.00    -0.211 OA 
HETATM   10  C   UNL     1     -10.494   8.878  68.128  1.00  0.00    -0.202 C  
HETATM   11  N   UNL     1      -9.933   8.675  66.989  1.00  0.00    -0.223 NA 
ENDROOT
BRANCH   8  12
HETATM   12  C1* UNL     1     -11.507  10.287  69.857  1.00  0.00    -0.273 C  
HETATM   13  C2* UNL     1     -13.027  10.266  69.996  1.00  0.00     0.160 C  
HETATM   14  C3* UNL     1     -13.212   9.887  71.444  1.00  0.00    -0.400 C  
HETATM   15  O3* UNL     1     -13.090  11.067  72.244  1.00  0.00    -0.546 OA 
HETATM   16  C4* UNL     1     -12.031   8.959  71.724  1.00  0.00    -0.359 C  
HETATM   17  H3* UNL     1     -13.207  10.828  73.155  1.00  0.00     0.000 HD 
HETATM   18  O4* UNL     1     -11.030   9.232  70.716  1.00  0.00    -0.240 OA 
BRANCH  16  19
HETATM   19  C5* UNL     1     -12.391   7.475  71.634  1.00  0.00    -0.333 C  
HETATM   20  O5* UNL     1     -11.980   6.919  70.387  1.00  0.00    -0.525 OA 
HETATM   21  H5* UNL     1     -12.203   5.997  70.332  1.00  0.00     0.000 HD 
ENDBRANCH  16  19
ENDBRANCH   8  12
TORSDOF 2
ENDMDL
MODEL      101
REMARK 921   NORMALIZED FREE ENERGY PREDICTED BY IDOCK:   -4.02 KCAL/MOL
REMARK 922        TOTAL FREE ENERGY PREDICTED BY IDOCK:   -4.83 KCAL/MOL
REMARK 923 INTER-LIGAND FREE ENERGY PREDICTED BY IDOCK:   -5.32 KCAL/MOL
REMARK 924 INTRA-LIGAND FREE ENERGY PREDICTED BY IDOCK:    0.49 KCAL/MOL
REMARK 927      BINDING AFFINITY PREDICTED BY RF-SCORE:    0.00 PKD
ROOT
HETATM    1  N   UNL     1     -13.862  14.986  73.005  1.00  0.00    -0.539 NA 
HETATM    2  C   UNL     1     -13.198  14.621  71.884  1.00  0.00    -0.349 C  
HETATM    3  H2  UNL     1     -14.247  14.275  73.625  1.00  0.00     0.000 HD 
HETATM    4  H1  UNL     1     -13.976  15.975  73.228  1.00  0.00     0.000 HD 
HETATM    5  N   UNL     1     -13.054  13.375  71.603  1.00  0.00    -0.385 N  
HETATM    6  H   UNL     1     -13.435  12.655  72.218  1.00  0.00     0.000 HD 
HETATM    7  C   UNL     1     -12.380  13.033  70.467  1.00  0.00    -0.287 C  
HETATM    8  N   UNL     1     -12.202  14.005  69.511  1.00  0.00    -0.336 N  
HETATM    9  O   UNL     1     -11.929  11.900  70.323  1.00  0.00    -0.344 OA 
HETATM   10  C   UNL     1     -12.227  15.280  69.970  1.00  0.00    -0.349 C  
HETATM   11  N   UNL     1     -12.689  15.617  71.121  1.00  0.00    -0.459 NA 
ENDROOT
BRANCH   8  12
HETATM   12  C1* UNL     1     -11.523  13.658  68.275  1.00  0.00    -0.313 C  
HETATM   13  C2* UNL     1     -10.043  13.323  68.449  1.00  0.00    -0.237 C  
HETATM   14  C3* UNL     1      -9.771  12.440  67.258  1.00  0.00    -0.201 C  
HETATM   15  O3* UNL     1      -9.517  13.271  66.121  1.00  0.00    -0.405 OA 
HETATM   16  C4* UNL     1     -11.091  11.696  67.056  1.00  0.00    -0.302 C  
HETATM   17  H3* UNL     1      -9.346  12.716  65.371  1.00  0.00     0.000 HD 
HETATM   18  O4* UNL     1     -12.120  12.473  67.712  1.00  0.00    -0.409 OA 
BRANCH  16  19
HETATM   19  C5* UNL     1     -11.099  10.296  67.672  1.00  0.00    -0.251 C  
HETATM   20  O5* UNL     1      -9.930  10.070  68.456  1.00  0.00    -0.154 OA 
HETATM   21  H5* UNL     1      -9.935   9.201  68.839  1.00  0.00     0.000 HD 
ENDBRANCH  16  19
ENDBRANCH   8  12
TORSDOF 2
ENDMDL
MODEL      102
REMARK 921   NORMALIZED FREE ENERGY PREDICTED BY IDOCK:   -4.00 KCAL/MOL
REMARK 922        TOTAL FREE ENERGY PREDICTED BY IDOCK:   -4.80 KCAL/MOL
REMARK 923 INTER-LIGAND FREE ENERGY PREDICTED BY IDOCK:   -5.21 KCAL/MOL
REMARK 924 INTRA-LIGAND FREE ENERGY PREDICTED BY IDOCK:    0.41 KCAL/MOL
REMARK 927      BINDING AFFINITY PREDICTED BY RF-SCORE:    0.00 PKD
ROOT
HETATM    1  N   UNL     1     -13.255  12.435  64.630  1.00  0.00    -0.731 NA 
HETATM    2  C   UNL     1     -12.344  12.915  65.507  1.00  0.00    -0.461 C  
HETATM    3  H2  UNL     1     -13.538  12.997  63.828  1.00  0.00     0.000 HD 
HETATM    4  H1  UNL     1     -13.658  11.509  64.772  1.00  0.00     0.000 HD 
HETATM    5  N   UNL     1     -11.836  14.083  65.327  1.00  0.00    -0.343 N  
HETATM    6  H   UNL     1     -12.112  14.653  64.527  1.00  0.00     0.000 HD 
HETATM    7  C   UNL     1     -10.920  14.544  66.226  1.00  0.00    -0.323 C  
HETATM    8  N   UNL     1     -10.847  13.915  67.446  1.00  0.00    -0.282 N  
HETATM    9  O   UNL     1     -10.172  15.474  65.937  1.00  0.00    -0.297 OA 
HETATM   10  C   UNL     1     -11.278  12.631  67.462  1.00  0.00    -0.288 C  
HETATM   11  N   UNL     1     -11.995  12.105  66.533  1.00  0.00    -0.631 NA 
ENDROOT
BRANCH   8  12
HETATM   12  C1* UNL     1      -9.907  14.411  68.437  1.00  0.00    -0.234 C  
HETATM   13  C2* UNL     1      -8.487  14.604  67.909  1.00  0.00    -0.158 C  
HETATM   14  C3* UNL     1      -7.936  15.650  68.844  1.00  0.00    -0.193 C  
HETATM   15  O3* UNL     1      -7.475  15.000  70.033  1.00  0.00    -0.303 OA 
HETATM   16  C4* UNL     1      -9.154  16.510  69.177  1.00  0.00    -0.184 C  
HETATM   17  H3* UNL     1      -7.127  15.658  70.622  1.00  0.00     0.000 HD 
HETATM   18  O4* UNL     1     -10.327  15.713  68.892  1.00  0.00    -0.203 OA 
BRANCH  16  19
HETATM   19  C5* UNL     1      -9.242  17.787  68.337  1.00  0.00    -0.285 C  
HETATM   20  O5* UNL     1      -8.004  18.493  68.340  1.00  0.00    -0.296 OA 
HETATM   21  H5* UNL     1      -8.059  19.285  67.818  1.00  0.00     0.000 HD 
ENDBRANCH  16  19
ENDBRANCH   8  12
TORSDOF 2
ENDMDL
MODEL      103
REMARK 921   NORMALIZED FREE ENERGY PREDICTED BY IDOCK:   -3.99 KCAL/MOL
REMARK 922        TOTAL FREE ENERGY PREDICTED BY IDOCK:   -4.80 KCAL/MOL
REMARK 923 INTER-LIGAND FREE ENERGY PREDICTED BY IDOCK:   -4.50 KCAL/MOL
REMARK 924 INTRA-LIGAND FREE ENERGY PREDICTED BY IDOCK:   -0.30 KCAL/MOL
REMARK 927      BINDING AFFINITY PREDICTED BY RF-SCORE:    0.00 PKD
ROOT
HETATM    1  N   UNL     1     -10.039  15.824  66.341  1.00  0.00    -0.275 NA 
HETATM    2  C   UNL     1     -10.117  14.479  66.218  1.00  0.00    -0.295 C  
HETATM    3  H2  UNL     1      -9.874  16.403  65.518  1.00  0.00     0.000 HD 
HETATM    4  H1  UNL     1     -10.147  16.257  67.258  1.00  0.00     0.000 HD 
HETATM    5  N   UNL     1      -9.982  13.933  65.062  1.00  0.00    -0.603 N  
HETATM    6  H   UNL     1      -9.817  14.504  64.233  1.00  0.00     0.000 HD 
HETATM    7  C   UNL     1     -10.065  12.574  64.966  1.00  0.00    -0.236 C  
HETATM    8  N   UNL     1      -9.933  11.841  66.121  1.00  0.00    -0.219 N  
HETATM    9  O   UNL     1     -10.277  12.035  63.883  1.00  0.00    -0.338 OA 
HETATM   10  C   UNL     1     -10.253  12.496  67.262  1.00  0.00    -0.216 C  
HETATM   11  N   UNL     1     -10.366  13.774  67.346  1.00  0.00    -0.251 NA 
ENDROOT
BRANCH   8  12
HETATM   12  C1* UNL     1      -9.977  10.391  66.041  1.00  0.00    -0.241 C  
HETATM   13  C2* UNL     1      -8.626   9.713  66.253  1.00  0.00    -0.137 C  
HETATM   14  C3* UNL     1      -9.026   8.343  66.740  1.00  0.00    -0.145 C  
HETATM   15  O3* UNL     1      -9.332   7.527  65.606  1.00  0.00    -0.389 OA 
HETATM   16  C4* UNL     1     -10.304   8.607  67.534  1.00  0.00    -0.269 C  
HETATM   17  H3* UNL     1      -9.584   6.664  65.912  1.00  0.00     0.000 HD 
HETATM   18  O4* UNL     1     -10.831   9.876  67.081  1.00  0.00    -0.241 OA 
BRANCH  16  19
HETATM   19  C5* UNL     1     -10.071   8.710  69.043  1.00  0.00    -0.199 C  
HETATM   20  O5* UNL     1     -11.304   8.820  69.749  1.00  0.00    -0.443 OA 
HETATM   21  H5* UNL     1     -11.160   8.884  70.686  1.00  0.00     0.000 HD 
ENDBRANCH  16  19
ENDBRANCH   8  12
TORSDOF 2
ENDMDL
MODEL      104
REMARK 921   NORMALIZED FREE ENERGY PREDICTED BY IDOCK:   -3.97 KCAL/MOL
REMARK 922        TOTAL FREE ENERGY PREDICTED BY IDOCK:   -4.77 KCAL/MOL
REMARK 923 INTER-LIGAND FREE ENERGY PREDICTED BY IDOCK:   -5.62 KCAL/MOL
REMARK 924 INTRA-LIGAND FREE ENERGY PREDICTED BY IDOCK:    0.85 KCAL/MOL
REMARK 927      BINDING AFFINITY PREDICTED BY RF-SCORE:    0.00 PKD
ROOT
HETATM    1  N   UNL     1     -12.384  13.884  63.408  1.00  0.00    -1.139 NA 
HETATM    2  C   UNL     1     -11.793  14.712  64.300  1.00  0.00    -0.337 C  
HETATM    3  H2  UNL     1     -12.506  12.897  63.631  1.00  0.00     0.000 HD 
HETATM    4  H1  UNL     1     -12.706  14.250  62.512  1.00  0.00     0.000 HD 
HETATM    5  N   UNL     1     -11.386  14.251  65.429  1.00  0.00    -0.319 N  
HETATM    6  H   UNL     1     -11.504  13.264  65.661  1.00  0.00     0.000 HD 
HETATM    7  C   UNL     1     -10.793  15.107  66.311  1.00  0.00    -0.333 C  
HETATM    8  N   UNL     1     -10.342  16.312  65.829  1.00  0.00    -0.364 N  
HETATM    9  O   UNL     1     -10.694  14.812  67.499  1.00  0.00    -0.260 OA 
HETATM   10  C   UNL     1     -10.964  16.758  64.711  1.00  0.00    -0.025 C  
HETATM   11  N   UNL     1     -11.688  16.015  63.951  1.00  0.00    -0.740 NA 
ENDROOT
BRANCH   8  12
HETATM   12  C1* UNL     1      -9.672  17.225  66.738  1.00  0.00    -0.281 C  
HETATM   13  C2* UNL     1      -8.891  16.534  67.853  1.00  0.00    -0.193 C  
HETATM   14  C3* UNL     1      -7.855  17.570  68.209  1.00  0.00    -0.253 C  
HETATM   15  O3* UNL     1      -8.442  18.510  69.115  1.00  0.00    -0.111 OA 
HETATM   16  C4* UNL     1      -7.567  18.261  66.877  1.00  0.00    -0.217 C  
HETATM   17  H3* UNL     1      -7.790  19.162  69.339  1.00  0.00     0.000 HD 
HETATM   18  O4* UNL     1      -8.698  18.002  66.013  1.00  0.00    -0.498 OA 
BRANCH  16  19
HETATM   19  C5* UNL     1      -6.314  17.731  66.177  1.00  0.00    -0.243 C  
HETATM   20  O5* UNL     1      -5.941  16.452  66.684  1.00  0.00    -0.310 OA 
HETATM   21  H5* UNL     1      -5.164  16.123  66.249  1.00  0.00     0.000 HD 
ENDBRANCH  16  19
ENDBRANCH   8  12
TORSDOF 2
ENDMDL
MODEL      105
REMARK 921   NORMALIZED FREE ENERGY PREDICTED BY IDOCK:   -3.97 KCAL/MOL
REMARK 922        TOTAL FREE ENERGY PREDICTED BY IDOCK:   -4.77 KCAL/MOL
REMARK 923 INTER-LIGAND FREE ENERGY PREDICTED BY IDOCK:   -4.43 KCAL/MOL
REMARK 924 INTRA-LIGAND FREE ENERGY PREDICTED BY IDOCK:   -0.34 KCAL/MOL
REMARK 927      BINDING AFFINITY PREDICTED BY RF-SCORE:    0.00 PKD
ROOT
HETATM    1  N   UNL     1     -14.117  15.189  71.292  1.00  0.00    -0.647 NA 
HETATM    2  C   UNL     1     -13.057  15.017  70.469  1.00  0.00    -0.262 C  
HETATM    3  H2  UNL     1     -14.504  16.121  71.439  1.00  0.00     0.000 HD 
HETATM    4  H1  UNL     1     -14.529  14.385  71.764  1.00  0.00     0.000 HD 
HETATM    5  N   UNL     1     -12.538  16.032  69.874  1.00  0.00    -0.550 N  
HETATM    6  H   UNL     1     -12.918  16.968  70.014  1.00  0.00     0.000 HD 
HETATM    7  C   UNL     1     -11.469  15.832  69.050  1.00  0.00    -0.391 C  
HETATM    8  N   UNL     1     -10.784  14.646  69.167  1.00  0.00    -0.251 N  
HETATM    9  O   UNL     1     -11.153  16.678  68.218  1.00  0.00    -0.361 OA 
HETATM   10  C   UNL     1     -11.498  13.612  69.672  1.00  0.00    -0.221 C  
HETATM   11  N   UNL     1     -12.612  13.751  70.299  1.00  0.00    -0.270 NA 
ENDROOT
BRANCH   8  12
HETATM   12  C1* UNL     1      -9.618  14.424  68.329  1.00  0.00    -0.211 C  
HETATM   13  C2* UNL     1      -8.286  14.661  69.037  1.00  0.00    -0.102 C  
HETATM   14  C3* UNL     1      -7.339  13.802  68.238  1.00  0.00    -0.118 C  
HETATM   15  O3* UNL     1      -6.928  14.533  67.079  1.00  0.00    -0.365 OA 
HETATM   16  C4* UNL     1      -8.206  12.619  67.810  1.00  0.00    -0.171 C  
HETATM   17  H3* UNL     1      -6.331  13.993  66.576  1.00  0.00     0.000 HD 
HETATM   18  O4* UNL     1      -9.584  13.047  67.903  1.00  0.00    -0.201 OA 
BRANCH  16  19
HETATM   19  C5* UNL     1      -8.038  11.389  68.705  1.00  0.00    -0.141 C  
HETATM   20  O5* UNL     1      -9.221  10.593  68.715  1.00  0.00    -0.164 OA 
HETATM   21  H5* UNL     1      -9.117   9.829  69.270  1.00  0.00     0.000 HD 
ENDBRANCH  16  19
ENDBRANCH   8  12
TORSDOF 2
ENDMDL
MODEL      106
REMARK 921   NORMALIZED FREE ENERGY PREDICTED BY IDOCK:   -3.96 KCAL/MOL
REMARK 922        TOTAL FREE ENERGY PREDICTED BY IDOCK:   -4.76 KCAL/MOL
REMARK 923 INTER-LIGAND FREE ENERGY PREDICTED BY IDOCK:   -4.74 KCAL/MOL
REMARK 924 INTRA-LIGAND FREE ENERGY PREDICTED BY IDOCK:   -0.02 KCAL/MOL
REMARK 927      BINDING AFFINITY PREDICTED BY RF-SCORE:    0.00 PKD
ROOT
HETATM    1  N   UNL     1      -8.714   7.495  65.212  1.00  0.00    -0.358 NA 
HETATM    2  C   UNL     1      -9.206   8.743  65.387  1.00  0.00    -0.088 C  
HETATM    3  H2  UNL     1      -8.506   7.155  64.273  1.00  0.00     0.000 HD 
HETATM    4  H1  UNL     1      -8.552   6.895  66.020  1.00  0.00     0.000 HD 
HETATM    5  N   UNL     1      -9.410   9.499  64.367  1.00  0.00    -0.429 N  
HETATM    6  H   UNL     1      -9.204   9.168  63.424  1.00  0.00     0.000 HD 
HETATM    7  C   UNL     1      -9.907  10.754  64.570  1.00  0.00    -0.310 C  
HETATM    8  N   UNL     1     -10.492  11.021  65.786  1.00  0.00    -0.246 N  
HETATM    9  O   UNL     1      -9.808  11.615  63.701  1.00  0.00    -0.310 OA 
HETATM   10  C   UNL     1     -10.073  10.244  66.813  1.00  0.00    -0.216 C  
HETATM   11  N   UNL     1      -9.435   9.139  66.660  1.00  0.00    -0.170 NA 
ENDROOT
BRANCH   8  12
HETATM   12  C1* UNL     1     -11.064  12.337  66.014  1.00  0.00    -0.309 C  
HETATM   13  C2* UNL     1     -11.775  12.483  67.358  1.00  0.00    -0.432 C  
HETATM   14  C3* UNL     1     -11.695  13.968  67.604  1.00  0.00    -0.377 C  
HETATM   15  O3* UNL     1     -12.762  14.606  66.896  1.00  0.00    -0.341 OA 
HETATM   16  C4* UNL     1     -10.361  14.363  66.974  1.00  0.00    -0.263 C  
HETATM   17  H3* UNL     1     -12.712  15.541  67.051  1.00  0.00     0.000 HD 
HETATM   18  O4* UNL     1     -10.015  13.325  66.028  1.00  0.00    -0.289 OA 
BRANCH  16  19
HETATM   19  C5* UNL     1      -9.219  14.470  67.988  1.00  0.00    -0.190 C  
HETATM   20  O5* UNL     1      -9.653  14.103  69.295  1.00  0.00    -0.408 OA 
HETATM   21  H5* UNL     1      -8.944  14.169  69.924  1.00  0.00     0.000 HD 
ENDBRANCH  16  19
ENDBRANCH   8  12
TORSDOF 2
ENDMDL
MODEL      107
REMARK 921   NORMALIZED FREE ENERGY PREDICTED BY IDOCK:   -3.95 KCAL/MOL
REMARK 922        TOTAL FREE ENERGY PREDICTED BY IDOCK:   -4.75 KCAL/MOL
REMARK 923 INTER-LIGAND FREE ENERGY PREDICTED BY IDOCK:   -4.46 KCAL/MOL
REMARK 924 INTRA-LIGAND FREE ENERGY PREDICTED BY IDOCK:   -0.29 KCAL/MOL
REMARK 927      BINDING AFFINITY PREDICTED BY RF-SCORE:    0.00 PKD
ROOT
HETATM    1  N   UNL     1      -7.485  11.946  66.402  1.00  0.00    -0.365 NA 
HETATM    2  C   UNL     1      -8.533  11.481  67.120  1.00  0.00    -0.158 C  
HETATM    3  H2  UNL     1      -6.984  11.324  65.769  1.00  0.00     0.000 HD 
HETATM    4  H1  UNL     1      -7.198  12.920  66.496  1.00  0.00     0.000 HD 
HETATM    5  N   UNL     1      -8.896  10.253  67.000  1.00  0.00    -0.136 N  
HETATM    6  H   UNL     1      -8.400   9.623  66.369  1.00  0.00     0.000 HD 
HETATM    7  C   UNL     1      -9.956   9.808  67.736  1.00  0.00    -0.168 C  
HETATM    8  N   UNL     1     -10.355  10.569  68.809  1.00  0.00    -0.180 N  
HETATM    9  O   UNL     1     -10.544   8.776  67.426  1.00  0.00    -0.279 OA 
HETATM   10  C   UNL     1     -10.038  11.884  68.736  1.00  0.00    -0.120 C  
HETATM   11  N   UNL     1      -9.170  12.367  67.920  1.00  0.00    -0.185 NA 
ENDROOT
BRANCH   8  12
HETATM   12  C1* UNL     1     -11.456  10.099  69.631  1.00  0.00    -0.198 C  
HETATM   13  C2* UNL     1     -11.050   9.700  71.049  1.00  0.00    -0.438 C  
HETATM   14  C3* UNL     1     -12.337   9.876  71.813  1.00  0.00    -0.368 C  
HETATM   15  O3* UNL     1     -13.134   8.700  71.641  1.00  0.00    -0.329 OA 
HETATM   16  C4* UNL     1     -13.012  11.053  71.111  1.00  0.00    -0.324 C  
HETATM   17  H3* UNL     1     -13.945   8.810  72.122  1.00  0.00     0.000 HD 
HETATM   18  O4* UNL     1     -12.423  11.155  69.793  1.00  0.00    -0.263 OA 
BRANCH  16  19
HETATM   19  C5* UNL     1     -12.796  12.390  71.823  1.00  0.00    -0.245 C  
HETATM   20  O5* UNL     1     -13.926  12.740  72.618  1.00  0.00    -0.702 OA 
HETATM   21  H5* UNL     1     -13.791  13.570  73.060  1.00  0.00     0.000 HD 
ENDBRANCH  16  19
ENDBRANCH   8  12
TORSDOF 2
ENDMDL
MODEL      108
REMARK 921   NORMALIZED FREE ENERGY PREDICTED BY IDOCK:   -3.95 KCAL/MOL
REMARK 922        TOTAL FREE ENERGY PREDICTED BY IDOCK:   -4.75 KCAL/MOL
REMARK 923 INTER-LIGAND FREE ENERGY PREDICTED BY IDOCK:   -5.17 KCAL/MOL
REMARK 924 INTRA-LIGAND FREE ENERGY PREDICTED BY IDOCK:    0.42 KCAL/MOL
REMARK 927      BINDING AFFINITY PREDICTED BY RF-SCORE:    0.00 PKD
ROOT
HETATM    1  N   UNL     1      -8.293   7.277  65.439  1.00  0.00    -0.187 NA 
HETATM    2  C   UNL     1      -8.885   8.468  65.684  1.00  0.00    -0.173 C  
HETATM    3  H2  UNL     1      -8.283   6.897  64.493  1.00  0.00     0.000 HD 
HETATM    4  H1  UNL     1      -7.858   6.760  66.202  1.00  0.00     0.000 HD 
HETATM    5  N   UNL     1      -9.434   9.120  64.721  1.00  0.00    -0.399 N  
HETATM    6  H   UNL     1      -9.428   8.748  63.771  1.00  0.00     0.000 HD 
HETATM    7  C   UNL     1     -10.024  10.320  64.995  1.00  0.00    -0.323 C  
HETATM    8  N   UNL     1     -10.316  10.605  66.307  1.00  0.00    -0.245 N  
HETATM    9  O   UNL     1     -10.259  11.122  64.095  1.00  0.00    -0.289 OA 
HETATM   10  C   UNL     1      -9.556   9.958  67.223  1.00  0.00    -0.160 C  
HETATM   11  N   UNL     1      -8.838   8.926  66.956  1.00  0.00    -0.125 NA 
ENDROOT
BRANCH   8  12
HETATM   12  C1* UNL     1     -10.980  11.858  66.622  1.00  0.00    -0.291 C  
HETATM   13  C2* UNL     1     -10.212  13.100  66.177  1.00  0.00    -0.291 C  
HETATM   14  C3* UNL     1     -11.310  14.122  66.031  1.00  0.00    -0.330 C  
HETATM   15  O3* UNL     1     -11.592  14.678  67.319  1.00  0.00    -0.365 OA 
HETATM   16  C4* UNL     1     -12.507  13.296  65.563  1.00  0.00    -0.474 C  
HETATM   17  H3* UNL     1     -12.283  15.321  67.227  1.00  0.00     0.000 HD 
HETATM   18  O4* UNL     1     -12.244  11.922  65.932  1.00  0.00    -0.435 OA 
BRANCH  16  19
HETATM   19  C5* UNL     1     -12.720  13.339  64.048  1.00  0.00    -0.013 C  
HETATM   20  O5* UNL     1     -12.426  14.631  63.523  1.00  0.00    -1.069 OA 
HETATM   21  H5* UNL     1     -12.558  14.658  62.582  1.00  0.00     0.000 HD 
ENDBRANCH  16  19
ENDBRANCH   8  12
TORSDOF 2
ENDMDL
MODEL      109
REMARK 921   NORMALIZED FREE ENERGY PREDICTED BY IDOCK:   -3.93 KCAL/MOL
REMARK 922        TOTAL FREE ENERGY PREDICTED BY IDOCK:   -4.73 KCAL/MOL
REMARK 923 INTER-LIGAND FREE ENERGY PREDICTED BY IDOCK:   -5.01 KCAL/MOL
REMARK 924 INTRA-LIGAND FREE ENERGY PREDICTED BY IDOCK:    0.29 KCAL/MOL
REMARK 927      BINDING AFFINITY PREDICTED BY RF-SCORE:    0.00 PKD
ROOT
HETATM    1  N   UNL     1     -12.527  13.682  62.838  1.00  0.00    -0.856 NA 
HETATM    2  C   UNL     1     -11.846  12.875  63.682  1.00  0.00    -0.532 C  
HETATM    3  H2  UNL     1     -12.355  13.633  61.834  1.00  0.00     0.000 HD 
HETATM    4  H1  UNL     1     -13.213  14.340  63.207  1.00  0.00     0.000 HD 
HETATM    5  N   UNL     1     -10.981  12.045  63.216  1.00  0.00    -0.666 N  
HETATM    6  H   UNL     1     -10.802  11.988  62.213  1.00  0.00     0.000 HD 
HETATM    7  C   UNL     1     -10.306  11.242  64.090  1.00  0.00    -0.351 C  
HETATM    8  N   UNL     1     -10.315  11.592  65.419  1.00  0.00    -0.256 N  
HETATM    9  O   UNL     1      -9.736  10.229  63.696  1.00  0.00    -0.301 OA 
HETATM   10  C   UNL     1     -11.369  12.347  65.812  1.00  0.00    -0.352 C  
HETATM   11  N   UNL     1     -12.143  12.974  64.999  1.00  0.00    -0.399 NA 
ENDROOT
BRANCH   8  12
HETATM   12  C1* UNL     1      -9.573  10.777  66.364  1.00  0.00    -0.189 C  
HETATM   13  C2* UNL     1      -8.125  10.513  65.958  1.00  0.00    -0.148 C  
HETATM   14  C3* UNL     1      -7.462  10.248  67.286  1.00  0.00    -0.094 C  
HETATM   15  O3* UNL     1      -7.681   8.878  67.639  1.00  0.00    -0.099 OA 
HETATM   16  C4* UNL     1      -8.227  11.149  68.254  1.00  0.00    -0.134 C  
HETATM   17  H3* UNL     1      -7.263   8.711  68.475  1.00  0.00     0.000 HD 
HETATM   18  O4* UNL     1      -9.497  11.456  67.633  1.00  0.00    -0.158 OA 
BRANCH  16  19
HETATM   19  C5* UNL     1      -7.515  12.473  68.540  1.00  0.00    -0.122 C  
HETATM   20  O5* UNL     1      -8.443  13.485  68.925  1.00  0.00    -0.358 OA 
HETATM   21  H5* UNL     1      -8.002  14.307  69.103  1.00  0.00     0.000 HD 
ENDBRANCH  16  19
ENDBRANCH   8  12
TORSDOF 2
ENDMDL
MODEL      110
REMARK 921   NORMALIZED FREE ENERGY PREDICTED BY IDOCK:   -3.93 KCAL/MOL
REMARK 922        TOTAL FREE ENERGY PREDICTED BY IDOCK:   -4.72 KCAL/MOL
REMARK 923 INTER-LIGAND FREE ENERGY PREDICTED BY IDOCK:   -4.45 KCAL/MOL
REMARK 924 INTRA-LIGAND FREE ENERGY PREDICTED BY IDOCK:   -0.27 KCAL/MOL
REMARK 927      BINDING AFFINITY PREDICTED BY RF-SCORE:    0.00 PKD
ROOT
HETATM    1  N   UNL     1     -12.240  14.717  67.651  1.00  0.00    -0.535 NA 
HETATM    2  C   UNL     1     -11.603  13.563  67.348  1.00  0.00    -0.356 C  
HETATM    3  H2  UNL     1     -12.950  14.732  68.382  1.00  0.00     0.000 HD 
HETATM    4  H1  UNL     1     -12.008  15.573  67.146  1.00  0.00     0.000 HD 
HETATM    5  N   UNL     1     -11.896  12.485  67.985  1.00  0.00    -0.351 N  
HETATM    6  H   UNL     1     -12.605  12.490  68.718  1.00  0.00     0.000 HD 
HETATM    7  C   UNL     1     -11.240  11.333  67.660  1.00  0.00    -0.292 C  
HETATM    8  N   UNL     1     -10.572  11.294  66.459  1.00  0.00    -0.257 N  
HETATM    9  O   UNL     1     -11.229  10.379  68.433  1.00  0.00    -0.271 OA 
HETATM   10  C   UNL     1     -10.186  12.498  65.971  1.00  0.00    -0.251 C  
HETATM   11  N   UNL     1     -10.653  13.621  66.386  1.00  0.00    -0.281 NA 
ENDROOT
BRANCH   8  12
HETATM   12  C1* UNL     1      -9.898  10.067  66.071  1.00  0.00    -0.257 C  
HETATM   13  C2* UNL     1      -9.536   9.996  64.589  1.00  0.00    -0.363 C  
HETATM   14  C3* UNL     1      -8.376   9.033  64.587  1.00  0.00    -0.172 C  
HETATM   15  O3* UNL     1      -8.891   7.698  64.593  1.00  0.00    -0.348 OA 
HETATM   16  C4* UNL     1      -7.678   9.312  65.917  1.00  0.00    -0.098 C  
HETATM   17  H3* UNL     1      -8.161   7.092  64.591  1.00  0.00     0.000 HD 
HETATM   18  O4* UNL     1      -8.645   9.960  66.776  1.00  0.00    -0.127 OA 
BRANCH  16  19
HETATM   19  C5* UNL     1      -6.472  10.246  65.785  1.00  0.00    -0.119 C  
HETATM   20  O5* UNL     1      -6.822  11.589  66.110  1.00  0.00    -0.372 OA 
HETATM   21  H5* UNL     1      -6.073  12.168  66.028  1.00  0.00     0.000 HD 
ENDBRANCH  16  19
ENDBRANCH   8  12
TORSDOF 2
ENDMDL
MODEL      111
REMARK 921   NORMALIZED FREE ENERGY PREDICTED BY IDOCK:   -3.91 KCAL/MOL
REMARK 922        TOTAL FREE ENERGY PREDICTED BY IDOCK:   -4.70 KCAL/MOL
REMARK 923 INTER-LIGAND FREE ENERGY PREDICTED BY IDOCK:   -4.38 KCAL/MOL
REMARK 924 INTRA-LIGAND FREE ENERGY PREDICTED BY IDOCK:   -0.32 KCAL/MOL
REMARK 927      BINDING AFFINITY PREDICTED BY RF-SCORE:    0.00 PKD
ROOT
HETATM    1  N   UNL     1     -13.120  13.696  65.098  1.00  0.00    -0.734 NA 
HETATM    2  C   UNL     1     -11.853  13.879  65.535  1.00  0.00    -0.362 C  
HETATM    3  H2  UNL     1     -13.676  14.494  64.794  1.00  0.00     0.000 HD 
HETATM    4  H1  UNL     1     -13.518  12.757  65.075  1.00  0.00     0.000 HD 
HETATM    5  N   UNL     1     -11.351  15.063  65.564  1.00  0.00    -0.338 N  
HETATM    6  H   UNL     1     -11.900  15.868  65.261  1.00  0.00     0.000 HD 
HETATM    7  C   UNL     1     -10.071  15.220  66.009  1.00  0.00    -0.318 C  
HETATM    8  N   UNL     1      -9.510  14.189  66.724  1.00  0.00    -0.269 N  
HETATM    9  O   UNL     1      -9.440  16.242  65.751  1.00  0.00    -0.433 OA 
HETATM   10  C   UNL     1     -10.036  12.964  66.484  1.00  0.00    -0.261 C  
HETATM   11  N   UNL     1     -11.164  12.772  65.898  1.00  0.00    -0.290 NA 
ENDROOT
BRANCH   8  12
HETATM   12  C1* UNL     1      -8.162  14.347  67.243  1.00  0.00    -0.203 C  
HETATM   13  C2* UNL     1      -8.103  14.771  68.709  1.00  0.00    -0.158 C  
HETATM   14  C3* UNL     1      -6.751  14.260  69.137  1.00  0.00    -0.118 C  
HETATM   15  O3* UNL     1      -5.759  15.218  68.753  1.00  0.00    -0.087 OA 
HETATM   16  C4* UNL     1      -6.572  12.987  68.312  1.00  0.00    -0.094 C  
HETATM   17  H3* UNL     1      -4.908  14.896  69.023  1.00  0.00     0.000 HD 
HETATM   18  O4* UNL     1      -7.470  13.085  67.182  1.00  0.00    -0.115 OA 
BRANCH  16  19
HETATM   19  C5* UNL     1      -6.927  11.711  69.080  1.00  0.00    -0.105 C  
HETATM   20  O5* UNL     1      -6.505  11.793  70.439  1.00  0.00    -0.492 OA 
HETATM   21  H5* UNL     1      -6.726  11.002  70.916  1.00  0.00     0.000 HD 
ENDBRANCH  16  19
ENDBRANCH   8  12
TORSDOF 2
ENDMDL
MODEL      112
REMARK 921   NORMALIZED FREE ENERGY PREDICTED BY IDOCK:   -3.89 KCAL/MOL
REMARK 922        TOTAL FREE ENERGY PREDICTED BY IDOCK:   -4.68 KCAL/MOL
REMARK 923 INTER-LIGAND FREE ENERGY PREDICTED BY IDOCK:   -4.43 KCAL/MOL
REMARK 924 INTRA-LIGAND FREE ENERGY PREDICTED BY IDOCK:   -0.25 KCAL/MOL
REMARK 927      BINDING AFFINITY PREDICTED BY RF-SCORE:    0.00 PKD
ROOT
HETATM    1  N   UNL     1     -12.918  15.690  70.523  1.00  0.00    -0.670 NA 
HETATM    2  C   UNL     1     -11.951  15.201  69.713  1.00  0.00    -0.334 C  
HETATM    3  H2  UNL     1     -12.677  16.339  71.272  1.00  0.00     0.000 HD 
HETATM    4  H1  UNL     1     -13.888  15.408  70.384  1.00  0.00     0.000 HD 
HETATM    5  N   UNL     1     -10.728  15.557  69.890  1.00  0.00    -0.289 N  
HETATM    6  H   UNL     1     -10.478  16.206  70.635  1.00  0.00     0.000 HD 
HETATM    7  C   UNL     1      -9.772  15.048  69.059  1.00  0.00    -0.229 C  
HETATM    8  N   UNL     1     -10.092  13.933  68.321  1.00  0.00    -0.235 N  
HETATM    9  O   UNL     1      -8.675  15.591  68.962  1.00  0.00    -0.197 OA 
HETATM   10  C   UNL     1     -11.413  13.758  68.079  1.00  0.00    -0.310 C  
HETATM   11  N   UNL     1     -12.345  14.365  68.724  1.00  0.00    -0.150 NA 
ENDROOT
BRANCH   8  12
HETATM   12  C1* UNL     1      -9.079  13.349  67.459  1.00  0.00    -0.215 C  
HETATM   13  C2* UNL     1      -8.222  12.282  68.137  1.00  0.00    -0.168 C  
HETATM   14  C3* UNL     1      -7.758  11.452  66.968  1.00  0.00    -0.154 C  
HETATM   15  O3* UNL     1      -6.618  12.088  66.381  1.00  0.00    -0.395 OA 
HETATM   16  C4* UNL     1      -8.933  11.518  65.994  1.00  0.00    -0.176 C  
HETATM   17  H3* UNL     1      -6.325  11.565  65.644  1.00  0.00     0.000 HD 
HETATM   18  O4* UNL     1      -9.715  12.681  66.351  1.00  0.00    -0.249 OA 
BRANCH  16  19
HETATM   19  C5* UNL     1      -9.852  10.297  66.068  1.00  0.00    -0.233 C  
HETATM   20  O5* UNL     1      -9.910   9.617  64.816  1.00  0.00    -0.424 OA 
HETATM   21  H5* UNL     1     -10.480   8.859  64.863  1.00  0.00     0.000 HD 
ENDBRANCH  16  19
ENDBRANCH   8  12
TORSDOF 2
ENDMDL
MODEL      113
REMARK 921   NORMALIZED FREE ENERGY PREDICTED BY IDOCK:   -3.86 KCAL/MOL
REMARK 922        TOTAL FREE ENERGY PREDICTED BY IDOCK:   -4.65 KCAL/MOL
REMARK 923 INTER-LIGAND FREE ENERGY PREDICTED BY IDOCK:   -4.35 KCAL/MOL
REMARK 924 INTRA-LIGAND FREE ENERGY PREDICTED BY IDOCK:   -0.29 KCAL/MOL
REMARK 927      BINDING AFFINITY PREDICTED BY RF-SCORE:    0.00 PKD
ROOT
HETATM    1  N   UNL     1      -6.347  17.358  69.209  1.00  0.00    -0.233 NA 
HETATM    2  C   UNL     1      -7.458  16.732  68.757  1.00  0.00    -0.231 C  
HETATM    3  H2  UNL     1      -6.040  18.229  68.779  1.00  0.00     0.000 HD 
HETATM    4  H1  UNL     1      -5.817  16.955  69.982  1.00  0.00     0.000 HD 
HETATM    5  N   UNL     1      -8.125  17.240  67.782  1.00  0.00    -0.195 N  
HETATM    6  H   UNL     1      -7.826  18.112  67.344  1.00  0.00     0.000 HD 
HETATM    7  C   UNL     1      -9.242  16.589  67.343  1.00  0.00    -0.216 C  
HETATM    8  N   UNL     1      -9.401  15.274  67.709  1.00  0.00    -0.195 N  
HETATM    9  O   UNL     1     -10.083  17.175  66.667  1.00  0.00    -0.283 OA 
HETATM   10  C   UNL     1      -8.761  14.907  68.845  1.00  0.00    -0.180 C  
HETATM   11  N   UNL     1      -7.823  15.595  69.392  1.00  0.00    -0.230 NA 
ENDROOT
BRANCH   8  12
HETATM   12  C1* UNL     1     -10.561  14.546  67.223  1.00  0.00    -0.280 C  
HETATM   13  C2* UNL     1     -10.221  13.347  66.341  1.00  0.00    -0.293 C  
HETATM   14  C3* UNL     1     -11.435  12.469  66.511  1.00  0.00    -0.362 C  
HETATM   15  O3* UNL     1     -12.454  12.921  65.615  1.00  0.00    -0.526 OA 
HETATM   16  C4* UNL     1     -11.870  12.736  67.951  1.00  0.00    -0.339 C  
HETATM   17  H3* UNL     1     -13.219  12.369  65.722  1.00  0.00     0.000 HD 
HETATM   18  O4* UNL     1     -11.294  14.005  68.340  1.00  0.00    -0.260 OA 
BRANCH  16  19
HETATM   19  C5* UNL     1     -11.378  11.677  68.940  1.00  0.00    -0.267 C  
HETATM   20  O5* UNL     1     -12.443  11.203  69.761  1.00  0.00    -0.263 OA 
HETATM   21  H5* UNL     1     -12.137  10.546  70.375  1.00  0.00     0.000 HD 
ENDBRANCH  16  19
ENDBRANCH   8  12
TORSDOF 2
ENDMDL
MODEL      114
REMARK 921   NORMALIZED FREE ENERGY PREDICTED BY IDOCK:   -3.85 KCAL/MOL
REMARK 922        TOTAL FREE ENERGY PREDICTED BY IDOCK:   -4.64 KCAL/MOL
REMARK 923 INTER-LIGAND FREE ENERGY PREDICTED BY IDOCK:   -4.56 KCAL/MOL
REMARK 924 INTRA-LIGAND FREE ENERGY PREDICTED BY IDOCK:   -0.08 KCAL/MOL
REMARK 927      BINDING AFFINITY PREDICTED BY RF-SCORE:    0.00 PKD
ROOT
HETATM    1  N   UNL     1     -11.072  12.884  66.899  1.00  0.00    -0.270 NA 
HETATM    2  C   UNL     1     -10.598  14.149  66.969  1.00  0.00    -0.276 C  
HETATM    3  H2  UNL     1     -11.563  12.477  67.695  1.00  0.00     0.000 HD 
HETATM    4  H1  UNL     1     -10.938  12.338  66.048  1.00  0.00     0.000 HD 
HETATM    5  N   UNL     1     -10.769  14.837  68.042  1.00  0.00    -0.244 N  
HETATM    6  H   UNL     1     -11.259  14.439  68.843  1.00  0.00     0.000 HD 
HETATM    7  C   UNL     1     -10.281  16.110  68.088  1.00  0.00    -0.247 C  
HETATM    8  N   UNL     1      -9.342  16.470  67.150  1.00  0.00    -0.229 N  
HETATM    9  O   UNL     1     -10.692  16.909  68.925  1.00  0.00    -0.329 OA 
HETATM   10  C   UNL     1      -9.371  15.758  65.998  1.00  0.00    -0.349 C  
HETATM   11  N   UNL     1      -9.981  14.634  65.867  1.00  0.00    -0.311 NA 
ENDROOT
BRANCH   8  12
HETATM   12  C1* UNL     1      -8.777  17.808  67.201  1.00  0.00    -0.245 C  
HETATM   13  C2* UNL     1      -7.574  17.943  68.131  1.00  0.00    -0.260 C  
HETATM   14  C3* UNL     1      -6.845  19.125  67.546  1.00  0.00    -0.207 C  
HETATM   15  O3* UNL     1      -7.447  20.324  68.044  1.00  0.00    -0.291 OA 
HETATM   16  C4* UNL     1      -7.117  19.006  66.047  1.00  0.00    -0.264 C  
HETATM   17  H3* UNL     1      -6.989  21.069  67.675  1.00  0.00     0.000 HD 
HETATM   18  O4* UNL     1      -8.293  18.178  65.894  1.00  0.00    -0.513 OA 
BRANCH  16  19
HETATM   19  C5* UNL     1      -5.976  18.343  65.274  1.00  0.00    -0.221 C  
HETATM   20  O5* UNL     1      -5.424  17.250  66.004  1.00  0.00    -0.305 OA 
HETATM   21  H5* UNL     1      -4.715  16.838  65.524  1.00  0.00     0.000 HD 
ENDBRANCH  16  19
ENDBRANCH   8  12
TORSDOF 2
ENDMDL
MODEL      115
REMARK 921   NORMALIZED FREE ENERGY PREDICTED BY IDOCK:   -3.85 KCAL/MOL
REMARK 922        TOTAL FREE ENERGY PREDICTED BY IDOCK:   -4.64 KCAL/MOL
REMARK 923 INTER-LIGAND FREE ENERGY PREDICTED BY IDOCK:   -4.99 KCAL/MOL
REMARK 924 INTRA-LIGAND FREE ENERGY PREDICTED BY IDOCK:    0.35 KCAL/MOL
REMARK 927      BINDING AFFINITY PREDICTED BY RF-SCORE:    0.00 PKD
ROOT
HETATM    1  N   UNL     1     -11.951  12.633  69.807  1.00  0.00    -0.317 NA 
HETATM    2  C   UNL     1     -11.946  11.412  70.389  1.00  0.00    -0.374 C  
HETATM    3  H2  UNL     1     -11.133  12.958  69.293  1.00  0.00     0.000 HD 
HETATM    4  H1  UNL     1     -12.776  13.228  69.883  1.00  0.00     0.000 HD 
HETATM    5  N   UNL     1     -10.905  10.662  70.293  1.00  0.00    -0.459 N  
HETATM    6  H   UNL     1     -10.082  10.978  69.781  1.00  0.00     0.000 HD 
HETATM    7  C   UNL     1     -10.925   9.435  70.890  1.00  0.00    -0.320 C  
HETATM    8  N   UNL     1     -11.887   9.202  71.844  1.00  0.00    -0.370 N  
HETATM    9  O   UNL     1     -10.123   8.565  70.560  1.00  0.00    -0.186 OA 
HETATM   10  C   UNL     1     -13.003   9.963  71.739  1.00  0.00    -0.449 C  
HETATM   11  N   UNL     1     -13.075  11.034  71.032  1.00  0.00    -0.255 NA 
ENDROOT
BRANCH   8  12
HETATM   12  C1* UNL     1     -11.905   7.918  72.523  1.00  0.00    -0.335 C  
HETATM   13  C2* UNL     1     -11.556   6.733  71.626  1.00  0.00    -0.336 C  
HETATM   14  C3* UNL     1     -11.041   5.720  72.617  1.00  0.00    -0.280 C  
HETATM   15  O3* UNL     1     -12.159   5.038  73.193  1.00  0.00    -0.473 OA 
HETATM   16  C4* UNL     1     -10.365   6.577  73.686  1.00  0.00    -0.304 C  
HETATM   17  H3* UNL     1     -11.836   4.400  73.817  1.00  0.00     0.000 HD 
HETATM   18  O4* UNL     1     -10.915   7.911  73.570  1.00  0.00    -0.225 OA 
BRANCH  16  19
HETATM   19  C5* UNL     1      -8.849   6.681  73.510  1.00  0.00    -0.125 C  
HETATM   20  O5* UNL     1      -8.444   8.033  73.309  1.00  0.00    -0.181 OA 
HETATM   21  H5* UNL     1      -7.502   8.098  73.200  1.00  0.00     0.000 HD 
ENDBRANCH  16  19
ENDBRANCH   8  12
TORSDOF 2
ENDMDL
MODEL      116
REMARK 921   NORMALIZED FREE ENERGY PREDICTED BY IDOCK:   -3.85 KCAL/MOL
REMARK 922        TOTAL FREE ENERGY PREDICTED BY IDOCK:   -4.63 KCAL/MOL
REMARK 923 INTER-LIGAND FREE ENERGY PREDICTED BY IDOCK:   -4.39 KCAL/MOL
REMARK 924 INTRA-LIGAND FREE ENERGY PREDICTED BY IDOCK:   -0.25 KCAL/MOL
REMARK 927      BINDING AFFINITY PREDICTED BY RF-SCORE:    0.00 PKD
ROOT
HETATM    1  N   UNL     1      -9.264   6.379  65.459  1.00  0.00    -0.366 NA 
HETATM    2  C   UNL     1      -9.677   6.884  66.644  1.00  0.00    -0.163 C  
HETATM    3  H2  UNL     1      -9.399   6.913  64.601  1.00  0.00     0.000 HD 
HETATM    4  H1  UNL     1      -8.818   5.462  65.426  1.00  0.00     0.000 HD 
HETATM    5  N   UNL     1     -10.239   8.040  66.686  1.00  0.00    -0.422 N  
HETATM    6  H   UNL     1     -10.378   8.582  65.833  1.00  0.00     0.000 HD 
HETATM    7  C   UNL     1     -10.647   8.526  67.894  1.00  0.00    -0.156 C  
HETATM    8  N   UNL     1     -10.764   7.638  68.936  1.00  0.00    -0.150 N  
HETATM    9  O   UNL     1     -10.874   9.724  68.042  1.00  0.00    -0.250 OA 
HETATM   10  C   UNL     1      -9.998   6.525  68.837  1.00  0.00    -0.151 C  
HETATM   11  N   UNL     1      -9.442   6.134  67.746  1.00  0.00    -0.115 NA 
ENDROOT
BRANCH   8  12
HETATM   12  C1* UNL     1     -11.234   8.122  70.222  1.00  0.00    -0.182 C  
HETATM   13  C2* UNL     1     -11.801   7.034  71.130  1.00  0.00    -0.380 C  
HETATM   14  C3* UNL     1     -11.611   7.628  72.502  1.00  0.00    -0.330 C  
HETATM   15  O3* UNL     1     -12.703   8.513  72.772  1.00  0.00    -0.598 OA 
HETATM   16  C4* UNL     1     -10.323   8.439  72.365  1.00  0.00    -0.329 C  
HETATM   17  H3* UNL     1     -12.583   8.887  73.636  1.00  0.00     0.000 HD 
HETATM   18  O4* UNL     1     -10.133   8.696  70.954  1.00  0.00    -0.191 OA 
BRANCH  16  19
HETATM   19  C5* UNL     1      -9.084   7.702  72.877  1.00  0.00    -0.178 C  
HETATM   20  O5* UNL     1      -8.921   7.880  74.282  1.00  0.00    -0.426 OA 
HETATM   21  H5* UNL     1      -8.152   7.422  74.600  1.00  0.00     0.000 HD 
ENDBRANCH  16  19
ENDBRANCH   8  12
TORSDOF 2
ENDMDL
MODEL      117
REMARK 921   NORMALIZED FREE ENERGY PREDICTED BY IDOCK:   -3.84 KCAL/MOL
REMARK 922        TOTAL FREE ENERGY PREDICTED BY IDOCK:   -4.62 KCAL/MOL
REMARK 923 INTER-LIGAND FREE ENERGY PREDICTED BY IDOCK:   -5.65 KCAL/MOL
REMARK 924 INTRA-LIGAND FREE ENERGY PREDICTED BY IDOCK:    1.03 KCAL/MOL
REMARK 927      BINDING AFFINITY PREDICTED BY RF-SCORE:    0.00 PKD
ROOT
HETATM    1  N   UNL     1     -13.442  10.056  72.218  1.00  0.00    -0.596 NA 
HETATM    2  C   UNL     1     -12.726  10.667  71.247  1.00  0.00    -0.433 C  
HETATM    3  H2  UNL     1     -13.556   9.042  72.209  1.00  0.00     0.000 HD 
HETATM    4  H1  UNL     1     -13.869  10.610  72.960  1.00  0.00     0.000 HD 
HETATM    5  N   UNL     1     -12.188   9.966  70.312  1.00  0.00    -0.479 N  
HETATM    6  H   UNL     1     -12.295   8.952  70.294  1.00  0.00     0.000 HD 
HETATM    7  C   UNL     1     -11.471  10.607  69.344  1.00  0.00    -0.286 C  
HETATM    8  N   UNL     1     -11.647  11.964  69.208  1.00  0.00    -0.290 N  
HETATM    9  O   UNL     1     -10.677   9.989  68.640  1.00  0.00    -0.209 OA 
HETATM   10  C   UNL     1     -12.077  12.606  70.321  1.00  0.00    -0.294 C  
HETATM   11  N   UNL     1     -12.593  12.010  71.337  1.00  0.00    -0.285 NA 
ENDROOT
BRANCH   8  12
HETATM   12  C1* UNL     1     -10.925  12.664  68.160  1.00  0.00    -0.236 C  
HETATM   13  C2* UNL     1      -9.807  11.845  67.519  1.00  0.00    -0.194 C  
HETATM   14  C3* UNL     1      -9.681  12.484  66.159  1.00  0.00    -0.254 C  
HETATM   15  O3* UNL     1      -8.852  13.645  66.276  1.00  0.00    -0.451 OA 
HETATM   16  C4* UNL     1     -11.110  12.912  65.831  1.00  0.00    -0.283 C  
HETATM   17  H3* UNL     1      -8.772  14.047  65.420  1.00  0.00     0.000 HD 
HETATM   18  O4* UNL     1     -11.828  12.987  67.084  1.00  0.00    -0.368 OA 
BRANCH  16  19
HETATM   19  C5* UNL     1     -11.848  11.921  64.929  1.00  0.00    -0.167 C  
HETATM   20  O5* UNL     1     -13.157  12.388  64.612  1.00  0.00    -0.825 OA 
HETATM   21  H5* UNL     1     -13.616  11.773  64.051  1.00  0.00     0.000 HD 
ENDBRANCH  16  19
ENDBRANCH   8  12
TORSDOF 2
ENDMDL
MODEL      118
REMARK 921   NORMALIZED FREE ENERGY PREDICTED BY IDOCK:   -3.82 KCAL/MOL
REMARK 922        TOTAL FREE ENERGY PREDICTED BY IDOCK:   -4.61 KCAL/MOL
REMARK 923 INTER-LIGAND FREE ENERGY PREDICTED BY IDOCK:   -4.21 KCAL/MOL
REMARK 924 INTRA-LIGAND FREE ENERGY PREDICTED BY IDOCK:   -0.40 KCAL/MOL
REMARK 927      BINDING AFFINITY PREDICTED BY RF-SCORE:    0.00 PKD
ROOT
HETATM    1  N   UNL     1     -11.988  13.325  67.892  1.00  0.00    -0.338 NA 
HETATM    2  C   UNL     1     -11.302  12.265  68.377  1.00  0.00    -0.292 C  
HETATM    3  H2  UNL     1     -11.488  14.154  67.572  1.00  0.00     0.000 HD 
HETATM    4  H1  UNL     1     -13.006  13.294  67.848  1.00  0.00     0.000 HD 
HETATM    5  N   UNL     1     -10.018  12.305  68.433  1.00  0.00    -0.227 N  
HETATM    6  H   UNL     1      -9.509  13.130  68.114  1.00  0.00     0.000 HD 
HETATM    7  C   UNL     1      -9.349  11.223  68.926  1.00  0.00    -0.072 C  
HETATM    8  N   UNL     1     -10.067  10.305  69.656  1.00  0.00    -0.236 N  
HETATM    9  O   UNL     1      -8.153  11.068  68.698  1.00  0.00    -0.134 OA 
HETATM   10  C   UNL     1     -11.394  10.264  69.389  1.00  0.00    -0.221 C  
HETATM   11  N   UNL     1     -12.027  11.188  68.759  1.00  0.00    -0.523 NA 
ENDROOT
BRANCH   8  12
HETATM   12  C1* UNL     1      -9.372   9.164  70.227  1.00  0.00    -0.220 C  
HETATM   13  C2* UNL     1      -9.797   8.824  71.653  1.00  0.00    -0.378 C  
HETATM   14  C3* UNL     1      -9.456   7.359  71.750  1.00  0.00    -0.149 C  
HETATM   15  O3* UNL     1      -8.065   7.233  72.064  1.00  0.00    -0.094 OA 
HETATM   16  C4* UNL     1      -9.704   6.841  70.334  1.00  0.00    -0.175 C  
HETATM   17  H3* UNL     1      -7.851   6.311  72.125  1.00  0.00     0.000 HD 
HETATM   18  O4* UNL     1      -9.661   7.985  69.450  1.00  0.00    -0.167 OA 
BRANCH  16  19
HETATM   19  C5* UNL     1     -11.069   6.170  70.164  1.00  0.00    -0.378 C  
HETATM   20  O5* UNL     1     -11.765   6.696  69.036  1.00  0.00    -0.608 OA 
HETATM   21  H5* UNL     1     -12.612   6.280  68.930  1.00  0.00     0.000 HD 
ENDBRANCH  16  19
ENDBRANCH   8  12
TORSDOF 2
ENDMDL
MODEL      119
REMARK 921   NORMALIZED FREE ENERGY PREDICTED BY IDOCK:   -3.81 KCAL/MOL
REMARK 922        TOTAL FREE ENERGY PREDICTED BY IDOCK:   -4.59 KCAL/MOL
REMARK 923 INTER-LIGAND FREE ENERGY PREDICTED BY IDOCK:   -4.95 KCAL/MOL
REMARK 924 INTRA-LIGAND FREE ENERGY PREDICTED BY IDOCK:    0.36 KCAL/MOL
REMARK 927      BINDING AFFINITY PREDICTED BY RF-SCORE:    0.00 PKD
ROOT
HETATM    1  N   UNL     1     -12.392  14.388  67.694  1.00  0.00    -0.601 NA 
HETATM    2  C   UNL     1     -11.477  15.357  67.925  1.00  0.00    -0.299 C  
HETATM    3  H2  UNL     1     -12.456  13.954  66.773  1.00  0.00     0.000 HD 
HETATM    4  H1  UNL     1     -13.018  14.092  68.443  1.00  0.00     0.000 HD 
HETATM    5  N   UNL     1     -10.688  15.730  66.981  1.00  0.00    -0.317 N  
HETATM    6  H   UNL     1     -10.743  15.301  66.056  1.00  0.00     0.000 HD 
HETATM    7  C   UNL     1      -9.774  16.710  67.239  1.00  0.00    -0.245 C  
HETATM    8  N   UNL     1      -9.968  17.487  68.356  1.00  0.00    -0.315 N  
HETATM    9  O   UNL     1      -8.800  16.867  66.508  1.00  0.00    -0.235 OA 
HETATM   10  C   UNL     1     -10.696  16.912  69.343  1.00  0.00    -0.258 C  
HETATM   11  N   UNL     1     -11.430  15.870  69.176  1.00  0.00    -0.363 NA 
ENDROOT
BRANCH   8  12
HETATM   12  C1* UNL     1      -9.032  18.563  68.633  1.00  0.00    -0.296 C  
HETATM   13  C2* UNL     1      -7.565  18.139  68.595  1.00  0.00    -0.306 C  
HETATM   14  C3* UNL     1      -6.864  19.436  68.279  1.00  0.00    -0.274 C  
HETATM   15  O3* UNL     1      -6.688  20.167  69.497  1.00  0.00    -0.292 OA 
HETATM   16  C4* UNL     1      -7.860  20.172  67.385  1.00  0.00    -0.313 C  
HETATM   17  H3* UNL     1      -6.247  20.984  69.299  1.00  0.00     0.000 HD 
HETATM   18  O4* UNL     1      -9.161  19.587  67.627  1.00  0.00    -0.302 OA 
BRANCH  16  19
HETATM   19  C5* UNL     1      -7.555  20.031  65.892  1.00  0.00    -0.300 C  
HETATM   20  O5* UNL     1      -6.557  19.040  65.661  1.00  0.00    -0.233 OA 
HETATM   21  H5* UNL     1      -6.368  18.952  64.734  1.00  0.00     0.000 HD 
ENDBRANCH  16  19
ENDBRANCH   8  12
TORSDOF 2
ENDMDL
MODEL      120
REMARK 921   NORMALIZED FREE ENERGY PREDICTED BY IDOCK:   -3.80 KCAL/MOL
REMARK 922        TOTAL FREE ENERGY PREDICTED BY IDOCK:   -4.58 KCAL/MOL
REMARK 923 INTER-LIGAND FREE ENERGY PREDICTED BY IDOCK:   -4.60 KCAL/MOL
REMARK 924 INTRA-LIGAND FREE ENERGY PREDICTED BY IDOCK:    0.02 KCAL/MOL
REMARK 927      BINDING AFFINITY PREDICTED BY RF-SCORE:    0.00 PKD
ROOT
HETATM    1  N   UNL     1     -13.253   9.489  72.522  1.00  0.00    -0.562 NA 
HETATM    2  C   UNL     1     -12.783  10.319  71.563  1.00  0.00    -0.452 C  
HETATM    3  H2  UNL     1     -13.332   8.489  72.338  1.00  0.00     0.000 HD 
HETATM    4  H1  UNL     1     -13.529   9.865  73.429  1.00  0.00     0.000 HD 
HETATM    5  N   UNL     1     -12.434   9.844  70.420  1.00  0.00    -0.501 N  
HETATM    6  H   UNL     1     -12.509   8.845  70.227  1.00  0.00     0.000 HD 
HETATM    7  C   UNL     1     -11.963  10.703  69.470  1.00  0.00    -0.247 C  
HETATM    8  N   UNL     1     -12.210  12.045  69.641  1.00  0.00    -0.194 N  
HETATM    9  O   UNL     1     -11.318  10.285  68.512  1.00  0.00    -0.241 OA 
HETATM   10  C   UNL     1     -12.413  12.438  70.921  1.00  0.00    -0.274 C  
HETATM   11  N   UNL     1     -12.679  11.629  71.884  1.00  0.00    -0.228 NA 
ENDROOT
BRANCH   8  12
HETATM   12  C1* UNL     1     -11.754  12.977  68.624  1.00  0.00    -0.323 C  
HETATM   13  C2* UNL     1     -12.068  14.439  68.933  1.00  0.00    -0.288 C  
HETATM   14  C3* UNL     1     -11.010  15.168  68.144  1.00  0.00    -0.287 C  
HETATM   15  O3* UNL     1     -11.454  15.291  66.789  1.00  0.00    -0.259 OA 
HETATM   16  C4* UNL     1      -9.809  14.225  68.200  1.00  0.00    -0.226 C  
HETATM   17  H3* UNL     1     -10.788  15.750  66.293  1.00  0.00     0.000 HD 
HETATM   18  O4* UNL     1     -10.319  12.908  68.515  1.00  0.00    -0.243 OA 
BRANCH  16  19
HETATM   19  C5* UNL     1      -8.791  14.602  69.279  1.00  0.00     0.042 C  
HETATM   20  O5* UNL     1      -7.730  13.652  69.342  1.00  0.00    -0.318 OA 
HETATM   21  H5* UNL     1      -7.098  13.886  70.012  1.00  0.00     0.000 HD 
ENDBRANCH  16  19
ENDBRANCH   8  12
TORSDOF 2
ENDMDL
MODEL      121
REMARK 921   NORMALIZED FREE ENERGY PREDICTED BY IDOCK:   -3.72 KCAL/MOL
REMARK 922        TOTAL FREE ENERGY PREDICTED BY IDOCK:   -4.50 KCAL/MOL
REMARK 923 INTER-LIGAND FREE ENERGY PREDICTED BY IDOCK:   -4.27 KCAL/MOL
REMARK 924 INTRA-LIGAND FREE ENERGY PREDICTED BY IDOCK:   -0.23 KCAL/MOL
REMARK 927      BINDING AFFINITY PREDICTED BY RF-SCORE:    0.00 PKD
ROOT
HETATM    1  N   UNL     1     -12.813  15.841  69.808  1.00  0.00    -0.552 NA 
HETATM    2  C   UNL     1     -11.947  14.958  69.262  1.00  0.00    -0.291 C  
HETATM    3  H2  UNL     1     -13.772  15.895  69.464  1.00  0.00     0.000 HD 
HETATM    4  H1  UNL     1     -12.506  16.453  70.563  1.00  0.00     0.000 HD 
HETATM    5  N   UNL     1     -12.334  14.186  68.310  1.00  0.00    -0.556 N  
HETATM    6  H   UNL     1     -13.291  14.232  67.959  1.00  0.00     0.000 HD 
HETATM    7  C   UNL     1     -11.440  13.304  67.776  1.00  0.00    -0.317 C  
HETATM    8  N   UNL     1     -10.105  13.518  68.023  1.00  0.00    -0.237 N  
HETATM    9  O   UNL     1     -11.827  12.340  67.121  1.00  0.00    -0.511 OA 
HETATM   10  C   UNL     1      -9.829  14.221  69.147  1.00  0.00     0.017 C  
HETATM   11  N   UNL     1     -10.699  14.921  69.785  1.00  0.00    -0.234 NA 
ENDROOT
BRANCH   8  12
HETATM   12  C1* UNL     1      -9.130  12.616  67.434  1.00  0.00    -0.191 C  
HETATM   13  C2* UNL     1      -7.705  13.165  67.415  1.00  0.00    -0.151 C  
HETATM   14  C3* UNL     1      -6.876  11.906  67.379  1.00  0.00    -0.130 C  
HETATM   15  O3* UNL     1      -6.790  11.454  66.024  1.00  0.00    -0.369 OA 
HETATM   16  C4* UNL     1      -7.702  10.912  68.194  1.00  0.00    -0.103 C  
HETATM   17  H3* UNL     1      -6.268  10.662  66.002  1.00  0.00     0.000 HD 
HETATM   18  O4* UNL     1      -9.062  11.404  68.211  1.00  0.00    -0.166 OA 
BRANCH  16  19
HETATM   19  C5* UNL     1      -7.235  10.780  69.645  1.00  0.00    -0.125 C  
HETATM   20  O5* UNL     1      -8.179  10.052  70.427  1.00  0.00    -0.353 OA 
HETATM   21  H5* UNL     1      -7.889   9.970  71.328  1.00  0.00     0.000 HD 
ENDBRANCH  16  19
ENDBRANCH   8  12
TORSDOF 2
ENDMDL
MODEL      122
REMARK 921   NORMALIZED FREE ENERGY PREDICTED BY IDOCK:   -3.72 KCAL/MOL
REMARK 922        TOTAL FREE ENERGY PREDICTED BY IDOCK:   -4.49 KCAL/MOL
REMARK 923 INTER-LIGAND FREE ENERGY PREDICTED BY IDOCK:   -4.18 KCAL/MOL
REMARK 924 INTRA-LIGAND FREE ENERGY PREDICTED BY IDOCK:   -0.31 KCAL/MOL
REMARK 927      BINDING AFFINITY PREDICTED BY RF-SCORE:    0.00 PKD
ROOT
HETATM    1  N   UNL     1     -10.031   8.470  69.492  1.00  0.00    -0.189 NA 
HETATM    2  C   UNL     1     -10.335   9.757  69.211  1.00  0.00    -0.215 C  
HETATM    3  H2  UNL     1     -10.483   7.997  70.274  1.00  0.00     0.000 HD 
HETATM    4  H1  UNL     1      -9.348   7.973  68.920  1.00  0.00     0.000 HD 
HETATM    5  N   UNL     1     -11.196  10.383  69.932  1.00  0.00    -0.285 N  
HETATM    6  H   UNL     1     -11.654   9.919  70.717  1.00  0.00     0.000 HD 
HETATM    7  C   UNL     1     -11.486  11.682  69.628  1.00  0.00    -0.288 C  
HETATM    8  N   UNL     1     -10.609  12.359  68.814  1.00  0.00    -0.214 N  
HETATM    9  O   UNL     1     -12.510  12.211  70.050  1.00  0.00    -0.119 OA 
HETATM   10  C   UNL     1      -9.865  11.582  67.991  1.00  0.00    -0.188 C  
HETATM   11  N   UNL     1      -9.719  10.314  68.143  1.00  0.00    -0.142 NA 
ENDROOT
BRANCH   8  12
HETATM   12  C1* UNL     1     -10.873  13.754  68.506  1.00  0.00    -0.263 C  
HETATM   13  C2* UNL     1      -9.622  14.628  68.449  1.00  0.00    -0.217 C  
HETATM   14  C3* UNL     1     -10.057  15.754  67.547  1.00  0.00    -0.245 C  
HETATM   15  O3* UNL     1     -10.772  16.715  68.329  1.00  0.00    -0.321 OA 
HETATM   16  C4* UNL     1     -11.018  15.079  66.571  1.00  0.00    -0.327 C  
HETATM   17  H3* UNL     1     -11.046  17.425  67.761  1.00  0.00     0.000 HD 
HETATM   18  O4* UNL     1     -11.470  13.856  67.198  1.00  0.00    -0.315 OA 
BRANCH  16  19
HETATM   19  C5* UNL     1     -10.367  14.706  65.237  1.00  0.00    -0.399 C  
HETATM   20  O5* UNL     1     -11.256  13.946  64.423  1.00  0.00    -0.456 OA 
HETATM   21  H5* UNL     1     -10.852  13.715  63.595  1.00  0.00     0.000 HD 
ENDBRANCH  16  19
ENDBRANCH   8  12
TORSDOF 2
ENDMDL
MODEL      123
REMARK 921   NORMALIZED FREE ENERGY PREDICTED BY IDOCK:   -3.72 KCAL/MOL
REMARK 922        TOTAL FREE ENERGY PREDICTED BY IDOCK:   -4.49 KCAL/MOL
REMARK 923 INTER-LIGAND FREE ENERGY PREDICTED BY IDOCK:   -4.17 KCAL/MOL
REMARK 924 INTRA-LIGAND FREE ENERGY PREDICTED BY IDOCK:   -0.32 KCAL/MOL
REMARK 927      BINDING AFFINITY PREDICTED BY RF-SCORE:    0.00 PKD
ROOT
HETATM    1  N   UNL     1     -12.741  11.084  70.695  1.00  0.00    -0.313 NA 
HETATM    2  C   UNL     1     -12.427   9.827  71.085  1.00  0.00    -0.350 C  
HETATM    3  H2  UNL     1     -13.702  11.316  70.445  1.00  0.00     0.000 HD 
HETATM    4  H1  UNL     1     -12.015  11.798  70.652  1.00  0.00     0.000 HD 
HETATM    5  N   UNL     1     -13.343   8.926  71.139  1.00  0.00    -0.540 N  
HETATM    6  H   UNL     1     -14.308   9.149  70.891  1.00  0.00     0.000 HD 
HETATM    7  C   UNL     1     -13.000   7.666  71.535  1.00  0.00    -0.341 C  
HETATM    8  N   UNL     1     -11.668   7.329  71.513  1.00  0.00    -0.276 N  
HETATM    9  O   UNL     1     -13.858   6.876  71.921  1.00  0.00    -0.266 OA 
HETATM   10  C   UNL     1     -10.806   8.368  71.615  1.00  0.00    -0.268 C  
HETATM   11  N   UNL     1     -11.139   9.595  71.428  1.00  0.00    -0.365 NA 
ENDROOT
BRANCH   8  12
HETATM   12  C1* UNL     1     -11.280   5.981  71.892  1.00  0.00    -0.282 C  
HETATM   13  C2* UNL     1      -9.958   5.518  71.284  1.00  0.00    -0.249 C  
HETATM   14  C3* UNL     1      -9.502   4.468  72.265  1.00  0.00    -0.134 C  
HETATM   15  O3* UNL     1     -10.155   3.235  71.948  1.00  0.00    -0.160 OA 
HETATM   16  C4* UNL     1     -10.019   4.985  73.607  1.00  0.00    -0.162 C  
HETATM   17  H3* UNL     1      -9.868   2.573  72.566  1.00  0.00     0.000 HD 
HETATM   18  O4* UNL     1     -11.087   5.917  73.319  1.00  0.00    -0.252 OA 
BRANCH  16  19
HETATM   19  C5* UNL     1      -8.957   5.728  74.420  1.00  0.00    -0.123 C  
HETATM   20  O5* UNL     1      -7.645   5.427  73.953  1.00  0.00    -0.093 OA 
HETATM   21  H5* UNL     1      -6.985   5.889  74.458  1.00  0.00     0.000 HD 
ENDBRANCH  16  19
ENDBRANCH   8  12
TORSDOF 2
ENDMDL
MODEL      124
REMARK 921   NORMALIZED FREE ENERGY PREDICTED BY IDOCK:   -3.70 KCAL/MOL
REMARK 922        TOTAL FREE ENERGY PREDICTED BY IDOCK:   -4.47 KCAL/MOL
REMARK 923 INTER-LIGAND FREE ENERGY PREDICTED BY IDOCK:   -4.12 KCAL/MOL
REMARK 924 INTRA-LIGAND FREE ENERGY PREDICTED BY IDOCK:   -0.35 KCAL/MOL
REMARK 927      BINDING AFFINITY PREDICTED BY RF-SCORE:    0.00 PKD
ROOT
HETATM    1  N   UNL     1     -10.485  19.707  65.907  1.00  0.00    -0.516 NA 
HETATM    2  C   UNL     1      -9.546  18.893  66.441  1.00  0.00    -0.351 C  
HETATM    3  H2  UNL     1     -10.560  20.675  66.220  1.00  0.00     0.000 HD 
HETATM    4  H1  UNL     1     -11.118  19.351  65.192  1.00  0.00     0.000 HD 
HETATM    5  N   UNL     1      -8.748  19.342  67.344  1.00  0.00    -0.295 N  
HETATM    6  H   UNL     1      -8.814  20.309  67.663  1.00  0.00     0.000 HD 
HETATM    7  C   UNL     1      -7.809  18.501  67.866  1.00  0.00    -0.253 C  
HETATM    8  N   UNL     1      -7.983  17.150  67.675  1.00  0.00    -0.176 N  
HETATM    9  O   UNL     1      -6.832  18.945  68.463  1.00  0.00    -0.243 OA 
HETATM   10  C   UNL     1      -8.725  16.809  66.594  1.00  0.00    -0.248 C  
HETATM   11  N   UNL     1      -9.485  17.630  65.960  1.00  0.00    -0.518 NA 
ENDROOT
BRANCH   8  12
HETATM   12  C1* UNL     1      -7.020  16.230  68.254  1.00  0.00    -0.128 C  
HETATM   13  C2* UNL     1      -7.523  15.502  69.499  1.00  0.00    -0.200 C  
HETATM   14  C3* UNL     1      -6.681  14.252  69.503  1.00  0.00    -0.130 C  
HETATM   15  O3* UNL     1      -5.420  14.553  70.109  1.00  0.00    -0.100 OA 
HETATM   16  C4* UNL     1      -6.472  13.957  68.018  1.00  0.00    -0.145 C  
HETATM   17  H3* UNL     1      -4.889  13.766  70.111  1.00  0.00     0.000 HD 
HETATM   18  O4* UNL     1      -6.711  15.192  67.303  1.00  0.00    -0.269 OA 
BRANCH  16  19
HETATM   19  C5* UNL     1      -7.438  12.906  67.467  1.00  0.00    -0.155 C  
HETATM   20  O5* UNL     1      -8.310  13.467  66.489  1.00  0.00    -0.391 OA 
HETATM   21  H5* UNL     1      -8.909  12.814  66.147  1.00  0.00     0.000 HD 
ENDBRANCH  16  19
ENDBRANCH   8  12
TORSDOF 2
ENDMDL
MODEL      125
REMARK 921   NORMALIZED FREE ENERGY PREDICTED BY IDOCK:   -3.69 KCAL/MOL
REMARK 922        TOTAL FREE ENERGY PREDICTED BY IDOCK:   -4.46 KCAL/MOL
REMARK 923 INTER-LIGAND FREE ENERGY PREDICTED BY IDOCK:   -4.19 KCAL/MOL
REMARK 924 INTRA-LIGAND FREE ENERGY PREDICTED BY IDOCK:   -0.27 KCAL/MOL
REMARK 927      BINDING AFFINITY PREDICTED BY RF-SCORE:    0.00 PKD
ROOT
HETATM    1  N   UNL     1     -11.173   4.598  65.249  1.00  0.00    -0.991 NA 
HETATM    2  C   UNL     1     -10.746   5.001  66.468  1.00  0.00    -0.138 C  
HETATM    3  H2  UNL     1     -10.938   3.666  64.909  1.00  0.00     0.000 HD 
HETATM    4  H1  UNL     1     -11.730   5.227  64.672  1.00  0.00     0.000 HD 
HETATM    5  N   UNL     1     -10.044   4.206  67.195  1.00  0.00    -0.200 N  
HETATM    6  H   UNL     1      -9.804   3.272  66.863  1.00  0.00     0.000 HD 
HETATM    7  C   UNL     1      -9.625   4.638  68.421  1.00  0.00    -0.151 C  
HETATM    8  N   UNL     1      -9.663   5.989  68.671  1.00  0.00    -0.124 N  
HETATM    9  O   UNL     1      -9.255   3.836  69.274  1.00  0.00    -0.130 OA 
HETATM   10  C   UNL     1     -10.560   6.689  67.936  1.00  0.00    -0.247 C  
HETATM   11  N   UNL     1     -11.117   6.239  66.869  1.00  0.00    -0.341 NA 
ENDROOT
BRANCH   8  12
HETATM   12  C1* UNL     1      -9.187   6.478  69.953  1.00  0.00    -0.149 C  
HETATM   13  C2* UNL     1      -8.713   7.929  69.930  1.00  0.00    -0.140 C  
HETATM   14  C3* UNL     1      -8.889   8.348  71.368  1.00  0.00    -0.181 C  
HETATM   15  O3* UNL     1      -7.745   7.918  72.112  1.00  0.00    -0.087 OA 
HETATM   16  C4* UNL     1     -10.115   7.558  71.822  1.00  0.00    -0.176 C  
HETATM   17  H3* UNL     1      -7.855   8.182  73.017  1.00  0.00     0.000 HD 
HETATM   18  O4* UNL     1     -10.261   6.442  70.914  1.00  0.00    -0.185 OA 
BRANCH  16  19
HETATM   19  C5* UNL     1     -11.412   8.370  71.775  1.00  0.00    -0.301 C  
HETATM   20  O5* UNL     1     -12.169   8.203  72.971  1.00  0.00    -0.655 OA 
HETATM   21  H5* UNL     1     -12.974   8.707  72.941  1.00  0.00     0.000 HD 
ENDBRANCH  16  19
ENDBRANCH   8  12
TORSDOF 2
ENDMDL
MODEL      126
REMARK 921   NORMALIZED FREE ENERGY PREDICTED BY IDOCK:   -3.69 KCAL/MOL
REMARK 922        TOTAL FREE ENERGY PREDICTED BY IDOCK:   -4.45 KCAL/MOL
REMARK 923 INTER-LIGAND FREE ENERGY PREDICTED BY IDOCK:   -4.38 KCAL/MOL
REMARK 924 INTRA-LIGAND FREE ENERGY PREDICTED BY IDOCK:   -0.08 KCAL/MOL
REMARK 927      BINDING AFFINITY PREDICTED BY RF-SCORE:    0.00 PKD
ROOT
HETATM    1  N   UNL     1     -12.197  13.422  69.421  1.00  0.00    -0.253 NA 
HETATM    2  C   UNL     1     -11.231  14.235  68.937  1.00  0.00    -0.264 C  
HETATM    3  H2  UNL     1     -11.957  12.493  69.767  1.00  0.00     0.000 HD 
HETATM    4  H1  UNL     1     -13.166  13.739  69.439  1.00  0.00     0.000 HD 
HETATM    5  N   UNL     1     -10.009  13.835  68.914  1.00  0.00    -0.416 N  
HETATM    6  H   UNL     1      -9.759  12.907  69.259  1.00  0.00     0.000 HD 
HETATM    7  C   UNL     1      -9.053  14.674  68.421  1.00  0.00    -0.192 C  
HETATM    8  N   UNL     1      -9.469  15.740  67.659  1.00  0.00    -0.217 N  
HETATM    9  O   UNL     1      -7.866  14.491  68.676  1.00  0.00    -0.128 OA 
HETATM   10  C   UNL     1     -10.736  16.159  67.892  1.00  0.00    -0.321 C  
HETATM   11  N   UNL     1     -11.616  15.464  68.520  1.00  0.00    -0.351 NA 
ENDROOT
BRANCH   8  12
HETATM   12  C1* UNL     1      -8.470  16.627  67.088  1.00  0.00    -0.189 C  
HETATM   13  C2* UNL     1      -9.040  17.688  66.150  1.00  0.00    -0.146 C  
HETATM   14  C3* UNL     1      -7.998  18.775  66.223  1.00  0.00    -0.264 C  
HETATM   15  O3* UNL     1      -6.938  18.452  65.318  1.00  0.00    -0.534 OA 
HETATM   16  C4* UNL     1      -7.485  18.683  67.659  1.00  0.00    -0.229 C  
HETATM   17  H3* UNL     1      -6.281  19.136  65.363  1.00  0.00     0.000 HD 
HETATM   18  O4* UNL     1      -7.816  17.360  68.143  1.00  0.00    -0.217 OA 
BRANCH  16  19
HETATM   19  C5* UNL     1      -8.132  19.700  68.601  1.00  0.00    -0.289 C  
HETATM   20  O5* UNL     1      -9.401  19.243  69.062  1.00  0.00    -0.365 OA 
HETATM   21  H5* UNL     1      -9.802  19.875  69.647  1.00  0.00     0.000 HD 
ENDBRANCH  16  19
ENDBRANCH   8  12
TORSDOF 2
ENDMDL
MODEL      127
REMARK 921   NORMALIZED FREE ENERGY PREDICTED BY IDOCK:   -3.68 KCAL/MOL
REMARK 922        TOTAL FREE ENERGY PREDICTED BY IDOCK:   -4.45 KCAL/MOL
REMARK 923 INTER-LIGAND FREE ENERGY PREDICTED BY IDOCK:   -4.42 KCAL/MOL
REMARK 924 INTRA-LIGAND FREE ENERGY PREDICTED BY IDOCK:   -0.03 KCAL/MOL
REMARK 927      BINDING AFFINITY PREDICTED BY RF-SCORE:    0.00 PKD
ROOT
HETATM    1  N   UNL     1     -10.645  19.454  65.570  1.00  0.00    -0.480 NA 
HETATM    2  C   UNL     1     -10.163  18.436  66.319  1.00  0.00    -0.406 C  
HETATM    3  H2  UNL     1     -11.511  19.921  65.839  1.00  0.00     0.000 HD 
HETATM    4  H1  UNL     1     -10.140  19.755  64.737  1.00  0.00     0.000 HD 
HETATM    5  N   UNL     1     -10.800  18.058  67.370  1.00  0.00    -0.306 N  
HETATM    6  H   UNL     1     -11.667  18.518  67.647  1.00  0.00     0.000 HD 
HETATM    7  C   UNL     1     -10.293  17.028  68.108  1.00  0.00    -0.347 C  
HETATM    8  N   UNL     1      -9.346  16.224  67.519  1.00  0.00    -0.217 N  
HETATM    9  O   UNL     1     -10.658  16.849  69.267  1.00  0.00    -0.336 OA 
HETATM   10  C   UNL     1      -8.639  16.800  66.518  1.00  0.00    -0.277 C  
HETATM   11  N   UNL     1      -8.995  17.881  65.920  1.00  0.00    -0.500 NA 
ENDROOT
BRANCH   8  12
HETATM   12  C1* UNL     1      -8.819  15.097  68.269  1.00  0.00    -0.173 C  
HETATM   13  C2* UNL     1      -7.748  14.300  67.527  1.00  0.00    -0.208 C  
HETATM   14  C3* UNL     1      -6.974  13.672  68.657  1.00  0.00    -0.103 C  
HETATM   15  O3* UNL     1      -7.658  12.487  69.076  1.00  0.00    -0.307 OA 
HETATM   16  C4* UNL     1      -7.049  14.719  69.767  1.00  0.00    -0.132 C  
HETATM   17  H3* UNL     1      -7.170  12.091  69.788  1.00  0.00     0.000 HD 
HETATM   18  O4* UNL     1      -8.179  15.572  69.470  1.00  0.00    -0.250 OA 
BRANCH  16  19
HETATM   19  C5* UNL     1      -5.804  15.606  69.850  1.00  0.00    -0.151 C  
HETATM   20  O5* UNL     1      -6.153  16.988  69.830  1.00  0.00    -0.227 OA 
HETATM   21  H5* UNL     1      -5.381  17.538  69.882  1.00  0.00     0.000 HD 
ENDBRANCH  16  19
ENDBRANCH   8  12
TORSDOF 2
ENDMDL
MODEL      128
REMARK 921   NORMALIZED FREE ENERGY PREDICTED BY IDOCK:   -3.67 KCAL/MOL
REMARK 922        TOTAL FREE ENERGY PREDICTED BY IDOCK:   -4.44 KCAL/MOL
REMARK 923 INTER-LIGAND FREE ENERGY PREDICTED BY IDOCK:   -4.72 KCAL/MOL
REMARK 924 INTRA-LIGAND FREE ENERGY PREDICTED BY IDOCK:    0.28 KCAL/MOL
REMARK 927      BINDING AFFINITY PREDICTED BY RF-SCORE:    0.00 PKD
ROOT
HETATM    1  N   UNL     1      -7.968  12.745  67.060  1.00  0.00    -0.370 NA 
HETATM    2  C   UNL     1      -7.797  14.087  67.031  1.00  0.00     0.115 C  
HETATM    3  H2  UNL     1      -8.811  12.329  66.666  1.00  0.00     0.000 HD 
HETATM    4  H1  UNL     1      -7.251  12.151  67.477  1.00  0.00     0.000 HD 
HETATM    5  N   UNL     1      -8.701  14.835  66.505  1.00  0.00    -0.452 N  
HETATM    6  H   UNL     1      -9.548  14.428  66.107  1.00  0.00     0.000 HD 
HETATM    7  C   UNL     1      -8.505  16.186  66.489  1.00  0.00    -0.311 C  
HETATM    8  N   UNL     1      -7.550  16.704  67.330  1.00  0.00    -0.156 N  
HETATM    9  O   UNL     1      -9.147  16.902  65.726  1.00  0.00    -0.523 OA 
HETATM   10  C   UNL     1      -6.566  15.845  67.689  1.00  0.00    -0.172 C  
HETATM   11  N   UNL     1      -6.643  14.569  67.547  1.00  0.00    -0.285 NA 
ENDROOT
BRANCH   8  12
HETATM   12  C1* UNL     1      -7.348  18.142  67.361  1.00  0.00    -0.210 C  
HETATM   13  C2* UNL     1      -6.962  18.748  66.014  1.00  0.00    -0.302 C  
HETATM   14  C3* UNL     1      -7.426  20.175  66.158  1.00  0.00    -0.278 C  
HETATM   15  O3* UNL     1      -6.417  20.915  66.852  1.00  0.00    -0.253 OA 
HETATM   16  C4* UNL     1      -8.668  20.060  67.040  1.00  0.00    -0.336 C  
HETATM   17  H3* UNL     1      -6.708  21.813  66.943  1.00  0.00     0.000 HD 
HETATM   18  O4* UNL     1      -8.578  18.795  67.735  1.00  0.00    -0.276 OA 
BRANCH  16  19
HETATM   19  C5* UNL     1      -9.977  20.065  66.248  1.00  0.00    -0.481 C  
HETATM   20  O5* UNL     1     -10.985  19.307  66.912  1.00  0.00    -0.427 OA 
HETATM   21  H5* UNL     1     -11.798  19.310  66.421  1.00  0.00     0.000 HD 
ENDBRANCH  16  19
ENDBRANCH   8  12
TORSDOF 2
ENDMDL
MODEL      129
REMARK 921   NORMALIZED FREE ENERGY PREDICTED BY IDOCK:   -3.64 KCAL/MOL
REMARK 922        TOTAL FREE ENERGY PREDICTED BY IDOCK:   -4.41 KCAL/MOL
REMARK 923 INTER-LIGAND FREE ENERGY PREDICTED BY IDOCK:   -5.23 KCAL/MOL
REMARK 924 INTRA-LIGAND FREE ENERGY PREDICTED BY IDOCK:    0.82 KCAL/MOL
REMARK 927      BINDING AFFINITY PREDICTED BY RF-SCORE:    0.00 PKD
ROOT
HETATM    1  N   UNL     1     -10.178  18.185  65.728  1.00  0.00    -0.597 NA 
HETATM    2  C   UNL     1     -10.562  17.009  66.275  1.00  0.00    -0.185 C  
HETATM    3  H2  UNL     1     -10.153  18.293  64.715  1.00  0.00     0.000 HD 
HETATM    4  H1  UNL     1      -9.914  18.963  66.332  1.00  0.00     0.000 HD 
HETATM    5  N   UNL     1     -10.895  16.028  65.513  1.00  0.00    -0.323 N  
HETATM    6  H   UNL     1     -10.873  16.127  64.498  1.00  0.00     0.000 HD 
HETATM    7  C   UNL     1     -11.278  14.852  66.090  1.00  0.00    -0.325 C  
HETATM    8  N   UNL     1     -10.958  14.652  67.412  1.00  0.00    -0.299 N  
HETATM    9  O   UNL     1     -11.911  14.017  65.449  1.00  0.00    -0.333 OA 
HETATM   10  C   UNL     1     -10.780  15.780  68.141  1.00  0.00    -0.285 C  
HETATM   11  N   UNL     1     -10.598  16.944  67.626  1.00  0.00    -0.335 NA 
ENDROOT
BRANCH   8  12
HETATM   12  C1* UNL     1     -11.319  13.393  68.039  1.00  0.00    -0.286 C  
HETATM   13  C2* UNL     1     -11.469  12.229  67.061  1.00  0.00    -0.419 C  
HETATM   14  C3* UNL     1     -11.208  11.034  67.942  1.00  0.00    -0.310 C  
HETATM   15  O3* UNL     1     -12.420  10.700  68.627  1.00  0.00    -0.788 OA 
HETATM   16  C4* UNL     1     -10.182  11.549  68.950  1.00  0.00    -0.149 C  
HETATM   17  H3* UNL     1     -12.256   9.947  69.182  1.00  0.00     0.000 HD 
HETATM   18  O4* UNL     1     -10.280  12.993  68.954  1.00  0.00    -0.139 OA 
BRANCH  16  19
HETATM   19  C5* UNL     1      -8.741  11.180  68.591  1.00  0.00    -0.153 C  
HETATM   20  O5* UNL     1      -7.853  12.266  68.842  1.00  0.00    -0.305 OA 
HETATM   21  H5* UNL     1      -6.958  12.037  68.620  1.00  0.00     0.000 HD 
ENDBRANCH  16  19
ENDBRANCH   8  12
TORSDOF 2
ENDMDL
MODEL      130
REMARK 921   NORMALIZED FREE ENERGY PREDICTED BY IDOCK:   -3.64 KCAL/MOL
REMARK 922        TOTAL FREE ENERGY PREDICTED BY IDOCK:   -4.41 KCAL/MOL
REMARK 923 INTER-LIGAND FREE ENERGY PREDICTED BY IDOCK:   -4.05 KCAL/MOL
REMARK 924 INTRA-LIGAND FREE ENERGY PREDICTED BY IDOCK:   -0.36 KCAL/MOL
REMARK 927      BINDING AFFINITY PREDICTED BY RF-SCORE:    0.00 PKD
ROOT
HETATM    1  N   UNL     1     -13.152  11.137  71.242  1.00  0.00    -0.327 NA 
HETATM    2  C   UNL     1     -12.567   9.918  71.280  1.00  0.00    -0.381 C  
HETATM    3  H2  UNL     1     -14.169  11.216  71.260  1.00  0.00     0.000 HD 
HETATM    4  H1  UNL     1     -12.575  11.976  71.194  1.00  0.00     0.000 HD 
HETATM    5  N   UNL     1     -13.295   8.860  71.340  1.00  0.00    -0.487 N  
HETATM    6  H   UNL     1     -14.313   8.929  71.359  1.00  0.00     0.000 HD 
HETATM    7  C   UNL     1     -12.680   7.643  71.377  1.00  0.00    -0.327 C  
HETATM    8  N   UNL     1     -11.360   7.580  70.997  1.00  0.00    -0.268 N  
HETATM    9  O   UNL     1     -13.286   6.647  71.764  1.00  0.00    -0.266 OA 
HETATM   10  C   UNL     1     -10.665   8.735  71.128  1.00  0.00    -0.248 C  
HETATM   11  N   UNL     1     -11.214   9.888  71.280  1.00  0.00    -0.344 NA 
ENDROOT
BRANCH   8  12
HETATM   12  C1* UNL     1     -10.693   6.290  70.991  1.00  0.00    -0.259 C  
HETATM   13  C2* UNL     1     -10.641   5.621  69.619  1.00  0.00    -0.401 C  
HETATM   14  C3* UNL     1      -9.439   4.721  69.745  1.00  0.00    -0.162 C  
HETATM   15  O3* UNL     1      -9.842   3.510  70.392  1.00  0.00    -0.156 OA 
HETATM   16  C4* UNL     1      -8.503   5.501  70.666  1.00  0.00    -0.121 C  
HETATM   17  H3* UNL     1      -9.085   2.942  70.472  1.00  0.00     0.000 HD 
HETATM   18  O4* UNL     1      -9.317   6.456  71.387  1.00  0.00    -0.153 OA 
BRANCH  16  19
HETATM   19  C5* UNL     1      -7.423   6.282  69.914  1.00  0.00    -0.084 C  
HETATM   20  O5* UNL     1      -7.186   7.550  70.521  1.00  0.00    -0.062 OA 
HETATM   21  H5* UNL     1      -6.516   8.034  70.055  1.00  0.00     0.000 HD 
ENDBRANCH  16  19
ENDBRANCH   8  12
TORSDOF 2
ENDMDL
MODEL      131
REMARK 921   NORMALIZED FREE ENERGY PREDICTED BY IDOCK:   -3.63 KCAL/MOL
REMARK 922        TOTAL FREE ENERGY PREDICTED BY IDOCK:   -4.39 KCAL/MOL
REMARK 923 INTER-LIGAND FREE ENERGY PREDICTED BY IDOCK:   -4.10 KCAL/MOL
REMARK 924 INTRA-LIGAND FREE ENERGY PREDICTED BY IDOCK:   -0.29 KCAL/MOL
REMARK 927      BINDING AFFINITY PREDICTED BY RF-SCORE:    0.00 PKD
ROOT
HETATM    1  N   UNL     1     -10.178  10.333  62.856  1.00  0.00    -0.537 NA 
HETATM    2  C   UNL     1     -10.259  10.633  64.172  1.00  0.00    -0.295 C  
HETATM    3  H2  UNL     1     -10.360  11.052  62.156  1.00  0.00     0.000 HD 
HETATM    4  H1  UNL     1      -9.934   9.387  62.565  1.00  0.00     0.000 HD 
HETATM    5  N   UNL     1     -10.567  11.827  64.539  1.00  0.00    -0.294 N  
HETATM    6  H   UNL     1     -10.750  12.553  63.846  1.00  0.00     0.000 HD 
HETATM    7  C   UNL     1     -10.642  12.103  65.873  1.00  0.00    -0.258 C  
HETATM    8  N   UNL     1     -10.738  11.043  66.742  1.00  0.00    -0.267 N  
HETATM    9  O   UNL     1     -10.599  13.262  66.276  1.00  0.00    -0.283 OA 
HETATM   10  C   UNL     1     -10.237   9.871  66.284  1.00  0.00    -0.211 C  
HETATM   11  N   UNL     1      -9.978   9.639  65.046  1.00  0.00    -0.106 NA 
ENDROOT
BRANCH   8  12
HETATM   12  C1* UNL     1     -10.860  11.310  68.165  1.00  0.00    -0.217 C  
HETATM   13  C2* UNL     1     -12.258  11.066  68.729  1.00  0.00    -0.029 C  
HETATM   14  C3* UNL     1     -11.974  10.795  70.184  1.00  0.00    -0.349 C  
HETATM   15  O3* UNL     1     -11.848  12.047  70.865  1.00  0.00    -0.377 OA 
HETATM   16  C4* UNL     1     -10.618  10.092  70.160  1.00  0.00    -0.281 C  
HETATM   17  H3* UNL     1     -11.669  11.877  71.782  1.00  0.00     0.000 HD 
HETATM   18  O4* UNL     1      -9.991  10.425  68.899  1.00  0.00    -0.180 OA 
BRANCH  16  19
HETATM   19  C5* UNL     1     -10.723   8.568  70.240  1.00  0.00    -0.230 C  
HETATM   20  O5* UNL     1     -10.261   8.084  71.499  1.00  0.00    -0.186 OA 
HETATM   21  H5* UNL     1     -10.326   7.138  71.549  1.00  0.00     0.000 HD 
ENDBRANCH  16  19
ENDBRANCH   8  12
TORSDOF 2
ENDMDL
MODEL      132
REMARK 921   NORMALIZED FREE ENERGY PREDICTED BY IDOCK:   -3.62 KCAL/MOL
REMARK 922        TOTAL FREE ENERGY PREDICTED BY IDOCK:   -4.38 KCAL/MOL
REMARK 923 INTER-LIGAND FREE ENERGY PREDICTED BY IDOCK:   -4.71 KCAL/MOL
REMARK 924 INTRA-LIGAND FREE ENERGY PREDICTED BY IDOCK:    0.33 KCAL/MOL
REMARK 927      BINDING AFFINITY PREDICTED BY RF-SCORE:    0.00 PKD
ROOT
HETATM    1  N   UNL     1     -10.089   9.903  70.759  1.00  0.00    -0.350 NA 
HETATM    2  C   UNL     1      -9.913  10.253  69.464  1.00  0.00    -0.228 C  
HETATM    3  H2  UNL     1     -11.030   9.826  71.144  1.00  0.00     0.000 HD 
HETATM    4  H1  UNL     1      -9.278   9.715  71.349  1.00  0.00     0.000 HD 
HETATM    5  N   UNL     1     -10.935  10.489  68.721  1.00  0.00    -0.235 N  
HETATM    6  H   UNL     1     -11.881  10.415  69.097  1.00  0.00     0.000 HD 
HETATM    7  C   UNL     1     -10.731  10.841  67.418  1.00  0.00    -0.268 C  
HETATM    8  N   UNL     1      -9.474  11.267  67.060  1.00  0.00    -0.170 N  
HETATM    9  O   UNL     1     -11.638  10.751  66.596  1.00  0.00    -0.106 OA 
HETATM   10  C   UNL     1      -8.465  10.819  67.845  1.00  0.00    -0.122 C  
HETATM   11  N   UNL     1      -8.639  10.308  69.012  1.00  0.00    -0.152 NA 
ENDROOT
BRANCH   8  12
HETATM   12  C1* UNL     1      -9.239  11.685  65.689  1.00  0.00    -0.138 C  
HETATM   13  C2* UNL     1      -9.681  10.665  64.641  1.00  0.00    -0.360 C  
HETATM   14  C3* UNL     1      -9.923  11.530  63.432  1.00  0.00    -0.417 C  
HETATM   15  O3* UNL     1      -8.672  11.760  62.776  1.00  0.00    -0.651 OA 
HETATM   16  C4* UNL     1     -10.431  12.842  64.027  1.00  0.00    -0.368 C  
HETATM   17  H3* UNL     1      -8.825  12.305  62.014  1.00  0.00     0.000 HD 
HETATM   18  O4* UNL     1     -10.003  12.875  65.409  1.00  0.00    -0.266 OA 
BRANCH  16  19
HETATM   19  C5* UNL     1     -11.956  12.967  64.009  1.00  0.00    -0.456 C  
HETATM   20  O5* UNL     1     -12.575  11.699  63.808  1.00  0.00    -0.420 OA 
HETATM   21  H5* UNL     1     -13.522  11.776  63.797  1.00  0.00     0.000 HD 
ENDBRANCH  16  19
ENDBRANCH   8  12
TORSDOF 2
ENDMDL
MODEL      133
REMARK 921   NORMALIZED FREE ENERGY PREDICTED BY IDOCK:   -3.62 KCAL/MOL
REMARK 922        TOTAL FREE ENERGY PREDICTED BY IDOCK:   -4.38 KCAL/MOL
REMARK 923 INTER-LIGAND FREE ENERGY PREDICTED BY IDOCK:   -4.84 KCAL/MOL
REMARK 924 INTRA-LIGAND FREE ENERGY PREDICTED BY IDOCK:    0.46 KCAL/MOL
REMARK 927      BINDING AFFINITY PREDICTED BY RF-SCORE:    0.00 PKD
ROOT
HETATM    1  N   UNL     1     -13.308  11.503  72.114  1.00  0.00    -0.562 NA 
HETATM    2  C   UNL     1     -12.535  11.069  71.092  1.00  0.00    -0.397 C  
HETATM    3  H2  UNL     1     -13.980  12.254  71.963  1.00  0.00     0.000 HD 
HETATM    4  H1  UNL     1     -13.217  11.076  73.036  1.00  0.00     0.000 HD 
HETATM    5  N   UNL     1     -12.650  11.608  69.930  1.00  0.00    -0.022 N  
HETATM    6  H   UNL     1     -13.320  12.360  69.769  1.00  0.00     0.000 HD 
HETATM    7  C   UNL     1     -11.858  11.153  68.916  1.00  0.00    -0.337 C  
HETATM    8  N   UNL     1     -10.751  10.410  69.252  1.00  0.00    -0.220 N  
HETATM    9  O   UNL     1     -12.146  11.382  67.745  1.00  0.00    -0.637 OA 
HETATM   10  C   UNL     1     -10.824   9.769  70.444  1.00  0.00    -0.311 C  
HETATM   11  N   UNL     1     -11.684  10.051  71.356  1.00  0.00    -0.362 NA 
ENDROOT
BRANCH   8  12
HETATM   12  C1* UNL     1      -9.870   9.946  68.195  1.00  0.00    -0.147 C  
HETATM   13  C2* UNL     1     -10.521   8.964  67.225  1.00  0.00    -0.348 C  
HETATM   14  C3* UNL     1      -9.693   9.146  65.978  1.00  0.00    -0.287 C  
HETATM   15  O3* UNL     1      -8.512   8.347  66.095  1.00  0.00    -0.117 OA 
HETATM   16  C4* UNL     1      -9.311  10.624  66.015  1.00  0.00    -0.186 C  
HETATM   17  H3* UNL     1      -7.990   8.461  65.310  1.00  0.00     0.000 HD 
HETATM   18  O4* UNL     1      -9.455  11.065  67.386  1.00  0.00    -0.159 OA 
BRANCH  16  19
HETATM   19  C5* UNL     1     -10.211  11.506  65.145  1.00  0.00    -0.274 C  
HETATM   20  O5* UNL     1     -10.695  10.789  64.013  1.00  0.00    -0.476 OA 
HETATM   21  H5* UNL     1     -11.254  11.336  63.473  1.00  0.00     0.000 HD 
ENDBRANCH  16  19
ENDBRANCH   8  12
TORSDOF 2
ENDMDL
MODEL      134
REMARK 921   NORMALIZED FREE ENERGY PREDICTED BY IDOCK:   -3.61 KCAL/MOL
REMARK 922        TOTAL FREE ENERGY PREDICTED BY IDOCK:   -4.37 KCAL/MOL
REMARK 923 INTER-LIGAND FREE ENERGY PREDICTED BY IDOCK:   -4.01 KCAL/MOL
REMARK 924 INTRA-LIGAND FREE ENERGY PREDICTED BY IDOCK:   -0.36 KCAL/MOL
REMARK 927      BINDING AFFINITY PREDICTED BY RF-SCORE:    0.00 PKD
ROOT
HETATM    1  N   UNL     1     -14.287   8.771  73.254  1.00  0.00    -1.130 NA 
HETATM    2  C   UNL     1     -13.178   8.399  72.575  1.00  0.00    -0.148 C  
HETATM    3  H2  UNL     1     -14.703   8.141  73.938  1.00  0.00     0.000 HD 
HETATM    4  H1  UNL     1     -14.706   9.685  73.079  1.00  0.00     0.000 HD 
HETATM    5  N   UNL     1     -12.650   7.247  72.796  1.00  0.00    -0.159 N  
HETATM    6  H   UNL     1     -13.059   6.609  73.479  1.00  0.00     0.000 HD 
HETATM    7  C   UNL     1     -11.532   6.894  72.098  1.00  0.00    -0.279 C  
HETATM    8  N   UNL     1     -11.232   7.612  70.964  1.00  0.00    -0.262 N  
HETATM    9  O   UNL     1     -10.809   5.983  72.491  1.00  0.00    -0.221 OA 
HETATM   10  C   UNL     1     -11.728   8.872  70.928  1.00  0.00    -0.267 C  
HETATM   11  N   UNL     1     -12.663   9.295  71.702  1.00  0.00    -0.341 NA 
ENDROOT
BRANCH   8  12
HETATM   12  C1* UNL     1     -10.069   7.232  70.181  1.00  0.00    -0.189 C  
HETATM   13  C2* UNL     1     -10.404   6.549  68.857  1.00  0.00    -0.225 C  
HETATM   14  C3* UNL     1      -9.180   6.839  68.026  1.00  0.00    -0.117 C  
HETATM   15  O3* UNL     1      -8.173   5.874  68.345  1.00  0.00    -0.108 OA 
HETATM   16  C4* UNL     1      -8.735   8.216  68.516  1.00  0.00    -0.134 C  
HETATM   17  H3* UNL     1      -7.402   6.057  67.822  1.00  0.00     0.000 HD 
HETATM   18  O4* UNL     1      -9.321   8.411  69.824  1.00  0.00    -0.156 OA 
BRANCH  16  19
HETATM   19  C5* UNL     1      -9.208   9.362  67.617  1.00  0.00    -0.127 C  
HETATM   20  O5* UNL     1      -9.491  10.532  68.380  1.00  0.00    -0.147 OA 
HETATM   21  H5* UNL     1      -9.784  11.243  67.822  1.00  0.00     0.000 HD 
ENDBRANCH  16  19
ENDBRANCH   8  12
TORSDOF 2
ENDMDL
MODEL      135
REMARK 921   NORMALIZED FREE ENERGY PREDICTED BY IDOCK:   -3.60 KCAL/MOL
REMARK 922        TOTAL FREE ENERGY PREDICTED BY IDOCK:   -4.36 KCAL/MOL
REMARK 923 INTER-LIGAND FREE ENERGY PREDICTED BY IDOCK:   -4.69 KCAL/MOL
REMARK 924 INTRA-LIGAND FREE ENERGY PREDICTED BY IDOCK:    0.33 KCAL/MOL
REMARK 927      BINDING AFFINITY PREDICTED BY RF-SCORE:    0.00 PKD
ROOT
HETATM    1  N   UNL     1     -10.582   7.332  69.520  1.00  0.00    -0.231 NA 
HETATM    2  C   UNL     1     -10.657   8.547  68.930  1.00  0.00    -0.144 C  
HETATM    3  H2  UNL     1     -10.967   7.193  70.454  1.00  0.00     0.000 HD 
HETATM    4  H1  UNL     1     -10.140   6.555  69.029  1.00  0.00     0.000 HD 
HETATM    5  N   UNL     1     -11.215   9.526  69.550  1.00  0.00    -0.422 N  
HETATM    6  H   UNL     1     -11.604   9.396  70.484  1.00  0.00     0.000 HD 
HETATM    7  C   UNL     1     -11.278  10.741  68.933  1.00  0.00    -0.268 C  
HETATM    8  N   UNL     1     -10.449  10.957  67.857  1.00  0.00    -0.184 N  
HETATM    9  O   UNL     1     -12.070  11.598  69.316  1.00  0.00    -0.311 OA 
HETATM   10  C   UNL     1     -10.054   9.841  67.198  1.00  0.00    -0.211 C  
HETATM   11  N   UNL     1     -10.151   8.653  67.680  1.00  0.00    -0.198 NA 
ENDROOT
BRANCH   8  12
HETATM   12  C1* UNL     1     -10.468  12.255  67.206  1.00  0.00    -0.218 C  
HETATM   13  C2* UNL     1     -11.862  12.733  66.806  1.00  0.00    -0.452 C  
HETATM   14  C3* UNL     1     -11.692  14.230  66.771  1.00  0.00    -0.405 C  
HETATM   15  O3* UNL     1     -11.132  14.597  65.506  1.00  0.00    -0.320 OA 
HETATM   16  C4* UNL     1     -10.670  14.499  67.875  1.00  0.00    -0.245 C  
HETATM   17  H3* UNL     1     -11.024  15.539  65.484  1.00  0.00     0.000 HD 
HETATM   18  O4* UNL     1      -9.966  13.257  68.113  1.00  0.00    -0.223 OA 
BRANCH  16  19
HETATM   19  C5* UNL     1     -11.305  14.936  69.197  1.00  0.00    -0.292 C  
HETATM   20  O5* UNL     1     -12.646  14.467  69.305  1.00  0.00    -0.566 OA 
HETATM   21  H5* UNL     1     -13.041  14.738  70.125  1.00  0.00     0.000 HD 
ENDBRANCH  16  19
ENDBRANCH   8  12
TORSDOF 2
ENDMDL
MODEL      136
REMARK 921   NORMALIZED FREE ENERGY PREDICTED BY IDOCK:   -3.58 KCAL/MOL
REMARK 922        TOTAL FREE ENERGY PREDICTED BY IDOCK:   -4.34 KCAL/MOL
REMARK 923 INTER-LIGAND FREE ENERGY PREDICTED BY IDOCK:   -4.03 KCAL/MOL
REMARK 924 INTRA-LIGAND FREE ENERGY PREDICTED BY IDOCK:   -0.30 KCAL/MOL
REMARK 927      BINDING AFFINITY PREDICTED BY RF-SCORE:    0.00 PKD
ROOT
HETATM    1  N   UNL     1      -5.621  10.903  68.131  1.00  0.00    -0.039 NA 
HETATM    2  C   UNL     1      -6.573  11.857  68.017  1.00  0.00    -0.063 C  
HETATM    3  H2  UNL     1      -4.799  11.068  68.711  1.00  0.00     0.000 HD 
HETATM    4  H1  UNL     1      -5.727  10.017  67.637  1.00  0.00     0.000 HD 
HETATM    5  N   UNL     1      -6.438  12.973  68.641  1.00  0.00    -0.080 N  
HETATM    6  H   UNL     1      -5.619  13.148  69.224  1.00  0.00     0.000 HD 
HETATM    7  C   UNL     1      -7.413  13.919  68.509  1.00  0.00    -0.122 C  
HETATM    8  N   UNL     1      -8.294  13.788  67.462  1.00  0.00    -0.180 N  
HETATM    9  O   UNL     1      -7.507  14.838  69.318  1.00  0.00    -0.154 OA 
HETATM   10  C   UNL     1      -8.456  12.527  66.996  1.00  0.00    -0.161 C  
HETATM   11  N   UNL     1      -7.650  11.559  67.254  1.00  0.00    -0.134 NA 
ENDROOT
BRANCH   8  12
HETATM   12  C1* UNL     1      -9.317  14.803  67.275  1.00  0.00    -0.206 C  
HETATM   13  C2* UNL     1      -8.995  15.820  66.182  1.00  0.00    -0.372 C  
HETATM   14  C3* UNL     1     -10.365  16.300  65.775  1.00  0.00    -0.374 C  
HETATM   15  O3* UNL     1     -10.782  17.318  66.691  1.00  0.00    -0.220 OA 
HETATM   16  C4* UNL     1     -11.244  15.064  65.957  1.00  0.00    -0.310 C  
HETATM   17  H3* UNL     1     -11.644  17.620  66.435  1.00  0.00     0.000 HD 
HETATM   18  O4* UNL     1     -10.549  14.178  66.864  1.00  0.00    -0.277 OA 
BRANCH  16  19
HETATM   19  C5* UNL     1     -11.491  14.298  64.655  1.00  0.00    -0.385 C  
HETATM   20  O5* UNL     1     -12.196  15.100  63.710  1.00  0.00    -0.954 OA 
HETATM   21  H5* UNL     1     -12.349  14.625  62.902  1.00  0.00     0.000 HD 
ENDBRANCH  16  19
ENDBRANCH   8  12
TORSDOF 2
ENDMDL
MODEL      137
REMARK 921   NORMALIZED FREE ENERGY PREDICTED BY IDOCK:   -3.58 KCAL/MOL
REMARK 922        TOTAL FREE ENERGY PREDICTED BY IDOCK:   -4.33 KCAL/MOL
REMARK 923 INTER-LIGAND FREE ENERGY PREDICTED BY IDOCK:   -4.01 KCAL/MOL
REMARK 924 INTRA-LIGAND FREE ENERGY PREDICTED BY IDOCK:   -0.32 KCAL/MOL
REMARK 927      BINDING AFFINITY PREDICTED BY RF-SCORE:    0.00 PKD
ROOT
HETATM    1  N   UNL     1      -7.148  10.236  67.430  1.00  0.00    -0.083 NA 
HETATM    2  C   UNL     1      -8.166   9.966  68.278  1.00  0.00    -0.109 C  
HETATM    3  H2  UNL     1      -7.325  10.746  66.564  1.00  0.00     0.000 HD 
HETATM    4  H1  UNL     1      -6.202   9.929  67.657  1.00  0.00     0.000 HD 
HETATM    5  N   UNL     1      -9.358  10.354  67.990  1.00  0.00    -0.138 N  
HETATM    6  H   UNL     1      -9.546  10.864  67.127  1.00  0.00     0.000 HD 
HETATM    7  C   UNL     1     -10.368  10.068  68.862  1.00  0.00    -0.202 C  
HETATM    8  N   UNL     1     -10.142   9.095  69.807  1.00  0.00    -0.191 N  
HETATM    9  O   UNL     1     -11.430  10.683  68.814  1.00  0.00    -0.266 OA 
HETATM   10  C   UNL     1      -8.842   8.892  70.129  1.00  0.00    -0.163 C  
HETATM   11  N   UNL     1      -7.856   9.311  69.420  1.00  0.00    -0.080 NA 
ENDROOT
BRANCH   8  12
HETATM   12  C1* UNL     1     -11.214   8.744  70.723  1.00  0.00    -0.266 C  
HETATM   13  C2* UNL     1     -11.729   7.315  70.563  1.00  0.00    -0.264 C  
HETATM   14  C3* UNL     1     -12.300   7.025  71.927  1.00  0.00    -0.323 C  
HETATM   15  O3* UNL     1     -13.624   7.564  71.991  1.00  0.00    -0.494 OA 
HETATM   16  C4* UNL     1     -11.389   7.808  72.870  1.00  0.00    -0.349 C  
HETATM   17  H3* UNL     1     -13.985   7.381  72.850  1.00  0.00     0.000 HD 
HETATM   18  O4* UNL     1     -10.738   8.830  72.080  1.00  0.00    -0.339 OA 
BRANCH  16  19
HETATM   19  C5* UNL     1     -10.297   6.948  73.512  1.00  0.00    -0.338 C  
HETATM   20  O5* UNL     1      -9.307   7.756  74.142  1.00  0.00    -0.406 OA 
HETATM   21  H5* UNL     1      -8.630   7.223  74.540  1.00  0.00     0.000 HD 
ENDBRANCH  16  19
ENDBRANCH   8  12
TORSDOF 2
ENDMDL
MODEL      138
REMARK 921   NORMALIZED FREE ENERGY PREDICTED BY IDOCK:   -3.57 KCAL/MOL
REMARK 922        TOTAL FREE ENERGY PREDICTED BY IDOCK:   -4.33 KCAL/MOL
REMARK 923 INTER-LIGAND FREE ENERGY PREDICTED BY IDOCK:   -4.48 KCAL/MOL
REMARK 924 INTRA-LIGAND FREE ENERGY PREDICTED BY IDOCK:    0.15 KCAL/MOL
REMARK 927      BINDING AFFINITY PREDICTED BY RF-SCORE:    0.00 PKD
ROOT
HETATM    1  N   UNL     1      -6.782  21.056  64.450  1.00  0.00    -0.521 NA 
HETATM    2  C   UNL     1      -7.016  19.972  65.224  1.00  0.00    -0.267 C  
HETATM    3  H2  UNL     1      -7.353  21.894  64.559  1.00  0.00     0.000 HD 
HETATM    4  H1  UNL     1      -6.035  21.033  63.756  1.00  0.00     0.000 HD 
HETATM    5  N   UNL     1      -7.958  20.001  66.098  1.00  0.00    -0.445 N  
HETATM    6  H   UNL     1      -8.534  20.835  66.215  1.00  0.00     0.000 HD 
HETATM    7  C   UNL     1      -8.174  18.894  66.867  1.00  0.00    -0.268 C  
HETATM    8  N   UNL     1      -7.630  17.705  66.443  1.00  0.00    -0.262 N  
HETATM    9  O   UNL     1      -8.811  18.973  67.914  1.00  0.00    -0.288 OA 
HETATM   10  C   UNL     1      -6.543  17.818  65.642  1.00  0.00    -0.102 C  
HETATM   11  N   UNL     1      -6.204  18.904  65.045  1.00  0.00    -0.377 NA 
ENDROOT
BRANCH   8  12
HETATM   12  C1* UNL     1      -7.877  16.504  67.221  1.00  0.00    -0.156 C  
HETATM   13  C2* UNL     1      -7.586  16.655  68.712  1.00  0.00    -0.227 C  
HETATM   14  C3* UNL     1      -8.470  15.597  69.322  1.00  0.00    -0.265 C  
HETATM   15  O3* UNL     1      -7.791  14.339  69.251  1.00  0.00    -0.321 OA 
HETATM   16  C4* UNL     1      -9.685  15.571  68.397  1.00  0.00    -0.203 C  
HETATM   17  H3* UNL     1      -8.348  13.673  69.635  1.00  0.00     0.000 HD 
HETATM   18  O4* UNL     1      -9.272  16.152  67.138  1.00  0.00    -0.202 OA 
BRANCH  16  19
HETATM   19  C5* UNL     1     -10.867  16.388  68.923  1.00  0.00    -0.334 C  
HETATM   20  O5* UNL     1     -11.137  17.506  68.080  1.00  0.00    -0.241 OA 
HETATM   21  H5* UNL     1     -11.871  18.013  68.406  1.00  0.00     0.000 HD 
ENDBRANCH  16  19
ENDBRANCH   8  12
TORSDOF 2
ENDMDL
MODEL      139
REMARK 921   NORMALIZED FREE ENERGY PREDICTED BY IDOCK:   -3.50 KCAL/MOL
REMARK 922        TOTAL FREE ENERGY PREDICTED BY IDOCK:   -4.25 KCAL/MOL
REMARK 923 INTER-LIGAND FREE ENERGY PREDICTED BY IDOCK:   -4.11 KCAL/MOL
REMARK 924 INTRA-LIGAND FREE ENERGY PREDICTED BY IDOCK:   -0.13 KCAL/MOL
REMARK 927      BINDING AFFINITY PREDICTED BY RF-SCORE:    0.00 PKD
ROOT
HETATM    1  N   UNL     1     -12.099  11.812  68.439  1.00  0.00    -0.480 NA 
HETATM    2  C   UNL     1     -11.543  10.790  69.129  1.00  0.00    -0.305 C  
HETATM    3  H2  UNL     1     -11.774  12.029  67.498  1.00  0.00     0.000 HD 
HETATM    4  H1  UNL     1     -12.843  12.365  68.863  1.00  0.00     0.000 HD 
HETATM    5  N   UNL     1     -10.604  10.093  68.594  1.00  0.00    -0.200 N  
HETATM    6  H   UNL     1     -10.273  10.302  67.652  1.00  0.00     0.000 HD 
HETATM    7  C   UNL     1     -10.060   9.067  69.311  1.00  0.00    -0.195 C  
HETATM    8  N   UNL     1     -10.278   9.048  70.668  1.00  0.00    -0.211 N  
HETATM    9  O   UNL     1      -9.420   8.181  68.750  1.00  0.00    -0.147 OA 
HETATM   10  C   UNL     1     -11.391   9.698  71.084  1.00  0.00    -0.386 C  
HETATM   11  N   UNL     1     -12.040  10.540  70.362  1.00  0.00    -0.304 NA 
ENDROOT
BRANCH   8  12
HETATM   12  C1* UNL     1      -9.677   7.989  71.460  1.00  0.00    -0.167 C  
HETATM   13  C2* UNL     1      -9.810   8.186  72.969  1.00  0.00    -0.319 C  
HETATM   14  C3* UNL     1      -9.714   6.773  73.487  1.00  0.00    -0.203 C  
HETATM   15  O3* UNL     1      -8.332   6.418  73.590  1.00  0.00    -0.118 OA 
HETATM   16  C4* UNL     1     -10.370   5.943  72.385  1.00  0.00    -0.197 C  
HETATM   17  H3* UNL     1      -8.271   5.529  73.916  1.00  0.00     0.000 HD 
HETATM   18  O4* UNL     1     -10.337   6.740  71.177  1.00  0.00    -0.204 OA 
BRANCH  16  19
HETATM   19  C5* UNL     1     -11.832   5.596  72.675  1.00  0.00    -0.131 C  
HETATM   20  O5* UNL     1     -12.704   6.642  72.253  1.00  0.00    -0.547 OA 
HETATM   21  H5* UNL     1     -13.612   6.426  72.433  1.00  0.00     0.000 HD 
ENDBRANCH  16  19
ENDBRANCH   8  12
TORSDOF 2
ENDMDL
MODEL      140
REMARK 921   NORMALIZED FREE ENERGY PREDICTED BY IDOCK:   -3.45 KCAL/MOL
REMARK 922        TOTAL FREE ENERGY PREDICTED BY IDOCK:   -4.19 KCAL/MOL
REMARK 923 INTER-LIGAND FREE ENERGY PREDICTED BY IDOCK:   -3.93 KCAL/MOL
REMARK 924 INTRA-LIGAND FREE ENERGY PREDICTED BY IDOCK:   -0.25 KCAL/MOL
REMARK 927      BINDING AFFINITY PREDICTED BY RF-SCORE:    0.00 PKD
ROOT
HETATM    1  N   UNL     1      -7.347   8.750  67.599  1.00  0.00    -0.084 NA 
HETATM    2  C   UNL     1      -8.516   8.717  68.277  1.00  0.00    -0.131 C  
HETATM    3  H2  UNL     1      -6.737   7.932  67.591  1.00  0.00     0.000 HD 
HETATM    4  H1  UNL     1      -7.075   9.594  67.095  1.00  0.00     0.000 HD 
HETATM    5  N   UNL     1      -8.858   7.652  68.913  1.00  0.00    -0.135 N  
HETATM    6  H   UNL     1      -8.255   6.829  68.910  1.00  0.00     0.000 HD 
HETATM    7  C   UNL     1     -10.042   7.645  69.589  1.00  0.00    -0.194 C  
HETATM    8  N   UNL     1     -10.635   8.856  69.857  1.00  0.00    -0.218 N  
HETATM    9  O   UNL     1     -10.568   6.585  69.921  1.00  0.00    -0.201 OA 
HETATM   10  C   UNL     1     -10.301   9.863  69.014  1.00  0.00    -0.209 C  
HETATM   11  N   UNL     1      -9.288   9.827  68.223  1.00  0.00    -0.129 NA 
ENDROOT
BRANCH   8  12
HETATM   12  C1* UNL     1     -11.876   8.879  70.610  1.00  0.00    -0.128 C  
HETATM   13  C2* UNL     1     -11.687   8.936  72.125  1.00  0.00    -0.411 C  
HETATM   14  C3* UNL     1     -12.976   9.565  72.587  1.00  0.00    -0.070 C  
HETATM   15  O3* UNL     1     -13.973   8.543  72.685  1.00  0.00    -0.635 OA 
HETATM   16  C4* UNL     1     -13.337  10.518  71.448  1.00  0.00    -0.246 C  
HETATM   17  H3* UNL     1     -14.785   8.939  72.976  1.00  0.00     0.000 HD 
HETATM   18  O4* UNL     1     -12.624  10.064  70.274  1.00  0.00    -0.144 OA 
BRANCH  16  19
HETATM   19  C5* UNL     1     -12.923  11.967  71.714  1.00  0.00    -0.350 C  
HETATM   20  O5* UNL     1     -13.731  12.556  72.730  1.00  0.00    -0.652 OA 
HETATM   21  H5* UNL     1     -13.473  13.456  72.895  1.00  0.00     0.000 HD 
ENDBRANCH  16  19
ENDBRANCH   8  12
TORSDOF 2
ENDMDL
MODEL      141
REMARK 921   NORMALIZED FREE ENERGY PREDICTED BY IDOCK:   -3.43 KCAL/MOL
REMARK 922        TOTAL FREE ENERGY PREDICTED BY IDOCK:   -4.17 KCAL/MOL
REMARK 923 INTER-LIGAND FREE ENERGY PREDICTED BY IDOCK:   -4.08 KCAL/MOL
REMARK 924 INTRA-LIGAND FREE ENERGY PREDICTED BY IDOCK:   -0.09 KCAL/MOL
REMARK 927      BINDING AFFINITY PREDICTED BY RF-SCORE:    0.00 PKD
ROOT
HETATM    1  N   UNL     1      -8.658   7.059  64.817  1.00  0.00    -0.346 NA 
HETATM    2  C   UNL     1      -8.973   7.973  65.763  1.00  0.00    -0.102 C  
HETATM    3  H2  UNL     1      -8.633   7.329  63.834  1.00  0.00     0.000 HD 
HETATM    4  H1  UNL     1      -8.444   6.100  65.089  1.00  0.00     0.000 HD 
HETATM    5  N   UNL     1      -9.242   9.183  65.419  1.00  0.00    -0.315 N  
HETATM    6  H   UNL     1      -9.220   9.462  64.438  1.00  0.00     0.000 HD 
HETATM    7  C   UNL     1      -9.558  10.086  66.392  1.00  0.00    -0.196 C  
HETATM    8  N   UNL     1      -9.917   9.598  67.626  1.00  0.00    -0.164 N  
HETATM    9  O   UNL     1      -9.495  11.292  66.172  1.00  0.00    -0.195 OA 
HETATM   10  C   UNL     1      -9.438   8.366  67.924  1.00  0.00    -0.146 C  
HETATM   11  N   UNL     1      -8.960   7.554  67.049  1.00  0.00    -0.126 NA 
ENDROOT
BRANCH   8  12
HETATM   12  C1* UNL     1     -10.296  10.536  68.668  1.00  0.00    -0.185 C  
HETATM   13  C2* UNL     1     -11.646  11.212  68.439  1.00  0.00    -0.376 C  
HETATM   14  C3* UNL     1     -12.063  11.580  69.840  1.00  0.00    -0.316 C  
HETATM   15  O3* UNL     1     -11.431  12.815  70.195  1.00  0.00    -0.519 OA 
HETATM   16  C4* UNL     1     -11.485  10.452  70.693  1.00  0.00    -0.349 C  
HETATM   17  H3* UNL     1     -11.694  13.047  71.077  1.00  0.00     0.000 HD 
HETATM   18  O4* UNL     1     -10.426   9.838  69.923  1.00  0.00    -0.224 OA 
BRANCH  16  19
HETATM   19  C5* UNL     1     -12.506   9.364  71.032  1.00  0.00    -0.239 C  
HETATM   20  O5* UNL     1     -11.862   8.130  71.339  1.00  0.00    -0.283 OA 
HETATM   21  H5* UNL     1     -12.496   7.454  71.550  1.00  0.00     0.000 HD 
ENDBRANCH  16  19
ENDBRANCH   8  12
TORSDOF 2
ENDMDL
MODEL      142
REMARK 921   NORMALIZED FREE ENERGY PREDICTED BY IDOCK:   -3.42 KCAL/MOL
REMARK 922        TOTAL FREE ENERGY PREDICTED BY IDOCK:   -4.15 KCAL/MOL
REMARK 923 INTER-LIGAND FREE ENERGY PREDICTED BY IDOCK:   -3.86 KCAL/MOL
REMARK 924 INTRA-LIGAND FREE ENERGY PREDICTED BY IDOCK:   -0.29 KCAL/MOL
REMARK 927      BINDING AFFINITY PREDICTED BY RF-SCORE:    0.00 PKD
ROOT
HETATM    1  N   UNL     1     -10.209   3.837  65.306  1.00  0.00    -0.419 NA 
HETATM    2  C   UNL     1      -9.981   4.927  66.073  1.00  0.00    -0.223 C  
HETATM    3  H2  UNL     1      -9.848   3.798  64.353  1.00  0.00     0.000 HD 
HETATM    4  H1  UNL     1     -10.743   3.054  65.682  1.00  0.00     0.000 HD 
HETATM    5  N   UNL     1      -9.308   5.915  65.598  1.00  0.00    -0.363 N  
HETATM    6  H   UNL     1      -8.942   5.885  64.646  1.00  0.00     0.000 HD 
HETATM    7  C   UNL     1      -9.092   7.003  66.393  1.00  0.00    -0.160 C  
HETATM    8  N   UNL     1      -9.884   7.149  67.507  1.00  0.00    -0.143 N  
HETATM    9  O   UNL     1      -8.202   7.805  66.128  1.00  0.00    -0.110 OA 
HETATM   10  C   UNL     1     -10.412   6.001  67.997  1.00  0.00    -0.233 C  
HETATM   11  N   UNL     1     -10.466   4.900  67.336  1.00  0.00    -0.072 NA 
ENDROOT
BRANCH   8  12
HETATM   12  C1* UNL     1      -9.702   8.318  68.349  1.00  0.00    -0.158 C  
HETATM   13  C2* UNL     1     -10.659   9.467  68.038  1.00  0.00    -0.278 C  
HETATM   14  C3* UNL     1     -10.707  10.210  69.349  1.00  0.00    -0.238 C  
HETATM   15  O3* UNL     1      -9.577  11.085  69.418  1.00  0.00    -0.417 OA 
HETATM   16  C4* UNL     1     -10.557   9.104  70.392  1.00  0.00    -0.230 C  
HETATM   17  H3* UNL     1      -9.607  11.553  70.244  1.00  0.00     0.000 HD 
HETATM   18  O4* UNL     1      -9.957   7.969  69.724  1.00  0.00    -0.185 OA 
BRANCH  16  19
HETATM   19  C5* UNL     1     -11.891   8.644  70.985  1.00  0.00    -0.265 C  
HETATM   20  O5* UNL     1     -12.518   9.693  71.718  1.00  0.00    -0.365 OA 
HETATM   21  H5* UNL     1     -13.346   9.408  72.087  1.00  0.00     0.000 HD 
ENDBRANCH  16  19
ENDBRANCH   8  12
TORSDOF 2
ENDMDL
MODEL      143
REMARK 921   NORMALIZED FREE ENERGY PREDICTED BY IDOCK:   -3.41 KCAL/MOL
REMARK 922        TOTAL FREE ENERGY PREDICTED BY IDOCK:   -4.15 KCAL/MOL
REMARK 923 INTER-LIGAND FREE ENERGY PREDICTED BY IDOCK:   -3.80 KCAL/MOL
REMARK 924 INTRA-LIGAND FREE ENERGY PREDICTED BY IDOCK:   -0.35 KCAL/MOL
REMARK 927      BINDING AFFINITY PREDICTED BY RF-SCORE:    0.00 PKD
ROOT
HETATM    1  N   UNL     1     -13.380   8.281  71.745  1.00  0.00    -0.345 NA 
HETATM    2  C   UNL     1     -12.991   9.543  71.456  1.00  0.00    -0.386 C  
HETATM    3  H2  UNL     1     -13.315   7.551  71.035  1.00  0.00     0.000 HD 
HETATM    4  H1  UNL     1     -13.739   8.060  72.673  1.00  0.00     0.000 HD 
HETATM    5  N   UNL     1     -12.538   9.821  70.285  1.00  0.00    -0.490 N  
HETATM    6  H   UNL     1     -12.468   9.098  69.568  1.00  0.00     0.000 HD 
HETATM    7  C   UNL     1     -12.152  11.103  70.019  1.00  0.00    -0.359 C  
HETATM    8  N   UNL     1     -12.586  12.092  70.870  1.00  0.00    -0.311 N  
HETATM    9  O   UNL     1     -11.420  11.351  69.064  1.00  0.00    -0.243 OA 
HETATM   10  C   UNL     1     -12.888  11.684  72.125  1.00  0.00     0.033 C  
HETATM   11  N   UNL     1     -13.079  10.455  72.452  1.00  0.00    -0.176 NA 
ENDROOT
BRANCH   8  12
HETATM   12  C1* UNL     1     -12.222  13.469  70.587  1.00  0.00    -0.358 C  
HETATM   13  C2* UNL     1     -13.384  14.336  70.105  1.00  0.00     0.545 C  
HETATM   14  C3* UNL     1     -12.934  15.721  70.492  1.00  0.00    -0.039 C  
HETATM   15  O3* UNL     1     -12.057  16.217  69.475  1.00  0.00    -0.222 OA 
HETATM   16  C4* UNL     1     -12.141  15.494  71.778  1.00  0.00    -0.402 C  
HETATM   17  H3* UNL     1     -11.774  17.090  69.718  1.00  0.00     0.000 HD 
HETATM   18  O4* UNL     1     -11.749  14.101  71.793  1.00  0.00     0.042 OA 
BRANCH  16  19
HETATM   19  C5* UNL     1     -12.952  15.764  73.047  1.00  0.00    -0.525 C  
HETATM   20  O5* UNL     1     -12.466  14.994  74.144  1.00  0.00    -0.562 OA 
HETATM   21  H5* UNL     1     -12.969  15.162  74.932  1.00  0.00     0.000 HD 
ENDBRANCH  16  19
ENDBRANCH   8  12
TORSDOF 2
ENDMDL
MODEL      144
REMARK 921   NORMALIZED FREE ENERGY PREDICTED BY IDOCK:   -3.41 KCAL/MOL
REMARK 922        TOTAL FREE ENERGY PREDICTED BY IDOCK:   -4.14 KCAL/MOL
REMARK 923 INTER-LIGAND FREE ENERGY PREDICTED BY IDOCK:   -4.53 KCAL/MOL
REMARK 924 INTRA-LIGAND FREE ENERGY PREDICTED BY IDOCK:    0.39 KCAL/MOL
REMARK 927      BINDING AFFINITY PREDICTED BY RF-SCORE:    0.00 PKD
ROOT
HETATM    1  N   UNL     1     -10.557   5.740  67.905  1.00  0.00    -0.239 NA 
HETATM    2  C   UNL     1     -10.550   7.087  68.031  1.00  0.00    -0.207 C  
HETATM    3  H2  UNL     1     -10.584   5.314  66.979  1.00  0.00     0.000 HD 
HETATM    4  H1  UNL     1     -10.535   5.152  68.737  1.00  0.00     0.000 HD 
HETATM    5  N   UNL     1     -10.577   7.828  66.981  1.00  0.00    -0.377 N  
HETATM    6  H   UNL     1     -10.603   7.412  66.050  1.00  0.00     0.000 HD 
HETATM    7  C   UNL     1     -10.570   9.184  67.136  1.00  0.00    -0.216 C  
HETATM    8  N   UNL     1     -10.888   9.689  68.374  1.00  0.00    -0.200 N  
HETATM    9  O   UNL     1     -10.262   9.920  66.202  1.00  0.00    -0.250 OA 
HETATM   10  C   UNL     1     -10.668   8.850  69.415  1.00  0.00    -0.181 C  
HETATM   11  N   UNL     1     -10.486   7.584  69.288  1.00  0.00    -0.213 NA 
ENDROOT
BRANCH   8  12
HETATM   12  C1* UNL     1     -10.926  11.129  68.556  1.00  0.00    -0.220 C  
HETATM   13  C2* UNL     1      -9.754  11.871  67.916  1.00  0.00    -0.192 C  
HETATM   14  C3* UNL     1     -10.327  13.247  67.693  1.00  0.00    -0.230 C  
HETATM   15  O3* UNL     1     -10.217  13.990  68.910  1.00  0.00    -0.307 OA 
HETATM   16  C4* UNL     1     -11.801  12.976  67.396  1.00  0.00    -0.357 C  
HETATM   17  H3* UNL     1     -10.578  14.857  68.770  1.00  0.00     0.000 HD 
HETATM   18  O4* UNL     1     -12.107  11.665  67.926  1.00  0.00    -0.613 OA 
BRANCH  16  19
HETATM   19  C5* UNL     1     -12.126  12.961  65.900  1.00  0.00    -0.444 C  
HETATM   20  O5* UNL     1     -10.967  12.672  65.123  1.00  0.00    -0.279 OA 
HETATM   21  H5* UNL     1     -11.168  12.662  64.195  1.00  0.00     0.000 HD 
ENDBRANCH  16  19
ENDBRANCH   8  12
TORSDOF 2
ENDMDL
MODEL      145
REMARK 921   NORMALIZED FREE ENERGY PREDICTED BY IDOCK:   -3.40 KCAL/MOL
REMARK 922        TOTAL FREE ENERGY PREDICTED BY IDOCK:   -4.14 KCAL/MOL
REMARK 923 INTER-LIGAND FREE ENERGY PREDICTED BY IDOCK:   -4.33 KCAL/MOL
REMARK 924 INTRA-LIGAND FREE ENERGY PREDICTED BY IDOCK:    0.19 KCAL/MOL
REMARK 927      BINDING AFFINITY PREDICTED BY RF-SCORE:    0.00 PKD
ROOT
HETATM    1  N   UNL     1      -7.486   8.192  65.598  1.00  0.00    -0.079 NA 
HETATM    2  C   UNL     1      -8.340   9.237  65.505  1.00  0.00    -0.133 C  
HETATM    3  H2  UNL     1      -7.238   7.815  66.512  1.00  0.00     0.000 HD 
HETATM    4  H1  UNL     1      -7.090   7.783  64.752  1.00  0.00     0.000 HD 
HETATM    5  N   UNL     1      -8.839   9.752  66.572  1.00  0.00    -0.137 N  
HETATM    6  H   UNL     1      -8.597   9.381  67.491  1.00  0.00     0.000 HD 
HETATM    7  C   UNL     1      -9.698  10.806  66.451  1.00  0.00    -0.199 C  
HETATM    8  N   UNL     1      -9.715  11.484  65.255  1.00  0.00    -0.236 N  
HETATM    9  O   UNL     1     -10.446  11.113  67.375  1.00  0.00    -0.201 OA 
HETATM   10  C   UNL     1      -9.303  10.771  64.179  1.00  0.00    -0.252 C  
HETATM   11  N   UNL     1      -8.646   9.669  64.260  1.00  0.00    -0.177 NA 
ENDROOT
BRANCH   8  12
HETATM   12  C1* UNL     1     -10.591  12.633  65.113  1.00  0.00    -0.298 C  
HETATM   13  C2* UNL     1     -11.984  12.433  65.706  1.00  0.00    -0.437 C  
HETATM   14  C3* UNL     1     -12.417  13.848  65.997  1.00  0.00    -0.461 C  
HETATM   15  O3* UNL     1     -12.940  14.421  64.794  1.00  0.00    -0.616 OA 
HETATM   16  C4* UNL     1     -11.112  14.551  66.368  1.00  0.00    -0.331 C  
HETATM   17  H3* UNL     1     -13.212  15.312  64.977  1.00  0.00     0.000 HD 
HETATM   18  O4* UNL     1     -10.033  13.758  65.821  1.00  0.00    -0.298 OA 
BRANCH  16  19
HETATM   19  C5* UNL     1     -10.891  14.662  67.878  1.00  0.00    -0.259 C  
HETATM   20  O5* UNL     1      -9.740  13.927  68.286  1.00  0.00    -0.213 OA 
HETATM   21  H5* UNL     1      -9.602  13.997  69.223  1.00  0.00     0.000 HD 
ENDBRANCH  16  19
ENDBRANCH   8  12
TORSDOF 2
ENDMDL
MODEL      146
REMARK 921   NORMALIZED FREE ENERGY PREDICTED BY IDOCK:   -3.40 KCAL/MOL
REMARK 922        TOTAL FREE ENERGY PREDICTED BY IDOCK:   -4.13 KCAL/MOL
REMARK 923 INTER-LIGAND FREE ENERGY PREDICTED BY IDOCK:   -4.26 KCAL/MOL
REMARK 924 INTRA-LIGAND FREE ENERGY PREDICTED BY IDOCK:    0.13 KCAL/MOL
REMARK 927      BINDING AFFINITY PREDICTED BY RF-SCORE:    0.00 PKD
ROOT
HETATM    1  N   UNL     1     -10.930   3.192  64.104  1.00  0.00    -0.582 NA 
HETATM    2  C   UNL     1     -10.401   4.024  65.029  1.00  0.00    -0.160 C  
HETATM    3  H2  UNL     1     -11.939   3.163  63.960  1.00  0.00     0.000 HD 
HETATM    4  H1  UNL     1     -10.318   2.592  63.551  1.00  0.00     0.000 HD 
HETATM    5  N   UNL     1     -11.173   4.781  65.726  1.00  0.00    -0.851 N  
HETATM    6  H   UNL     1     -12.184   4.760  65.588  1.00  0.00     0.000 HD 
HETATM    7  C   UNL     1     -10.614   5.611  66.653  1.00  0.00    -0.295 C  
HETATM    8  N   UNL     1      -9.322   5.355  67.046  1.00  0.00    -0.118 N  
HETATM    9  O   UNL     1     -11.243   6.569  67.096  1.00  0.00    -0.388 OA 
HETATM   10  C   UNL     1      -8.568   4.677  66.148  1.00  0.00    -0.114 C  
HETATM   11  N   UNL     1      -9.053   4.030  65.149  1.00  0.00    -0.131 NA 
ENDROOT
BRANCH   8  12
HETATM   12  C1* UNL     1      -8.717   6.200  68.060  1.00  0.00    -0.113 C  
HETATM   13  C2* UNL     1      -8.738   7.690  67.725  1.00  0.00    -0.127 C  
HETATM   14  C3* UNL     1      -8.670   8.328  69.089  1.00  0.00    -0.143 C  
HETATM   15  O3* UNL     1      -7.301   8.374  69.504  1.00  0.00    -0.069 OA 
HETATM   16  C4* UNL     1      -9.437   7.351  69.979  1.00  0.00    -0.161 C  
HETATM   17  H3* UNL     1      -7.258   8.775  70.363  1.00  0.00     0.000 HD 
HETATM   18  O4* UNL     1      -9.451   6.076  69.294  1.00  0.00    -0.131 OA 
BRANCH  16  19
HETATM   19  C5* UNL     1     -10.889   7.764  70.224  1.00  0.00    -0.249 C  
HETATM   20  O5* UNL     1     -11.786   6.695  69.935  1.00  0.00    -0.625 OA 
HETATM   21  H5* UNL     1     -12.688   6.952  70.087  1.00  0.00     0.000 HD 
ENDBRANCH  16  19
ENDBRANCH   8  12
TORSDOF 2
ENDMDL
MODEL      147
REMARK 921   NORMALIZED FREE ENERGY PREDICTED BY IDOCK:   -3.39 KCAL/MOL
REMARK 922        TOTAL FREE ENERGY PREDICTED BY IDOCK:   -4.12 KCAL/MOL
REMARK 923 INTER-LIGAND FREE ENERGY PREDICTED BY IDOCK:   -3.85 KCAL/MOL
REMARK 924 INTRA-LIGAND FREE ENERGY PREDICTED BY IDOCK:   -0.27 KCAL/MOL
REMARK 927      BINDING AFFINITY PREDICTED BY RF-SCORE:    0.00 PKD
ROOT
HETATM    1  N   UNL     1     -13.505  10.176  70.996  1.00  0.00    -0.368 NA 
HETATM    2  C   UNL     1     -12.393   9.498  71.361  1.00  0.00    -0.364 C  
HETATM    3  H2  UNL     1     -13.430  10.996  70.394  1.00  0.00     0.000 HD 
HETATM    4  H1  UNL     1     -14.420   9.866  71.325  1.00  0.00     0.000 HD 
HETATM    5  N   UNL     1     -11.240   9.890  70.946  1.00  0.00    -0.340 N  
HETATM    6  H   UNL     1     -11.155  10.708  70.343  1.00  0.00     0.000 HD 
HETATM    7  C   UNL     1     -10.134   9.188  71.328  1.00  0.00    -0.318 C  
HETATM    8  N   UNL     1     -10.255   8.335  72.399  1.00  0.00    -0.306 N  
HETATM    9  O   UNL     1      -9.077   9.303  70.714  1.00  0.00    -0.236 OA 
HETATM   10  C   UNL     1     -11.508   7.876  72.635  1.00  0.00    -0.395 C  
HETATM   11  N   UNL     1     -12.569   8.405  72.138  1.00  0.00    -0.353 NA 
ENDROOT
BRANCH   8  12
HETATM   12  C1* UNL     1      -9.083   7.606  72.852  1.00  0.00    -0.178 C  
HETATM   13  C2* UNL     1      -9.230   6.987  74.240  1.00  0.00    -0.260 C  
HETATM   14  C3* UNL     1      -8.244   5.848  74.190  1.00  0.00    -0.103 C  
HETATM   15  O3* UNL     1      -6.941   6.360  74.485  1.00  0.00    -0.088 OA 
HETATM   16  C4* UNL     1      -8.293   5.396  72.732  1.00  0.00    -0.113 C  
HETATM   17  H3* UNL     1      -6.320   5.643  74.454  1.00  0.00     0.000 HD 
HETATM   18  O4* UNL     1      -8.830   6.499  71.964  1.00  0.00    -0.133 OA 
BRANCH  16  19
HETATM   19  C5* UNL     1      -9.198   4.184  72.502  1.00  0.00    -0.115 C  
HETATM   20  O5* UNL     1     -10.470   4.578  71.994  1.00  0.00    -0.178 OA 
HETATM   21  H5* UNL     1     -11.032   3.826  71.851  1.00  0.00     0.000 HD 
ENDBRANCH  16  19
ENDBRANCH   8  12
TORSDOF 2
ENDMDL
MODEL      148
REMARK 921   NORMALIZED FREE ENERGY PREDICTED BY IDOCK:   -3.37 KCAL/MOL
REMARK 922        TOTAL FREE ENERGY PREDICTED BY IDOCK:   -4.10 KCAL/MOL
REMARK 923 INTER-LIGAND FREE ENERGY PREDICTED BY IDOCK:   -4.69 KCAL/MOL
REMARK 924 INTRA-LIGAND FREE ENERGY PREDICTED BY IDOCK:    0.59 KCAL/MOL
REMARK 927      BINDING AFFINITY PREDICTED BY RF-SCORE:    0.00 PKD
ROOT
HETATM    1  N   UNL     1      -5.549  21.080  63.715  1.00  0.00    -0.242 NA 
HETATM    2  C   UNL     1      -6.166  20.277  64.612  1.00  0.00    -0.293 C  
HETATM    3  H2  UNL     1      -5.891  22.028  63.558  1.00  0.00     0.000 HD 
HETATM    4  H1  UNL     1      -4.741  20.736  63.198  1.00  0.00     0.000 HD 
HETATM    5  N   UNL     1      -7.186  20.711  65.264  1.00  0.00    -0.524 N  
HETATM    6  H   UNL     1      -7.535  21.658  65.114  1.00  0.00     0.000 HD 
HETATM    7  C   UNL     1      -7.791  19.881  66.162  1.00  0.00    -0.326 C  
HETATM    8  N   UNL     1      -7.520  18.536  66.074  1.00  0.00    -0.249 N  
HETATM    9  O   UNL     1      -8.531  20.332  67.033  1.00  0.00    -0.326 OA 
HETATM   10  C   UNL     1      -6.336  18.221  65.496  1.00  0.00    -0.249 C  
HETATM   11  N   UNL     1      -5.643  19.042  64.790  1.00  0.00    -0.222 NA 
ENDROOT
BRANCH   8  12
HETATM   12  C1* UNL     1      -8.181  17.625  66.993  1.00  0.00    -0.220 C  
HETATM   13  C2* UNL     1      -9.627  18.000  67.311  1.00  0.00    -0.269 C  
HETATM   14  C3* UNL     1     -10.225  16.673  67.702  1.00  0.00    -0.285 C  
HETATM   15  O3* UNL     1      -9.918  16.423  69.078  1.00  0.00    -0.242 OA 
HETATM   16  C4* UNL     1      -9.475  15.671  66.826  1.00  0.00    -0.242 C  
HETATM   17  H3* UNL     1     -10.295  15.587  69.325  1.00  0.00     0.000 HD 
HETATM   18  O4* UNL     1      -8.247  16.310  66.406  1.00  0.00    -0.285 OA 
BRANCH  16  19
HETATM   19  C5* UNL     1     -10.246  15.270  65.567  1.00  0.00    -0.388 C  
HETATM   20  O5* UNL     1     -11.584  14.892  65.880  1.00  0.00    -0.324 OA 
HETATM   21  H5* UNL     1     -12.063  14.643  65.098  1.00  0.00     0.000 HD 
ENDBRANCH  16  19
ENDBRANCH   8  12
TORSDOF 2
ENDMDL
MODEL      149
REMARK 921   NORMALIZED FREE ENERGY PREDICTED BY IDOCK:   -3.36 KCAL/MOL
REMARK 922        TOTAL FREE ENERGY PREDICTED BY IDOCK:   -4.08 KCAL/MOL
REMARK 923 INTER-LIGAND FREE ENERGY PREDICTED BY IDOCK:   -4.23 KCAL/MOL
REMARK 924 INTRA-LIGAND FREE ENERGY PREDICTED BY IDOCK:    0.14 KCAL/MOL
REMARK 927      BINDING AFFINITY PREDICTED BY RF-SCORE:    0.00 PKD
ROOT
HETATM    1  N   UNL     1     -13.873  14.743  70.851  1.00  0.00    -0.559 NA 
HETATM    2  C   UNL     1     -12.698  14.983  70.227  1.00  0.00    -0.275 C  
HETATM    3  H2  UNL     1     -14.571  15.483  70.928  1.00  0.00     0.000 HD 
HETATM    4  H1  UNL     1     -14.060  13.821  71.245  1.00  0.00     0.000 HD 
HETATM    5  N   UNL     1     -12.463  16.146  69.730  1.00  0.00    -0.461 N  
HETATM    6  H   UNL     1     -13.155  16.892  69.801  1.00  0.00     0.000 HD 
HETATM    7  C   UNL     1     -11.269  16.362  69.105  1.00  0.00    -0.275 C  
HETATM    8  N   UNL     1     -10.252  15.468  69.340  1.00  0.00    -0.244 N  
HETATM    9  O   UNL     1     -11.126  17.312  68.340  1.00  0.00    -0.254 OA 
HETATM   10  C   UNL     1     -10.647  14.227  69.715  1.00  0.00     0.151 C  
HETATM   11  N   UNL     1     -11.829  13.950  70.137  1.00  0.00    -0.301 NA 
ENDROOT
BRANCH   8  12
HETATM   12  C1* UNL     1      -8.959  15.697  68.719  1.00  0.00    -0.205 C  
HETATM   13  C2* UNL     1      -9.009  15.809  67.197  1.00  0.00    -0.233 C  
HETATM   14  C3* UNL     1      -7.781  16.628  66.894  1.00  0.00    -0.228 C  
HETATM   15  O3* UNL     1      -6.648  15.755  66.857  1.00  0.00    -0.276 OA 
HETATM   16  C4* UNL     1      -7.665  17.558  68.101  1.00  0.00    -0.231 C  
HETATM   17  H3* UNL     1      -5.874  16.271  66.667  1.00  0.00     0.000 HD 
HETATM   18  O4* UNL     1      -8.418  16.951  69.177  1.00  0.00    -0.190 OA 
BRANCH  16  19
HETATM   19  C5* UNL     1      -8.249  18.951  67.852  1.00  0.00    -0.277 C  
HETATM   20  O5* UNL     1      -9.057  19.375  68.946  1.00  0.00    -0.370 OA 
HETATM   21  H5* UNL     1      -9.419  20.240  68.792  1.00  0.00     0.000 HD 
ENDBRANCH  16  19
ENDBRANCH   8  12
TORSDOF 2
ENDMDL
MODEL      150
REMARK 921   NORMALIZED FREE ENERGY PREDICTED BY IDOCK:   -3.34 KCAL/MOL
REMARK 922        TOTAL FREE ENERGY PREDICTED BY IDOCK:   -4.07 KCAL/MOL
REMARK 923 INTER-LIGAND FREE ENERGY PREDICTED BY IDOCK:   -4.11 KCAL/MOL
REMARK 924 INTRA-LIGAND FREE ENERGY PREDICTED BY IDOCK:    0.05 KCAL/MOL
REMARK 927      BINDING AFFINITY PREDICTED BY RF-SCORE:    0.00 PKD
ROOT
HETATM    1  N   UNL     1      -7.981   8.952  65.478  1.00  0.00    -0.103 NA 
HETATM    2  C   UNL     1      -8.758   9.988  65.871  1.00  0.00    -0.140 C  
HETATM    3  H2  UNL     1      -8.241   8.400  64.661  1.00  0.00     0.000 HD 
HETATM    4  H1  UNL     1      -7.136   8.724  66.001  1.00  0.00     0.000 HD 
HETATM    5  N   UNL     1      -9.824  10.274  65.211  1.00  0.00    -0.286 N  
HETATM    6  H   UNL     1     -10.092   9.728  64.392  1.00  0.00     0.000 HD 
HETATM    7  C   UNL     1     -10.590  11.323  65.629  1.00  0.00    -0.244 C  
HETATM    8  N   UNL     1     -10.393  11.792  66.906  1.00  0.00    -0.212 N  
HETATM    9  O   UNL     1     -11.406  11.842  64.872  1.00  0.00    -0.316 OA 
HETATM   10  C   UNL     1      -9.167  11.551  67.429  1.00  0.00    -0.166 C  
HETATM   11  N   UNL     1      -8.339  10.694  66.947  1.00  0.00    -0.123 NA 
ENDROOT
BRANCH   8  12
HETATM   12  C1* UNL     1     -11.223  12.882  67.389  1.00  0.00    -0.291 C  
HETATM   13  C2* UNL     1     -10.812  13.419  68.758  1.00  0.00    -0.275 C  
HETATM   14  C3* UNL     1     -11.347  14.828  68.725  1.00  0.00    -0.282 C  
HETATM   15  O3* UNL     1     -12.733  14.799  69.079  1.00  0.00    -0.458 OA 
HETATM   16  C4* UNL     1     -11.208  15.228  67.257  1.00  0.00    -0.306 C  
HETATM   17  H3* UNL     1     -13.070  15.686  69.058  1.00  0.00     0.000 HD 
HETATM   18  O4* UNL     1     -11.117  14.004  66.491  1.00  0.00    -0.306 OA 
BRANCH  16  19
HETATM   19  C5* UNL     1      -9.952  16.053  66.969  1.00  0.00    -0.257 C  
HETATM   20  O5* UNL     1      -9.117  15.405  66.013  1.00  0.00    -0.351 OA 
HETATM   21  H5* UNL     1      -8.337  15.918  65.834  1.00  0.00     0.000 HD 
ENDBRANCH  16  19
ENDBRANCH   8  12
TORSDOF 2
ENDMDL
MODEL      151
REMARK 921   NORMALIZED FREE ENERGY PREDICTED BY IDOCK:   -3.28 KCAL/MOL
REMARK 922        TOTAL FREE ENERGY PREDICTED BY IDOCK:   -4.00 KCAL/MOL
REMARK 923 INTER-LIGAND FREE ENERGY PREDICTED BY IDOCK:   -3.73 KCAL/MOL
REMARK 924 INTRA-LIGAND FREE ENERGY PREDICTED BY IDOCK:   -0.27 KCAL/MOL
REMARK 927      BINDING AFFINITY PREDICTED BY RF-SCORE:    0.00 PKD
ROOT
HETATM    1  N   UNL     1     -12.089  12.889  69.506  1.00  0.00    -0.258 NA 
HETATM    2  C   UNL     1     -11.457  11.898  68.837  1.00  0.00    -0.301 C  
HETATM    3  H2  UNL     1     -12.371  13.738  69.016  1.00  0.00     0.000 HD 
HETATM    4  H1  UNL     1     -12.284  12.786  70.502  1.00  0.00     0.000 HD 
HETATM    5  N   UNL     1     -11.212  12.029  67.581  1.00  0.00    -0.262 N  
HETATM    6  H   UNL     1     -11.491  12.874  67.082  1.00  0.00     0.000 HD 
HETATM    7  C   UNL     1     -10.573  11.015  66.930  1.00  0.00    -0.258 C  
HETATM    8  N   UNL     1      -9.915  10.078  67.691  1.00  0.00    -0.169 N  
HETATM    9  O   UNL     1     -10.612  10.935  65.705  1.00  0.00    -0.236 OA 
HETATM   10  C   UNL     1     -10.375   9.935  68.957  1.00  0.00    -0.209 C  
HETATM   11  N   UNL     1     -11.136  10.789  69.543  1.00  0.00    -0.258 NA 
ENDROOT
BRANCH   8  12
HETATM   12  C1* UNL     1      -9.194   9.010  67.022  1.00  0.00    -0.136 C  
HETATM   13  C2* UNL     1      -8.243   8.234  67.930  1.00  0.00    -0.128 C  
HETATM   14  C3* UNL     1      -8.142   6.904  67.228  1.00  0.00    -0.118 C  
HETATM   15  O3* UNL     1      -7.165   7.010  66.188  1.00  0.00    -0.071 OA 
HETATM   16  C4* UNL     1      -9.526   6.721  66.607  1.00  0.00    -0.165 C  
HETATM   17  H3* UNL     1      -7.101   6.172  65.746  1.00  0.00     0.000 HD 
HETATM   18  O4* UNL     1     -10.129   8.034  66.523  1.00  0.00    -0.260 OA 
BRANCH  16  19
HETATM   19  C5* UNL     1     -10.453   5.835  67.441  1.00  0.00    -0.254 C  
HETATM   20  O5* UNL     1     -11.643   6.531  67.805  1.00  0.00    -0.646 OA 
HETATM   21  H5* UNL     1     -12.219   5.980  68.322  1.00  0.00     0.000 HD 
ENDBRANCH  16  19
ENDBRANCH   8  12
TORSDOF 2
ENDMDL
MODEL      152
REMARK 921   NORMALIZED FREE ENERGY PREDICTED BY IDOCK:   -3.28 KCAL/MOL
REMARK 922        TOTAL FREE ENERGY PREDICTED BY IDOCK:   -3.99 KCAL/MOL
REMARK 923 INTER-LIGAND FREE ENERGY PREDICTED BY IDOCK:   -3.69 KCAL/MOL
REMARK 924 INTRA-LIGAND FREE ENERGY PREDICTED BY IDOCK:   -0.30 KCAL/MOL
REMARK 927      BINDING AFFINITY PREDICTED BY RF-SCORE:    0.00 PKD
ROOT
HETATM    1  N   UNL     1     -10.047  10.534  63.907  1.00  0.00    -0.423 NA 
HETATM    2  C   UNL     1     -10.232  10.474  65.245  1.00  0.00    -0.282 C  
HETATM    3  H2  UNL     1     -10.523  11.249  63.357  1.00  0.00     0.000 HD 
HETATM    4  H1  UNL     1      -9.431   9.864  63.449  1.00  0.00     0.000 HD 
HETATM    5  N   UNL     1     -11.010  11.320  65.823  1.00  0.00    -0.199 N  
HETATM    6  H   UNL     1     -11.490  12.039  65.282  1.00  0.00     0.000 HD 
HETATM    7  C   UNL     1     -11.180  11.237  67.174  1.00  0.00    -0.275 C  
HETATM    8  N   UNL     1     -10.810  10.067  67.796  1.00  0.00    -0.282 N  
HETATM    9  O   UNL     1     -11.624  12.189  67.809  1.00  0.00    -0.311 OA 
HETATM   10  C   UNL     1      -9.867   9.341  67.149  1.00  0.00    -0.195 C  
HETATM   11  N   UNL     1      -9.549   9.518  65.916  1.00  0.00    -0.242 NA 
ENDROOT
BRANCH   8  12
HETATM   12  C1* UNL     1     -11.017   9.938  69.227  1.00  0.00    -0.211 C  
HETATM   13  C2* UNL     1     -11.369   8.523  69.682  1.00  0.00     0.196 C  
HETATM   14  C3* UNL     1     -10.914   8.525  71.119  1.00  0.00    -0.253 C  
HETATM   15  O3* UNL     1     -11.944   9.109  71.923  1.00  0.00    -0.352 OA 
HETATM   16  C4* UNL     1      -9.696   9.446  71.107  1.00  0.00    -0.187 C  
HETATM   17  H3* UNL     1     -11.658   9.110  72.828  1.00  0.00     0.000 HD 
HETATM   18  O4* UNL     1      -9.800  10.271  69.924  1.00  0.00    -0.211 OA 
BRANCH  16  19
HETATM   19  C5* UNL     1      -8.366   8.693  71.035  1.00  0.00    -0.161 C  
HETATM   20  O5* UNL     1      -7.260   9.587  71.136  1.00  0.00    -0.304 OA 
HETATM   21  H5* UNL     1      -6.435   9.119  71.091  1.00  0.00     0.000 HD 
ENDBRANCH  16  19
ENDBRANCH   8  12
TORSDOF 2
ENDMDL
MODEL      153
REMARK 921   NORMALIZED FREE ENERGY PREDICTED BY IDOCK:   -3.27 KCAL/MOL
REMARK 922        TOTAL FREE ENERGY PREDICTED BY IDOCK:   -3.99 KCAL/MOL
REMARK 923 INTER-LIGAND FREE ENERGY PREDICTED BY IDOCK:   -3.69 KCAL/MOL
REMARK 924 INTRA-LIGAND FREE ENERGY PREDICTED BY IDOCK:   -0.30 KCAL/MOL
REMARK 927      BINDING AFFINITY PREDICTED BY RF-SCORE:    0.00 PKD
ROOT
HETATM    1  N   UNL     1     -11.817   9.669  71.617  1.00  0.00    -0.396 NA 
HETATM    2  C   UNL     1     -11.159   9.159  70.551  1.00  0.00    -0.260 C  
HETATM    3  H2  UNL     1     -11.747  10.663  71.832  1.00  0.00     0.000 HD 
HETATM    4  H1  UNL     1     -12.383   9.057  72.204  1.00  0.00     0.000 HD 
HETATM    5  N   UNL     1     -10.445   9.931  69.810  1.00  0.00    -0.242 N  
HETATM    6  H   UNL     1     -10.370  10.927  70.017  1.00  0.00     0.000 HD 
HETATM    7  C   UNL     1      -9.791   9.392  68.741  1.00  0.00    -0.163 C  
HETATM    8  N   UNL     1      -9.633   8.027  68.709  1.00  0.00    -0.148 N  
HETATM    9  O   UNL     1      -9.383  10.108  67.830  1.00  0.00    -0.140 OA 
HETATM   10  C   UNL     1     -10.549   7.321  69.415  1.00  0.00    -0.229 C  
HETATM   11  N   UNL     1     -11.317   7.838  70.307  1.00  0.00    -0.216 NA 
ENDROOT
BRANCH   8  12
HETATM   12  C1* UNL     1      -8.906   7.431  67.602  1.00  0.00    -0.127 C  
HETATM   13  C2* UNL     1      -8.000   6.269  68.003  1.00  0.00    -0.108 C  
HETATM   14  C3* UNL     1      -7.896   5.483  66.721  1.00  0.00    -0.101 C  
HETATM   15  O3* UNL     1      -6.882   6.077  65.904  1.00  0.00    -0.054 OA 
HETATM   16  C4* UNL     1      -9.260   5.689  66.065  1.00  0.00    -0.152 C  
HETATM   17  H3* UNL     1      -6.816   5.582  65.096  1.00  0.00     0.000 HD 
HETATM   18  O4* UNL     1      -9.839   6.878  66.653  1.00  0.00    -0.181 OA 
BRANCH  16  19
HETATM   19  C5* UNL     1     -10.230   4.530  66.306  1.00  0.00    -0.239 C  
HETATM   20  O5* UNL     1     -11.336   4.588  65.408  1.00  0.00    -0.937 OA 
HETATM   21  H5* UNL     1     -11.938   3.868  65.557  1.00  0.00     0.000 HD 
ENDBRANCH  16  19
ENDBRANCH   8  12
TORSDOF 2
ENDMDL
MODEL      154
REMARK 921   NORMALIZED FREE ENERGY PREDICTED BY IDOCK:   -3.27 KCAL/MOL
REMARK 922        TOTAL FREE ENERGY PREDICTED BY IDOCK:   -3.99 KCAL/MOL
REMARK 923 INTER-LIGAND FREE ENERGY PREDICTED BY IDOCK:   -3.59 KCAL/MOL
REMARK 924 INTRA-LIGAND FREE ENERGY PREDICTED BY IDOCK:   -0.40 KCAL/MOL
REMARK 927      BINDING AFFINITY PREDICTED BY RF-SCORE:    0.00 PKD
ROOT
HETATM    1  N   UNL     1     -12.688  10.207  71.852  1.00  0.00    -0.415 NA 
HETATM    2  C   UNL     1     -11.968   9.391  71.049  1.00  0.00    -0.315 C  
HETATM    3  H2  UNL     1     -13.423   9.822  72.445  1.00  0.00     0.000 HD 
HETATM    4  H1  UNL     1     -12.494  11.208  71.864  1.00  0.00     0.000 HD 
HETATM    5  N   UNL     1     -12.213   8.128  71.035  1.00  0.00    -0.460 N  
HETATM    6  H   UNL     1     -12.946   7.734  71.624  1.00  0.00     0.000 HD 
HETATM    7  C   UNL     1     -11.472   7.327  70.215  1.00  0.00    -0.210 C  
HETATM    8  N   UNL     1     -10.762   7.928  69.203  1.00  0.00    -0.169 N  
HETATM    9  O   UNL     1     -11.427   6.114  70.400  1.00  0.00    -0.356 OA 
HETATM   10  C   UNL     1     -10.438   9.226  69.415  1.00  0.00    -0.219 C  
HETATM   11  N   UNL     1     -10.991   9.965  70.309  1.00  0.00    -0.285 NA 
ENDROOT
BRANCH   8  12
HETATM   12  C1* UNL     1      -9.997   7.094  68.292  1.00  0.00    -0.156 C  
HETATM   13  C2* UNL     1     -10.040   7.556  66.837  1.00  0.00    -0.336 C  
HETATM   14  C3* UNL     1      -8.763   6.983  66.280  1.00  0.00    -0.146 C  
HETATM   15  O3* UNL     1      -8.995   5.617  65.920  1.00  0.00    -0.152 OA 
HETATM   16  C4* UNL     1      -7.799   7.038  67.464  1.00  0.00    -0.112 C  
HETATM   17  H3* UNL     1      -8.190   5.255  65.569  1.00  0.00     0.000 HD 
HETATM   18  O4* UNL     1      -8.605   7.125  68.662  1.00  0.00    -0.125 OA 
BRANCH  16  19
HETATM   19  C5* UNL     1      -6.873   8.256  67.436  1.00  0.00    -0.070 C  
HETATM   20  O5* UNL     1      -6.960   8.999  68.649  1.00  0.00    -0.062 OA 
HETATM   21  H5* UNL     1      -6.385   9.755  68.632  1.00  0.00     0.000 HD 
ENDBRANCH  16  19
ENDBRANCH   8  12
TORSDOF 2
ENDMDL
MODEL      155
REMARK 921   NORMALIZED FREE ENERGY PREDICTED BY IDOCK:   -3.27 KCAL/MOL
REMARK 922        TOTAL FREE ENERGY PREDICTED BY IDOCK:   -3.98 KCAL/MOL
REMARK 923 INTER-LIGAND FREE ENERGY PREDICTED BY IDOCK:   -3.65 KCAL/MOL
REMARK 924 INTRA-LIGAND FREE ENERGY PREDICTED BY IDOCK:   -0.33 KCAL/MOL
REMARK 927      BINDING AFFINITY PREDICTED BY RF-SCORE:    0.00 PKD
ROOT
HETATM    1  N   UNL     1     -11.115   4.180  64.520  1.00  0.00    -0.800 NA 
HETATM    2  C   UNL     1     -10.740   4.671  65.723  1.00  0.00    -0.149 C  
HETATM    3  H2  UNL     1     -11.819   4.667  63.966  1.00  0.00     0.000 HD 
HETATM    4  H1  UNL     1     -10.692   3.321  64.168  1.00  0.00     0.000 HD 
HETATM    5  N   UNL     1     -11.274   5.754  66.167  1.00  0.00    -0.681 N  
HETATM    6  H   UNL     1     -11.979   6.248  65.620  1.00  0.00     0.000 HD 
HETATM    7  C   UNL     1     -10.879   6.228  67.384  1.00  0.00    -0.363 C  
HETATM    8  N   UNL     1     -10.213   5.366  68.222  1.00  0.00    -0.172 N  
HETATM    9  O   UNL     1     -11.093   7.395  67.700  1.00  0.00    -0.104 OA 
HETATM   10  C   UNL     1      -9.563   4.348  67.607  1.00  0.00    -0.166 C  
HETATM   11  N   UNL     1      -9.782   3.989  66.392  1.00  0.00    -0.204 NA 
ENDROOT
BRANCH   8  12
HETATM   12  C1* UNL     1      -9.816   5.833  69.538  1.00  0.00    -0.178 C  
HETATM   13  C2* UNL     1      -9.747   4.734  70.597  1.00  0.00    -0.271 C  
HETATM   14  C3* UNL     1      -8.767   5.305  71.590  1.00  0.00    -0.134 C  
HETATM   15  O3* UNL     1      -9.470   6.194  72.464  1.00  0.00    -0.145 OA 
HETATM   16  C4* UNL     1      -7.803   6.108  70.719  1.00  0.00    -0.103 C  
HETATM   17  H3* UNL     1      -8.853   6.553  73.090  1.00  0.00     0.000 HD 
HETATM   18  O4* UNL     1      -8.486   6.386  69.474  1.00  0.00    -0.130 OA 
BRANCH  16  19
HETATM   19  C5* UNL     1      -6.514   5.353  70.385  1.00  0.00    -0.034 C  
HETATM   20  O5* UNL     1      -6.180   4.423  71.412  1.00  0.00    -0.017 OA 
HETATM   21  H5* UNL     1      -5.380   3.954  71.205  1.00  0.00     0.000 HD 
ENDBRANCH  16  19
ENDBRANCH   8  12
TORSDOF 2
ENDMDL
MODEL      156
REMARK 921   NORMALIZED FREE ENERGY PREDICTED BY IDOCK:   -3.26 KCAL/MOL
REMARK 922        TOTAL FREE ENERGY PREDICTED BY IDOCK:   -3.98 KCAL/MOL
REMARK 923 INTER-LIGAND FREE ENERGY PREDICTED BY IDOCK:   -3.72 KCAL/MOL
REMARK 924 INTRA-LIGAND FREE ENERGY PREDICTED BY IDOCK:   -0.26 KCAL/MOL
REMARK 927      BINDING AFFINITY PREDICTED BY RF-SCORE:    0.00 PKD
ROOT
HETATM    1  N   UNL     1      -6.063  10.994  68.106  1.00  0.00    -0.049 NA 
HETATM    2  C   UNL     1      -6.944  10.376  68.926  1.00  0.00    -0.067 C  
HETATM    3  H2  UNL     1      -5.140  11.255  68.452  1.00  0.00     0.000 HD 
HETATM    4  H1  UNL     1      -6.323  11.197  67.141  1.00  0.00     0.000 HD 
HETATM    5  N   UNL     1      -6.616  10.120  70.142  1.00  0.00    -0.112 N  
HETATM    6  H   UNL     1      -5.695  10.377  70.498  1.00  0.00     0.000 HD 
HETATM    7  C   UNL     1      -7.523   9.497  70.949  1.00  0.00    -0.013 C  
HETATM    8  N   UNL     1      -8.838   9.493  70.549  1.00  0.00    -0.234 N  
HETATM    9  O   UNL     1      -7.163   8.939  71.982  1.00  0.00    -0.287 OA 
HETATM   10  C   UNL     1      -9.038   9.621  69.215  1.00  0.00    -0.172 C  
HETATM   11  N   UNL     1      -8.140  10.034  68.393  1.00  0.00    -0.100 NA 
ENDROOT
BRANCH   8  12
HETATM   12  C1* UNL     1      -9.831   8.870  71.408  1.00  0.00    -0.306 C  
HETATM   13  C2* UNL     1     -11.259   9.353  71.164  1.00  0.00    -0.427 C  
HETATM   14  C3* UNL     1     -12.081   8.190  71.657  1.00  0.00    -0.304 C  
HETATM   15  O3* UNL     1     -12.217   8.299  73.078  1.00  0.00    -0.630 OA 
HETATM   16  C4* UNL     1     -11.217   6.975  71.323  1.00  0.00    -0.264 C  
HETATM   17  H3* UNL     1     -12.735   7.566  73.389  1.00  0.00     0.000 HD 
HETATM   18  O4* UNL     1      -9.860   7.450  71.162  1.00  0.00    -0.175 OA 
BRANCH  16  19
HETATM   19  C5* UNL     1     -11.625   6.281  70.021  1.00  0.00    -0.308 C  
HETATM   20  O5* UNL     1     -10.678   5.281  69.651  1.00  0.00    -0.273 OA 
HETATM   21  H5* UNL     1     -10.932   4.850  68.844  1.00  0.00     0.000 HD 
ENDBRANCH  16  19
ENDBRANCH   8  12
TORSDOF 2
ENDMDL
MODEL      157
REMARK 921   NORMALIZED FREE ENERGY PREDICTED BY IDOCK:   -3.26 KCAL/MOL
REMARK 922        TOTAL FREE ENERGY PREDICTED BY IDOCK:   -3.98 KCAL/MOL
REMARK 923 INTER-LIGAND FREE ENERGY PREDICTED BY IDOCK:   -3.65 KCAL/MOL
REMARK 924 INTRA-LIGAND FREE ENERGY PREDICTED BY IDOCK:   -0.33 KCAL/MOL
REMARK 927      BINDING AFFINITY PREDICTED BY RF-SCORE:    0.00 PKD
ROOT
HETATM    1  N   UNL     1     -11.885  14.529  66.981  1.00  0.00    -0.401 NA 
HETATM    2  C   UNL     1     -11.288  13.329  67.166  1.00  0.00    -0.317 C  
HETATM    3  H2  UNL     1     -12.555  14.876  67.666  1.00  0.00     0.000 HD 
HETATM    4  H1  UNL     1     -11.663  15.085  66.156  1.00  0.00     0.000 HD 
HETATM    5  N   UNL     1     -11.567  12.628  68.207  1.00  0.00    -0.311 N  
HETATM    6  H   UNL     1     -12.236  12.968  68.898  1.00  0.00     0.000 HD 
HETATM    7  C   UNL     1     -10.951  11.422  68.369  1.00  0.00    -0.215 C  
HETATM    8  N   UNL     1     -10.349  10.857  67.270  1.00  0.00    -0.205 N  
HETATM    9  O   UNL     1     -10.919  10.878  69.470  1.00  0.00    -0.233 OA 
HETATM   10  C   UNL     1      -9.966  11.730  66.308  1.00  0.00    -0.218 C  
HETATM   11  N   UNL     1     -10.388  12.942  66.231  1.00  0.00    -0.263 NA 
ENDROOT
BRANCH   8  12
HETATM   12  C1* UNL     1      -9.720   9.555  67.406  1.00  0.00    -0.157 C  
HETATM   13  C2* UNL     1     -10.487   8.418  66.735  1.00  0.00    -0.315 C  
HETATM   14  C3* UNL     1      -9.400   7.408  66.471  1.00  0.00    -0.173 C  
HETATM   15  O3* UNL     1      -9.186   6.646  67.664  1.00  0.00    -0.113 OA 
HETATM   16  C4* UNL     1      -8.170   8.271  66.194  1.00  0.00    -0.119 C  
HETATM   17  H3* UNL     1      -8.502   6.010  67.498  1.00  0.00     0.000 HD 
HETATM   18  O4* UNL     1      -8.428   9.573  66.769  1.00  0.00    -0.125 OA 
BRANCH  16  19
HETATM   19  C5* UNL     1      -7.890   8.466  64.702  1.00  0.00    -0.127 C  
HETATM   20  O5* UNL     1      -8.612   7.524  63.914  1.00  0.00    -0.352 OA 
HETATM   21  H5* UNL     1      -8.438   7.645  62.988  1.00  0.00     0.000 HD 
ENDBRANCH  16  19
ENDBRANCH   8  12
TORSDOF 2
ENDMDL
MODEL      158
REMARK 921   NORMALIZED FREE ENERGY PREDICTED BY IDOCK:   -3.26 KCAL/MOL
REMARK 922        TOTAL FREE ENERGY PREDICTED BY IDOCK:   -3.98 KCAL/MOL
REMARK 923 INTER-LIGAND FREE ENERGY PREDICTED BY IDOCK:   -3.59 KCAL/MOL
REMARK 924 INTRA-LIGAND FREE ENERGY PREDICTED BY IDOCK:   -0.39 KCAL/MOL
REMARK 927      BINDING AFFINITY PREDICTED BY RF-SCORE:    0.00 PKD
ROOT
HETATM    1  N   UNL     1      -8.545  14.228  66.519  1.00  0.00    -0.433 NA 
HETATM    2  C   UNL     1      -8.923  12.975  66.859  1.00  0.00    -0.209 C  
HETATM    3  H2  UNL     1      -8.491  14.497  65.537  1.00  0.00     0.000 HD 
HETATM    4  H1  UNL     1      -8.313  14.904  67.247  1.00  0.00     0.000 HD 
HETATM    5  N   UNL     1      -9.214  12.123  65.941  1.00  0.00    -0.414 N  
HETATM    6  H   UNL     1      -9.164  12.383  64.956  1.00  0.00     0.000 HD 
HETATM    7  C   UNL     1      -9.592  10.865  66.310  1.00  0.00    -0.200 C  
HETATM    8  N   UNL     1      -9.308  10.462  67.593  1.00  0.00    -0.148 N  
HETATM    9  O   UNL     1     -10.190  10.135  65.525  1.00  0.00    -0.286 OA 
HETATM   10  C   UNL     1      -9.173  11.462  68.498  1.00  0.00    -0.174 C  
HETATM   11  N   UNL     1      -8.998  12.695  68.181  1.00  0.00    -0.197 NA 
ENDROOT
BRANCH   8  12
HETATM   12  C1* UNL     1      -9.664   9.114  68.001  1.00  0.00    -0.154 C  
HETATM   13  C2* UNL     1      -8.541   8.359  68.709  1.00  0.00    -0.135 C  
HETATM   14  C3* UNL     1      -9.302   7.352  69.534  1.00  0.00    -0.156 C  
HETATM   15  O3* UNL     1      -9.622   6.231  68.705  1.00  0.00    -0.122 OA 
HETATM   16  C4* UNL     1     -10.586   8.092  69.905  1.00  0.00    -0.242 C  
HETATM   17  H3* UNL     1     -10.100   5.597  69.225  1.00  0.00     0.000 HD 
HETATM   18  O4* UNL     1     -10.747   9.166  68.949  1.00  0.00    -0.212 OA 
BRANCH  16  19
HETATM   19  C5* UNL     1     -10.548   8.712  71.303  1.00  0.00    -0.239 C  
HETATM   20  O5* UNL     1     -10.983  10.069  71.277  1.00  0.00    -0.264 OA 
HETATM   21  H5* UNL     1     -10.959  10.455  72.145  1.00  0.00     0.000 HD 
ENDBRANCH  16  19
ENDBRANCH   8  12
TORSDOF 2
ENDMDL
MODEL      159
REMARK 921   NORMALIZED FREE ENERGY PREDICTED BY IDOCK:   -3.24 KCAL/MOL
REMARK 922        TOTAL FREE ENERGY PREDICTED BY IDOCK:   -3.95 KCAL/MOL
REMARK 923 INTER-LIGAND FREE ENERGY PREDICTED BY IDOCK:   -4.02 KCAL/MOL
REMARK 924 INTRA-LIGAND FREE ENERGY PREDICTED BY IDOCK:    0.07 KCAL/MOL
REMARK 927      BINDING AFFINITY PREDICTED BY RF-SCORE:    0.00 PKD
ROOT
HETATM    1  N   UNL     1      -9.631   6.852  70.846  1.00  0.00    -0.164 NA 
HETATM    2  C   UNL     1      -9.912   7.928  70.076  1.00  0.00    -0.191 C  
HETATM    3  H2  UNL     1      -9.541   5.929  70.422  1.00  0.00     0.000 HD 
HETATM    4  H1  UNL     1      -9.509   6.966  71.853  1.00  0.00     0.000 HD 
HETATM    5  N   UNL     1     -10.065   7.784  68.807  1.00  0.00    -0.191 N  
HETATM    6  H   UNL     1      -9.976   6.865  68.374  1.00  0.00     0.000 HD 
HETATM    7  C   UNL     1     -10.349   8.885  68.053  1.00  0.00    -0.219 C  
HETATM    8  N   UNL     1     -10.802  10.008  68.703  1.00  0.00    -0.231 N  
HETATM    9  O   UNL     1     -10.177   8.872  66.837  1.00  0.00    -0.243 OA 
HETATM   10  C   UNL     1     -10.440  10.108  70.005  1.00  0.00    -0.274 C  
HETATM   11  N   UNL     1      -9.991   9.125  70.701  1.00  0.00    -0.227 NA 
ENDROOT
BRANCH   8  12
HETATM   12  C1* UNL     1     -11.149  11.180  67.920  1.00  0.00    -0.273 C  
HETATM   13  C2* UNL     1     -11.642  12.363  68.751  1.00  0.00    -0.373 C  
HETATM   14  C3* UNL     1     -11.322  13.537  67.861  1.00  0.00    -0.289 C  
HETATM   15  O3* UNL     1     -12.377  13.685  66.905  1.00  0.00    -0.365 OA 
HETATM   16  C4* UNL     1     -10.045  13.104  67.143  1.00  0.00    -0.242 C  
HETATM   17  H3* UNL     1     -12.176  14.425  66.344  1.00  0.00     0.000 HD 
HETATM   18  O4* UNL     1      -9.980  11.661  67.226  1.00  0.00    -0.190 OA 
BRANCH  16  19
HETATM   19  C5* UNL     1      -8.771  13.666  67.780  1.00  0.00    -0.184 C  
HETATM   20  O5* UNL     1      -9.055  14.312  69.018  1.00  0.00    -0.365 OA 
HETATM   21  H5* UNL     1      -8.264  14.660  69.413  1.00  0.00     0.000 HD 
ENDBRANCH  16  19
ENDBRANCH   8  12
TORSDOF 2
ENDMDL
MODEL      160
REMARK 921   NORMALIZED FREE ENERGY PREDICTED BY IDOCK:   -3.23 KCAL/MOL
REMARK 922        TOTAL FREE ENERGY PREDICTED BY IDOCK:   -3.94 KCAL/MOL
REMARK 923 INTER-LIGAND FREE ENERGY PREDICTED BY IDOCK:   -3.66 KCAL/MOL
REMARK 924 INTRA-LIGAND FREE ENERGY PREDICTED BY IDOCK:   -0.29 KCAL/MOL
REMARK 927      BINDING AFFINITY PREDICTED BY RF-SCORE:    0.00 PKD
ROOT
HETATM    1  N   UNL     1      -7.638  13.063  69.283  1.00  0.00    -0.299 NA 
HETATM    2  C   UNL     1      -7.443  14.244  68.652  1.00  0.00    -0.127 C  
HETATM    3  H2  UNL     1      -8.389  12.442  68.983  1.00  0.00     0.000 HD 
HETATM    4  H1  UNL     1      -7.033  12.796  70.059  1.00  0.00     0.000 HD 
HETATM    5  N   UNL     1      -8.207  14.581  67.674  1.00  0.00    -0.163 N  
HETATM    6  H   UNL     1      -8.961  13.966  67.367  1.00  0.00     0.000 HD 
HETATM    7  C   UNL     1      -7.990  15.777  67.055  1.00  0.00    -0.237 C  
HETATM    8  N   UNL     1      -7.219  16.707  67.711  1.00  0.00    -0.134 N  
HETATM    9  O   UNL     1      -8.449  15.997  65.938  1.00  0.00    -0.219 OA 
HETATM   10  C   UNL     1      -6.344  16.201  68.614  1.00  0.00    -0.118 C  
HETATM   11  N   UNL     1      -6.412  15.006  69.084  1.00  0.00    -0.109 NA 
ENDROOT
BRANCH   8  12
HETATM   12  C1* UNL     1      -7.004  18.003  67.092  1.00  0.00    -0.191 C  
HETATM   13  C2* UNL     1      -8.132  19.004  67.331  1.00  0.00    -0.287 C  
HETATM   14  C3* UNL     1      -7.428  20.327  67.175  1.00  0.00    -0.297 C  
HETATM   15  O3* UNL     1      -7.355  20.643  65.781  1.00  0.00    -0.498 OA 
HETATM   16  C4* UNL     1      -6.022  20.048  67.705  1.00  0.00    -0.193 C  
HETATM   17  H3* UNL     1      -6.911  21.477  65.682  1.00  0.00     0.000 HD 
HETATM   18  O4* UNL     1      -5.825  18.616  67.650  1.00  0.00    -0.173 OA 
BRANCH  16  19
HETATM   19  C5* UNL     1      -5.822  20.491  69.156  1.00  0.00    -0.357 C  
HETATM   20  O5* UNL     1      -5.932  19.388  70.052  1.00  0.00    -0.252 OA 
HETATM   21  H5* UNL     1      -5.807  19.663  70.953  1.00  0.00     0.000 HD 
ENDBRANCH  16  19
ENDBRANCH   8  12
TORSDOF 2
ENDMDL
MODEL      161
REMARK 921   NORMALIZED FREE ENERGY PREDICTED BY IDOCK:   -3.19 KCAL/MOL
REMARK 922        TOTAL FREE ENERGY PREDICTED BY IDOCK:   -3.90 KCAL/MOL
REMARK 923 INTER-LIGAND FREE ENERGY PREDICTED BY IDOCK:   -3.53 KCAL/MOL
REMARK 924 INTRA-LIGAND FREE ENERGY PREDICTED BY IDOCK:   -0.38 KCAL/MOL
REMARK 927      BINDING AFFINITY PREDICTED BY RF-SCORE:    0.00 PKD
ROOT
HETATM    1  N   UNL     1      -6.488   6.953  67.099  1.00  0.00    -0.048 NA 
HETATM    2  C   UNL     1      -7.239   6.802  68.214  1.00  0.00    -0.088 C  
HETATM    3  H2  UNL     1      -5.632   6.411  66.981  1.00  0.00     0.000 HD 
HETATM    4  H1  UNL     1      -6.780   7.610  66.375  1.00  0.00     0.000 HD 
HETATM    5  N   UNL     1      -6.870   5.973  69.125  1.00  0.00    -0.060 N  
HETATM    6  H   UNL     1      -6.016   5.426  69.017  1.00  0.00     0.000 HD 
HETATM    7  C   UNL     1      -7.645   5.839  70.241  1.00  0.00    -0.090 C  
HETATM    8  N   UNL     1      -8.566   6.826  70.503  1.00  0.00    -0.141 N  
HETATM    9  O   UNL     1      -7.534   4.854  70.966  1.00  0.00    -0.068 OA 
HETATM   10  C   UNL     1      -8.985   7.528  69.423  1.00  0.00    -0.139 C  
HETATM   11  N   UNL     1      -8.376   7.531  68.291  1.00  0.00    -0.125 NA 
ENDROOT
BRANCH   8  12
HETATM   12  C1* UNL     1      -9.376   6.728  71.704  1.00  0.00    -0.151 C  
HETATM   13  C2* UNL     1      -9.860   8.072  72.242  1.00  0.00    -0.301 C  
HETATM   14  C3* UNL     1     -11.098   7.685  73.010  1.00  0.00    -0.381 C  
HETATM   15  O3* UNL     1     -10.705   7.233  74.310  1.00  0.00    -0.519 OA 
HETATM   16  C4* UNL     1     -11.659   6.509  72.213  1.00  0.00    -0.292 C  
HETATM   17  H3* UNL     1     -11.485   6.989  74.794  1.00  0.00     0.000 HD 
HETATM   18  O4* UNL     1     -10.572   5.976  71.421  1.00  0.00    -0.228 OA 
BRANCH  16  19
HETATM   19  C5* UNL     1     -12.783   6.908  71.254  1.00  0.00    -0.315 C  
HETATM   20  O5* UNL     1     -12.383   6.748  69.895  1.00  0.00    -0.581 OA 
HETATM   21  H5* UNL     1     -13.081   6.995  69.300  1.00  0.00     0.000 HD 
ENDBRANCH  16  19
ENDBRANCH   8  12
TORSDOF 2
ENDMDL
MODEL      162
REMARK 921   NORMALIZED FREE ENERGY PREDICTED BY IDOCK:   -3.18 KCAL/MOL
REMARK 922        TOTAL FREE ENERGY PREDICTED BY IDOCK:   -3.88 KCAL/MOL
REMARK 923 INTER-LIGAND FREE ENERGY PREDICTED BY IDOCK:   -4.01 KCAL/MOL
REMARK 924 INTRA-LIGAND FREE ENERGY PREDICTED BY IDOCK:    0.12 KCAL/MOL
REMARK 927      BINDING AFFINITY PREDICTED BY RF-SCORE:    0.00 PKD
ROOT
HETATM    1  N   UNL     1     -11.443   6.482  66.731  1.00  0.00    -0.760 NA 
HETATM    2  C   UNL     1     -10.850   5.988  67.842  1.00  0.00    -0.290 C  
HETATM    3  H2  UNL     1     -12.129   7.233  66.809  1.00  0.00     0.000 HD 
HETATM    4  H1  UNL     1     -11.201   6.104  65.816  1.00  0.00     0.000 HD 
HETATM    5  N   UNL     1     -11.155   6.466  68.996  1.00  0.00    -0.434 N  
HETATM    6  H   UNL     1     -11.840   7.217  69.084  1.00  0.00     0.000 HD 
HETATM    7  C   UNL     1     -10.543   5.949  70.101  1.00  0.00    -0.292 C  
HETATM    8  N   UNL     1      -9.916   4.733  69.976  1.00  0.00    -0.233 N  
HETATM    9  O   UNL     1     -10.537   6.569  71.161  1.00  0.00    -0.219 OA 
HETATM   10  C   UNL     1      -9.510   4.417  68.722  1.00  0.00    -0.162 C  
HETATM   11  N   UNL     1      -9.930   5.012  67.663  1.00  0.00    -0.164 NA 
ENDROOT
BRANCH   8  12
HETATM   12  C1* UNL     1      -9.291   4.141  71.146  1.00  0.00    -0.150 C  
HETATM   13  C2* UNL     1      -8.314   5.067  71.867  1.00  0.00    -0.120 C  
HETATM   14  C3* UNL     1      -8.321   4.514  73.269  1.00  0.00    -0.099 C  
HETATM   15  O3* UNL     1      -7.416   3.407  73.328  1.00  0.00    -0.054 OA 
HETATM   16  C4* UNL     1      -9.752   4.009  73.447  1.00  0.00    -0.114 C  
HETATM   17  H3* UNL     1      -7.421   3.059  74.211  1.00  0.00     0.000 HD 
HETATM   18  O4* UNL     1     -10.301   3.817  72.122  1.00  0.00    -0.149 OA 
BRANCH  16  19
HETATM   19  C5* UNL     1     -10.657   4.996  74.188  1.00  0.00    -0.288 C  
HETATM   20  O5* UNL     1     -11.778   5.368  73.390  1.00  0.00    -0.480 OA 
HETATM   21  H5* UNL     1     -12.339   5.980  73.850  1.00  0.00     0.000 HD 
ENDBRANCH  16  19
ENDBRANCH   8  12
TORSDOF 2
ENDMDL
MODEL      163
REMARK 921   NORMALIZED FREE ENERGY PREDICTED BY IDOCK:   -3.16 KCAL/MOL
REMARK 922        TOTAL FREE ENERGY PREDICTED BY IDOCK:   -3.87 KCAL/MOL
REMARK 923 INTER-LIGAND FREE ENERGY PREDICTED BY IDOCK:   -4.93 KCAL/MOL
REMARK 924 INTRA-LIGAND FREE ENERGY PREDICTED BY IDOCK:    1.06 KCAL/MOL
REMARK 927      BINDING AFFINITY PREDICTED BY RF-SCORE:    0.00 PKD
ROOT
HETATM    1  N   UNL     1     -14.190   8.959  73.301  1.00  0.00    -1.237 NA 
HETATM    2  C   UNL     1     -13.279   9.040  72.305  1.00  0.00    -0.460 C  
HETATM    3  H2  UNL     1     -14.541   9.809  73.743  1.00  0.00     0.000 HD 
HETATM    4  H1  UNL     1     -14.526   8.047  73.609  1.00  0.00     0.000 HD 
HETATM    5  N   UNL     1     -12.855  10.191  71.917  1.00  0.00    -0.429 N  
HETATM    6  H   UNL     1     -13.201  11.046  72.352  1.00  0.00     0.000 HD 
HETATM    7  C   UNL     1     -11.935  10.245  70.910  1.00  0.00    -0.375 C  
HETATM    8  N   UNL     1     -11.250   9.093  70.607  1.00  0.00    -0.260 N  
HETATM    9  O   UNL     1     -11.752  11.286  70.285  1.00  0.00    -0.316 OA 
HETATM   10  C   UNL     1     -11.881   7.940  70.936  1.00  0.00    -0.229 C  
HETATM   11  N   UNL     1     -12.877   7.875  71.745  1.00  0.00    -0.324 NA 
ENDROOT
BRANCH   8  12
HETATM   12  C1* UNL     1     -10.237   9.133  69.566  1.00  0.00    -0.203 C  
HETATM   13  C2* UNL     1      -9.937  10.534  69.040  1.00  0.00    -0.223 C  
HETATM   14  C3* UNL     1      -8.532  10.388  68.515  1.00  0.00    -0.129 C  
HETATM   15  O3* UNL     1      -8.593   9.835  67.197  1.00  0.00    -0.127 OA 
HETATM   16  C4* UNL     1      -7.901   9.369  69.463  1.00  0.00    -0.091 C  
HETATM   17  H3* UNL     1      -7.708   9.742  66.866  1.00  0.00     0.000 HD 
HETATM   18  O4* UNL     1      -8.986   8.646  70.091  1.00  0.00    -0.143 OA 
BRANCH  16  19
HETATM   19  C5* UNL     1      -7.064  10.009  70.573  1.00  0.00    -0.068 C  
HETATM   20  O5* UNL     1      -7.153   9.261  71.783  1.00  0.00    -0.318 OA 
HETATM   21  H5* UNL     1      -6.633   9.658  72.471  1.00  0.00     0.000 HD 
ENDBRANCH  16  19
ENDBRANCH   8  12
TORSDOF 2
ENDMDL
MODEL      164
REMARK 921   NORMALIZED FREE ENERGY PREDICTED BY IDOCK:   -3.13 KCAL/MOL
REMARK 922        TOTAL FREE ENERGY PREDICTED BY IDOCK:   -3.84 KCAL/MOL
REMARK 923 INTER-LIGAND FREE ENERGY PREDICTED BY IDOCK:   -3.99 KCAL/MOL
REMARK 924 INTRA-LIGAND FREE ENERGY PREDICTED BY IDOCK:    0.15 KCAL/MOL
REMARK 927      BINDING AFFINITY PREDICTED BY RF-SCORE:    0.00 PKD
ROOT
HETATM    1  N   UNL     1      -5.320  19.982  71.128  1.00  0.00    -0.259 NA 
HETATM    2  C   UNL     1      -6.206  19.364  70.314  1.00  0.00    -0.149 C  
HETATM    3  H2  UNL     1      -5.438  20.968  71.357  1.00  0.00     0.000 HD 
HETATM    4  H1  UNL     1      -4.532  19.459  71.511  1.00  0.00     0.000 HD 
HETATM    5  N   UNL     1      -7.199  20.024  69.831  1.00  0.00    -0.012 N  
HETATM    6  H   UNL     1      -7.326  21.011  70.055  1.00  0.00     0.000 HD 
HETATM    7  C   UNL     1      -8.079  19.377  69.013  1.00  0.00    -0.245 C  
HETATM    8  N   UNL     1      -7.683  18.181  68.464  1.00  0.00    -0.291 N  
HETATM    9  O   UNL     1      -9.195  19.844  68.800  1.00  0.00    -0.243 OA 
HETATM   10  C   UNL     1      -6.731  17.512  69.159  1.00  0.00    -0.243 C  
HETATM   11  N   UNL     1      -6.004  18.048  70.073  1.00  0.00    -0.213 NA 
ENDROOT
BRANCH   8  12
HETATM   12  C1* UNL     1      -8.585  17.491  67.558  1.00  0.00    -0.221 C  
HETATM   13  C2* UNL     1      -9.994  17.293  68.112  1.00  0.00    -0.303 C  
HETATM   14  C3* UNL     1     -10.820  17.175  66.856  1.00  0.00    -0.005 C  
HETATM   15  O3* UNL     1     -10.744  15.825  66.386  1.00  0.00    -0.309 OA 
HETATM   16  C4* UNL     1     -10.104  18.096  65.870  1.00  0.00    -0.167 C  
HETATM   17  H3* UNL     1     -11.264  15.751  65.595  1.00  0.00     0.000 HD 
HETATM   18  O4* UNL     1      -8.752  18.270  66.357  1.00  0.00    -0.313 OA 
BRANCH  16  19
HETATM   19  C5* UNL     1     -10.742  19.483  65.762  1.00  0.00    -0.393 C  
HETATM   20  O5* UNL     1      -9.854  20.498  66.222  1.00  0.00    -0.623 OA 
HETATM   21  H5* UNL     1     -10.250  21.358  66.154  1.00  0.00     0.000 HD 
ENDBRANCH  16  19
ENDBRANCH   8  12
TORSDOF 2
ENDMDL
MODEL      165
REMARK 921   NORMALIZED FREE ENERGY PREDICTED BY IDOCK:   -3.10 KCAL/MOL
REMARK 922        TOTAL FREE ENERGY PREDICTED BY IDOCK:   -3.79 KCAL/MOL
REMARK 923 INTER-LIGAND FREE ENERGY PREDICTED BY IDOCK:   -3.55 KCAL/MOL
REMARK 924 INTRA-LIGAND FREE ENERGY PREDICTED BY IDOCK:   -0.25 KCAL/MOL
REMARK 927      BINDING AFFINITY PREDICTED BY RF-SCORE:    0.00 PKD
ROOT
HETATM    1  N   UNL     1      -9.661   3.305  66.777  1.00  0.00    -0.401 NA 
HETATM    2  C   UNL     1      -9.968   4.536  67.247  1.00  0.00    -0.139 C  
HETATM    3  H2  UNL     1      -9.430   2.553  67.426  1.00  0.00     0.000 HD 
HETATM    4  H1  UNL     1      -9.661   3.131  65.772  1.00  0.00     0.000 HD 
HETATM    5  N   UNL     1      -9.968   4.755  68.514  1.00  0.00    -0.125 N  
HETATM    6  H   UNL     1      -9.739   4.009  69.171  1.00  0.00     0.000 HD 
HETATM    7  C   UNL     1     -10.281   6.005  68.963  1.00  0.00    -0.193 C  
HETATM    8  N   UNL     1     -10.232   7.041  68.060  1.00  0.00    -0.172 N  
HETATM    9  O   UNL     1     -10.619   6.186  70.130  1.00  0.00    -0.216 OA 
HETATM   10  C   UNL     1     -10.397   6.686  66.763  1.00  0.00    -0.210 C  
HETATM   11  N   UNL     1     -10.290   5.479  66.332  1.00  0.00    -0.227 NA 
ENDROOT
BRANCH   8  12
HETATM   12  C1* UNL     1     -10.522   8.387  68.520  1.00  0.00    -0.164 C  
HETATM   13  C2* UNL     1      -9.300   9.150  69.028  1.00  0.00    -0.151 C  
HETATM   14  C3* UNL     1      -9.712  10.586  68.831  1.00  0.00    -0.199 C  
HETATM   15  O3* UNL     1     -10.510  10.989  69.949  1.00  0.00    -0.446 OA 
HETATM   16  C4* UNL     1     -10.584  10.539  67.577  1.00  0.00    -0.259 C  
HETATM   17  H3* UNL     1     -10.770  11.894  69.825  1.00  0.00     0.000 HD 
HETATM   18  O4* UNL     1     -11.034   9.172  67.425  1.00  0.00    -0.170 OA 
BRANCH  16  19
HETATM   19  C5* UNL     1      -9.833  10.928  66.302  1.00  0.00    -0.216 C  
HETATM   20  O5* UNL     1     -10.650  11.720  65.443  1.00  0.00    -0.260 OA 
HETATM   21  H5* UNL     1     -10.184  11.961  64.651  1.00  0.00     0.000 HD 
ENDBRANCH  16  19
ENDBRANCH   8  12
TORSDOF 2
ENDMDL
MODEL      166
REMARK 921   NORMALIZED FREE ENERGY PREDICTED BY IDOCK:   -3.09 KCAL/MOL
REMARK 922        TOTAL FREE ENERGY PREDICTED BY IDOCK:   -3.79 KCAL/MOL
REMARK 923 INTER-LIGAND FREE ENERGY PREDICTED BY IDOCK:   -3.50 KCAL/MOL
REMARK 924 INTRA-LIGAND FREE ENERGY PREDICTED BY IDOCK:   -0.29 KCAL/MOL
REMARK 927      BINDING AFFINITY PREDICTED BY RF-SCORE:    0.00 PKD
ROOT
HETATM    1  N   UNL     1      -7.638   8.619  73.970  1.00  0.00    -0.416 NA 
HETATM    2  C   UNL     1      -8.101   8.164  72.783  1.00  0.00    -0.165 C  
HETATM    3  H2  UNL     1      -7.717   8.039  74.805  1.00  0.00     0.000 HD 
HETATM    4  H1  UNL     1      -7.210   9.543  74.028  1.00  0.00     0.000 HD 
HETATM    5  N   UNL     1      -8.641   6.999  72.711  1.00  0.00    -0.115 N  
HETATM    6  H   UNL     1      -8.724   6.411  73.541  1.00  0.00     0.000 HD 
HETATM    7  C   UNL     1      -9.100   6.563  71.502  1.00  0.00    -0.144 C  
HETATM    8  N   UNL     1      -9.289   7.500  70.514  1.00  0.00    -0.161 N  
HETATM    9  O   UNL     1      -9.309   5.369  71.305  1.00  0.00    -0.144 OA 
HETATM   10  C   UNL     1      -8.542   8.624  70.631  1.00  0.00    -0.163 C  
HETATM   11  N   UNL     1      -7.939   8.973  71.711  1.00  0.00    -0.349 NA 
ENDROOT
BRANCH   8  12
HETATM   12  C1* UNL     1      -9.814   7.069  69.230  1.00  0.00    -0.159 C  
HETATM   13  C2* UNL     1     -10.597   8.146  68.482  1.00  0.00    -0.142 C  
HETATM   14  C3* UNL     1     -10.464   7.702  67.047  1.00  0.00    -0.349 C  
HETATM   15  O3* UNL     1     -11.457   6.706  66.785  1.00  0.00    -0.776 OA 
HETATM   16  C4* UNL     1      -9.078   7.061  66.998  1.00  0.00    -0.137 C  
HETATM   17  H3* UNL     1     -11.375   6.426  65.881  1.00  0.00     0.000 HD 
HETATM   18  O4* UNL     1      -8.724   6.712  68.357  1.00  0.00    -0.123 OA 
BRANCH  16  19
HETATM   19  C5* UNL     1      -7.995   7.998  66.459  1.00  0.00    -0.102 C  
HETATM   20  O5* UNL     1      -6.737   7.334  66.367  1.00  0.00    -0.057 OA 
HETATM   21  H5* UNL     1      -6.065   7.915  66.032  1.00  0.00     0.000 HD 
ENDBRANCH  16  19
ENDBRANCH   8  12
TORSDOF 2
ENDMDL
MODEL      167
REMARK 921   NORMALIZED FREE ENERGY PREDICTED BY IDOCK:   -3.08 KCAL/MOL
REMARK 922        TOTAL FREE ENERGY PREDICTED BY IDOCK:   -3.78 KCAL/MOL
REMARK 923 INTER-LIGAND FREE ENERGY PREDICTED BY IDOCK:   -3.49 KCAL/MOL
REMARK 924 INTRA-LIGAND FREE ENERGY PREDICTED BY IDOCK:   -0.29 KCAL/MOL
REMARK 927      BINDING AFFINITY PREDICTED BY RF-SCORE:    0.00 PKD
ROOT
HETATM    1  N   UNL     1     -10.498   6.108  70.051  1.00  0.00    -0.213 NA 
HETATM    2  C   UNL     1     -10.182   7.373  69.692  1.00  0.00    -0.210 C  
HETATM    3  H2  UNL     1      -9.910   5.604  70.715  1.00  0.00     0.000 HD 
HETATM    4  H1  UNL     1     -11.324   5.659  69.657  1.00  0.00     0.000 HD 
HETATM    5  N   UNL     1      -9.140   7.939  70.190  1.00  0.00    -0.152 N  
HETATM    6  H   UNL     1      -8.546   7.442  70.855  1.00  0.00     0.000 HD 
HETATM    7  C   UNL     1      -8.843   9.216  69.811  1.00  0.00    -0.160 C  
HETATM    8  N   UNL     1      -9.446   9.703  68.676  1.00  0.00    -0.144 N  
HETATM    9  O   UNL     1      -8.083   9.907  70.483  1.00  0.00    -0.230 OA 
HETATM   10  C   UNL     1     -10.622   9.116  68.347  1.00  0.00    -0.172 C  
HETATM   11  N   UNL     1     -11.020   7.993  68.829  1.00  0.00     0.079 NA 
ENDROOT
BRANCH   8  12
HETATM   12  C1* UNL     1      -9.118  11.046  68.229  1.00  0.00    -0.158 C  
HETATM   13  C2* UNL     1      -9.234  11.246  66.720  1.00  0.00    -0.186 C  
HETATM   14  C3* UNL     1      -9.472  12.731  66.610  1.00  0.00    -0.249 C  
HETATM   15  O3* UNL     1      -8.209  13.401  66.668  1.00  0.00    -0.406 OA 
HETATM   16  C4* UNL     1     -10.278  13.057  67.866  1.00  0.00    -0.234 C  
HETATM   17  H3* UNL     1      -8.359  14.336  66.599  1.00  0.00     0.000 HD 
HETATM   18  O4* UNL     1     -10.040  11.988  68.812  1.00  0.00    -0.190 OA 
BRANCH  16  19
HETATM   19  C5* UNL     1     -11.786  13.133  67.618  1.00  0.00    -0.369 C  
HETATM   20  O5* UNL     1     -12.422  13.988  68.565  1.00  0.00    -0.496 OA 
HETATM   21  H5* UNL     1     -13.358  14.035  68.410  1.00  0.00     0.000 HD 
ENDBRANCH  16  19
ENDBRANCH   8  12
TORSDOF 2
ENDMDL
MODEL      168
REMARK 921   NORMALIZED FREE ENERGY PREDICTED BY IDOCK:   -3.07 KCAL/MOL
REMARK 922        TOTAL FREE ENERGY PREDICTED BY IDOCK:   -3.77 KCAL/MOL
REMARK 923 INTER-LIGAND FREE ENERGY PREDICTED BY IDOCK:   -3.37 KCAL/MOL
REMARK 924 INTRA-LIGAND FREE ENERGY PREDICTED BY IDOCK:   -0.40 KCAL/MOL
REMARK 927      BINDING AFFINITY PREDICTED BY RF-SCORE:    0.00 PKD
ROOT
HETATM    1  N   UNL     1     -10.348  10.481  62.850  1.00  0.00    -0.622 NA 
HETATM    2  C   UNL     1     -10.091  11.414  63.794  1.00  0.00    -0.362 C  
HETATM    3  H2  UNL     1     -11.103  10.626  62.180  1.00  0.00     0.000 HD 
HETATM    4  H1  UNL     1      -9.785   9.631  62.809  1.00  0.00     0.000 HD 
HETATM    5  N   UNL     1     -10.801  12.485  63.845  1.00  0.00    -0.398 N  
HETATM    6  H   UNL     1     -11.558  12.640  63.179  1.00  0.00     0.000 HD 
HETATM    7  C   UNL     1     -10.521  13.411  64.808  1.00  0.00    -0.403 C  
HETATM    8  N   UNL     1      -9.753  13.012  65.876  1.00  0.00    -0.224 N  
HETATM    9  O   UNL     1     -10.925  14.566  64.702  1.00  0.00    -0.382 OA 
HETATM   10  C   UNL     1      -8.934  11.959  65.639  1.00  0.00     0.111 C  
HETATM   11  N   UNL     1      -9.058  11.169  64.633  1.00  0.00    -0.126 NA 
ENDROOT
BRANCH   8  12
HETATM   12  C1* UNL     1      -9.474  13.967  66.935  1.00  0.00    -0.265 C  
HETATM   13  C2* UNL     1      -9.423  13.353  68.332  1.00  0.00    -0.176 C  
HETATM   14  C3* UNL     1      -8.545  14.325  69.078  1.00  0.00     0.060 C  
HETATM   15  O3* UNL     1      -9.352  15.422  69.519  1.00  0.00    -0.265 OA 
HETATM   16  C4* UNL     1      -7.565  14.813  68.013  1.00  0.00    -0.125 C  
HETATM   17  H3* UNL     1      -8.799  16.034  69.990  1.00  0.00     0.000 HD 
HETATM   18  O4* UNL     1      -8.173  14.553  66.726  1.00  0.00    -0.120 OA 
BRANCH  16  19
HETATM   19  C5* UNL     1      -6.219  14.086  68.048  1.00  0.00    -0.142 C  
HETATM   20  O5* UNL     1      -5.928  13.478  66.792  1.00  0.00     0.070 OA 
HETATM   21  H5* UNL     1      -5.092  13.027  66.813  1.00  0.00     0.000 HD 
ENDBRANCH  16  19
ENDBRANCH   8  12
TORSDOF 2
ENDMDL
MODEL      169
REMARK 921   NORMALIZED FREE ENERGY PREDICTED BY IDOCK:   -3.07 KCAL/MOL
REMARK 922        TOTAL FREE ENERGY PREDICTED BY IDOCK:   -3.76 KCAL/MOL
REMARK 923 INTER-LIGAND FREE ENERGY PREDICTED BY IDOCK:   -4.02 KCAL/MOL
REMARK 924 INTRA-LIGAND FREE ENERGY PREDICTED BY IDOCK:    0.26 KCAL/MOL
REMARK 927      BINDING AFFINITY PREDICTED BY RF-SCORE:    0.00 PKD
ROOT
HETATM    1  N   UNL     1      -9.197   9.591  64.209  1.00  0.00    -0.420 NA 
HETATM    2  C   UNL     1      -9.372   9.362  65.531  1.00  0.00    -0.251 C  
HETATM    3  H2  UNL     1      -9.675  10.370  63.758  1.00  0.00     0.000 HD 
HETATM    4  H1  UNL     1      -8.587   8.982  63.664  1.00  0.00     0.000 HD 
HETATM    5  N   UNL     1     -10.142  10.130  66.217  1.00  0.00    -0.237 N  
HETATM    6  H   UNL     1     -10.624  10.913  65.775  1.00  0.00     0.000 HD 
HETATM    7  C   UNL     1     -10.301   9.878  67.548  1.00  0.00    -0.236 C  
HETATM    8  N   UNL     1      -9.931   8.638  68.014  1.00  0.00    -0.174 N  
HETATM    9  O   UNL     1     -10.737  10.743  68.302  1.00  0.00    -0.184 OA 
HETATM   10  C   UNL     1      -8.996   7.997  67.273  1.00  0.00    -0.138 C  
HETATM   11  N   UNL     1      -8.687   8.327  66.069  1.00  0.00    -0.147 NA 
ENDROOT
BRANCH   8  12
HETATM   12  C1* UNL     1     -10.127   8.330  69.419  1.00  0.00    -0.198 C  
HETATM   13  C2* UNL     1      -9.492   9.338  70.374  1.00  0.00    -0.292 C  
HETATM   14  C3* UNL     1     -10.327   9.173  71.619  1.00  0.00    -0.318 C  
HETATM   15  O3* UNL     1      -9.825   8.057  72.360  1.00  0.00    -0.200 OA 
HETATM   16  C4* UNL     1     -11.715   8.837  71.075  1.00  0.00    -0.282 C  
HETATM   17  H3* UNL     1     -10.350   7.952  73.144  1.00  0.00     0.000 HD 
HETATM   18  O4* UNL     1     -11.535   8.346  69.727  1.00  0.00     0.036 OA 
BRANCH  16  19
HETATM   19  C5* UNL     1     -12.651  10.046  71.011  1.00  0.00    -0.367 C  
HETATM   20  O5* UNL     1     -12.967  10.382  69.662  1.00  0.00    -0.616 OA 
HETATM   21  H5* UNL     1     -13.548  11.132  69.622  1.00  0.00     0.000 HD 
ENDBRANCH  16  19
ENDBRANCH   8  12
TORSDOF 2
ENDMDL
MODEL      170
REMARK 921   NORMALIZED FREE ENERGY PREDICTED BY IDOCK:   -3.04 KCAL/MOL
REMARK 922        TOTAL FREE ENERGY PREDICTED BY IDOCK:   -3.73 KCAL/MOL
REMARK 923 INTER-LIGAND FREE ENERGY PREDICTED BY IDOCK:   -3.89 KCAL/MOL
REMARK 924 INTRA-LIGAND FREE ENERGY PREDICTED BY IDOCK:    0.16 KCAL/MOL
REMARK 927      BINDING AFFINITY PREDICTED BY RF-SCORE:    0.00 PKD
ROOT
HETATM    1  N   UNL     1     -13.477  10.039  70.808  1.00  0.00    -0.522 NA 
HETATM    2  C   UNL     1     -12.373   9.382  71.233  1.00  0.00    -0.341 C  
HETATM    3  H2  UNL     1     -13.425  10.654  69.997  1.00  0.00     0.000 HD 
HETATM    4  H1  UNL     1     -14.361   9.917  71.301  1.00  0.00     0.000 HD 
HETATM    5  N   UNL     1     -11.258   9.536  70.611  1.00  0.00    -0.278 N  
HETATM    6  H   UNL     1     -11.196  10.149  69.798  1.00  0.00     0.000 HD 
HETATM    7  C   UNL     1     -10.159   8.863  71.059  1.00  0.00    -0.255 C  
HETATM    8  N   UNL     1     -10.201   8.345  72.332  1.00  0.00    -0.325 N  
HETATM    9  O   UNL     1      -9.181   8.706  70.334  1.00  0.00    -0.156 OA 
HETATM   10  C   UNL     1     -11.441   8.088  72.812  1.00  0.00    -0.356 C  
HETATM   11  N   UNL     1     -12.520   8.561  72.298  1.00  0.00    -0.379 NA 
ENDROOT
BRANCH   8  12
HETATM   12  C1* UNL     1      -9.030   7.658  72.849  1.00  0.00    -0.169 C  
HETATM   13  C2* UNL     1      -8.398   6.676  71.865  1.00  0.00    -0.114 C  
HETATM   14  C3* UNL     1      -6.971   6.611  72.346  1.00  0.00    -0.068 C  
HETATM   15  O3* UNL     1      -6.896   5.678  73.428  1.00  0.00    -0.080 OA 
HETATM   16  C4* UNL     1      -6.708   8.021  72.874  1.00  0.00    -0.083 C  
HETATM   17  H3* UNL     1      -5.998   5.637  73.731  1.00  0.00     0.000 HD 
HETATM   18  O4* UNL     1      -7.997   8.619  73.146  1.00  0.00    -0.392 OA 
BRANCH  16  19
HETATM   19  C5* UNL     1      -5.979   8.918  71.872  1.00  0.00    -0.069 C  
HETATM   20  O5* UNL     1      -6.834   9.950  71.387  1.00  0.00    -0.310 OA 
HETATM   21  H5* UNL     1      -6.382  10.508  70.765  1.00  0.00     0.000 HD 
ENDBRANCH  16  19
ENDBRANCH   8  12
TORSDOF 2
ENDMDL
MODEL      171
REMARK 921   NORMALIZED FREE ENERGY PREDICTED BY IDOCK:   -3.04 KCAL/MOL
REMARK 922        TOTAL FREE ENERGY PREDICTED BY IDOCK:   -3.73 KCAL/MOL
REMARK 923 INTER-LIGAND FREE ENERGY PREDICTED BY IDOCK:   -3.46 KCAL/MOL
REMARK 924 INTRA-LIGAND FREE ENERGY PREDICTED BY IDOCK:   -0.27 KCAL/MOL
REMARK 927      BINDING AFFINITY PREDICTED BY RF-SCORE:    0.00 PKD
ROOT
HETATM    1  N   UNL     1     -11.397  10.517  70.738  1.00  0.00    -0.382 NA 
HETATM    2  C   UNL     1     -11.070   9.206  70.790  1.00  0.00    -0.275 C  
HETATM    3  H2  UNL     1     -11.844  10.900  69.905  1.00  0.00     0.000 HD 
HETATM    4  H1  UNL     1     -11.196  11.123  71.533  1.00  0.00     0.000 HD 
HETATM    5  N   UNL     1     -11.325   8.443  69.786  1.00  0.00    -0.445 N  
HETATM    6  H   UNL     1     -11.772   8.816  68.949  1.00  0.00     0.000 HD 
HETATM    7  C   UNL     1     -10.985   7.124  69.863  1.00  0.00    -0.253 C  
HETATM    8  N   UNL     1     -10.087   6.750  70.834  1.00  0.00    -0.190 N  
HETATM    9  O   UNL     1     -11.490   6.301  69.104  1.00  0.00    -0.394 OA 
HETATM   10  C   UNL     1     -10.027   7.566  71.914  1.00  0.00    -0.171 C  
HETATM   11  N   UNL     1     -10.505   8.760  71.935  1.00  0.00    -0.335 NA 
ENDROOT
BRANCH   8  12
HETATM   12  C1* UNL     1      -9.678   5.358  70.914  1.00  0.00    -0.180 C  
HETATM   13  C2* UNL     1      -8.307   5.146  71.552  1.00  0.00    -0.120 C  
HETATM   14  C3* UNL     1      -8.409   3.734  72.071  1.00  0.00    -0.087 C  
HETATM   15  O3* UNL     1      -8.121   2.832  70.998  1.00  0.00    -0.052 OA 
HETATM   16  C4* UNL     1      -9.880   3.603  72.463  1.00  0.00    -0.154 C  
HETATM   17  H3* UNL     1      -8.185   1.943  71.325  1.00  0.00     0.000 HD 
HETATM   18  O4* UNL     1     -10.603   4.629  71.743  1.00  0.00    -0.131 OA 
BRANCH  16  19
HETATM   19  C5* UNL     1     -10.131   3.816  73.957  1.00  0.00    -0.144 C  
HETATM   20  O5* UNL     1     -10.704   2.655  74.554  1.00  0.00    -0.145 OA 
HETATM   21  H5* UNL     1     -10.860   2.787  75.482  1.00  0.00     0.000 HD 
ENDBRANCH  16  19
ENDBRANCH   8  12
TORSDOF 2
ENDMDL
MODEL      172
REMARK 921   NORMALIZED FREE ENERGY PREDICTED BY IDOCK:   -3.03 KCAL/MOL
REMARK 922        TOTAL FREE ENERGY PREDICTED BY IDOCK:   -3.72 KCAL/MOL
REMARK 923 INTER-LIGAND FREE ENERGY PREDICTED BY IDOCK:   -3.49 KCAL/MOL
REMARK 924 INTRA-LIGAND FREE ENERGY PREDICTED BY IDOCK:   -0.23 KCAL/MOL
REMARK 927      BINDING AFFINITY PREDICTED BY RF-SCORE:    0.00 PKD
ROOT
HETATM    1  N   UNL     1      -6.474   8.501  72.924  1.00  0.00    -0.144 NA 
HETATM    2  C   UNL     1      -7.413   8.792  71.995  1.00  0.00     0.025 C  
HETATM    3  H2  UNL     1      -6.745   8.065  73.805  1.00  0.00     0.000 HD 
HETATM    4  H1  UNL     1      -5.495   8.717  72.740  1.00  0.00     0.000 HD 
HETATM    5  N   UNL     1      -8.649   8.519  72.226  1.00  0.00    -0.188 N  
HETATM    6  H   UNL     1      -8.929   8.083  73.105  1.00  0.00     0.000 HD 
HETATM    7  C   UNL     1      -9.576   8.823  71.273  1.00  0.00    -0.253 C  
HETATM    8  N   UNL     1      -9.214   9.709  70.287  1.00  0.00    -0.254 N  
HETATM    9  O   UNL     1     -10.686   8.297  71.289  1.00  0.00    -0.217 OA 
HETATM   10  C   UNL     1      -7.885   9.789  70.040  1.00  0.00    -0.178 C  
HETATM   11  N   UNL     1      -6.981   9.343  70.837  1.00  0.00    -0.184 NA 
ENDROOT
BRANCH   8  12
HETATM   12  C1* UNL     1     -10.196  10.081  69.282  1.00  0.00    -0.214 C  
HETATM   13  C2* UNL     1      -9.832  11.333  68.487  1.00  0.00    -0.198 C  
HETATM   14  C3* UNL     1     -10.594  11.131  67.203  1.00  0.00    -0.244 C  
HETATM   15  O3* UNL     1     -11.943  11.568  67.399  1.00  0.00    -0.623 OA 
HETATM   16  C4* UNL     1     -10.576   9.615  67.011  1.00  0.00    -0.197 C  
HETATM   17  H3* UNL     1     -12.423  11.441  66.590  1.00  0.00     0.000 HD 
HETATM   18  O4* UNL     1     -10.310   9.027  68.306  1.00  0.00    -0.198 OA 
BRANCH  16  19
HETATM   19  C5* UNL     1      -9.486   9.138  66.049  1.00  0.00    -0.255 C  
HETATM   20  O5* UNL     1      -8.926  10.229  65.321  1.00  0.00    -0.165 OA 
HETATM   21  H5* UNL     1      -8.249   9.933  64.725  1.00  0.00     0.000 HD 
ENDBRANCH  16  19
ENDBRANCH   8  12
TORSDOF 2
ENDMDL
MODEL      173
REMARK 921   NORMALIZED FREE ENERGY PREDICTED BY IDOCK:   -3.02 KCAL/MOL
REMARK 922        TOTAL FREE ENERGY PREDICTED BY IDOCK:   -3.71 KCAL/MOL
REMARK 923 INTER-LIGAND FREE ENERGY PREDICTED BY IDOCK:   -3.39 KCAL/MOL
REMARK 924 INTRA-LIGAND FREE ENERGY PREDICTED BY IDOCK:   -0.32 KCAL/MOL
REMARK 927      BINDING AFFINITY PREDICTED BY RF-SCORE:    0.00 PKD
ROOT
HETATM    1  N   UNL     1      -9.876   4.109  65.691  1.00  0.00    -0.216 NA 
HETATM    2  C   UNL     1      -9.883   5.204  66.486  1.00  0.00    -0.192 C  
HETATM    3  H2  UNL     1     -10.088   4.198  64.698  1.00  0.00     0.000 HD 
HETATM    4  H1  UNL     1      -9.657   3.195  66.087  1.00  0.00     0.000 HD 
HETATM    5  N   UNL     1     -10.159   6.356  65.986  1.00  0.00    -0.369 N  
HETATM    6  H   UNL     1     -10.372   6.455  64.993  1.00  0.00     0.000 HD 
HETATM    7  C   UNL     1     -10.160   7.444  66.809  1.00  0.00    -0.235 C  
HETATM    8  N   UNL     1     -10.219   7.222  68.165  1.00  0.00    -0.180 N  
HETATM    9  O   UNL     1     -10.083   8.579  66.347  1.00  0.00    -0.279 OA 
HETATM   10  C   UNL     1      -9.755   6.017  68.574  1.00  0.00    -0.123 C  
HETATM   11  N   UNL     1      -9.565   5.018  67.788  1.00  0.00    -0.139 NA 
ENDROOT
BRANCH   8  12
HETATM   12  C1* UNL     1     -10.261   8.363  69.062  1.00  0.00    -0.207 C  
HETATM   13  C2* UNL     1     -11.064   8.124  70.339  1.00  0.00    -0.239 C  
HETATM   14  C3* UNL     1     -10.451   9.116  71.294  1.00  0.00    -0.328 C  
HETATM   15  O3* UNL     1     -11.056  10.394  71.075  1.00  0.00    -0.325 OA 
HETATM   16  C4* UNL     1      -8.986   9.168  70.864  1.00  0.00    -0.237 C  
HETATM   17  H3* UNL     1     -10.671  11.019  71.677  1.00  0.00     0.000 HD 
HETATM   18  O4* UNL     1      -8.927   8.681  69.503  1.00  0.00    -0.142 OA 
BRANCH  16  19
HETATM   19  C5* UNL     1      -8.071   8.286  71.716  1.00  0.00    -0.141 C  
HETATM   20  O5* UNL     1      -6.840   8.023  71.048  1.00  0.00    -0.040 OA 
HETATM   21  H5* UNL     1      -6.272   7.476  71.578  1.00  0.00     0.000 HD 
ENDBRANCH  16  19
ENDBRANCH   8  12
TORSDOF 2
ENDMDL
MODEL      174
REMARK 921   NORMALIZED FREE ENERGY PREDICTED BY IDOCK:   -3.01 KCAL/MOL
REMARK 922        TOTAL FREE ENERGY PREDICTED BY IDOCK:   -3.70 KCAL/MOL
REMARK 923 INTER-LIGAND FREE ENERGY PREDICTED BY IDOCK:   -3.32 KCAL/MOL
REMARK 924 INTRA-LIGAND FREE ENERGY PREDICTED BY IDOCK:   -0.39 KCAL/MOL
REMARK 927      BINDING AFFINITY PREDICTED BY RF-SCORE:    0.00 PKD
ROOT
HETATM    1  N   UNL     1      -6.464   6.432  67.520  1.00  0.00    -0.047 NA 
HETATM    2  C   UNL     1      -7.597   6.663  68.221  1.00  0.00    -0.104 C  
HETATM    3  H2  UNL     1      -6.075   5.491  67.472  1.00  0.00     0.000 HD 
HETATM    4  H1  UNL     1      -5.999   7.202  67.038  1.00  0.00     0.000 HD 
HETATM    5  N   UNL     1      -8.183   5.691  68.828  1.00  0.00    -0.103 N  
HETATM    6  H   UNL     1      -7.801   4.746  68.786  1.00  0.00     0.000 HD 
HETATM    7  C   UNL     1      -9.324   5.950  69.529  1.00  0.00    -0.134 C  
HETATM    8  N   UNL     1      -9.597   7.259  69.849  1.00  0.00    -0.164 N  
HETATM    9  O   UNL     1     -10.090   5.041  69.837  1.00  0.00    -0.236 OA 
HETATM   10  C   UNL     1      -9.035   8.183  69.033  1.00  0.00    -0.144 C  
HETATM   11  N   UNL     1      -8.073   7.929  68.219  1.00  0.00    -0.121 NA 
ENDROOT
BRANCH   8  12
HETATM   12  C1* UNL     1     -10.785   7.558  70.628  1.00  0.00    -0.230 C  
HETATM   13  C2* UNL     1     -10.495   8.113  72.021  1.00  0.00    -0.329 C  
HETATM   14  C3* UNL     1     -11.751   8.888  72.327  1.00  0.00    -0.280 C  
HETATM   15  O3* UNL     1     -12.738   7.979  72.824  1.00  0.00    -0.578 OA 
HETATM   16  C4* UNL     1     -12.189   9.413  70.961  1.00  0.00    -0.279 C  
HETATM   17  H3* UNL     1     -13.529   8.466  73.017  1.00  0.00     0.000 HD 
HETATM   18  O4* UNL     1     -11.555   8.579  69.963  1.00  0.00    -0.022 OA 
BRANCH  16  19
HETATM   19  C5* UNL     1     -11.759  10.859  70.701  1.00  0.00    -0.316 C  
HETATM   20  O5* UNL     1     -11.166  10.997  69.412  1.00  0.00    -0.227 OA 
HETATM   21  H5* UNL     1     -10.900  11.894  69.250  1.00  0.00     0.000 HD 
ENDBRANCH  16  19
ENDBRANCH   8  12
TORSDOF 2
ENDMDL
MODEL      175
REMARK 921   NORMALIZED FREE ENERGY PREDICTED BY IDOCK:   -2.99 KCAL/MOL
REMARK 922        TOTAL FREE ENERGY PREDICTED BY IDOCK:   -3.68 KCAL/MOL
REMARK 923 INTER-LIGAND FREE ENERGY PREDICTED BY IDOCK:   -3.34 KCAL/MOL
REMARK 924 INTRA-LIGAND FREE ENERGY PREDICTED BY IDOCK:   -0.34 KCAL/MOL
REMARK 927      BINDING AFFINITY PREDICTED BY RF-SCORE:    0.00 PKD
ROOT
HETATM    1  N   UNL     1      -8.461  17.160  68.724  1.00  0.00    -0.250 NA 
HETATM    2  C   UNL     1      -8.856  15.889  68.483  1.00  0.00    -0.195 C  
HETATM    3  H2  UNL     1      -9.125  17.928  68.630  1.00  0.00     0.000 HD 
HETATM    4  H1  UNL     1      -7.497  17.349  69.001  1.00  0.00     0.000 HD 
HETATM    5  N   UNL     1     -10.070  15.652  68.134  1.00  0.00    -0.221 N  
HETATM    6  H   UNL     1     -10.742  16.414  68.037  1.00  0.00     0.000 HD 
HETATM    7  C   UNL     1     -10.443  14.361  67.896  1.00  0.00    -0.239 C  
HETATM    8  N   UNL     1      -9.449  13.434  67.693  1.00  0.00    -0.209 N  
HETATM    9  O   UNL     1     -11.629  14.043  67.891  1.00  0.00    -0.303 OA 
HETATM   10  C   UNL     1      -8.250  13.741  68.246  1.00  0.00    -0.156 C  
HETATM   11  N   UNL     1      -7.930  14.917  68.654  1.00  0.00    -0.136 NA 
ENDROOT
BRANCH   8  12
HETATM   12  C1* UNL     1      -9.819  12.061  67.399  1.00  0.00    -0.184 C  
HETATM   13  C2* UNL     1      -8.888  11.362  66.410  1.00  0.00    -0.193 C  
HETATM   14  C3* UNL     1      -9.079   9.909  66.761  1.00  0.00    -0.143 C  
HETATM   15  O3* UNL     1     -10.253   9.429  66.096  1.00  0.00    -0.279 OA 
HETATM   16  C4* UNL     1      -9.326   9.934  68.268  1.00  0.00    -0.132 C  
HETATM   17  H3* UNL     1     -10.373   8.514  66.317  1.00  0.00     0.000 HD 
HETATM   18  O4* UNL     1      -9.756  11.274  68.605  1.00  0.00    -0.196 OA 
BRANCH  16  19
HETATM   19  C5* UNL     1      -8.075   9.625  69.094  1.00  0.00    -0.104 C  
HETATM   20  O5* UNL     1      -8.160  10.200  70.395  1.00  0.00    -0.403 OA 
HETATM   21  H5* UNL     1      -7.383  10.008  70.907  1.00  0.00     0.000 HD 
ENDBRANCH  16  19
ENDBRANCH   8  12
TORSDOF 2
ENDMDL
MODEL      176
REMARK 921   NORMALIZED FREE ENERGY PREDICTED BY IDOCK:   -2.97 KCAL/MOL
REMARK 922        TOTAL FREE ENERGY PREDICTED BY IDOCK:   -3.66 KCAL/MOL
REMARK 923 INTER-LIGAND FREE ENERGY PREDICTED BY IDOCK:   -3.92 KCAL/MOL
REMARK 924 INTRA-LIGAND FREE ENERGY PREDICTED BY IDOCK:    0.27 KCAL/MOL
REMARK 927      BINDING AFFINITY PREDICTED BY RF-SCORE:    0.00 PKD
ROOT
HETATM    1  N   UNL     1     -11.007   6.040  66.241  1.00  0.00    -0.666 NA 
HETATM    2  C   UNL     1     -10.847   5.996  67.583  1.00  0.00    -0.295 C  
HETATM    3  H2  UNL     1     -11.660   6.705  65.826  1.00  0.00     0.000 HD 
HETATM    4  H1  UNL     1     -10.474   5.408  65.644  1.00  0.00     0.000 HD 
HETATM    5  N   UNL     1     -11.519   6.794  68.335  1.00  0.00    -0.524 N  
HETATM    6  H   UNL     1     -12.175   7.462  67.929  1.00  0.00     0.000 HD 
HETATM    7  C   UNL     1     -11.339   6.729  69.686  1.00  0.00    -0.272 C  
HETATM    8  N   UNL     1     -10.736   5.605  70.198  1.00  0.00    -0.311 N  
HETATM    9  O   UNL     1     -11.685   7.659  70.409  1.00  0.00    -0.194 OA 
HETATM   10  C   UNL     1      -9.929   4.938  69.338  1.00  0.00    -0.212 C  
HETATM   11  N   UNL     1      -9.944   5.110  68.064  1.00  0.00    -0.154 NA 
ENDROOT
BRANCH   8  12
HETATM   12  C1* UNL     1     -10.567   5.493  71.636  1.00  0.00    -0.231 C  
HETATM   13  C2* UNL     1      -9.592   4.399  72.067  1.00  0.00    -0.209 C  
HETATM   14  C3* UNL     1      -9.135   4.890  73.417  1.00  0.00    -0.117 C  
HETATM   15  O3* UNL     1     -10.104   4.503  74.396  1.00  0.00    -0.169 OA 
HETATM   16  C4* UNL     1      -9.146   6.410  73.267  1.00  0.00    -0.128 C  
HETATM   17  H3* UNL     1      -9.816   4.811  75.246  1.00  0.00     0.000 HD 
HETATM   18  O4* UNL     1     -10.019   6.720  72.156  1.00  0.00    -0.165 OA 
BRANCH  16  19
HETATM   19  C5* UNL     1      -7.768   7.000  72.956  1.00  0.00    -0.090 C  
HETATM   20  O5* UNL     1      -7.874   8.345  72.498  1.00  0.00    -0.188 OA 
HETATM   21  H5* UNL     1      -7.019   8.711  72.305  1.00  0.00     0.000 HD 
ENDBRANCH  16  19
ENDBRANCH   8  12
TORSDOF 2
ENDMDL
MODEL      177
REMARK 921   NORMALIZED FREE ENERGY PREDICTED BY IDOCK:   -2.96 KCAL/MOL
REMARK 922        TOTAL FREE ENERGY PREDICTED BY IDOCK:   -3.64 KCAL/MOL
REMARK 923 INTER-LIGAND FREE ENERGY PREDICTED BY IDOCK:   -3.29 KCAL/MOL
REMARK 924 INTRA-LIGAND FREE ENERGY PREDICTED BY IDOCK:   -0.35 KCAL/MOL
REMARK 927      BINDING AFFINITY PREDICTED BY RF-SCORE:    0.00 PKD
ROOT
HETATM    1  N   UNL     1     -10.307  10.027  67.881  1.00  0.00    -0.192 NA 
HETATM    2  C   UNL     1     -10.345   9.338  69.044  1.00  0.00    -0.214 C  
HETATM    3  H2  UNL     1     -11.158  10.449  67.509  1.00  0.00     0.000 HD 
HETATM    4  H1  UNL     1      -9.426  10.124  67.376  1.00  0.00     0.000 HD 
HETATM    5  N   UNL     1     -11.456   9.216  69.680  1.00  0.00    -0.428 N  
HETATM    6  H   UNL     1     -12.312   9.636  69.316  1.00  0.00     0.000 HD 
HETATM    7  C   UNL     1     -11.468   8.516  70.851  1.00  0.00    -0.267 C  
HETATM    8  N   UNL     1     -10.402   7.688  71.112  1.00  0.00    -0.200 N  
HETATM    9  O   UNL     1     -12.391   8.647  71.650  1.00  0.00    -0.303 OA 
HETATM   10  C   UNL     1      -9.245   8.020  70.491  1.00  0.00    -0.154 C  
HETATM   11  N   UNL     1      -9.175   8.827  69.493  1.00  0.00    -0.148 NA 
ENDROOT
BRANCH   8  12
HETATM   12  C1* UNL     1     -10.408   6.901  72.333  1.00  0.00    -0.202 C  
HETATM   13  C2* UNL     1     -10.981   5.495  72.167  1.00  0.00    -0.291 C  
HETATM   14  C3* UNL     1     -10.320   4.743  73.293  1.00  0.00    -0.182 C  
HETATM   15  O3* UNL     1     -11.063   4.975  74.494  1.00  0.00    -0.284 OA 
HETATM   16  C4* UNL     1      -8.949   5.407  73.410  1.00  0.00    -0.129 C  
HETATM   17  H3* UNL     1     -10.647   4.501  75.204  1.00  0.00     0.000 HD 
HETATM   18  O4* UNL     1      -9.055   6.711  72.792  1.00  0.00    -0.137 OA 
BRANCH  16  19
HETATM   19  C5* UNL     1      -7.839   4.638  72.689  1.00  0.00    -0.088 C  
HETATM   20  O5* UNL     1      -6.921   5.527  72.059  1.00  0.00    -0.074 OA 
HETATM   21  H5* UNL     1      -6.232   5.050  71.612  1.00  0.00     0.000 HD 
ENDBRANCH  16  19
ENDBRANCH   8  12
TORSDOF 2
ENDMDL
MODEL      178
REMARK 921   NORMALIZED FREE ENERGY PREDICTED BY IDOCK:   -2.95 KCAL/MOL
REMARK 922        TOTAL FREE ENERGY PREDICTED BY IDOCK:   -3.63 KCAL/MOL
REMARK 923 INTER-LIGAND FREE ENERGY PREDICTED BY IDOCK:   -3.27 KCAL/MOL
REMARK 924 INTRA-LIGAND FREE ENERGY PREDICTED BY IDOCK:   -0.36 KCAL/MOL
REMARK 927      BINDING AFFINITY PREDICTED BY RF-SCORE:    0.00 PKD
ROOT
HETATM    1  N   UNL     1     -12.393   6.542  71.450  1.00  0.00    -0.277 NA 
HETATM    2  C   UNL     1     -11.569   6.743  70.396  1.00  0.00    -0.367 C  
HETATM    3  H2  UNL     1     -12.839   7.336  71.908  1.00  0.00     0.000 HD 
HETATM    4  H1  UNL     1     -12.568   5.595  71.784  1.00  0.00     0.000 HD 
HETATM    5  N   UNL     1     -11.349   7.938  69.974  1.00  0.00    -0.456 N  
HETATM    6  H   UNL     1     -11.791   8.739  70.426  1.00  0.00     0.000 HD 
HETATM    7  C   UNL     1     -10.513   8.114  68.910  1.00  0.00    -0.185 C  
HETATM    8  N   UNL     1      -9.683   7.073  68.570  1.00  0.00    -0.140 N  
HETATM    9  O   UNL     1     -10.528   9.160  68.268  1.00  0.00    -0.211 OA 
HETATM   10  C   UNL     1     -10.111   5.843  68.946  1.00  0.00    -0.180 C  
HETATM   11  N   UNL     1     -11.033   5.643  69.819  1.00  0.00    -0.315 NA 
ENDROOT
BRANCH   8  12
HETATM   12  C1* UNL     1      -8.755   7.247  67.466  1.00  0.00    -0.121 C  
HETATM   13  C2* UNL     1      -7.498   6.386  67.565  1.00  0.00    -0.092 C  
HETATM   14  C3* UNL     1      -7.075   6.268  66.122  1.00  0.00    -0.067 C  
HETATM   15  O3* UNL     1      -6.327   7.435  65.769  1.00  0.00    -0.040 OA 
HETATM   16  C4* UNL     1      -8.399   6.265  65.361  1.00  0.00    -0.148 C  
HETATM   17  H3* UNL     1      -6.060   7.361  64.861  1.00  0.00     0.000 HD 
HETATM   18  O4* UNL     1      -9.391   6.855  66.233  1.00  0.00    -0.163 OA 
BRANCH  16  19
HETATM   19  C5* UNL     1      -8.882   4.862  64.988  1.00  0.00    -0.154 C  
HETATM   20  O5* UNL     1     -10.272   4.704  65.262  1.00  0.00    -0.354 OA 
HETATM   21  H5* UNL     1     -10.572   3.833  65.030  1.00  0.00     0.000 HD 
ENDBRANCH  16  19
ENDBRANCH   8  12
TORSDOF 2
ENDMDL
MODEL      179
REMARK 921   NORMALIZED FREE ENERGY PREDICTED BY IDOCK:   -2.94 KCAL/MOL
REMARK 922        TOTAL FREE ENERGY PREDICTED BY IDOCK:   -3.62 KCAL/MOL
REMARK 923 INTER-LIGAND FREE ENERGY PREDICTED BY IDOCK:   -3.49 KCAL/MOL
REMARK 924 INTRA-LIGAND FREE ENERGY PREDICTED BY IDOCK:   -0.12 KCAL/MOL
REMARK 927      BINDING AFFINITY PREDICTED BY RF-SCORE:    0.00 PKD
ROOT
HETATM    1  N   UNL     1      -6.566   8.586  67.429  1.00  0.00    -0.058 NA 
HETATM    2  C   UNL     1      -7.536   8.993  68.278  1.00  0.00    -0.091 C  
HETATM    3  H2  UNL     1      -6.433   9.063  66.537  1.00  0.00     0.000 HD 
HETATM    4  H1  UNL     1      -5.967   7.800  67.681  1.00  0.00     0.000 HD 
HETATM    5  N   UNL     1      -8.291   9.984  67.959  1.00  0.00    -0.116 N  
HETATM    6  H   UNL     1      -8.166  10.468  67.070  1.00  0.00     0.000 HD 
HETATM    7  C   UNL     1      -9.263  10.376  68.833  1.00  0.00    -0.177 C  
HETATM    8  N   UNL     1      -9.621   9.497  69.828  1.00  0.00    -0.201 N  
HETATM    9  O   UNL     1      -9.776  11.488  68.743  1.00  0.00    -0.196 OA 
HETATM   10  C   UNL     1      -8.671   8.595  70.173  1.00  0.00    -0.143 C  
HETATM   11  N   UNL     1      -7.638   8.333  69.455  1.00  0.00    -0.094 NA 
ENDROOT
BRANCH   8  12
HETATM   12  C1* UNL     1     -10.680   9.873  70.748  1.00  0.00    -0.280 C  
HETATM   13  C2* UNL     1     -12.083   9.797  70.150  1.00  0.00    -0.018 C  
HETATM   14  C3* UNL     1     -12.944   9.603  71.372  1.00  0.00    -0.385 C  
HETATM   15  O3* UNL     1     -13.194  10.882  71.961  1.00  0.00    -0.502 OA 
HETATM   16  C4* UNL     1     -12.059   8.779  72.305  1.00  0.00    -0.353 C  
HETATM   17  H3* UNL     1     -13.737  10.761  72.731  1.00  0.00     0.000 HD 
HETATM   18  O4* UNL     1     -10.693   8.965  71.868  1.00  0.00    -0.330 OA 
BRANCH  16  19
HETATM   19  C5* UNL     1     -12.362   7.280  72.263  1.00  0.00    -0.112 C  
HETATM   20  O5* UNL     1     -11.390   6.536  72.994  1.00  0.00    -0.438 OA 
HETATM   21  H5* UNL     1     -11.578   5.605  72.968  1.00  0.00     0.000 HD 
ENDBRANCH  16  19
ENDBRANCH   8  12
TORSDOF 2
ENDMDL
MODEL      180
REMARK 921   NORMALIZED FREE ENERGY PREDICTED BY IDOCK:   -2.94 KCAL/MOL
REMARK 922        TOTAL FREE ENERGY PREDICTED BY IDOCK:   -3.62 KCAL/MOL
REMARK 923 INTER-LIGAND FREE ENERGY PREDICTED BY IDOCK:   -4.06 KCAL/MOL
REMARK 924 INTRA-LIGAND FREE ENERGY PREDICTED BY IDOCK:    0.44 KCAL/MOL
REMARK 927      BINDING AFFINITY PREDICTED BY RF-SCORE:    0.00 PKD
ROOT
HETATM    1  N   UNL     1      -8.536   6.464  68.531  1.00  0.00    -0.119 NA 
HETATM    2  C   UNL     1      -8.789   7.608  67.856  1.00  0.00    -0.126 C  
HETATM    3  H2  UNL     1      -9.072   6.235  69.368  1.00  0.00     0.000 HD 
HETATM    4  H1  UNL     1      -7.808   5.830  68.201  1.00  0.00     0.000 HD 
HETATM    5  N   UNL     1      -9.706   8.407  68.273  1.00  0.00    -0.151 N  
HETATM    6  H   UNL     1     -10.248   8.187  69.109  1.00  0.00     0.000 HD 
HETATM    7  C   UNL     1      -9.941   9.556  67.574  1.00  0.00    -0.186 C  
HETATM    8  N   UNL     1      -8.976   9.976  66.690  1.00  0.00    -0.138 N  
HETATM    9  O   UNL     1     -10.993  10.172  67.719  1.00  0.00    -0.280 OA 
HETATM   10  C   UNL     1      -8.167   9.001  66.209  1.00  0.00    -0.115 C  
HETATM   11  N   UNL     1      -8.059   7.835  66.739  1.00  0.00    -0.113 NA 
ENDROOT
BRANCH   8  12
HETATM   12  C1* UNL     1      -9.184  11.216  65.962  1.00  0.00    -0.205 C  
HETATM   13  C2* UNL     1     -10.485  11.261  65.164  1.00  0.00    -0.351 C  
HETATM   14  C3* UNL     1     -10.750  12.742  65.064  1.00  0.00    -0.296 C  
HETATM   15  O3* UNL     1      -9.986  13.269  63.974  1.00  0.00    -0.762 OA 
HETATM   16  C4* UNL     1     -10.202  13.292  66.380  1.00  0.00    -0.292 C  
HETATM   17  H3* UNL     1     -10.153  14.202  63.911  1.00  0.00     0.000 HD 
HETATM   18  O4* UNL     1      -9.268  12.314  66.892  1.00  0.00    -0.197 OA 
BRANCH  16  19
HETATM   19  C5* UNL     1     -11.281  13.509  67.443  1.00  0.00    -0.295 C  
HETATM   20  O5* UNL     1     -12.272  12.485  67.388  1.00  0.00    -0.430 OA 
HETATM   21  H5* UNL     1     -12.942  12.619  68.048  1.00  0.00     0.000 HD 
ENDBRANCH  16  19
ENDBRANCH   8  12
TORSDOF 2
ENDMDL
MODEL      181
REMARK 921   NORMALIZED FREE ENERGY PREDICTED BY IDOCK:   -2.94 KCAL/MOL
REMARK 922        TOTAL FREE ENERGY PREDICTED BY IDOCK:   -3.62 KCAL/MOL
REMARK 923 INTER-LIGAND FREE ENERGY PREDICTED BY IDOCK:   -3.33 KCAL/MOL
REMARK 924 INTRA-LIGAND FREE ENERGY PREDICTED BY IDOCK:   -0.29 KCAL/MOL
REMARK 927      BINDING AFFINITY PREDICTED BY RF-SCORE:    0.00 PKD
ROOT
HETATM    1  N   UNL     1      -9.651   2.985  66.855  1.00  0.00    -0.410 NA 
HETATM    2  C   UNL     1      -9.673   3.530  68.093  1.00  0.00    -0.006 C  
HETATM    3  H2  UNL     1      -9.508   1.982  66.741  1.00  0.00     0.000 HD 
HETATM    4  H1  UNL     1      -9.777   3.579  66.036  1.00  0.00     0.000 HD 
HETATM    5  N   UNL     1      -9.514   2.780  69.125  1.00  0.00    -0.137 N  
HETATM    6  H   UNL     1      -9.371   1.775  69.022  1.00  0.00     0.000 HD 
HETATM    7  C   UNL     1      -9.541   3.355  70.363  1.00  0.00    -0.157 C  
HETATM    8  N   UNL     1      -9.380   4.718  70.439  1.00  0.00    -0.139 N  
HETATM    9  O   UNL     1      -9.728   2.673  71.366  1.00  0.00    -0.151 OA 
HETATM   10  C   UNL     1      -9.729   5.406  69.325  1.00  0.00    -0.164 C  
HETATM   11  N   UNL     1      -9.894   4.863  68.172  1.00  0.00    -0.152 NA 
ENDROOT
BRANCH   8  12
HETATM   12  C1* UNL     1      -9.364   5.350  71.747  1.00  0.00    -0.146 C  
HETATM   13  C2* UNL     1      -8.514   6.617  71.818  1.00  0.00    -0.119 C  
HETATM   14  C3* UNL     1      -9.144   7.363  72.966  1.00  0.00    -0.155 C  
HETATM   15  O3* UNL     1      -8.606   6.855  74.190  1.00  0.00    -0.136 OA 
HETATM   16  C4* UNL     1     -10.622   6.988  72.868  1.00  0.00    -0.272 C  
HETATM   17  H3* UNL     1      -9.003   7.325  74.914  1.00  0.00     0.000 HD 
HETATM   18  O4* UNL     1     -10.699   5.765  72.099  1.00  0.00    -0.214 OA 
BRANCH  16  19
HETATM   19  C5* UNL     1     -11.470   8.043  72.153  1.00  0.00    -0.335 C  
HETATM   20  O5* UNL     1     -12.642   8.356  72.900  1.00  0.00    -0.636 OA 
HETATM   21  H5* UNL     1     -13.168   9.011  72.457  1.00  0.00     0.000 HD 
ENDBRANCH  16  19
ENDBRANCH   8  12
TORSDOF 2
ENDMDL
MODEL      182
REMARK 921   NORMALIZED FREE ENERGY PREDICTED BY IDOCK:   -2.92 KCAL/MOL
REMARK 922        TOTAL FREE ENERGY PREDICTED BY IDOCK:   -3.60 KCAL/MOL
REMARK 923 INTER-LIGAND FREE ENERGY PREDICTED BY IDOCK:   -3.42 KCAL/MOL
REMARK 924 INTRA-LIGAND FREE ENERGY PREDICTED BY IDOCK:   -0.18 KCAL/MOL
REMARK 927      BINDING AFFINITY PREDICTED BY RF-SCORE:    0.00 PKD
ROOT
HETATM    1  N   UNL     1      -8.362   8.005  65.862  1.00  0.00    -0.126 NA 
HETATM    2  C   UNL     1      -9.025   8.138  67.033  1.00  0.00    -0.141 C  
HETATM    3  H2  UNL     1      -8.449   8.721  65.141  1.00  0.00     0.000 HD 
HETATM    4  H1  UNL     1      -7.775   7.187  65.701  1.00  0.00     0.000 HD 
HETATM    5  N   UNL     1      -9.766   9.170  67.236  1.00  0.00    -0.163 N  
HETATM    6  H   UNL     1      -9.858   9.892  66.521  1.00  0.00     0.000 HD 
HETATM    7  C   UNL     1     -10.424   9.281  68.426  1.00  0.00    -0.206 C  
HETATM    8  N   UNL     1     -10.554   8.148  69.193  1.00  0.00    -0.202 N  
HETATM    9  O   UNL     1     -10.860  10.365  68.802  1.00  0.00    -0.206 OA 
HETATM   10  C   UNL     1      -9.613   7.196  68.984  1.00  0.00    -0.146 C  
HETATM   11  N   UNL     1      -8.843   7.165  67.955  1.00  0.00    -0.125 NA 
ENDROOT
BRANCH   8  12
HETATM   12  C1* UNL     1     -11.285   8.229  70.446  1.00  0.00    -0.219 C  
HETATM   13  C2* UNL     1     -12.239   7.061  70.689  1.00  0.00    -0.289 C  
HETATM   14  C3* UNL     1     -12.351   7.045  72.192  1.00  0.00    -0.191 C  
HETATM   15  O3* UNL     1     -13.329   8.012  72.587  1.00  0.00    -0.525 OA 
HETATM   16  C4* UNL     1     -10.969   7.502  72.658  1.00  0.00    -0.336 C  
HETATM   17  H3* UNL     1     -13.400   8.001  73.534  1.00  0.00     0.000 HD 
HETATM   18  O4* UNL     1     -10.357   8.201  71.549  1.00  0.00    -0.196 OA 
BRANCH  16  19
HETATM   19  C5* UNL     1     -10.046   6.346  73.047  1.00  0.00    -0.189 C  
HETATM   20  O5* UNL     1      -9.779   5.501  71.931  1.00  0.00    -0.158 OA 
HETATM   21  H5* UNL     1      -9.205   4.783  72.172  1.00  0.00     0.000 HD 
ENDBRANCH  16  19
ENDBRANCH   8  12
TORSDOF 2
ENDMDL
MODEL      183
REMARK 921   NORMALIZED FREE ENERGY PREDICTED BY IDOCK:   -2.92 KCAL/MOL
REMARK 922        TOTAL FREE ENERGY PREDICTED BY IDOCK:   -3.60 KCAL/MOL
REMARK 923 INTER-LIGAND FREE ENERGY PREDICTED BY IDOCK:   -3.25 KCAL/MOL
REMARK 924 INTRA-LIGAND FREE ENERGY PREDICTED BY IDOCK:   -0.35 KCAL/MOL
REMARK 927      BINDING AFFINITY PREDICTED BY RF-SCORE:    0.00 PKD
ROOT
HETATM    1  N   UNL     1     -11.067   6.084  68.146  1.00  0.00    -0.261 NA 
HETATM    2  C   UNL     1     -10.470   7.258  68.451  1.00  0.00    -0.195 C  
HETATM    3  H2  UNL     1     -11.758   5.682  68.779  1.00  0.00     0.000 HD 
HETATM    4  H1  UNL     1     -10.825   5.601  67.281  1.00  0.00     0.000 HD 
HETATM    5  N   UNL     1     -10.776   7.867  69.542  1.00  0.00    -0.323 N  
HETATM    6  H   UNL     1     -11.466   7.473  70.182  1.00  0.00     0.000 HD 
HETATM    7  C   UNL     1     -10.159   9.050  69.827  1.00  0.00    -0.200 C  
HETATM    8  N   UNL     1      -9.010   9.355  69.138  1.00  0.00    -0.142 N  
HETATM    9  O   UNL     1     -10.637   9.822  70.654  1.00  0.00    -0.292 OA 
HETATM   10  C   UNL     1      -8.884   8.758  67.928  1.00  0.00    -0.136 C  
HETATM   11  N   UNL     1      -9.584   7.747  67.553  1.00  0.00    -0.143 NA 
ENDROOT
BRANCH   8  12
HETATM   12  C1* UNL     1      -8.312  10.590  69.450  1.00  0.00    -0.106 C  
HETATM   13  C2* UNL     1      -6.882  10.390  69.947  1.00  0.00    -0.143 C  
HETATM   14  C3* UNL     1      -6.231  11.703  69.590  1.00  0.00    -0.127 C  
HETATM   15  O3* UNL     1      -6.525  12.652  70.619  1.00  0.00    -0.464 OA 
HETATM   16  C4* UNL     1      -6.941  12.115  68.302  1.00  0.00    -0.080 C  
HETATM   17  H3* UNL     1      -6.116  13.479  70.395  1.00  0.00     0.000 HD 
HETATM   18  O4* UNL     1      -8.194  11.393  68.258  1.00  0.00    -0.134 OA 
BRANCH  16  19
HETATM   19  C5* UNL     1      -6.155  11.763  67.037  1.00  0.00    -0.152 C  
HETATM   20  O5* UNL     1      -7.026  11.572  65.925  1.00  0.00    -0.350 OA 
HETATM   21  H5* UNL     1      -6.538  11.353  65.139  1.00  0.00     0.000 HD 
ENDBRANCH  16  19
ENDBRANCH   8  12
TORSDOF 2
ENDMDL
MODEL      184
REMARK 921   NORMALIZED FREE ENERGY PREDICTED BY IDOCK:   -2.92 KCAL/MOL
REMARK 922        TOTAL FREE ENERGY PREDICTED BY IDOCK:   -3.59 KCAL/MOL
REMARK 923 INTER-LIGAND FREE ENERGY PREDICTED BY IDOCK:   -4.36 KCAL/MOL
REMARK 924 INTRA-LIGAND FREE ENERGY PREDICTED BY IDOCK:    0.76 KCAL/MOL
REMARK 927      BINDING AFFINITY PREDICTED BY RF-SCORE:    0.00 PKD
ROOT
HETATM    1  N   UNL     1     -10.979  15.373  64.089  1.00  0.00    -0.440 NA 
HETATM    2  C   UNL     1     -10.830  14.233  64.801  1.00  0.00    -0.405 C  
HETATM    3  H2  UNL     1     -10.275  16.108  64.149  1.00  0.00     0.000 HD 
HETATM    4  H1  UNL     1     -11.798  15.496  63.493  1.00  0.00     0.000 HD 
HETATM    5  N   UNL     1      -9.798  14.078  65.553  1.00  0.00    -0.513 N  
HETATM    6  H   UNL     1      -9.088  14.807  65.618  1.00  0.00     0.000 HD 
HETATM    7  C   UNL     1      -9.671  12.918  66.261  1.00  0.00    -0.268 C  
HETATM    8  N   UNL     1     -10.792  12.138  66.418  1.00  0.00    -0.260 N  
HETATM    9  O   UNL     1      -8.583  12.578  66.715  1.00  0.00    -0.183 OA 
HETATM   10  C   UNL     1     -11.744  12.293  65.466  1.00  0.00    -0.377 C  
HETATM   11  N   UNL     1     -11.788  13.288  64.654  1.00  0.00    -0.360 NA 
ENDROOT
BRANCH   8  12
HETATM   12  C1* UNL     1     -10.694  10.918  67.200  1.00  0.00    -0.270 C  
HETATM   13  C2* UNL     1     -10.236   9.700  66.402  1.00  0.00    -0.288 C  
HETATM   14  C3* UNL     1      -9.632   8.824  67.470  1.00  0.00    -0.152 C  
HETATM   15  O3* UNL     1     -10.684   8.092  68.108  1.00  0.00    -0.401 OA 
HETATM   16  C4* UNL     1      -9.039   9.825  68.460  1.00  0.00    -0.128 C  
HETATM   17  H3* UNL     1     -10.304   7.540  68.780  1.00  0.00     0.000 HD 
HETATM   18  O4* UNL     1      -9.709  11.088  68.239  1.00  0.00    -0.164 OA 
BRANCH  16  19
HETATM   19  C5* UNL     1      -7.538  10.053  68.268  1.00  0.00    -0.084 C  
HETATM   20  O5* UNL     1      -6.854   8.822  68.047  1.00  0.00    -0.068 OA 
HETATM   21  H5* UNL     1      -5.922   8.963  67.927  1.00  0.00     0.000 HD 
ENDBRANCH  16  19
ENDBRANCH   8  12
TORSDOF 2
ENDMDL
MODEL      185
REMARK 921   NORMALIZED FREE ENERGY PREDICTED BY IDOCK:   -2.91 KCAL/MOL
REMARK 922        TOTAL FREE ENERGY PREDICTED BY IDOCK:   -3.59 KCAL/MOL
REMARK 923 INTER-LIGAND FREE ENERGY PREDICTED BY IDOCK:   -3.26 KCAL/MOL
REMARK 924 INTRA-LIGAND FREE ENERGY PREDICTED BY IDOCK:   -0.33 KCAL/MOL
REMARK 927      BINDING AFFINITY PREDICTED BY RF-SCORE:    0.00 PKD
ROOT
HETATM    1  N   UNL     1      -7.488   5.078  67.846  1.00  0.00    -0.078 NA 
HETATM    2  C   UNL     1      -8.095   6.281  67.723  1.00  0.00    -0.114 C  
HETATM    3  H2  UNL     1      -7.248   4.719  68.769  1.00  0.00     0.000 HD 
HETATM    4  H1  UNL     1      -7.272   4.531  67.012  1.00  0.00     0.000 HD 
HETATM    5  N   UNL     1      -8.368   6.970  68.774  1.00  0.00    -0.121 N  
HETATM    6  H   UNL     1      -8.131   6.620  69.702  1.00  0.00     0.000 HD 
HETATM    7  C   UNL     1      -8.980   8.181  68.622  1.00  0.00    -0.137 C  
HETATM    8  N   UNL     1      -8.955   8.759  67.376  1.00  0.00    -0.132 N  
HETATM    9  O   UNL     1      -9.553   8.715  69.568  1.00  0.00    -0.167 OA 
HETATM   10  C   UNL     1      -8.812   7.898  66.340  1.00  0.00    -0.158 C  
HETATM   11  N   UNL     1      -8.411   6.683  66.470  1.00  0.00    -0.113 NA 
ENDROOT
BRANCH   8  12
HETATM   12  C1* UNL     1      -9.565  10.065  67.196  1.00  0.00    -0.165 C  
HETATM   13  C2* UNL     1      -8.571  11.180  66.879  1.00  0.00    -0.148 C  
HETATM   14  C3* UNL     1      -9.432  12.182  66.153  1.00  0.00    -0.224 C  
HETATM   15  O3* UNL     1     -10.118  12.981  67.121  1.00  0.00    -0.239 OA 
HETATM   16  C4* UNL     1     -10.442  11.311  65.407  1.00  0.00    -0.268 C  
HETATM   17  H3* UNL     1     -10.660  13.612  66.664  1.00  0.00     0.000 HD 
HETATM   18  O4* UNL     1     -10.468  10.027  66.074  1.00  0.00    -0.186 OA 
BRANCH  16  19
HETATM   19  C5* UNL     1     -10.069  11.068  63.943  1.00  0.00    -0.356 C  
HETATM   20  O5* UNL     1      -9.585  12.260  63.329  1.00  0.00    -0.650 OA 
HETATM   21  H5* UNL     1      -9.354  12.110  62.420  1.00  0.00     0.000 HD 
ENDBRANCH  16  19
ENDBRANCH   8  12
TORSDOF 2
ENDMDL
MODEL      186
REMARK 921   NORMALIZED FREE ENERGY PREDICTED BY IDOCK:   -2.91 KCAL/MOL
REMARK 922        TOTAL FREE ENERGY PREDICTED BY IDOCK:   -3.58 KCAL/MOL
REMARK 923 INTER-LIGAND FREE ENERGY PREDICTED BY IDOCK:   -3.68 KCAL/MOL
REMARK 924 INTRA-LIGAND FREE ENERGY PREDICTED BY IDOCK:    0.10 KCAL/MOL
REMARK 927      BINDING AFFINITY PREDICTED BY RF-SCORE:    0.00 PKD
ROOT
HETATM    1  N   UNL     1      -7.616   8.800  70.342  1.00  0.00    -0.073 NA 
HETATM    2  C   UNL     1      -8.435   9.234  69.357  1.00  0.00    -0.137 C  
HETATM    3  H2  UNL     1      -7.677   7.836  70.669  1.00  0.00     0.000 HD 
HETATM    4  H1  UNL     1      -6.938   9.438  70.756  1.00  0.00     0.000 HD 
HETATM    5  N   UNL     1      -9.291   8.429  68.834  1.00  0.00    -0.147 N  
HETATM    6  H   UNL     1      -9.359   7.462  69.155  1.00  0.00     0.000 HD 
HETATM    7  C   UNL     1     -10.106   8.892  67.843  1.00  0.00    -0.206 C  
HETATM    8  N   UNL     1     -10.225  10.253  67.696  1.00  0.00    -0.193 N  
HETATM    9  O   UNL     1     -10.689   8.111  67.095  1.00  0.00    -0.316 OA 
HETATM   10  C   UNL     1      -9.179  10.979  68.156  1.00  0.00    -0.165 C  
HETATM   11  N   UNL     1      -8.282  10.516  68.953  1.00  0.00    -0.132 NA 
ENDROOT
BRANCH   8  12
HETATM   12  C1* UNL     1     -11.117  10.773  66.673  1.00  0.00    -0.035 C  
HETATM   13  C2* UNL     1     -11.037  12.286  66.485  1.00  0.00    -0.343 C  
HETATM   14  C3* UNL     1     -11.509  12.459  65.064  1.00  0.00    -0.332 C  
HETATM   15  O3* UNL     1     -12.940  12.469  65.057  1.00  0.00    -0.779 OA 
HETATM   16  C4* UNL     1     -11.007  11.197  64.365  1.00  0.00    -0.200 C  
HETATM   17  H3* UNL     1     -13.237  12.578  64.162  1.00  0.00     0.000 HD 
HETATM   18  O4* UNL     1     -10.766  10.209  65.394  1.00  0.00     0.017 OA 
BRANCH  16  19
HETATM   19  C5* UNL     1      -9.696  11.406  63.603  1.00  0.00    -0.312 C  
HETATM   20  O5* UNL     1      -9.475  12.786  63.326  1.00  0.00    -0.329 OA 
HETATM   21  H5* UNL     1      -8.661  12.916  62.853  1.00  0.00     0.000 HD 
ENDBRANCH  16  19
ENDBRANCH   8  12
TORSDOF 2
ENDMDL
MODEL      187
REMARK 921   NORMALIZED FREE ENERGY PREDICTED BY IDOCK:   -2.84 KCAL/MOL
REMARK 922        TOTAL FREE ENERGY PREDICTED BY IDOCK:   -3.51 KCAL/MOL
REMARK 923 INTER-LIGAND FREE ENERGY PREDICTED BY IDOCK:   -3.22 KCAL/MOL
REMARK 924 INTRA-LIGAND FREE ENERGY PREDICTED BY IDOCK:   -0.29 KCAL/MOL
REMARK 927      BINDING AFFINITY PREDICTED BY RF-SCORE:    0.00 PKD
ROOT
HETATM    1  N   UNL     1      -9.434   6.443  65.598  1.00  0.00    -0.363 NA 
HETATM    2  C   UNL     1      -9.497   6.548  66.945  1.00  0.00    -0.152 C  
HETATM    3  H2  UNL     1      -9.580   7.266  65.014  1.00  0.00     0.000 HD 
HETATM    4  H1  UNL     1      -9.240   5.539  65.168  1.00  0.00     0.000 HD 
HETATM    5  N   UNL     1      -9.741   7.689  67.488  1.00  0.00    -0.148 N  
HETATM    6  H   UNL     1      -9.888   8.518  66.912  1.00  0.00     0.000 HD 
HETATM    7  C   UNL     1      -9.800   7.768  68.848  1.00  0.00    -0.166 C  
HETATM    8  N   UNL     1      -9.950   6.596  69.552  1.00  0.00    -0.162 N  
HETATM    9  O   UNL     1      -9.696   8.851  69.418  1.00  0.00    -0.164 OA 
HETATM   10  C   UNL     1      -9.510   5.481  68.920  1.00  0.00    -0.129 C  
HETATM   11  N   UNL     1      -9.267   5.422  67.660  1.00  0.00    -0.111 NA 
ENDROOT
BRANCH   8  12
HETATM   12  C1* UNL     1     -10.054   6.656  71.000  1.00  0.00    -0.187 C  
HETATM   13  C2* UNL     1     -11.397   6.178  71.549  1.00  0.00    -0.340 C  
HETATM   14  C3* UNL     1     -11.038   5.750  72.949  1.00  0.00    -0.281 C  
HETATM   15  O3* UNL     1     -11.031   6.906  73.792  1.00  0.00    -0.519 OA 
HETATM   16  C4* UNL     1      -9.612   5.219  72.806  1.00  0.00    -0.149 C  
HETATM   17  H3* UNL     1     -10.805   6.637  74.674  1.00  0.00     0.000 HD 
HETATM   18  O4* UNL     1      -9.068   5.788  71.592  1.00  0.00    -0.142 OA 
BRANCH  16  19
HETATM   19  C5* UNL     1      -9.542   3.696  72.679  1.00  0.00    -0.134 C  
HETATM   20  O5* UNL     1      -8.617   3.142  73.612  1.00  0.00    -0.074 OA 
HETATM   21  H5* UNL     1      -8.574   2.197  73.534  1.00  0.00     0.000 HD 
ENDBRANCH  16  19
ENDBRANCH   8  12
TORSDOF 2
ENDMDL
MODEL      188
REMARK 921   NORMALIZED FREE ENERGY PREDICTED BY IDOCK:   -2.84 KCAL/MOL
REMARK 922        TOTAL FREE ENERGY PREDICTED BY IDOCK:   -3.51 KCAL/MOL
REMARK 923 INTER-LIGAND FREE ENERGY PREDICTED BY IDOCK:   -3.23 KCAL/MOL
REMARK 924 INTRA-LIGAND FREE ENERGY PREDICTED BY IDOCK:   -0.28 KCAL/MOL
REMARK 927      BINDING AFFINITY PREDICTED BY RF-SCORE:    0.00 PKD
ROOT
HETATM    1  N   UNL     1      -6.443   8.605  73.504  1.00  0.00    -0.249 NA 
HETATM    2  C   UNL     1      -6.898   8.531  72.232  1.00  0.00    -0.077 C  
HETATM    3  H2  UNL     1      -6.353   7.758  74.064  1.00  0.00     0.000 HD 
HETATM    4  H1  UNL     1      -6.190   9.510  73.901  1.00  0.00     0.000 HD 
HETATM    5  N   UNL     1      -7.217   7.390  71.732  1.00  0.00    -0.070 N  
HETATM    6  H   UNL     1      -7.129   6.537  72.285  1.00  0.00     0.000 HD 
HETATM    7  C   UNL     1      -7.674   7.343  70.447  1.00  0.00    -0.093 C  
HETATM    8  N   UNL     1      -8.104   8.517  69.877  1.00  0.00    -0.115 N  
HETATM    9  O   UNL     1      -7.672   6.287  69.821  1.00  0.00    -0.100 OA 
HETATM   10  C   UNL     1      -7.571   9.646  70.404  1.00  0.00    -0.163 C  
HETATM   11  N   UNL     1      -6.967   9.690  71.537  1.00  0.00    -0.280 NA 
ENDROOT
BRANCH   8  12
HETATM   12  C1* UNL     1      -8.632   8.488  68.524  1.00  0.00    -0.138 C  
HETATM   13  C2* UNL     1     -10.126   8.181  68.443  1.00  0.00    -0.226 C  
HETATM   14  C3* UNL     1     -10.513   8.810  67.129  1.00  0.00    -0.283 C  
HETATM   15  O3* UNL     1     -10.201   7.894  66.075  1.00  0.00    -0.382 OA 
HETATM   16  C4* UNL     1      -9.594  10.027  67.031  1.00  0.00    -0.172 C  
HETATM   17  H3* UNL     1     -10.445   8.290  65.248  1.00  0.00     0.000 HD 
HETATM   18  O4* UNL     1      -8.474   9.785  67.916  1.00  0.00    -0.123 OA 
BRANCH  16  19
HETATM   19  C5* UNL     1     -10.263  11.330  67.472  1.00  0.00    -0.189 C  
HETATM   20  O5* UNL     1     -11.669  11.291  67.243  1.00  0.00    -0.566 OA 
HETATM   21  H5* UNL     1     -12.085  12.100  67.517  1.00  0.00     0.000 HD 
ENDBRANCH  16  19
ENDBRANCH   8  12
TORSDOF 2
ENDMDL
MODEL      189
REMARK 921   NORMALIZED FREE ENERGY PREDICTED BY IDOCK:   -2.83 KCAL/MOL
REMARK 922        TOTAL FREE ENERGY PREDICTED BY IDOCK:   -3.50 KCAL/MOL
REMARK 923 INTER-LIGAND FREE ENERGY PREDICTED BY IDOCK:   -3.22 KCAL/MOL
REMARK 924 INTRA-LIGAND FREE ENERGY PREDICTED BY IDOCK:   -0.28 KCAL/MOL
REMARK 927      BINDING AFFINITY PREDICTED BY RF-SCORE:    0.00 PKD
ROOT
HETATM    1  N   UNL     1      -5.615  10.116  67.358  1.00  0.00    -0.042 NA 
HETATM    2  C   UNL     1      -6.556   9.507  68.114  1.00  0.00    -0.062 C  
HETATM    3  H2  UNL     1      -4.645   9.802  67.398  1.00  0.00     0.000 HD 
HETATM    4  H1  UNL     1      -5.876  10.890  66.748  1.00  0.00     0.000 HD 
HETATM    5  N   UNL     1      -6.225   8.530  68.884  1.00  0.00    -0.044 N  
HETATM    6  H   UNL     1      -5.258   8.209  68.930  1.00  0.00     0.000 HD 
HETATM    7  C   UNL     1      -7.194   7.933  69.637  1.00  0.00    -0.070 C  
HETATM    8  N   UNL     1      -8.378   8.609  69.811  1.00  0.00    -0.120 N  
HETATM    9  O   UNL     1      -7.014   6.817  70.118  1.00  0.00    -0.062 OA 
HETATM   10  C   UNL     1      -8.680   9.507  68.842  1.00  0.00    -0.133 C  
HETATM   11  N   UNL     1      -7.826   9.956  67.992  1.00  0.00    -0.086 NA 
ENDROOT
BRANCH   8  12
HETATM   12  C1* UNL     1      -9.411   8.013  70.640  1.00  0.00    -0.162 C  
HETATM   13  C2* UNL     1      -9.456   8.556  72.067  1.00  0.00    -0.364 C  
HETATM   14  C3* UNL     1     -10.886   8.294  72.466  1.00  0.00    -0.351 C  
HETATM   15  O3* UNL     1     -10.995   6.938  72.908  1.00  0.00    -0.262 OA 
HETATM   16  C4* UNL     1     -11.658   8.464  71.158  1.00  0.00    -0.279 C  
HETATM   17  H3* UNL     1     -11.896   6.773  73.160  1.00  0.00     0.000 HD 
HETATM   18  O4* UNL     1     -10.707   8.302  70.080  1.00  0.00    -0.234 OA 
BRANCH  16  19
HETATM   19  C5* UNL     1     -12.302   9.845  71.009  1.00  0.00    -0.357 C  
HETATM   20  O5* UNL     1     -13.635   9.741  70.514  1.00  0.00    -0.591 OA 
HETATM   21  H5* UNL     1     -14.035  10.598  70.421  1.00  0.00     0.000 HD 
ENDBRANCH  16  19
ENDBRANCH   8  12
TORSDOF 2
ENDMDL
MODEL      190
REMARK 921   NORMALIZED FREE ENERGY PREDICTED BY IDOCK:   -2.81 KCAL/MOL
REMARK 922        TOTAL FREE ENERGY PREDICTED BY IDOCK:   -3.48 KCAL/MOL
REMARK 923 INTER-LIGAND FREE ENERGY PREDICTED BY IDOCK:   -3.15 KCAL/MOL
REMARK 924 INTRA-LIGAND FREE ENERGY PREDICTED BY IDOCK:   -0.32 KCAL/MOL
REMARK 927      BINDING AFFINITY PREDICTED BY RF-SCORE:    0.00 PKD
ROOT
HETATM    1  N   UNL     1     -11.176   3.121  63.579  1.00  0.00    -0.369 NA 
HETATM    2  C   UNL     1     -10.653   3.719  64.674  1.00  0.00    -0.107 C  
HETATM    3  H2  UNL     1     -12.082   3.418  63.219  1.00  0.00     0.000 HD 
HETATM    4  H1  UNL     1     -10.662   2.373  63.115  1.00  0.00     0.000 HD 
HETATM    5  N   UNL     1     -11.301   4.662  65.259  1.00  0.00    -0.982 N  
HETATM    6  H   UNL     1     -12.209   4.967  64.906  1.00  0.00     0.000 HD 
HETATM    7  C   UNL     1     -10.752   5.249  66.362  1.00  0.00    -0.223 C  
HETATM    8  N   UNL     1      -9.728   4.586  66.997  1.00  0.00    -0.190 N  
HETATM    9  O   UNL     1     -11.147   6.344  66.751  1.00  0.00    -0.358 OA 
HETATM   10  C   UNL     1      -9.025   3.727  66.220  1.00  0.00    -0.136 C  
HETATM   11  N   UNL     1      -9.434   3.294  65.081  1.00  0.00    -0.155 NA 
ENDROOT
BRANCH   8  12
HETATM   12  C1* UNL     1      -9.152   5.170  68.195  1.00  0.00    -0.112 C  
HETATM   13  C2* UNL     1      -9.034   4.198  69.368  1.00  0.00    -0.161 C  
HETATM   14  C3* UNL     1      -7.910   4.800  70.172  1.00  0.00    -0.058 C  
HETATM   15  O3* UNL     1      -8.447   5.836  71.001  1.00  0.00    -0.120 OA 
HETATM   16  C4* UNL     1      -7.003   5.420  69.111  1.00  0.00    -0.056 C  
HETATM   17  H3* UNL     1      -7.740   6.216  71.508  1.00  0.00     0.000 HD 
HETATM   18  O4* UNL     1      -7.806   5.605  67.922  1.00  0.00    -0.095 OA 
BRANCH  16  19
HETATM   19  C5* UNL     1      -5.813   4.533  68.737  1.00  0.00    -0.025 C  
HETATM   20  O5* UNL     1      -5.200   4.974  67.528  1.00  0.00    -0.007 OA 
HETATM   21  H5* UNL     1      -4.462   4.424  67.295  1.00  0.00     0.000 HD 
ENDBRANCH  16  19
ENDBRANCH   8  12
TORSDOF 2
ENDMDL
MODEL      191
REMARK 921   NORMALIZED FREE ENERGY PREDICTED BY IDOCK:   -2.81 KCAL/MOL
REMARK 922        TOTAL FREE ENERGY PREDICTED BY IDOCK:   -3.48 KCAL/MOL
REMARK 923 INTER-LIGAND FREE ENERGY PREDICTED BY IDOCK:   -3.16 KCAL/MOL
REMARK 924 INTRA-LIGAND FREE ENERGY PREDICTED BY IDOCK:   -0.32 KCAL/MOL
REMARK 927      BINDING AFFINITY PREDICTED BY RF-SCORE:    0.00 PKD
ROOT
HETATM    1  N   UNL     1      -5.373  15.582  70.992  1.00  0.00    -0.117 NA 
HETATM    2  C   UNL     1      -6.102  14.907  70.075  1.00  0.00    -0.148 C  
HETATM    3  H2  UNL     1      -4.444  15.250  71.251  1.00  0.00     0.000 HD 
HETATM    4  H1  UNL     1      -5.753  16.424  71.423  1.00  0.00     0.000 HD 
HETATM    5  N   UNL     1      -5.622  13.845  69.531  1.00  0.00    -0.086 N  
HETATM    6  H   UNL     1      -4.694  13.505  69.784  1.00  0.00     0.000 HD 
HETATM    7  C   UNL     1      -6.378  13.182  68.609  1.00  0.00    -0.083 C  
HETATM    8  N   UNL     1      -7.724  13.460  68.565  1.00  0.00    -0.133 N  
HETATM    9  O   UNL     1      -5.861  12.384  67.832  1.00  0.00    -0.065 OA 
HETATM   10  C   UNL     1      -8.078  14.681  69.034  1.00  0.00    -0.115 C  
HETATM   11  N   UNL     1      -7.314  15.418  69.758  1.00  0.00    -0.171 NA 
ENDROOT
BRANCH   8  12
HETATM   12  C1* UNL     1      -8.558  12.739  67.620  1.00  0.00    -0.181 C  
HETATM   13  C2* UNL     1      -9.759  12.040  68.254  1.00  0.00    -0.205 C  
HETATM   14  C3* UNL     1     -10.724  11.948  67.099  1.00  0.00    -0.240 C  
HETATM   15  O3* UNL     1     -10.387  10.799  66.315  1.00  0.00    -0.241 OA 
HETATM   16  C4* UNL     1     -10.439  13.214  66.293  1.00  0.00    -0.285 C  
HETATM   17  H3* UNL     1     -10.995  10.741  65.588  1.00  0.00     0.000 HD 
HETATM   18  O4* UNL     1      -9.115  13.663  66.664  1.00  0.00    -0.238 OA 
BRANCH  16  19
HETATM   19  C5* UNL     1     -11.418  14.353  66.586  1.00  0.00    -0.363 C  
HETATM   20  O5* UNL     1     -12.756  13.978  66.269  1.00  0.00    -0.488 OA 
HETATM   21  H5* UNL     1     -13.364  14.685  66.451  1.00  0.00     0.000 HD 
ENDBRANCH  16  19
ENDBRANCH   8  12
TORSDOF 2
ENDMDL
MODEL      192
REMARK 921   NORMALIZED FREE ENERGY PREDICTED BY IDOCK:   -2.81 KCAL/MOL
REMARK 922        TOTAL FREE ENERGY PREDICTED BY IDOCK:   -3.47 KCAL/MOL
REMARK 923 INTER-LIGAND FREE ENERGY PREDICTED BY IDOCK:   -3.12 KCAL/MOL
REMARK 924 INTRA-LIGAND FREE ENERGY PREDICTED BY IDOCK:   -0.35 KCAL/MOL
REMARK 927      BINDING AFFINITY PREDICTED BY RF-SCORE:    0.00 PKD
ROOT
HETATM    1  N   UNL     1     -10.981   8.326  68.623  1.00  0.00    -0.417 NA 
HETATM    2  C   UNL     1     -10.785   7.500  69.675  1.00  0.00    -0.230 C  
HETATM    3  H2  UNL     1     -11.924   8.625  68.376  1.00  0.00     0.000 HD 
HETATM    4  H1  UNL     1     -10.183   8.650  68.076  1.00  0.00     0.000 HD 
HETATM    5  N   UNL     1     -11.792   7.092  70.364  1.00  0.00    -0.538 N  
HETATM    6  H   UNL     1     -12.739   7.386  70.125  1.00  0.00     0.000 HD 
HETATM    7  C   UNL     1     -11.568   6.258  71.421  1.00  0.00    -0.278 C  
HETATM    8  N   UNL     1     -10.353   5.619  71.486  1.00  0.00    -0.214 N  
HETATM    9  O   UNL     1     -12.420   6.111  72.293  1.00  0.00    -0.236 OA 
HETATM   10  C   UNL     1      -9.337   6.239  70.839  1.00  0.00    -0.161 C  
HETATM   11  N   UNL     1      -9.506   7.165  69.964  1.00  0.00    -0.165 NA 
ENDROOT
BRANCH   8  12
HETATM   12  C1* UNL     1     -10.104   4.697  72.580  1.00  0.00    -0.174 C  
HETATM   13  C2* UNL     1      -9.031   3.651  72.282  1.00  0.00    -0.133 C  
HETATM   14  C3* UNL     1      -8.542   3.291  73.662  1.00  0.00    -0.074 C  
HETATM   15  O3* UNL     1      -9.429   2.316  74.220  1.00  0.00    -0.075 OA 
HETATM   16  C4* UNL     1      -8.672   4.598  74.440  1.00  0.00    -0.109 C  
HETATM   17  H3* UNL     1      -9.121   2.088  75.088  1.00  0.00     0.000 HD 
HETATM   18  O4* UNL     1      -9.621   5.425  73.726  1.00  0.00    -0.136 OA 
BRANCH  16  19
HETATM   19  C5* UNL     1      -7.358   5.378  74.541  1.00  0.00    -0.082 C  
HETATM   20  O5* UNL     1      -7.521   6.722  74.097  1.00  0.00    -0.096 OA 
HETATM   21  H5* UNL     1      -6.706   7.206  74.160  1.00  0.00     0.000 HD 
ENDBRANCH  16  19
ENDBRANCH   8  12
TORSDOF 2
ENDMDL
MODEL      193
REMARK 921   NORMALIZED FREE ENERGY PREDICTED BY IDOCK:   -2.80 KCAL/MOL
REMARK 922        TOTAL FREE ENERGY PREDICTED BY IDOCK:   -3.46 KCAL/MOL
REMARK 923 INTER-LIGAND FREE ENERGY PREDICTED BY IDOCK:   -3.07 KCAL/MOL
REMARK 924 INTRA-LIGAND FREE ENERGY PREDICTED BY IDOCK:   -0.39 KCAL/MOL
REMARK 927      BINDING AFFINITY PREDICTED BY RF-SCORE:    0.00 PKD
ROOT
HETATM    1  N   UNL     1     -13.313   7.454  71.845  1.00  0.00    -0.515 NA 
HETATM    2  C   UNL     1     -12.160   7.426  71.138  1.00  0.00    -0.325 C  
HETATM    3  H2  UNL     1     -13.808   8.335  71.980  1.00  0.00     0.000 HD 
HETATM    4  H1  UNL     1     -13.685   6.592  72.242  1.00  0.00     0.000 HD 
HETATM    5  N   UNL     1     -11.690   8.513  70.637  1.00  0.00    -0.440 N  
HETATM    6  H   UNL     1     -12.179   9.399  70.766  1.00  0.00     0.000 HD 
HETATM    7  C   UNL     1     -10.526   8.459  69.928  1.00  0.00    -0.222 C  
HETATM    8  N   UNL     1      -9.736   7.343  70.079  1.00  0.00    -0.175 N  
HETATM    9  O   UNL     1     -10.214   9.368  69.164  1.00  0.00    -0.187 OA 
HETATM   10  C   UNL     1     -10.388   6.221  70.469  1.00  0.00    -0.204 C  
HETATM   11  N   UNL     1     -11.570   6.219  70.974  1.00  0.00    -0.313 NA 
ENDROOT
BRANCH   8  12
HETATM   12  C1* UNL     1      -8.472   7.277  69.366  1.00  0.00    -0.133 C  
HETATM   13  C2* UNL     1      -7.357   6.573  70.137  1.00  0.00    -0.089 C  
HETATM   14  C3* UNL     1      -6.453   6.095  69.030  1.00  0.00    -0.043 C  
HETATM   15  O3* UNL     1      -5.595   7.173  68.644  1.00  0.00    -0.020 OA 
HETATM   16  C4* UNL     1      -7.420   5.783  67.889  1.00  0.00    -0.078 C  
HETATM   17  H3* UNL     1      -5.025   6.872  67.947  1.00  0.00     0.000 HD 
HETATM   18  O4* UNL     1      -8.640   6.514  68.155  1.00  0.00    -0.119 OA 
BRANCH  16  19
HETATM   19  C5* UNL     1      -7.779   4.299  67.785  1.00  0.00    -0.080 C  
HETATM   20  O5* UNL     1      -9.184   4.118  67.631  1.00  0.00    -0.130 OA 
HETATM   21  H5* UNL     1      -9.407   3.196  67.566  1.00  0.00     0.000 HD 
ENDBRANCH  16  19
ENDBRANCH   8  12
TORSDOF 2
ENDMDL
MODEL      194
REMARK 921   NORMALIZED FREE ENERGY PREDICTED BY IDOCK:   -2.76 KCAL/MOL
REMARK 922        TOTAL FREE ENERGY PREDICTED BY IDOCK:   -3.42 KCAL/MOL
REMARK 923 INTER-LIGAND FREE ENERGY PREDICTED BY IDOCK:   -3.09 KCAL/MOL
REMARK 924 INTRA-LIGAND FREE ENERGY PREDICTED BY IDOCK:   -0.34 KCAL/MOL
REMARK 927      BINDING AFFINITY PREDICTED BY RF-SCORE:    0.00 PKD
ROOT
HETATM    1  N   UNL     1      -8.056  12.638  66.776  1.00  0.00    -0.403 NA 
HETATM    2  C   UNL     1      -8.593  11.397  66.749  1.00  0.00    -0.166 C  
HETATM    3  H2  UNL     1      -7.429  12.940  66.031  1.00  0.00     0.000 HD 
HETATM    4  H1  UNL     1      -8.281  13.271  67.543  1.00  0.00     0.000 HD 
HETATM    5  N   UNL     1      -8.310  10.598  65.782  1.00  0.00    -0.160 N  
HETATM    6  H   UNL     1      -7.683  10.891  65.032  1.00  0.00     0.000 HD 
HETATM    7  C   UNL     1      -8.864   9.351  65.778  1.00  0.00    -0.171 C  
HETATM    8  N   UNL     1      -9.398   8.884  66.956  1.00  0.00    -0.146 N  
HETATM    9  O   UNL     1      -8.902   8.686  64.747  1.00  0.00    -0.123 OA 
HETATM   10  C   UNL     1      -9.796   9.840  67.830  1.00  0.00    -0.160 C  
HETATM   11  N   UNL     1      -9.438  11.072  67.755  1.00  0.00    -0.160 NA 
ENDROOT
BRANCH   8  12
HETATM   12  C1* UNL     1      -9.959   7.545  66.990  1.00  0.00    -0.234 C  
HETATM   13  C2* UNL     1      -8.938   6.448  67.286  1.00  0.00    -0.107 C  
HETATM   14  C3* UNL     1      -9.799   5.357  67.870  1.00  0.00    -0.144 C  
HETATM   15  O3* UNL     1     -10.384   4.613  66.797  1.00  0.00    -0.217 OA 
HETATM   16  C4* UNL     1     -10.893   6.124  68.611  1.00  0.00    -0.332 C  
HETATM   17  H3* UNL     1     -10.926   3.926  67.165  1.00  0.00     0.000 HD 
HETATM   18  O4* UNL     1     -10.934   7.455  68.047  1.00  0.00    -0.100 OA 
BRANCH  16  19
HETATM   19  C5* UNL     1     -10.629   6.261  70.112  1.00  0.00    -0.248 C  
HETATM   20  O5* UNL     1     -10.616   7.629  70.511  1.00  0.00    -0.218 OA 
HETATM   21  H5* UNL     1     -10.452   7.714  71.443  1.00  0.00     0.000 HD 
ENDBRANCH  16  19
ENDBRANCH   8  12
TORSDOF 2
ENDMDL
MODEL      195
REMARK 921   NORMALIZED FREE ENERGY PREDICTED BY IDOCK:   -2.71 KCAL/MOL
REMARK 922        TOTAL FREE ENERGY PREDICTED BY IDOCK:   -3.37 KCAL/MOL
REMARK 923 INTER-LIGAND FREE ENERGY PREDICTED BY IDOCK:   -3.03 KCAL/MOL
REMARK 924 INTRA-LIGAND FREE ENERGY PREDICTED BY IDOCK:   -0.34 KCAL/MOL
REMARK 927      BINDING AFFINITY PREDICTED BY RF-SCORE:    0.00 PKD
ROOT
HETATM    1  N   UNL     1     -10.939   8.806  68.022  1.00  0.00    -0.480 NA 
HETATM    2  C   UNL     1     -10.343   7.736  67.448  1.00  0.00    -0.284 C  
HETATM    3  H2  UNL     1     -10.437   9.690  68.100  1.00  0.00     0.000 HD 
HETATM    4  H1  UNL     1     -11.892   8.727  68.376  1.00  0.00     0.000 HD 
HETATM    5  N   UNL     1      -9.141   7.836  67.002  1.00  0.00    -0.133 N  
HETATM    6  H   UNL     1      -8.630   8.716  67.075  1.00  0.00     0.000 HD 
HETATM    7  C   UNL     1      -8.562   6.742  66.428  1.00  0.00    -0.130 C  
HETATM    8  N   UNL     1      -9.135   5.515  66.666  1.00  0.00    -0.123 N  
HETATM    9  O   UNL     1      -7.579   6.862  65.703  1.00  0.00    -0.081 OA 
HETATM   10  C   UNL     1     -10.452   5.543  66.982  1.00  0.00    -0.274 C  
HETATM   11  N   UNL     1     -11.077   6.603  67.352  1.00  0.00    -0.353 NA 
ENDROOT
BRANCH   8  12
HETATM   12  C1* UNL     1      -8.516   4.330  66.100  1.00  0.00    -0.112 C  
HETATM   13  C2* UNL     1      -8.917   3.027  66.788  1.00  0.00    -0.174 C  
HETATM   14  C3* UNL     1      -8.694   2.007  65.700  1.00  0.00    -0.119 C  
HETATM   15  O3* UNL     1      -7.308   1.650  65.688  1.00  0.00    -0.054 OA 
HETATM   16  C4* UNL     1      -9.033   2.769  64.421  1.00  0.00    -0.116 C  
HETATM   17  H3* UNL     1      -7.167   1.007  65.003  1.00  0.00     0.000 HD 
HETATM   18  O4* UNL     1      -8.927   4.179  64.727  1.00  0.00    -0.127 OA 
BRANCH  16  19
HETATM   19  C5* UNL     1     -10.453   2.506  63.915  1.00  0.00    -0.052 C  
HETATM   20  O5* UNL     1     -11.212   3.711  63.859  1.00  0.00    -0.418 OA 
HETATM   21  H5* UNL     1     -12.094   3.548  63.545  1.00  0.00     0.000 HD 
ENDBRANCH  16  19
ENDBRANCH   8  12
TORSDOF 2
ENDMDL
MODEL      196
REMARK 921   NORMALIZED FREE ENERGY PREDICTED BY IDOCK:   -2.69 KCAL/MOL
REMARK 922        TOTAL FREE ENERGY PREDICTED BY IDOCK:   -3.34 KCAL/MOL
REMARK 923 INTER-LIGAND FREE ENERGY PREDICTED BY IDOCK:   -3.16 KCAL/MOL
REMARK 924 INTRA-LIGAND FREE ENERGY PREDICTED BY IDOCK:   -0.18 KCAL/MOL
REMARK 927      BINDING AFFINITY PREDICTED BY RF-SCORE:    0.00 PKD
ROOT
HETATM    1  N   UNL     1      -8.614   3.110  65.970  1.00  0.00    -0.113 NA 
HETATM    2  C   UNL     1      -8.685   4.171  66.807  1.00  0.00    -0.114 C  
HETATM    3  H2  UNL     1      -7.743   2.586  65.883  1.00  0.00     0.000 HD 
HETATM    4  H1  UNL     1      -9.432   2.836  65.427  1.00  0.00     0.000 HD 
HETATM    5  N   UNL     1      -7.652   4.516  67.491  1.00  0.00    -0.077 N  
HETATM    6  H   UNL     1      -6.777   3.998  67.411  1.00  0.00     0.000 HD 
HETATM    7  C   UNL     1      -7.750   5.590  68.328  1.00  0.00    -0.085 C  
HETATM    8  N   UNL     1      -8.804   6.452  68.142  1.00  0.00    -0.115 N  
HETATM    9  O   UNL     1      -6.934   5.757  69.230  1.00  0.00    -0.059 OA 
HETATM   10  C   UNL     1      -9.893   5.915  67.540  1.00  0.00    -0.125 C  
HETATM   11  N   UNL     1      -9.877   4.804  66.894  1.00  0.00    -0.187 NA 
ENDROOT
BRANCH   8  12
HETATM   12  C1* UNL     1      -8.910   7.624  68.993  1.00  0.00    -0.135 C  
HETATM   13  C2* UNL     1      -8.036   8.797  68.553  1.00  0.00    -0.116 C  
HETATM   14  C3* UNL     1      -8.763   9.979  69.141  1.00  0.00    -0.167 C  
HETATM   15  O3* UNL     1      -8.373  10.119  70.511  1.00  0.00    -0.379 OA 
HETATM   16  C4* UNL     1     -10.232   9.565  69.072  1.00  0.00    -0.200 C  
HETATM   17  H3* UNL     1      -8.831  10.863  70.882  1.00  0.00     0.000 HD 
HETATM   18  O4* UNL     1     -10.262   8.123  68.963  1.00  0.00    -0.210 OA 
BRANCH  16  19
HETATM   19  C5* UNL     1     -10.968  10.140  67.859  1.00  0.00    -0.277 C  
HETATM   20  O5* UNL     1     -12.259  10.625  68.221  1.00  0.00    -0.799 OA 
HETATM   21  H5* UNL     1     -12.715  10.982  67.468  1.00  0.00     0.000 HD 
ENDBRANCH  16  19
ENDBRANCH   8  12
TORSDOF 2
ENDMDL
MODEL      197
REMARK 921   NORMALIZED FREE ENERGY PREDICTED BY IDOCK:   -2.69 KCAL/MOL
REMARK 922        TOTAL FREE ENERGY PREDICTED BY IDOCK:   -3.34 KCAL/MOL
REMARK 923 INTER-LIGAND FREE ENERGY PREDICTED BY IDOCK:   -3.01 KCAL/MOL
REMARK 924 INTRA-LIGAND FREE ENERGY PREDICTED BY IDOCK:   -0.33 KCAL/MOL
REMARK 927      BINDING AFFINITY PREDICTED BY RF-SCORE:    0.00 PKD
ROOT
HETATM    1  N   UNL     1      -6.729   4.447  67.271  1.00  0.00    -0.047 NA 
HETATM    2  C   UNL     1      -7.395   5.304  68.078  1.00  0.00    -0.072 C  
HETATM    3  H2  UNL     1      -5.713   4.383  67.322  1.00  0.00     0.000 HD 
HETATM    4  H1  UNL     1      -7.246   3.865  66.612  1.00  0.00     0.000 HD 
HETATM    5  N   UNL     1      -6.743   6.037  68.910  1.00  0.00    -0.058 N  
HETATM    6  H   UNL     1      -5.726   5.980  68.968  1.00  0.00     0.000 HD 
HETATM    7  C   UNL     1      -7.438   6.894  69.713  1.00  0.00    -0.095 C  
HETATM    8  N   UNL     1      -8.733   7.193  69.361  1.00  0.00    -0.134 N  
HETATM    9  O   UNL     1      -6.924   7.358  70.727  1.00  0.00    -0.054 OA 
HETATM   10  C   UNL     1      -9.357   6.259  68.604  1.00  0.00    -0.122 C  
HETATM   11  N   UNL     1      -8.744   5.319  67.978  1.00  0.00    -0.103 NA 
ENDROOT
BRANCH   8  12
HETATM   12  C1* UNL     1      -9.482   8.133  70.177  1.00  0.00    -0.167 C  
HETATM   13  C2* UNL     1     -10.540   8.921  69.408  1.00  0.00    -0.226 C  
HETATM   14  C3* UNL     1     -11.520   9.288  70.493  1.00  0.00    -0.248 C  
HETATM   15  O3* UNL     1     -11.042  10.457  71.164  1.00  0.00    -0.257 OA 
HETATM   16  C4* UNL     1     -11.459   8.096  71.446  1.00  0.00    -0.263 C  
HETATM   17  H3* UNL     1     -11.659  10.688  71.847  1.00  0.00     0.000 HD 
HETATM   18  O4* UNL     1     -10.206   7.417  71.197  1.00  0.00    -0.194 OA 
BRANCH  16  19
HETATM   19  C5* UNL     1     -12.588   7.086  71.228  1.00  0.00    -0.373 C  
HETATM   20  O5* UNL     1     -13.800   7.738  70.860  1.00  0.00    -0.597 OA 
HETATM   21  H5* UNL     1     -14.501   7.111  70.724  1.00  0.00     0.000 HD 
ENDBRANCH  16  19
ENDBRANCH   8  12
TORSDOF 2
ENDMDL
MODEL      198
REMARK 921   NORMALIZED FREE ENERGY PREDICTED BY IDOCK:   -2.68 KCAL/MOL
REMARK 922        TOTAL FREE ENERGY PREDICTED BY IDOCK:   -3.33 KCAL/MOL
REMARK 923 INTER-LIGAND FREE ENERGY PREDICTED BY IDOCK:   -3.80 KCAL/MOL
REMARK 924 INTRA-LIGAND FREE ENERGY PREDICTED BY IDOCK:    0.47 KCAL/MOL
REMARK 927      BINDING AFFINITY PREDICTED BY RF-SCORE:    0.00 PKD
ROOT
HETATM    1  N   UNL     1      -5.183  11.053  67.281  1.00  0.00    -0.040 NA 
HETATM    2  C   UNL     1      -6.401  11.541  67.607  1.00  0.00    -0.066 C  
HETATM    3  H2  UNL     1      -4.649  11.475  66.521  1.00  0.00     0.000 HD 
HETATM    4  H1  UNL     1      -4.799  10.261  67.796  1.00  0.00     0.000 HD 
HETATM    5  N   UNL     1      -6.885  12.540  66.957  1.00  0.00    -0.362 N  
HETATM    6  H   UNL     1      -6.358  12.970  66.196  1.00  0.00     0.000 HD 
HETATM    7  C   UNL     1      -8.116  13.014  67.305  1.00  0.00    -0.161 C  
HETATM    8  N   UNL     1      -8.920  12.204  68.071  1.00  0.00    -0.182 N  
HETATM    9  O   UNL     1      -8.475  14.137  66.962  1.00  0.00    -0.208 OA 
HETATM   10  C   UNL     1      -8.268  11.289  68.827  1.00  0.00    -0.122 C  
HETATM   11  N   UNL     1      -7.042  10.951  68.642  1.00  0.00    -0.075 NA 
ENDROOT
BRANCH   8  12
HETATM   12  C1* UNL     1     -10.251  12.668  68.423  1.00  0.00    -0.232 C  
HETATM   13  C2* UNL     1     -10.332  14.164  68.721  1.00  0.00    -0.230 C  
HETATM   14  C3* UNL     1     -11.778  14.472  68.426  1.00  0.00    -0.333 C  
HETATM   15  O3* UNL     1     -12.560  14.135  69.576  1.00  0.00    -0.481 OA 
HETATM   16  C4* UNL     1     -12.121  13.519  67.283  1.00  0.00    -0.323 C  
HETATM   17  H3* UNL     1     -13.471  14.329  69.391  1.00  0.00     0.000 HD 
HETATM   18  O4* UNL     1     -11.147  12.450  67.316  1.00  0.00    -0.254 OA 
BRANCH  16  19
HETATM   19  C5* UNL     1     -12.046  14.176  65.902  1.00  0.00    -0.426 C  
HETATM   20  O5* UNL     1     -11.278  13.387  64.997  1.00  0.00    -0.303 OA 
HETATM   21  H5* UNL     1     -11.231  13.794  64.140  1.00  0.00     0.000 HD 
ENDBRANCH  16  19
ENDBRANCH   8  12
TORSDOF 2
ENDMDL
MODEL      199
REMARK 921   NORMALIZED FREE ENERGY PREDICTED BY IDOCK:   -2.66 KCAL/MOL
REMARK 922        TOTAL FREE ENERGY PREDICTED BY IDOCK:   -3.31 KCAL/MOL
REMARK 923 INTER-LIGAND FREE ENERGY PREDICTED BY IDOCK:   -3.01 KCAL/MOL
REMARK 924 INTRA-LIGAND FREE ENERGY PREDICTED BY IDOCK:   -0.30 KCAL/MOL
REMARK 927      BINDING AFFINITY PREDICTED BY RF-SCORE:    0.00 PKD
ROOT
HETATM    1  N   UNL     1      -7.247   5.434  69.826  1.00  0.00    -0.062 NA 
HETATM    2  C   UNL     1      -7.986   6.566  69.791  1.00  0.00    -0.120 C  
HETATM    3  H2  UNL     1      -6.626   5.253  70.615  1.00  0.00     0.000 HD 
HETATM    4  H1  UNL     1      -7.312   4.761  69.063  1.00  0.00     0.000 HD 
HETATM    5  N   UNL     1      -7.903   7.414  70.754  1.00  0.00    -0.095 N  
HETATM    6  H   UNL     1      -7.286   7.242  71.548  1.00  0.00     0.000 HD 
HETATM    7  C   UNL     1      -8.659   8.549  70.694  1.00  0.00    -0.148 C  
HETATM    8  N   UNL     1      -9.188   8.902  69.476  1.00  0.00    -0.148 N  
HETATM    9  O   UNL     1      -8.875   9.212  71.705  1.00  0.00    -0.341 OA 
HETATM   10  C   UNL     1      -9.364   7.881  68.603  1.00  0.00    -0.145 C  
HETATM   11  N   UNL     1      -8.808   6.729  68.729  1.00  0.00    -0.131 NA 
ENDROOT
BRANCH   8  12
HETATM   12  C1* UNL     1      -9.964  10.126  69.376  1.00  0.00    -0.228 C  
HETATM   13  C2* UNL     1      -9.158  11.340  68.920  1.00  0.00    -0.064 C  
HETATM   14  C3* UNL     1     -10.220  12.222  68.314  1.00  0.00    -0.220 C  
HETATM   15  O3* UNL     1     -10.856  12.958  69.364  1.00  0.00    -0.439 OA 
HETATM   16  C4* UNL     1     -11.214  11.227  67.718  1.00  0.00    -0.291 C  
HETATM   17  H3* UNL     1     -11.524  13.513  68.983  1.00  0.00     0.000 HD 
HETATM   18  O4* UNL     1     -11.001   9.963  68.388  1.00  0.00    -0.231 OA 
BRANCH  16  19
HETATM   19  C5* UNL     1     -11.019  10.999  66.218  1.00  0.00    -0.117 C  
HETATM   20  O5* UNL     1     -10.080  11.922  65.673  1.00  0.00    -0.229 OA 
HETATM   21  H5* UNL     1      -9.958  11.780  64.741  1.00  0.00     0.000 HD 
ENDBRANCH  16  19
ENDBRANCH   8  12
TORSDOF 2
ENDMDL
MODEL      200
REMARK 921   NORMALIZED FREE ENERGY PREDICTED BY IDOCK:   -2.64 KCAL/MOL
REMARK 922        TOTAL FREE ENERGY PREDICTED BY IDOCK:   -3.29 KCAL/MOL
REMARK 923 INTER-LIGAND FREE ENERGY PREDICTED BY IDOCK:   -3.54 KCAL/MOL
REMARK 924 INTRA-LIGAND FREE ENERGY PREDICTED BY IDOCK:    0.25 KCAL/MOL
REMARK 927      BINDING AFFINITY PREDICTED BY RF-SCORE:    0.00 PKD
ROOT
HETATM    1  N   UNL     1     -11.570  11.512  68.726  1.00  0.00    -0.287 NA 
HETATM    2  C   UNL     1     -11.075  10.254  68.775  1.00  0.00    -0.228 C  
HETATM    3  H2  UNL     1     -11.991  11.862  67.866  1.00  0.00     0.000 HD 
HETATM    4  H1  UNL     1     -11.522  12.109  69.552  1.00  0.00     0.000 HD 
HETATM    5  N   UNL     1     -11.135   9.502  67.734  1.00  0.00    -0.494 N  
HETATM    6  H   UNL     1     -11.555   9.843  66.869  1.00  0.00     0.000 HD 
HETATM    7  C   UNL     1     -10.628   8.237  67.810  1.00  0.00    -0.168 C  
HETATM    8  N   UNL     1      -9.775   7.950  68.849  1.00  0.00    -0.156 N  
HETATM    9  O   UNL     1     -10.949   7.384  66.987  1.00  0.00    -0.332 OA 
HETATM   10  C   UNL     1      -9.921   8.728  69.949  1.00  0.00    -0.187 C  
HETATM   11  N   UNL     1     -10.556   9.845  69.956  1.00  0.00    -0.268 NA 
ENDROOT
BRANCH   8  12
HETATM   12  C1* UNL     1      -9.190   6.624  68.930  1.00  0.00    -0.130 C  
HETATM   13  C2* UNL     1     -10.199   5.513  69.216  1.00  0.00    -0.315 C  
HETATM   14  C3* UNL     1      -9.513   4.300  68.640  1.00  0.00    -0.157 C  
HETATM   15  O3* UNL     1      -8.587   3.797  69.608  1.00  0.00    -0.065 OA 
HETATM   16  C4* UNL     1      -8.743   4.859  67.445  1.00  0.00    -0.103 C  
HETATM   17  H3* UNL     1      -8.155   3.033  69.246  1.00  0.00     0.000 HD 
HETATM   18  O4* UNL     1      -8.591   6.280  67.665  1.00  0.00    -0.115 OA 
BRANCH  16  19
HETATM   19  C5* UNL     1      -9.470   4.668  66.112  1.00  0.00    -0.169 C  
HETATM   20  O5* UNL     1      -9.299   5.801  65.264  1.00  0.00    -0.364 OA 
HETATM   21  H5* UNL     1      -9.750   5.683  64.437  1.00  0.00     0.000 HD 
ENDBRANCH  16  19
ENDBRANCH   8  12
TORSDOF 2
ENDMDL
MODEL      201
REMARK 921   NORMALIZED FREE ENERGY PREDICTED BY IDOCK:   -2.64 KCAL/MOL
REMARK 922        TOTAL FREE ENERGY PREDICTED BY IDOCK:   -3.28 KCAL/MOL
REMARK 923 INTER-LIGAND FREE ENERGY PREDICTED BY IDOCK:   -4.40 KCAL/MOL
REMARK 924 INTRA-LIGAND FREE ENERGY PREDICTED BY IDOCK:    1.12 KCAL/MOL
REMARK 927      BINDING AFFINITY PREDICTED BY RF-SCORE:    0.00 PKD
ROOT
HETATM    1  N   UNL     1     -13.843  15.054  72.708  1.00  0.00    -0.454 NA 
HETATM    2  C   UNL     1     -13.033  14.992  71.627  1.00  0.00    -0.353 C  
HETATM    3  H2  UNL     1     -13.917  15.919  73.242  1.00  0.00     0.000 HD 
HETATM    4  H1  UNL     1     -14.381  14.233  72.987  1.00  0.00     0.000 HD 
HETATM    5  N   UNL     1     -12.356  16.027  71.275  1.00  0.00    -0.574 N  
HETATM    6  H   UNL     1     -12.423  16.898  71.803  1.00  0.00     0.000 HD 
HETATM    7  C   UNL     1     -11.545  15.939  70.181  1.00  0.00    -0.351 C  
HETATM    8  N   UNL     1     -11.218  14.683  69.726  1.00  0.00    -0.265 N  
HETATM    9  O   UNL     1     -11.148  16.952  69.612  1.00  0.00    -0.152 OA 
HETATM   10  C   UNL     1     -12.100  13.705  70.042  1.00  0.00    -0.348 C  
HETATM   11  N   UNL     1     -13.004  13.822  70.948  1.00  0.00    -0.260 NA 
ENDROOT
BRANCH   8  12
HETATM   12  C1* UNL     1     -10.325  14.560  68.587  1.00  0.00    -0.242 C  
HETATM   13  C2* UNL     1     -10.016  15.883  67.890  1.00  0.00    -0.221 C  
HETATM   14  C3* UNL     1      -8.686  15.602  67.240  1.00  0.00    -0.194 C  
HETATM   15  O3* UNL     1      -8.918  14.927  65.999  1.00  0.00    -0.484 OA 
HETATM   16  C4* UNL     1      -8.006  14.645  68.217  1.00  0.00    -0.133 C  
HETATM   17  H3* UNL     1      -8.080  14.750  65.589  1.00  0.00     0.000 HD 
HETATM   18  O4* UNL     1      -9.049  14.053  69.026  1.00  0.00    -0.016 OA 
BRANCH  16  19
HETATM   19  C5* UNL     1      -7.021  15.339  69.161  1.00  0.00    -0.148 C  
HETATM   20  O5* UNL     1      -7.048  16.753  68.985  1.00  0.00    -0.201 OA 
HETATM   21  H5* UNL     1      -6.437  17.184  69.571  1.00  0.00     0.000 HD 
ENDBRANCH  16  19
ENDBRANCH   8  12
TORSDOF 2
ENDMDL
MODEL      202
REMARK 921   NORMALIZED FREE ENERGY PREDICTED BY IDOCK:   -2.63 KCAL/MOL
REMARK 922        TOTAL FREE ENERGY PREDICTED BY IDOCK:   -3.28 KCAL/MOL
REMARK 923 INTER-LIGAND FREE ENERGY PREDICTED BY IDOCK:   -3.66 KCAL/MOL
REMARK 924 INTRA-LIGAND FREE ENERGY PREDICTED BY IDOCK:    0.38 KCAL/MOL
REMARK 927      BINDING AFFINITY PREDICTED BY RF-SCORE:    0.00 PKD
ROOT
HETATM    1  N   UNL     1     -12.168  14.115  69.959  1.00  0.00    -0.341 NA 
HETATM    2  C   UNL     1     -11.680  13.036  69.305  1.00  0.00    -0.320 C  
HETATM    3  H2  UNL     1     -12.024  15.051  69.580  1.00  0.00     0.000 HD 
HETATM    4  H1  UNL     1     -12.679  13.991  70.833  1.00  0.00     0.000 HD 
HETATM    5  N   UNL     1     -11.035  13.194  68.204  1.00  0.00    -0.242 N  
HETATM    6  H   UNL     1     -10.887  14.126  67.816  1.00  0.00     0.000 HD 
HETATM    7  C   UNL     1     -10.553  12.090  67.563  1.00  0.00    -0.221 C  
HETATM    8  N   UNL     1     -10.464  10.921  68.281  1.00  0.00    -0.170 N  
HETATM    9  O   UNL     1     -10.236  12.142  66.378  1.00  0.00    -0.214 OA 
HETATM   10  C   UNL     1     -11.311  10.822  69.334  1.00  0.00    -0.285 C  
HETATM   11  N   UNL     1     -11.930  11.824  69.850  1.00  0.00    -0.330 NA 
ENDROOT
BRANCH   8  12
HETATM   12  C1* UNL     1      -9.918   9.740  67.635  1.00  0.00    -0.174 C  
HETATM   13  C2* UNL     1     -10.443   9.503  66.220  1.00  0.00    -0.137 C  
HETATM   14  C3* UNL     1      -9.334   8.694  65.597  1.00  0.00    -0.103 C  
HETATM   15  O3* UNL     1      -9.510   7.322  65.962  1.00  0.00    -0.386 OA 
HETATM   16  C4* UNL     1      -8.074   9.239  66.267  1.00  0.00    -0.107 C  
HETATM   17  H3* UNL     1      -8.812   6.812  65.570  1.00  0.00     0.000 HD 
HETATM   18  O4* UNL     1      -8.491   9.883  67.494  1.00  0.00    -0.115 OA 
BRANCH  16  19
HETATM   19  C5* UNL     1      -7.338  10.281  65.421  1.00  0.00    -0.144 C  
HETATM   20  O5* UNL     1      -8.228  10.934  64.519  1.00  0.00    -0.369 OA 
HETATM   21  H5* UNL     1      -7.771  11.581  63.994  1.00  0.00     0.000 HD 
ENDBRANCH  16  19
ENDBRANCH   8  12
TORSDOF 2
ENDMDL
MODEL      203
REMARK 921   NORMALIZED FREE ENERGY PREDICTED BY IDOCK:   -2.63 KCAL/MOL
REMARK 922        TOTAL FREE ENERGY PREDICTED BY IDOCK:   -3.27 KCAL/MOL
REMARK 923 INTER-LIGAND FREE ENERGY PREDICTED BY IDOCK:   -2.98 KCAL/MOL
REMARK 924 INTRA-LIGAND FREE ENERGY PREDICTED BY IDOCK:   -0.29 KCAL/MOL
REMARK 927      BINDING AFFINITY PREDICTED BY RF-SCORE:    0.00 PKD
ROOT
HETATM    1  N   UNL     1     -11.262  15.084  66.231  1.00  0.00    -0.336 NA 
HETATM    2  C   UNL     1     -10.629  13.901  66.398  1.00  0.00    -0.280 C  
HETATM    3  H2  UNL     1     -11.787  15.267  65.377  1.00  0.00     0.000 HD 
HETATM    4  H1  UNL     1     -11.213  15.794  66.963  1.00  0.00     0.000 HD 
HETATM    5  N   UNL     1     -10.692  13.006  65.476  1.00  0.00    -0.277 N  
HETATM    6  H   UNL     1     -11.215  13.180  64.617  1.00  0.00     0.000 HD 
HETATM    7  C   UNL     1     -10.044  11.821  65.668  1.00  0.00    -0.243 C  
HETATM    8  N   UNL     1      -9.083  11.768  66.649  1.00  0.00    -0.189 N  
HETATM    9  O   UNL     1     -10.336  10.833  64.999  1.00  0.00    -0.302 OA 
HETATM   10  C   UNL     1      -9.222  12.674  67.646  1.00  0.00    -0.191 C  
HETATM   11  N   UNL     1      -9.973  13.715  67.567  1.00  0.00    -0.227 NA 
ENDROOT
BRANCH   8  12
HETATM   12  C1* UNL     1      -8.351  10.529  66.848  1.00  0.00    -0.126 C  
HETATM   13  C2* UNL     1      -6.856  10.633  66.553  1.00  0.00    -0.124 C  
HETATM   14  C3* UNL     1      -6.284   9.521  67.395  1.00  0.00    -0.060 C  
HETATM   15  O3* UNL     1      -6.407   8.292  66.672  1.00  0.00    -0.053 OA 
HETATM   16  C4* UNL     1      -7.204   9.486  68.614  1.00  0.00    -0.074 C  
HETATM   17  H3* UNL     1      -6.047   7.592  67.202  1.00  0.00     0.000 HD 
HETATM   18  O4* UNL     1      -8.441  10.131  68.230  1.00  0.00    -0.112 OA 
BRANCH  16  19
HETATM   19  C5* UNL     1      -6.641  10.240  69.821  1.00  0.00    -0.090 C  
HETATM   20  O5* UNL     1      -7.109   9.678  71.044  1.00  0.00    -0.295 OA 
HETATM   21  H5* UNL     1      -6.760  10.145  71.794  1.00  0.00     0.000 HD 
ENDBRANCH  16  19
ENDBRANCH   8  12
TORSDOF 2
ENDMDL
MODEL      204
REMARK 921   NORMALIZED FREE ENERGY PREDICTED BY IDOCK:   -2.62 KCAL/MOL
REMARK 922        TOTAL FREE ENERGY PREDICTED BY IDOCK:   -3.26 KCAL/MOL
REMARK 923 INTER-LIGAND FREE ENERGY PREDICTED BY IDOCK:   -2.93 KCAL/MOL
REMARK 924 INTRA-LIGAND FREE ENERGY PREDICTED BY IDOCK:   -0.33 KCAL/MOL
REMARK 927      BINDING AFFINITY PREDICTED BY RF-SCORE:    0.00 PKD
ROOT
HETATM    1  N   UNL     1     -11.035   4.785  65.113  1.00  0.00    -0.719 NA 
HETATM    2  C   UNL     1     -10.537   4.614  66.359  1.00  0.00    -0.046 C  
HETATM    3  H2  UNL     1     -10.901   4.064  64.405  1.00  0.00     0.000 HD 
HETATM    4  H1  UNL     1     -11.545   5.638  64.883  1.00  0.00     0.000 HD 
HETATM    5  N   UNL     1      -9.894   3.539  66.649  1.00  0.00    -0.400 N  
HETATM    6  H   UNL     1      -9.754   2.811  65.948  1.00  0.00     0.000 HD 
HETATM    7  C   UNL     1      -9.401   3.391  67.912  1.00  0.00    -0.191 C  
HETATM    8  N   UNL     1      -9.301   4.516  68.697  1.00  0.00    -0.131 N  
HETATM    9  O   UNL     1      -9.084   2.282  68.335  1.00  0.00    -0.125 OA 
HETATM   10  C   UNL     1     -10.147   5.523  68.374  1.00  0.00    -0.178 C  
HETATM   11  N   UNL     1     -10.776   5.599  67.255  1.00  0.00    -0.252 NA 
ENDROOT
BRANCH   8  12
HETATM   12  C1* UNL     1      -8.743   4.393  70.032  1.00  0.00    -0.073 C  
HETATM   13  C2* UNL     1      -7.565   5.325  70.305  1.00  0.00    -0.072 C  
HETATM   14  C3* UNL     1      -7.606   5.465  71.805  1.00  0.00    -0.098 C  
HETATM   15  O3* UNL     1      -6.936   4.341  72.386  1.00  0.00    -0.051 OA 
HETATM   16  C4* UNL     1      -9.096   5.390  72.130  1.00  0.00    -0.136 C  
HETATM   17  H3* UNL     1      -6.961   4.429  73.331  1.00  0.00     0.000 HD 
HETATM   18  O4* UNL     1      -9.743   4.745  71.008  1.00  0.00    -0.163 OA 
BRANCH  16  19
HETATM   19  C5* UNL     1      -9.747   6.762  72.318  1.00  0.00    -0.147 C  
HETATM   20  O5* UNL     1      -8.962   7.593  73.170  1.00  0.00    -0.152 OA 
HETATM   21  H5* UNL     1      -9.365   8.445  73.287  1.00  0.00     0.000 HD 
ENDBRANCH  16  19
ENDBRANCH   8  12
TORSDOF 2
ENDMDL
MODEL      205
REMARK 921   NORMALIZED FREE ENERGY PREDICTED BY IDOCK:   -2.59 KCAL/MOL
REMARK 922        TOTAL FREE ENERGY PREDICTED BY IDOCK:   -3.22 KCAL/MOL
REMARK 923 INTER-LIGAND FREE ENERGY PREDICTED BY IDOCK:   -3.01 KCAL/MOL
REMARK 924 INTRA-LIGAND FREE ENERGY PREDICTED BY IDOCK:   -0.21 KCAL/MOL
REMARK 927      BINDING AFFINITY PREDICTED BY RF-SCORE:    0.00 PKD
ROOT
HETATM    1  N   UNL     1     -11.276  11.367  68.796  1.00  0.00    -0.223 NA 
HETATM    2  C   UNL     1     -10.860  10.324  69.549  1.00  0.00    -0.256 C  
HETATM    3  H2  UNL     1     -12.237  11.402  68.457  1.00  0.00     0.000 HD 
HETATM    4  H1  UNL     1     -10.626  12.119  68.566  1.00  0.00     0.000 HD 
HETATM    5  N   UNL     1     -11.680   9.376  69.838  1.00  0.00    -0.445 N  
HETATM    6  H   UNL     1     -12.644   9.402  69.505  1.00  0.00     0.000 HD 
HETATM    7  C   UNL     1     -11.236   8.334  70.599  1.00  0.00    -0.256 C  
HETATM    8  N   UNL     1      -9.877   8.164  70.721  1.00  0.00    -0.179 N  
HETATM    9  O   UNL     1     -12.030   7.595  71.174  1.00  0.00    -0.296 OA 
HETATM   10  C   UNL     1      -9.135   9.283  70.539  1.00  0.00    -0.259 C  
HETATM   11  N   UNL     1      -9.580  10.355  69.987  1.00  0.00     0.050 NA 
ENDROOT
BRANCH   8  12
HETATM   12  C1* UNL     1      -9.377   7.040  71.493  1.00  0.00    -0.154 C  
HETATM   13  C2* UNL     1      -7.976   6.582  71.094  1.00  0.00    -0.112 C  
HETATM   14  C3* UNL     1      -7.481   5.922  72.355  1.00  0.00    -0.099 C  
HETATM   15  O3* UNL     1      -7.980   4.581  72.394  1.00  0.00    -0.090 OA 
HETATM   16  C4* UNL     1      -8.138   6.739  73.467  1.00  0.00    -0.105 C  
HETATM   17  H3* UNL     1      -7.668   4.165  73.189  1.00  0.00     0.000 HD 
HETATM   18  O4* UNL     1      -9.276   7.414  72.881  1.00  0.00    -0.135 OA 
BRANCH  16  19
HETATM   19  C5* UNL     1      -7.217   7.807  74.061  1.00  0.00    -0.126 C  
HETATM   20  O5* UNL     1      -7.183   8.973  73.241  1.00  0.00    -0.328 OA 
HETATM   21  H5* UNL     1      -6.611   9.636  73.610  1.00  0.00     0.000 HD 
ENDBRANCH  16  19
ENDBRANCH   8  12
TORSDOF 2
ENDMDL
MODEL      206
REMARK 921   NORMALIZED FREE ENERGY PREDICTED BY IDOCK:   -2.58 KCAL/MOL
REMARK 922        TOTAL FREE ENERGY PREDICTED BY IDOCK:   -3.22 KCAL/MOL
REMARK 923 INTER-LIGAND FREE ENERGY PREDICTED BY IDOCK:   -3.56 KCAL/MOL
REMARK 924 INTRA-LIGAND FREE ENERGY PREDICTED BY IDOCK:    0.34 KCAL/MOL
REMARK 927      BINDING AFFINITY PREDICTED BY RF-SCORE:    0.00 PKD
ROOT
HETATM    1  N   UNL     1      -5.287  11.506  69.311  1.00  0.00    -0.047 NA 
HETATM    2  C   UNL     1      -6.440  11.936  68.750  1.00  0.00    -0.071 C  
HETATM    3  H2  UNL     1      -4.717  12.146  69.863  1.00  0.00     0.000 HD 
HETATM    4  H1  UNL     1      -4.989  10.539  69.180  1.00  0.00     0.000 HD 
HETATM    5  N   UNL     1      -6.816  13.155  68.916  1.00  0.00    -0.102 N  
HETATM    6  H   UNL     1      -6.253  13.803  69.467  1.00  0.00     0.000 HD 
HETATM    7  C   UNL     1      -7.983  13.565  68.339  1.00  0.00    -0.142 C  
HETATM    8  N   UNL     1      -8.511  12.785  67.338  1.00  0.00    -0.182 N  
HETATM    9  O   UNL     1      -8.549  14.583  68.727  1.00  0.00    -0.168 OA 
HETATM   10  C   UNL     1      -8.151  11.479  67.370  1.00  0.00    -0.146 C  
HETATM   11  N   UNL     1      -7.161  11.027  68.054  1.00  0.00    -0.076 NA 
ENDROOT
BRANCH   8  12
HETATM   12  C1* UNL     1      -9.732  13.218  66.681  1.00  0.00    -0.270 C  
HETATM   13  C2* UNL     1     -10.884  13.515  67.638  1.00  0.00    -0.273 C  
HETATM   14  C3* UNL     1     -11.720  14.486  66.843  1.00  0.00    -0.382 C  
HETATM   15  O3* UNL     1     -12.562  13.742  65.956  1.00  0.00    -0.454 OA 
HETATM   16  C4* UNL     1     -10.688  15.263  66.029  1.00  0.00    -0.320 C  
HETATM   17  H3* UNL     1     -13.089  14.353  65.456  1.00  0.00     0.000 HD 
HETATM   18  O4* UNL     1      -9.490  14.453  65.978  1.00  0.00    -0.282 OA 
BRANCH  16  19
HETATM   19  C5* UNL     1     -10.314  16.611  66.650  1.00  0.00    -0.296 C  
HETATM   20  O5* UNL     1     -10.812  16.721  67.981  1.00  0.00    -0.355 OA 
HETATM   21  H5* UNL     1     -10.580  17.557  68.368  1.00  0.00     0.000 HD 
ENDBRANCH  16  19
ENDBRANCH   8  12
TORSDOF 2
ENDMDL
MODEL      207
REMARK 921   NORMALIZED FREE ENERGY PREDICTED BY IDOCK:   -2.56 KCAL/MOL
REMARK 922        TOTAL FREE ENERGY PREDICTED BY IDOCK:   -3.19 KCAL/MOL
REMARK 923 INTER-LIGAND FREE ENERGY PREDICTED BY IDOCK:   -3.40 KCAL/MOL
REMARK 924 INTRA-LIGAND FREE ENERGY PREDICTED BY IDOCK:    0.21 KCAL/MOL
REMARK 927      BINDING AFFINITY PREDICTED BY RF-SCORE:    0.00 PKD
ROOT
HETATM    1  N   UNL     1      -7.990   7.734  64.995  1.00  0.00    -0.128 NA 
HETATM    2  C   UNL     1      -8.276   7.866  66.310  1.00  0.00    -0.117 C  
HETATM    3  H2  UNL     1      -8.732   7.817  64.300  1.00  0.00     0.000 HD 
HETATM    4  H1  UNL     1      -7.031   7.552  64.699  1.00  0.00     0.000 HD 
HETATM    5  N   UNL     1      -9.485   8.095  66.682  1.00  0.00    -0.197 N  
HETATM    6  H   UNL     1     -10.234   8.180  65.995  1.00  0.00     0.000 HD 
HETATM    7  C   UNL     1      -9.747   8.224  68.015  1.00  0.00    -0.161 C  
HETATM    8  N   UNL     1      -8.804   7.759  68.901  1.00  0.00    -0.135 N  
HETATM    9  O   UNL     1     -10.782   8.761  68.401  1.00  0.00    -0.169 OA 
HETATM   10  C   UNL     1      -7.537   7.709  68.424  1.00  0.00    -0.113 C  
HETATM   11  N   UNL     1      -7.240   7.772  67.175  1.00  0.00    -0.088 NA 
ENDROOT
BRANCH   8  12
HETATM   12  C1* UNL     1      -9.076   7.847  70.325  1.00  0.00    -0.152 C  
HETATM   13  C2* UNL     1      -9.743   9.153  70.754  1.00  0.00    -0.337 C  
HETATM   14  C3* UNL     1     -10.450   8.751  72.023  1.00  0.00    -0.344 C  
HETATM   15  O3* UNL     1      -9.513   8.799  73.103  1.00  0.00    -0.091 OA 
HETATM   16  C4* UNL     1     -10.850   7.299  71.764  1.00  0.00    -0.224 C  
HETATM   17  H3* UNL     1      -9.958   8.546  73.902  1.00  0.00     0.000 HD 
HETATM   18  O4* UNL     1      -9.994   6.805  70.708  1.00  0.00    -0.186 OA 
BRANCH  16  19
HETATM   19  C5* UNL     1     -12.300   7.143  71.300  1.00  0.00    -0.379 C  
HETATM   20  O5* UNL     1     -12.365   6.736  69.936  1.00  0.00    -0.581 OA 
HETATM   21  H5* UNL     1     -13.265   6.638  69.648  1.00  0.00     0.000 HD 
ENDBRANCH  16  19
ENDBRANCH   8  12
TORSDOF 2
ENDMDL
MODEL      208
REMARK 921   NORMALIZED FREE ENERGY PREDICTED BY IDOCK:   -2.55 KCAL/MOL
REMARK 922        TOTAL FREE ENERGY PREDICTED BY IDOCK:   -3.19 KCAL/MOL
REMARK 923 INTER-LIGAND FREE ENERGY PREDICTED BY IDOCK:   -2.92 KCAL/MOL
REMARK 924 INTRA-LIGAND FREE ENERGY PREDICTED BY IDOCK:   -0.27 KCAL/MOL
REMARK 927      BINDING AFFINITY PREDICTED BY RF-SCORE:    0.00 PKD
ROOT
HETATM    1  N   UNL     1     -13.204  10.397  70.891  1.00  0.00    -0.357 NA 
HETATM    2  C   UNL     1     -12.137   9.565  70.899  1.00  0.00    -0.278 C  
HETATM    3  H2  UNL     1     -13.065  11.406  70.938  1.00  0.00     0.000 HD 
HETATM    4  H1  UNL     1     -14.147  10.013  70.838  1.00  0.00     0.000 HD 
HETATM    5  N   UNL     1     -10.948  10.050  70.966  1.00  0.00    -0.311 N  
HETATM    6  H   UNL     1     -10.799  11.058  71.013  1.00  0.00     0.000 HD 
HETATM    7  C   UNL     1      -9.889   9.189  70.973  1.00  0.00    -0.296 C  
HETATM    8  N   UNL     1     -10.139   7.869  71.264  1.00  0.00    -0.179 N  
HETATM    9  O   UNL     1      -8.759   9.584  70.702  1.00  0.00    -0.218 OA 
HETATM   10  C   UNL     1     -11.400   7.447  71.003  1.00  0.00    -0.275 C  
HETATM   11  N   UNL     1     -12.393   8.239  70.807  1.00  0.00    -0.033 NA 
ENDROOT
BRANCH   8  12
HETATM   12  C1* UNL     1      -9.025   6.939  71.316  1.00  0.00    -0.142 C  
HETATM   13  C2* UNL     1      -9.349   5.614  72.003  1.00  0.00    -0.165 C  
HETATM   14  C3* UNL     1      -8.340   4.678  71.389  1.00  0.00    -0.106 C  
HETATM   15  O3* UNL     1      -7.102   4.815  72.095  1.00  0.00    -0.058 OA 
HETATM   16  C4* UNL     1      -8.174   5.213  69.968  1.00  0.00    -0.082 C  
HETATM   17  H3* UNL     1      -6.466   4.226  71.709  1.00  0.00     0.000 HD 
HETATM   18  O4* UNL     1      -8.625   6.587  69.977  1.00  0.00    -0.136 OA 
BRANCH  16  19
HETATM   19  C5* UNL     1      -9.010   4.455  68.933  1.00  0.00    -0.109 C  
HETATM   20  O5* UNL     1     -10.217   5.151  68.635  1.00  0.00    -0.171 OA 
HETATM   21  H5* UNL     1     -10.736   4.681  67.993  1.00  0.00     0.000 HD 
ENDBRANCH  16  19
ENDBRANCH   8  12
TORSDOF 2
ENDMDL
MODEL      209
REMARK 921   NORMALIZED FREE ENERGY PREDICTED BY IDOCK:   -2.54 KCAL/MOL
REMARK 922        TOTAL FREE ENERGY PREDICTED BY IDOCK:   -3.17 KCAL/MOL
REMARK 923 INTER-LIGAND FREE ENERGY PREDICTED BY IDOCK:   -2.99 KCAL/MOL
REMARK 924 INTRA-LIGAND FREE ENERGY PREDICTED BY IDOCK:   -0.18 KCAL/MOL
REMARK 927      BINDING AFFINITY PREDICTED BY RF-SCORE:    0.00 PKD
ROOT
HETATM    1  N   UNL     1     -10.707   8.544  67.691  1.00  0.00    -0.471 NA 
HETATM    2  C   UNL     1     -10.190   7.747  68.653  1.00  0.00    -0.201 C  
HETATM    3  H2  UNL     1     -10.173   8.735  66.843  1.00  0.00     0.000 HD 
HETATM    4  H1  UNL     1     -11.633   8.954  67.814  1.00  0.00     0.000 HD 
HETATM    5  N   UNL     1      -9.022   7.230  68.496  1.00  0.00    -0.131 N  
HETATM    6  H   UNL     1      -8.480   7.416  67.652  1.00  0.00     0.000 HD 
HETATM    7  C   UNL     1      -8.523   6.430  69.482  1.00  0.00    -0.133 C  
HETATM    8  N   UNL     1      -9.114   6.495  70.721  1.00  0.00    -0.154 N  
HETATM    9  O   UNL     1      -7.593   5.661  69.253  1.00  0.00    -0.083 OA 
HETATM   10  C   UNL     1     -10.402   6.915  70.727  1.00  0.00    -0.203 C  
HETATM   11  N   UNL     1     -10.964   7.514  69.738  1.00  0.00    -0.223 NA 
ENDROOT
BRANCH   8  12
HETATM   12  C1* UNL     1      -8.576   5.683  71.798  1.00  0.00    -0.135 C  
HETATM   13  C2* UNL     1      -8.446   6.419  73.130  1.00  0.00    -0.119 C  
HETATM   14  C3* UNL     1      -8.499   5.290  74.128  1.00  0.00    -0.111 C  
HETATM   15  O3* UNL     1      -7.192   4.719  74.241  1.00  0.00    -0.075 OA 
HETATM   16  C4* UNL     1      -9.439   4.279  73.474  1.00  0.00    -0.113 C  
HETATM   17  H3* UNL     1      -7.225   4.008  74.869  1.00  0.00     0.000 HD 
HETATM   18  O4* UNL     1      -9.463   4.577  72.058  1.00  0.00    -0.134 OA 
BRANCH  16  19
HETATM   19  C5* UNL     1     -10.876   4.362  73.993  1.00  0.00    -0.247 C  
HETATM   20  O5* UNL     1     -11.514   5.559  73.555  1.00  0.00    -0.461 OA 
HETATM   21  H5* UNL     1     -12.407   5.611  73.876  1.00  0.00     0.000 HD 
ENDBRANCH  16  19
ENDBRANCH   8  12
TORSDOF 2
ENDMDL
MODEL      210
REMARK 921   NORMALIZED FREE ENERGY PREDICTED BY IDOCK:   -2.54 KCAL/MOL
REMARK 922        TOTAL FREE ENERGY PREDICTED BY IDOCK:   -3.17 KCAL/MOL
REMARK 923 INTER-LIGAND FREE ENERGY PREDICTED BY IDOCK:   -3.51 KCAL/MOL
REMARK 924 INTRA-LIGAND FREE ENERGY PREDICTED BY IDOCK:    0.34 KCAL/MOL
REMARK 927      BINDING AFFINITY PREDICTED BY RF-SCORE:    0.00 PKD
ROOT
HETATM    1  N   UNL     1     -12.348  10.420  69.676  1.00  0.00    -0.546 NA 
HETATM    2  C   UNL     1     -11.317  10.490  68.805  1.00  0.00    -0.249 C  
HETATM    3  H2  UNL     1     -12.854   9.543  69.800  1.00  0.00     0.000 HD 
HETATM    4  H1  UNL     1     -12.620  11.246  70.210  1.00  0.00     0.000 HD 
HETATM    5  N   UNL     1     -10.975   9.449  68.132  1.00  0.00    -0.484 N  
HETATM    6  H   UNL     1     -11.474   8.567  68.249  1.00  0.00     0.000 HD 
HETATM    7  C   UNL     1      -9.931   9.546  67.259  1.00  0.00    -0.189 C  
HETATM    8  N   UNL     1      -9.530  10.805  66.878  1.00  0.00    -0.167 N  
HETATM    9  O   UNL     1      -9.358   8.539  66.853  1.00  0.00    -0.153 OA 
HETATM   10  C   UNL     1      -9.822  11.796  67.754  1.00  0.00    -0.181 C  
HETATM   11  N   UNL     1     -10.673  11.677  68.711  1.00  0.00    -0.212 NA 
ENDROOT
BRANCH   8  12
HETATM   12  C1* UNL     1      -8.447  10.936  65.919  1.00  0.00    -0.158 C  
HETATM   13  C2* UNL     1      -7.148  10.258  66.349  1.00  0.00    -0.112 C  
HETATM   14  C3* UNL     1      -6.472   9.991  65.028  1.00  0.00    -0.117 C  
HETATM   15  O3* UNL     1      -5.791  11.181  64.616  1.00  0.00    -0.413 OA 
HETATM   16  C4* UNL     1      -7.638   9.721  64.078  1.00  0.00    -0.134 C  
HETATM   17  H3* UNL     1      -5.365  11.014  63.784  1.00  0.00     0.000 HD 
HETATM   18  O4* UNL     1      -8.819  10.301  64.680  1.00  0.00    -0.173 OA 
BRANCH  16  19
HETATM   19  C5* UNL     1      -7.910   8.230  63.860  1.00  0.00    -0.147 C  
HETATM   20  O5* UNL     1      -7.380   7.448  64.928  1.00  0.00    -0.070 OA 
HETATM   21  H5* UNL     1      -7.549   6.523  64.793  1.00  0.00     0.000 HD 
ENDBRANCH  16  19
ENDBRANCH   8  12
TORSDOF 2
ENDMDL
MODEL      211
REMARK 921   NORMALIZED FREE ENERGY PREDICTED BY IDOCK:   -2.53 KCAL/MOL
REMARK 922        TOTAL FREE ENERGY PREDICTED BY IDOCK:   -3.17 KCAL/MOL
REMARK 923 INTER-LIGAND FREE ENERGY PREDICTED BY IDOCK:   -2.83 KCAL/MOL
REMARK 924 INTRA-LIGAND FREE ENERGY PREDICTED BY IDOCK:   -0.34 KCAL/MOL
REMARK 927      BINDING AFFINITY PREDICTED BY RF-SCORE:    0.00 PKD
ROOT
HETATM    1  N   UNL     1      -9.927  10.350  70.049  1.00  0.00    -0.421 NA 
HETATM    2  C   UNL     1      -9.959   9.045  70.403  1.00  0.00    -0.203 C  
HETATM    3  H2  UNL     1     -10.777  10.813  69.729  1.00  0.00     0.000 HD 
HETATM    4  H1  UNL     1      -9.052  10.870  70.103  1.00  0.00     0.000 HD 
HETATM    5  N   UNL     1     -11.063   8.390  70.335  1.00  0.00    -0.253 N  
HETATM    6  H   UNL     1     -11.919   8.844  70.016  1.00  0.00     0.000 HD 
HETATM    7  C   UNL     1     -11.068   7.074  70.698  1.00  0.00    -0.272 C  
HETATM    8  N   UNL     1      -9.857   6.427  70.775  1.00  0.00    -0.183 N  
HETATM    9  O   UNL     1     -12.120   6.503  70.970  1.00  0.00    -0.352 OA 
HETATM   10  C   UNL     1      -8.787   7.226  71.001  1.00  0.00    -0.144 C  
HETATM   11  N   UNL     1      -8.801   8.502  70.845  1.00  0.00    -0.156 NA 
ENDROOT
BRANCH   8  12
HETATM   12  C1* UNL     1      -9.837   5.016  71.120  1.00  0.00    -0.187 C  
HETATM   13  C2* UNL     1      -9.544   4.089  69.943  1.00  0.00    -0.281 C  
HETATM   14  C3* UNL     1      -8.972   2.873  70.625  1.00  0.00    -0.100 C  
HETATM   15  O3* UNL     1     -10.054   2.056  71.083  1.00  0.00    -0.040 OA 
HETATM   16  C4* UNL     1      -8.232   3.453  71.829  1.00  0.00    -0.065 C  
HETATM   17  H3* UNL     1      -9.695   1.290  71.513  1.00  0.00     0.000 HD 
HETATM   18  O4* UNL     1      -8.785   4.767  72.074  1.00  0.00    -0.121 OA 
BRANCH  16  19
HETATM   19  C5* UNL     1      -6.728   3.617  71.595  1.00  0.00    -0.026 C  
HETATM   20  O5* UNL     1      -6.274   2.770  70.543  1.00  0.00    -0.022 OA 
HETATM   21  H5* UNL     1      -5.341   2.871  70.397  1.00  0.00     0.000 HD 
ENDBRANCH  16  19
ENDBRANCH   8  12
TORSDOF 2
ENDMDL
MODEL      212
REMARK 921   NORMALIZED FREE ENERGY PREDICTED BY IDOCK:   -2.52 KCAL/MOL
REMARK 922        TOTAL FREE ENERGY PREDICTED BY IDOCK:   -3.16 KCAL/MOL
REMARK 923 INTER-LIGAND FREE ENERGY PREDICTED BY IDOCK:   -2.92 KCAL/MOL
REMARK 924 INTRA-LIGAND FREE ENERGY PREDICTED BY IDOCK:   -0.24 KCAL/MOL
REMARK 927      BINDING AFFINITY PREDICTED BY RF-SCORE:    0.00 PKD
ROOT
HETATM    1  N   UNL     1      -6.778   9.954  64.330  1.00  0.00    -0.121 NA 
HETATM    2  C   UNL     1      -7.439   9.972  65.509  1.00  0.00    -0.137 C  
HETATM    3  H2  UNL     1      -5.824  10.310  64.273  1.00  0.00     0.000 HD 
HETATM    4  H1  UNL     1      -7.235   9.582  63.497  1.00  0.00     0.000 HD 
HETATM    5  N   UNL     1      -6.863  10.441  66.559  1.00  0.00    -0.100 N  
HETATM    6  H   UNL     1      -5.909  10.800  66.512  1.00  0.00     0.000 HD 
HETATM    7  C   UNL     1      -7.552  10.449  67.736  1.00  0.00    -0.089 C  
HETATM    8  N   UNL     1      -8.917  10.295  67.681  1.00  0.00    -0.134 N  
HETATM    9  O   UNL     1      -6.962  10.564  68.807  1.00  0.00    -0.063 OA 
HETATM   10  C   UNL     1      -9.382   9.647  66.586  1.00  0.00    -0.156 C  
HETATM   11  N   UNL     1      -8.691   9.459  65.518  1.00  0.00    -0.153 NA 
ENDROOT
BRANCH   8  12
HETATM   12  C1* UNL     1      -9.679  10.339  68.916  1.00  0.00    -0.189 C  
HETATM   13  C2* UNL     1     -11.171  10.600  68.720  1.00  0.00    -0.337 C  
HETATM   14  C3* UNL     1     -11.770   9.989  69.962  1.00  0.00    -0.175 C  
HETATM   15  O3* UNL     1     -11.678  10.940  71.028  1.00  0.00    -0.286 OA 
HETATM   16  C4* UNL     1     -10.850   8.806  70.257  1.00  0.00    -0.231 C  
HETATM   17  H3* UNL     1     -12.055  10.556  71.810  1.00  0.00     0.000 HD 
HETATM   18  O4* UNL     1      -9.598   9.063  69.580  1.00  0.00    -0.164 OA 
BRANCH  16  19
HETATM   19  C5* UNL     1     -11.394   7.471  69.742  1.00  0.00     0.027 C  
HETATM   20  O5* UNL     1     -12.607   7.119  70.403  1.00  0.00    -0.612 OA 
HETATM   21  H5* UNL     1     -12.945   6.291  70.083  1.00  0.00     0.000 HD 
ENDBRANCH  16  19
ENDBRANCH   8  12
TORSDOF 2
ENDMDL
MODEL      213
REMARK 921   NORMALIZED FREE ENERGY PREDICTED BY IDOCK:   -2.52 KCAL/MOL
REMARK 922        TOTAL FREE ENERGY PREDICTED BY IDOCK:   -3.16 KCAL/MOL
REMARK 923 INTER-LIGAND FREE ENERGY PREDICTED BY IDOCK:   -3.61 KCAL/MOL
REMARK 924 INTRA-LIGAND FREE ENERGY PREDICTED BY IDOCK:    0.46 KCAL/MOL
REMARK 927      BINDING AFFINITY PREDICTED BY RF-SCORE:    0.00 PKD
ROOT
HETATM    1  N   UNL     1     -10.922  19.834  67.070  1.00  0.00    -0.358 NA 
HETATM    2  C   UNL     1     -10.265  18.659  67.206  1.00  0.00    -0.376 C  
HETATM    3  H2  UNL     1     -11.910  19.898  67.310  1.00  0.00     0.000 HD 
HETATM    4  H1  UNL     1     -10.425  20.657  66.727  1.00  0.00     0.000 HD 
HETATM    5  N   UNL     1     -10.892  17.623  67.638  1.00  0.00    -0.304 N  
HETATM    6  H   UNL     1     -11.881  17.677  67.881  1.00  0.00     0.000 HD 
HETATM    7  C   UNL     1     -10.207  16.450  67.766  1.00  0.00    -0.274 C  
HETATM    8  N   UNL     1      -9.006  16.334  67.107  1.00  0.00    -0.191 N  
HETATM    9  O   UNL     1     -10.645  15.543  68.469  1.00  0.00    -0.234 OA 
HETATM   10  C   UNL     1      -8.375  17.504  66.845  1.00  0.00    -0.232 C  
HETATM   11  N   UNL     1      -8.948  18.653  66.895  1.00  0.00    -0.285 NA 
ENDROOT
BRANCH   8  12
HETATM   12  C1* UNL     1      -8.276  15.082  67.194  1.00  0.00    -0.222 C  
HETATM   13  C2* UNL     1      -7.932  14.657  68.620  1.00  0.00    -0.141 C  
HETATM   14  C3* UNL     1      -7.791  13.162  68.486  1.00  0.00    -0.105 C  
HETATM   15  O3* UNL     1      -6.473  12.869  68.011  1.00  0.00    -0.081 OA 
HETATM   16  C4* UNL     1      -8.810  12.803  67.405  1.00  0.00    -0.190 C  
HETATM   17  H3* UNL     1      -6.384  11.928  67.927  1.00  0.00     0.000 HD 
HETATM   18  O4* UNL     1      -9.083  14.013  66.661  1.00  0.00    -0.250 OA 
BRANCH  16  19
HETATM   19  C5* UNL     1     -10.138  12.292  67.969  1.00  0.00    -0.206 C  
HETATM   20  O5* UNL     1     -10.086  10.891  68.222  1.00  0.00    -0.164 OA 
HETATM   21  H5* UNL     1     -10.910  10.574  68.572  1.00  0.00     0.000 HD 
ENDBRANCH  16  19
ENDBRANCH   8  12
TORSDOF 2
ENDMDL
MODEL      214
REMARK 921   NORMALIZED FREE ENERGY PREDICTED BY IDOCK:   -2.52 KCAL/MOL
REMARK 922        TOTAL FREE ENERGY PREDICTED BY IDOCK:   -3.15 KCAL/MOL
REMARK 923 INTER-LIGAND FREE ENERGY PREDICTED BY IDOCK:   -2.81 KCAL/MOL
REMARK 924 INTRA-LIGAND FREE ENERGY PREDICTED BY IDOCK:   -0.35 KCAL/MOL
REMARK 927      BINDING AFFINITY PREDICTED BY RF-SCORE:    0.00 PKD
ROOT
HETATM    1  N   UNL     1      -9.095   9.677  70.643  1.00  0.00    -0.309 NA 
HETATM    2  C   UNL     1      -9.369   8.801  69.650  1.00  0.00    -0.158 C  
HETATM    3  H2  UNL     1      -9.106  10.679  70.458  1.00  0.00     0.000 HD 
HETATM    4  H1  UNL     1      -8.878   9.332  71.578  1.00  0.00     0.000 HD 
HETATM    5  N   UNL     1      -9.644   9.236  68.471  1.00  0.00    -0.146 N  
HETATM    6  H   UNL     1      -9.658  10.237  68.276  1.00  0.00     0.000 HD 
HETATM    7  C   UNL     1      -9.916   8.332  67.486  1.00  0.00    -0.193 C  
HETATM    8  N   UNL     1      -9.545   7.025  67.696  1.00  0.00    -0.130 N  
HETATM    9  O   UNL     1     -10.497   8.678  66.461  1.00  0.00    -0.249 OA 
HETATM   10  C   UNL     1      -9.438   6.655  68.994  1.00  0.00    -0.131 C  
HETATM   11  N   UNL     1      -9.364   7.487  69.972  1.00  0.00    -0.154 NA 
ENDROOT
BRANCH   8  12
HETATM   12  C1* UNL     1      -9.787   6.050  66.647  1.00  0.00    -0.164 C  
HETATM   13  C2* UNL     1      -8.649   5.923  65.637  1.00  0.00    -0.155 C  
HETATM   14  C3* UNL     1      -8.841   4.523  65.110  1.00  0.00    -0.143 C  
HETATM   15  O3* UNL     1      -9.836   4.555  64.083  1.00  0.00    -0.346 OA 
HETATM   16  C4* UNL     1      -9.383   3.759  66.317  1.00  0.00    -0.182 C  
HETATM   17  H3* UNL     1      -9.957   3.674  63.751  1.00  0.00     0.000 HD 
HETATM   18  O4* UNL     1      -9.930   4.739  67.229  1.00  0.00    -0.184 OA 
BRANCH  16  19
HETATM   19  C5* UNL     1      -8.308   2.971  67.069  1.00  0.00    -0.091 C  
HETATM   20  O5* UNL     1      -8.206   3.400  68.424  1.00  0.00    -0.072 OA 
HETATM   21  H5* UNL     1      -7.539   2.911  68.891  1.00  0.00     0.000 HD 
ENDBRANCH  16  19
ENDBRANCH   8  12
TORSDOF 2
ENDMDL
MODEL      215
REMARK 921   NORMALIZED FREE ENERGY PREDICTED BY IDOCK:   -2.49 KCAL/MOL
REMARK 922        TOTAL FREE ENERGY PREDICTED BY IDOCK:   -3.11 KCAL/MOL
REMARK 923 INTER-LIGAND FREE ENERGY PREDICTED BY IDOCK:   -2.72 KCAL/MOL
REMARK 924 INTRA-LIGAND FREE ENERGY PREDICTED BY IDOCK:   -0.39 KCAL/MOL
REMARK 927      BINDING AFFINITY PREDICTED BY RF-SCORE:    0.00 PKD
ROOT
HETATM    1  N   UNL     1     -10.918   9.876  70.011  1.00  0.00    -0.271 NA 
HETATM    2  C   UNL     1     -10.630   8.607  69.642  1.00  0.00    -0.218 C  
HETATM    3  H2  UNL     1     -11.405  10.497  69.366  1.00  0.00     0.000 HD 
HETATM    4  H1  UNL     1     -10.648  10.209  70.936  1.00  0.00     0.000 HD 
HETATM    5  N   UNL     1     -10.972   8.186  68.476  1.00  0.00    -0.415 N  
HETATM    6  H   UNL     1     -11.459   8.800  67.823  1.00  0.00     0.000 HD 
HETATM    7  C   UNL     1     -10.669   6.902  68.128  1.00  0.00    -0.205 C  
HETATM    8  N   UNL     1      -9.722   6.242  68.875  1.00  0.00    -0.128 N  
HETATM    9  O   UNL     1     -11.246   6.354  67.193  1.00  0.00    -0.370 OA 
HETATM   10  C   UNL     1      -9.569   6.693  70.143  1.00  0.00    -0.161 C  
HETATM   11  N   UNL     1     -10.007   7.829  70.557  1.00  0.00    -0.187 NA 
ENDROOT
BRANCH   8  12
HETATM   12  C1* UNL     1      -9.353   4.888  68.502  1.00  0.00    -0.131 C  
HETATM   13  C2* UNL     1      -7.853   4.685  68.295  1.00  0.00    -0.081 C  
HETATM   14  C3* UNL     1      -7.690   3.208  68.552  1.00  0.00    -0.054 C  
HETATM   15  O3* UNL     1      -8.018   2.498  67.354  1.00  0.00    -0.068 OA 
HETATM   16  C4* UNL     1      -8.742   2.914  69.620  1.00  0.00    -0.075 C  
HETATM   17  H3* UNL     1      -7.916   1.568  67.516  1.00  0.00     0.000 HD 
HETATM   18  O4* UNL     1      -9.720   3.979  69.558  1.00  0.00    -0.202 OA 
BRANCH  16  19
HETATM   19  C5* UNL     1      -8.173   2.885  71.041  1.00  0.00    -0.057 C  
HETATM   20  O5* UNL     1      -8.992   3.629  71.940  1.00  0.00    -0.100 OA 
HETATM   21  H5* UNL     1      -8.639   3.611  72.821  1.00  0.00     0.000 HD 
ENDBRANCH  16  19
ENDBRANCH   8  12
TORSDOF 2
ENDMDL
MODEL      216
REMARK 921   NORMALIZED FREE ENERGY PREDICTED BY IDOCK:   -2.47 KCAL/MOL
REMARK 922        TOTAL FREE ENERGY PREDICTED BY IDOCK:   -3.09 KCAL/MOL
REMARK 923 INTER-LIGAND FREE ENERGY PREDICTED BY IDOCK:   -2.77 KCAL/MOL
REMARK 924 INTRA-LIGAND FREE ENERGY PREDICTED BY IDOCK:   -0.32 KCAL/MOL
REMARK 927      BINDING AFFINITY PREDICTED BY RF-SCORE:    0.00 PKD
ROOT
HETATM    1  N   UNL     1     -11.425  10.009  67.890  1.00  0.00    -0.608 NA 
HETATM    2  C   UNL     1     -10.781   9.229  68.788  1.00  0.00    -0.154 C  
HETATM    3  H2  UNL     1     -11.258  11.014  67.873  1.00  0.00     0.000 HD 
HETATM    4  H1  UNL     1     -12.078   9.588  67.229  1.00  0.00     0.000 HD 
HETATM    5  N   UNL     1      -9.957   9.760  69.621  1.00  0.00    -0.209 N  
HETATM    6  H   UNL     1      -9.783  10.765  69.612  1.00  0.00     0.000 HD 
HETATM    7  C   UNL     1      -9.321   8.951  70.518  1.00  0.00    -0.202 C  
HETATM    8  N   UNL     1      -9.838   7.695  70.728  1.00  0.00    -0.178 N  
HETATM    9  O   UNL     1      -8.305   9.332  71.093  1.00  0.00    -0.291 OA 
HETATM   10  C   UNL     1     -10.566   7.190  69.703  1.00  0.00    -0.234 C  
HETATM   11  N   UNL     1     -11.029   7.900  68.736  1.00  0.00     0.067 NA 
ENDROOT
BRANCH   8  12
HETATM   12  C1* UNL     1      -9.203   6.829  71.705  1.00  0.00    -0.147 C  
HETATM   13  C2* UNL     1     -10.143   5.804  72.335  1.00  0.00    -0.207 C  
HETATM   14  C3* UNL     1      -9.193   4.714  72.760  1.00  0.00    -0.128 C  
HETATM   15  O3* UNL     1      -8.628   5.070  74.026  1.00  0.00    -0.112 OA 
HETATM   16  C4* UNL     1      -8.103   4.753  71.690  1.00  0.00    -0.104 C  
HETATM   17  H3* UNL     1      -8.029   4.384  74.294  1.00  0.00     0.000 HD 
HETATM   18  O4* UNL     1      -8.168   6.057  71.067  1.00  0.00    -0.119 OA 
BRANCH  16  19
HETATM   19  C5* UNL     1      -8.291   3.702  70.594  1.00  0.00    -0.068 C  
HETATM   20  O5* UNL     1      -8.938   2.538  71.100  1.00  0.00    -0.071 OA 
HETATM   21  H5* UNL     1      -9.055   1.886  70.420  1.00  0.00     0.000 HD 
ENDBRANCH  16  19
ENDBRANCH   8  12
TORSDOF 2
ENDMDL
MODEL      217
REMARK 921   NORMALIZED FREE ENERGY PREDICTED BY IDOCK:   -2.46 KCAL/MOL
REMARK 922        TOTAL FREE ENERGY PREDICTED BY IDOCK:   -3.09 KCAL/MOL
REMARK 923 INTER-LIGAND FREE ENERGY PREDICTED BY IDOCK:   -2.74 KCAL/MOL
REMARK 924 INTRA-LIGAND FREE ENERGY PREDICTED BY IDOCK:   -0.34 KCAL/MOL
REMARK 927      BINDING AFFINITY PREDICTED BY RF-SCORE:    0.00 PKD
ROOT
HETATM    1  N   UNL     1     -11.186   4.590  65.239  1.00  0.00    -1.016 NA 
HETATM    2  C   UNL     1     -10.255   5.509  65.583  1.00  0.00     0.301 C  
HETATM    3  H2  UNL     1     -11.038   3.994  64.424  1.00  0.00     0.000 HD 
HETATM    4  H1  UNL     1     -12.034   4.493  65.796  1.00  0.00     0.000 HD 
HETATM    5  N   UNL     1      -9.185   5.630  64.881  1.00  0.00    -0.349 N  
HETATM    6  H   UNL     1      -9.028   5.038  64.064  1.00  0.00     0.000 HD 
HETATM    7  C   UNL     1      -8.262   6.565  65.249  1.00  0.00    -0.135 C  
HETATM    8  N   UNL     1      -8.663   7.555  66.114  1.00  0.00    -0.151 N  
HETATM    9  O   UNL     1      -7.107   6.501  64.837  1.00  0.00    -0.053 OA 
HETATM   10  C   UNL     1      -9.715   7.239  66.907  1.00  0.00    -0.194 C  
HETATM   11  N   UNL     1     -10.502   6.246  66.691  1.00  0.00    -0.209 NA 
ENDROOT
BRANCH   8  12
HETATM   12  C1* UNL     1      -7.712   8.586  66.491  1.00  0.00    -0.092 C  
HETATM   13  C2* UNL     1      -8.075   9.983  65.994  1.00  0.00    -0.124 C  
HETATM   14  C3* UNL     1      -7.367  10.872  66.984  1.00  0.00    -0.118 C  
HETATM   15  O3* UNL     1      -6.002  11.011  66.577  1.00  0.00    -0.101 OA 
HETATM   16  C4* UNL     1      -7.428  10.075  68.286  1.00  0.00    -0.079 C  
HETATM   17  H3* UNL     1      -5.555  11.570  67.200  1.00  0.00     0.000 HD 
HETATM   18  O4* UNL     1      -7.659   8.693  67.927  1.00  0.00    -0.095 OA 
BRANCH  16  19
HETATM   19  C5* UNL     1      -8.565  10.513  69.212  1.00  0.00    -0.126 C  
HETATM   20  O5* UNL     1      -8.933   9.468  70.108  1.00  0.00    -0.203 OA 
HETATM   21  H5* UNL     1      -9.639   9.740  70.683  1.00  0.00     0.000 HD 
ENDBRANCH  16  19
ENDBRANCH   8  12
TORSDOF 2
ENDMDL
MODEL      218
REMARK 921   NORMALIZED FREE ENERGY PREDICTED BY IDOCK:   -2.44 KCAL/MOL
REMARK 922        TOTAL FREE ENERGY PREDICTED BY IDOCK:   -3.06 KCAL/MOL
REMARK 923 INTER-LIGAND FREE ENERGY PREDICTED BY IDOCK:   -3.98 KCAL/MOL
REMARK 924 INTRA-LIGAND FREE ENERGY PREDICTED BY IDOCK:    0.93 KCAL/MOL
REMARK 927      BINDING AFFINITY PREDICTED BY RF-SCORE:    0.00 PKD
ROOT
HETATM    1  N   UNL     1      -8.482   6.431  65.582  1.00  0.00    -0.147 NA 
HETATM    2  C   UNL     1      -9.125   7.377  66.304  1.00  0.00    -0.156 C  
HETATM    3  H2  UNL     1      -8.273   6.595  64.597  1.00  0.00     0.000 HD 
HETATM    4  H1  UNL     1      -8.206   5.555  66.024  1.00  0.00     0.000 HD 
HETATM    5  N   UNL     1      -9.473   8.482  65.746  1.00  0.00    -0.431 N  
HETATM    6  H   UNL     1      -9.268   8.655  64.762  1.00  0.00     0.000 HD 
HETATM    7  C   UNL     1     -10.122   9.419  66.497  1.00  0.00    -0.262 C  
HETATM    8  N   UNL     1     -10.681   9.013  67.685  1.00  0.00    -0.222 N  
HETATM    9  O   UNL     1     -10.176  10.589  66.127  1.00  0.00    -0.235 OA 
HETATM   10  C   UNL     1     -10.117   7.915  68.245  1.00  0.00    -0.194 C  
HETATM   11  N   UNL     1      -9.346   7.105  67.611  1.00  0.00    -0.127 NA 
ENDROOT
BRANCH   8  12
HETATM   12  C1* UNL     1     -11.411   9.981  68.484  1.00  0.00    -0.052 C  
HETATM   13  C2* UNL     1     -10.574  10.649  69.573  1.00  0.00    -0.265 C  
HETATM   14  C3* UNL     1     -11.303  11.951  69.786  1.00  0.00    -0.147 C  
HETATM   15  O3* UNL     1     -12.398  11.720  70.678  1.00  0.00    -0.358 OA 
HETATM   16  C4* UNL     1     -11.843  12.289  68.398  1.00  0.00    -0.304 C  
HETATM   17  H3* UNL     1     -12.858  12.540  70.813  1.00  0.00     0.000 HD 
HETATM   18  O4* UNL     1     -11.869  11.057  67.641  1.00  0.00    -0.599 OA 
BRANCH  16  19
HETATM   19  C5* UNL     1     -10.970  13.287  67.634  1.00  0.00    -0.262 C  
HETATM   20  O5* UNL     1      -9.692  13.432  68.249  1.00  0.00    -0.222 OA 
HETATM   21  H5* UNL     1      -9.150  14.051  67.774  1.00  0.00     0.000 HD 
ENDBRANCH  16  19
ENDBRANCH   8  12
TORSDOF 2
ENDMDL
MODEL      219
REMARK 921   NORMALIZED FREE ENERGY PREDICTED BY IDOCK:   -2.42 KCAL/MOL
REMARK 922        TOTAL FREE ENERGY PREDICTED BY IDOCK:   -3.04 KCAL/MOL
REMARK 923 INTER-LIGAND FREE ENERGY PREDICTED BY IDOCK:   -3.68 KCAL/MOL
REMARK 924 INTRA-LIGAND FREE ENERGY PREDICTED BY IDOCK:    0.64 KCAL/MOL
REMARK 927      BINDING AFFINITY PREDICTED BY RF-SCORE:    0.00 PKD
ROOT
HETATM    1  N   UNL     1     -11.339  20.110  65.473  1.00  0.00     0.244 NA 
HETATM    2  C   UNL     1     -10.328  19.510  66.142  1.00  0.00    -0.520 C  
HETATM    3  H2  UNL     1     -11.518  21.105  65.602  1.00  0.00     0.000 HD 
HETATM    4  H1  UNL     1     -11.921  19.564  64.838  1.00  0.00     0.000 HD 
HETATM    5  N   UNL     1      -9.594  20.199  66.943  1.00  0.00    -0.405 N  
HETATM    6  H   UNL     1      -9.765  21.195  67.078  1.00  0.00     0.000 HD 
HETATM    7  C   UNL     1      -8.581  19.570  67.607  1.00  0.00    -0.314 C  
HETATM    8  N   UNL     1      -8.611  18.197  67.669  1.00  0.00    -0.249 N  
HETATM    9  O   UNL     1      -7.664  20.216  68.106  1.00  0.00    -0.276 OA 
HETATM   10  C   UNL     1      -9.298  17.587  66.673  1.00  0.00    -0.262 C  
HETATM   11  N   UNL     1     -10.130  18.193  65.902  1.00  0.00    -0.583 NA 
ENDROOT
BRANCH   8  12
HETATM   12  C1* UNL     1      -7.566  17.505  68.403  1.00  0.00    -0.254 C  
HETATM   13  C2* UNL     1      -6.198  17.541  67.725  1.00  0.00    -0.169 C  
HETATM   14  C3* UNL     1      -5.258  17.358  68.888  1.00  0.00    -0.149 C  
HETATM   15  O3* UNL     1      -5.152  15.960  69.174  1.00  0.00    -0.104 OA 
HETATM   16  C4* UNL     1      -5.975  18.058  70.041  1.00  0.00    -0.169 C  
HETATM   17  H3* UNL     1      -4.559  15.845  69.907  1.00  0.00     0.000 HD 
HETATM   18  O4* UNL     1      -7.375  18.138  69.683  1.00  0.00     0.107 OA 
BRANCH  16  19
HETATM   19  C5* UNL     1      -5.476  19.483  70.291  1.00  0.00    -0.235 C  
HETATM   20  O5* UNL     1      -6.557  20.412  70.317  1.00  0.00    -0.342 OA 
HETATM   21  H5* UNL     1      -6.247  21.296  70.472  1.00  0.00     0.000 HD 
ENDBRANCH  16  19
ENDBRANCH   8  12
TORSDOF 2
ENDMDL
MODEL      220
REMARK 921   NORMALIZED FREE ENERGY PREDICTED BY IDOCK:   -2.42 KCAL/MOL
REMARK 922        TOTAL FREE ENERGY PREDICTED BY IDOCK:   -3.04 KCAL/MOL
REMARK 923 INTER-LIGAND FREE ENERGY PREDICTED BY IDOCK:   -3.67 KCAL/MOL
REMARK 924 INTRA-LIGAND FREE ENERGY PREDICTED BY IDOCK:    0.63 KCAL/MOL
REMARK 927      BINDING AFFINITY PREDICTED BY RF-SCORE:    0.00 PKD
ROOT
HETATM    1  N   UNL     1      -5.512  19.104  68.780  1.00  0.00    -0.195 NA 
HETATM    2  C   UNL     1      -6.377  18.069  68.686  1.00  0.00    -0.211 C  
HETATM    3  H2  UNL     1      -5.789  20.032  68.458  1.00  0.00     0.000 HD 
HETATM    4  H1  UNL     1      -4.583  18.956  69.174  1.00  0.00     0.000 HD 
HETATM    5  N   UNL     1      -7.548  18.256  68.190  1.00  0.00    -0.261 N  
HETATM    6  H   UNL     1      -7.834  19.180  67.865  1.00  0.00     0.000 HD 
HETATM    7  C   UNL     1      -8.401  17.195  68.106  1.00  0.00    -0.226 C  
HETATM    8  N   UNL     1      -7.867  15.933  68.217  1.00  0.00    -0.135 N  
HETATM    9  O   UNL     1      -9.608  17.371  67.962  1.00  0.00    -0.262 OA 
HETATM   10  C   UNL     1      -6.699  15.857  68.898  1.00  0.00    -0.134 C  
HETATM   11  N   UNL     1      -5.954  16.873  69.158  1.00  0.00    -0.165 NA 
ENDROOT
BRANCH   8  12
HETATM   12  C1* UNL     1      -8.747  14.784  68.092  1.00  0.00    -0.168 C  
HETATM   13  C2* UNL     1     -10.164  15.025  68.608  1.00  0.00    -0.231 C  
HETATM   14  C3* UNL     1     -10.967  14.015  67.828  1.00  0.00    -0.258 C  
HETATM   15  O3* UNL     1     -10.871  12.749  68.487  1.00  0.00    -0.237 OA 
HETATM   16  C4* UNL     1     -10.242  13.944  66.485  1.00  0.00    -0.280 C  
HETATM   17  H3* UNL     1     -11.377  12.113  67.995  1.00  0.00     0.000 HD 
HETATM   18  O4* UNL     1      -8.901  14.442  66.700  1.00  0.00    -0.232 OA 
BRANCH  16  19
HETATM   19  C5* UNL     1     -10.890  14.804  65.398  1.00  0.00    -0.363 C  
HETATM   20  O5* UNL     1      -9.912  15.333  64.507  1.00  0.00    -0.316 OA 
HETATM   21  H5* UNL     1     -10.315  15.867  63.832  1.00  0.00     0.000 HD 
ENDBRANCH  16  19
ENDBRANCH   8  12
TORSDOF 2
ENDMDL
MODEL      221
REMARK 921   NORMALIZED FREE ENERGY PREDICTED BY IDOCK:   -2.41 KCAL/MOL
REMARK 922        TOTAL FREE ENERGY PREDICTED BY IDOCK:   -3.03 KCAL/MOL
REMARK 923 INTER-LIGAND FREE ENERGY PREDICTED BY IDOCK:   -3.93 KCAL/MOL
REMARK 924 INTRA-LIGAND FREE ENERGY PREDICTED BY IDOCK:    0.91 KCAL/MOL
REMARK 927      BINDING AFFINITY PREDICTED BY RF-SCORE:    0.00 PKD
ROOT
HETATM    1  N   UNL     1     -13.367  11.181  72.265  1.00  0.00    -0.552 NA 
HETATM    2  C   UNL     1     -12.686  10.111  71.794  1.00  0.00    -0.434 C  
HETATM    3  H2  UNL     1     -14.160  11.046  72.893  1.00  0.00     0.000 HD 
HETATM    4  H1  UNL     1     -13.086  12.122  71.991  1.00  0.00     0.000 HD 
HETATM    5  N   UNL     1     -13.041   8.924  72.140  1.00  0.00    -0.391 N  
HETATM    6  H   UNL     1     -13.832   8.780  72.768  1.00  0.00     0.000 HD 
HETATM    7  C   UNL     1     -12.338   7.862  71.651  1.00  0.00    -0.315 C  
HETATM    8  N   UNL     1     -11.532   8.076  70.559  1.00  0.00    -0.235 N  
HETATM    9  O   UNL     1     -12.409   6.762  72.192  1.00  0.00    -0.283 OA 
HETATM   10  C   UNL     1     -11.104   9.351  70.396  1.00  0.00    -0.261 C  
HETATM   11  N   UNL     1     -11.629  10.363  70.988  1.00  0.00    -0.337 NA 
ENDROOT
BRANCH   8  12
HETATM   12  C1* UNL     1     -10.803   6.954  69.994  1.00  0.00    -0.262 C  
HETATM   13  C2* UNL     1      -9.346   6.865  70.444  1.00  0.00    -0.159 C  
HETATM   14  C3* UNL     1      -9.045   5.398  70.272  1.00  0.00    -0.136 C  
HETATM   15  O3* UNL     1      -8.704   5.161  68.902  1.00  0.00    -0.090 OA 
HETATM   16  C4* UNL     1     -10.377   4.720  70.587  1.00  0.00    -0.114 C  
HETATM   17  H3* UNL     1      -8.514   4.237  68.793  1.00  0.00     0.000 HD 
HETATM   18  O4* UNL     1     -11.411   5.719  70.420  1.00  0.00    -0.242 OA 
BRANCH  16  19
HETATM   19  C5* UNL     1     -10.465   4.192  72.020  1.00  0.00     0.002 C  
HETATM   20  O5* UNL     1      -9.273   4.474  72.748  1.00  0.00    -0.126 OA 
HETATM   21  H5* UNL     1      -9.328   4.147  73.639  1.00  0.00     0.000 HD 
ENDBRANCH  16  19
ENDBRANCH   8  12
TORSDOF 2
ENDMDL
MODEL      222
REMARK 921   NORMALIZED FREE ENERGY PREDICTED BY IDOCK:   -2.40 KCAL/MOL
REMARK 922        TOTAL FREE ENERGY PREDICTED BY IDOCK:   -3.02 KCAL/MOL
REMARK 923 INTER-LIGAND FREE ENERGY PREDICTED BY IDOCK:   -3.46 KCAL/MOL
REMARK 924 INTRA-LIGAND FREE ENERGY PREDICTED BY IDOCK:    0.45 KCAL/MOL
REMARK 927      BINDING AFFINITY PREDICTED BY RF-SCORE:    0.00 PKD
ROOT
HETATM    1  N   UNL     1     -12.148  11.786  69.599  1.00  0.00    -0.283 NA 
HETATM    2  C   UNL     1     -11.316  10.815  70.038  1.00  0.00    -0.319 C  
HETATM    3  H2  UNL     1     -13.067  11.903  70.026  1.00  0.00     0.000 HD 
HETATM    4  H1  UNL     1     -11.855  12.401  68.840  1.00  0.00     0.000 HD 
HETATM    5  N   UNL     1     -11.686  10.039  70.995  1.00  0.00    -0.364 N  
HETATM    6  H   UNL     1     -12.603  10.149  71.429  1.00  0.00     0.000 HD 
HETATM    7  C   UNL     1     -10.828   9.067  71.419  1.00  0.00    -0.330 C  
HETATM    8  N   UNL     1      -9.781   8.732  70.594  1.00  0.00    -0.184 N  
HETATM    9  O   UNL     1     -10.979   8.533  72.515  1.00  0.00    -0.353 OA 
HETATM   10  C   UNL     1      -9.392   9.700  69.731  1.00  0.00    -0.218 C  
HETATM   11  N   UNL     1     -10.102  10.733  69.446  1.00  0.00    -0.185 NA 
ENDROOT
BRANCH   8  12
HETATM   12  C1* UNL     1      -8.876   7.672  71.003  1.00  0.00    -0.142 C  
HETATM   13  C2* UNL     1      -8.502   7.708  72.484  1.00  0.00    -0.157 C  
HETATM   14  C3* UNL     1      -8.139   6.271  72.759  1.00  0.00    -0.105 C  
HETATM   15  O3* UNL     1      -6.783   6.058  72.355  1.00  0.00    -0.065 OA 
HETATM   16  C4* UNL     1      -9.072   5.485  71.839  1.00  0.00    -0.138 C  
HETATM   17  H3* UNL     1      -6.554   5.153  72.528  1.00  0.00     0.000 HD 
HETATM   18  O4* UNL     1      -9.506   6.392  70.799  1.00  0.00    -0.167 OA 
BRANCH  16  19
HETATM   19  C5* UNL     1     -10.321   4.957  72.548  1.00  0.00    -0.201 C  
HETATM   20  O5* UNL     1     -10.548   5.647  73.775  1.00  0.00    -0.253 OA 
HETATM   21  H5* UNL     1     -11.324   5.319  74.215  1.00  0.00     0.000 HD 
ENDBRANCH  16  19
ENDBRANCH   8  12
TORSDOF 2
ENDMDL
MODEL      223
REMARK 921   NORMALIZED FREE ENERGY PREDICTED BY IDOCK:   -2.39 KCAL/MOL
REMARK 922        TOTAL FREE ENERGY PREDICTED BY IDOCK:   -3.01 KCAL/MOL
REMARK 923 INTER-LIGAND FREE ENERGY PREDICTED BY IDOCK:   -3.55 KCAL/MOL
REMARK 924 INTRA-LIGAND FREE ENERGY PREDICTED BY IDOCK:    0.54 KCAL/MOL
REMARK 927      BINDING AFFINITY PREDICTED BY RF-SCORE:    0.00 PKD
ROOT
HETATM    1  N   UNL     1      -6.978   5.863  66.710  1.00  0.00    -0.066 NA 
HETATM    2  C   UNL     1      -8.038   6.239  67.461  1.00  0.00    -0.113 C  
HETATM    3  H2  UNL     1      -6.394   5.081  67.005  1.00  0.00     0.000 HD 
HETATM    4  H1  UNL     1      -6.763   6.363  65.847  1.00  0.00     0.000 HD 
HETATM    5  N   UNL     1      -8.307   5.608  68.548  1.00  0.00    -0.106 N  
HETATM    6  H   UNL     1      -7.729   4.824  68.852  1.00  0.00     0.000 HD 
HETATM    7  C   UNL     1      -9.382   6.008  69.288  1.00  0.00    -0.133 C  
HETATM    8  N   UNL     1      -9.902   7.256  69.040  1.00  0.00    -0.162 N  
HETATM    9  O   UNL     1      -9.877   5.261  70.128  1.00  0.00    -0.184 OA 
HETATM   10  C   UNL     1      -9.671   7.742  67.796  1.00  0.00    -0.153 C  
HETATM   11  N   UNL     1      -8.785   7.267  66.996  1.00  0.00    -0.121 NA 
ENDROOT
BRANCH   8  12
HETATM   12  C1* UNL     1     -11.021   7.721  69.840  1.00  0.00    -0.190 C  
HETATM   13  C2* UNL     1     -11.997   6.620  70.249  1.00  0.00    -0.302 C  
HETATM   14  C3* UNL     1     -12.622   7.191  71.496  1.00  0.00    -0.390 C  
HETATM   15  O3* UNL     1     -13.680   8.076  71.112  1.00  0.00    -0.558 OA 
HETATM   16  C4* UNL     1     -11.489   8.000  72.126  1.00  0.00    -0.335 C  
HETATM   17  H3* UNL     1     -14.074   8.436  71.897  1.00  0.00     0.000 HD 
HETATM   18  O4* UNL     1     -10.533   8.278  71.076  1.00  0.00    -0.198 OA 
BRANCH  16  19
HETATM   19  C5* UNL     1     -10.754   7.249  73.239  1.00  0.00    -0.383 C  
HETATM   20  O5* UNL     1      -9.341   7.362  73.091  1.00  0.00    -0.155 OA 
HETATM   21  H5* UNL     1      -8.885   6.896  73.782  1.00  0.00     0.000 HD 
ENDBRANCH  16  19
ENDBRANCH   8  12
TORSDOF 2
ENDMDL
MODEL      224
REMARK 921   NORMALIZED FREE ENERGY PREDICTED BY IDOCK:   -2.38 KCAL/MOL
REMARK 922        TOTAL FREE ENERGY PREDICTED BY IDOCK:   -2.99 KCAL/MOL
REMARK 923 INTER-LIGAND FREE ENERGY PREDICTED BY IDOCK:   -2.96 KCAL/MOL
REMARK 924 INTRA-LIGAND FREE ENERGY PREDICTED BY IDOCK:   -0.03 KCAL/MOL
REMARK 927      BINDING AFFINITY PREDICTED BY RF-SCORE:    0.00 PKD
ROOT
HETATM    1  N   UNL     1      -5.887  14.908  70.305  1.00  0.00    -0.141 NA 
HETATM    2  C   UNL     1      -6.938  14.461  69.580  1.00  0.00    -0.119 C  
HETATM    3  H2  UNL     1      -5.874  15.869  70.646  1.00  0.00     0.000 HD 
HETATM    4  H1  UNL     1      -5.109  14.282  70.511  1.00  0.00     0.000 HD 
HETATM    5  N   UNL     1      -7.919  15.251  69.321  1.00  0.00    -0.210 N  
HETATM    6  H   UNL     1      -7.915  16.214  69.658  1.00  0.00     0.000 HD 
HETATM    7  C   UNL     1      -8.967  14.775  68.587  1.00  0.00    -0.185 C  
HETATM    8  N   UNL     1      -8.774  13.618  67.870  1.00  0.00    -0.173 N  
HETATM    9  O   UNL     1     -10.050  15.354  68.595  1.00  0.00    -0.203 OA 
HETATM   10  C   UNL     1      -7.803  12.800  68.343  1.00  0.00    -0.132 C  
HETATM   11  N   UNL     1      -6.903  13.168  69.183  1.00  0.00    -0.092 NA 
ENDROOT
BRANCH   8  12
HETATM   12  C1* UNL     1      -9.860  13.112  67.050  1.00  0.00    -0.244 C  
HETATM   13  C2* UNL     1      -9.450  11.996  66.091  1.00  0.00    -0.241 C  
HETATM   14  C3* UNL     1     -10.752  11.268  65.870  1.00  0.00    -0.232 C  
HETATM   15  O3* UNL     1     -11.492  11.955  64.857  1.00  0.00    -0.312 OA 
HETATM   16  C4* UNL     1     -11.472  11.410  67.210  1.00  0.00    -0.224 C  
HETATM   17  H3* UNL     1     -12.312  11.496  64.718  1.00  0.00     0.000 HD 
HETATM   18  O4* UNL     1     -10.876  12.537  67.895  1.00  0.00    -0.210 OA 
BRANCH  16  19
HETATM   19  C5* UNL     1     -11.324  10.183  68.113  1.00  0.00    -0.099 C  
HETATM   20  O5* UNL     1      -9.961   9.777  68.210  1.00  0.00    -0.146 OA 
HETATM   21  H5* UNL     1      -9.869   9.015  68.771  1.00  0.00     0.000 HD 
ENDBRANCH  16  19
ENDBRANCH   8  12
TORSDOF 2
ENDMDL
MODEL      225
REMARK 921   NORMALIZED FREE ENERGY PREDICTED BY IDOCK:   -2.38 KCAL/MOL
REMARK 922        TOTAL FREE ENERGY PREDICTED BY IDOCK:   -2.99 KCAL/MOL
REMARK 923 INTER-LIGAND FREE ENERGY PREDICTED BY IDOCK:   -2.60 KCAL/MOL
REMARK 924 INTRA-LIGAND FREE ENERGY PREDICTED BY IDOCK:   -0.39 KCAL/MOL
REMARK 927      BINDING AFFINITY PREDICTED BY RF-SCORE:    0.00 PKD
ROOT
HETATM    1  N   UNL     1     -11.138   9.426  68.070  1.00  0.00    -0.513 NA 
HETATM    2  C   UNL     1     -10.375   8.734  67.194  1.00  0.00    -0.293 C  
HETATM    3  H2  UNL     1     -11.191  10.443  68.009  1.00  0.00     0.000 HD 
HETATM    4  H1  UNL     1     -11.659   8.930  68.792  1.00  0.00     0.000 HD 
HETATM    5  N   UNL     1      -9.718   9.360  66.283  1.00  0.00    -0.242 N  
HETATM    6  H   UNL     1      -9.765  10.377  66.213  1.00  0.00     0.000 HD 
HETATM    7  C   UNL     1      -8.955   8.638  65.411  1.00  0.00    -0.130 C  
HETATM    8  N   UNL     1      -8.643   7.344  65.754  1.00  0.00    -0.150 N  
HETATM    9  O   UNL     1      -8.587   9.128  64.347  1.00  0.00    -0.186 OA 
HETATM   10  C   UNL     1      -9.508   6.747  66.610  1.00  0.00    -0.165 C  
HETATM   11  N   UNL     1     -10.371   7.386  67.316  1.00  0.00    -0.255 NA 
ENDROOT
BRANCH   8  12
HETATM   12  C1* UNL     1      -7.801   6.566  64.863  1.00  0.00    -0.114 C  
HETATM   13  C2* UNL     1      -6.806   5.656  65.580  1.00  0.00    -0.056 C  
HETATM   14  C3* UNL     1      -6.554   4.582  64.553  1.00  0.00    -0.043 C  
HETATM   15  O3* UNL     1      -5.562   5.052  63.635  1.00  0.00    -0.016 OA 
HETATM   16  C4* UNL     1      -7.894   4.458  63.830  1.00  0.00    -0.087 C  
HETATM   17  H3* UNL     1      -5.402   4.376  62.988  1.00  0.00     0.000 HD 
HETATM   18  O4* UNL     1      -8.620   5.686  64.068  1.00  0.00    -0.062 OA 
BRANCH  16  19
HETATM   19  C5* UNL     1      -8.754   3.300  64.342  1.00  0.00    -0.094 C  
HETATM   20  O5* UNL     1     -10.096   3.720  64.580  1.00  0.00    -0.194 OA 
HETATM   21  H5* UNL     1     -10.630   3.002  64.897  1.00  0.00     0.000 HD 
ENDBRANCH  16  19
ENDBRANCH   8  12
TORSDOF 2
ENDMDL
MODEL      226
REMARK 921   NORMALIZED FREE ENERGY PREDICTED BY IDOCK:   -2.33 KCAL/MOL
REMARK 922        TOTAL FREE ENERGY PREDICTED BY IDOCK:   -2.94 KCAL/MOL
REMARK 923 INTER-LIGAND FREE ENERGY PREDICTED BY IDOCK:   -3.34 KCAL/MOL
REMARK 924 INTRA-LIGAND FREE ENERGY PREDICTED BY IDOCK:    0.41 KCAL/MOL
REMARK 927      BINDING AFFINITY PREDICTED BY RF-SCORE:    0.00 PKD
ROOT
HETATM    1  N   UNL     1      -6.707   5.341  69.899  1.00  0.00    -0.045 NA 
HETATM    2  C   UNL     1      -7.785   6.134  70.095  1.00  0.00    -0.097 C  
HETATM    3  H2  UNL     1      -5.767   5.716  70.028  1.00  0.00     0.000 HD 
HETATM    4  H1  UNL     1      -6.835   4.369  69.621  1.00  0.00     0.000 HD 
HETATM    5  N   UNL     1      -7.622   7.361  70.445  1.00  0.00    -0.089 N  
HETATM    6  H   UNL     1      -6.686   7.744  70.577  1.00  0.00     0.000 HD 
HETATM    7  C   UNL     1      -8.726   8.139  70.637  1.00  0.00    -0.135 C  
HETATM    8  N   UNL     1      -9.919   7.698  70.114  1.00  0.00    -0.185 N  
HETATM    9  O   UNL     1      -8.652   9.184  71.278  1.00  0.00    -0.278 OA 
HETATM   10  C   UNL     1     -10.013   6.359  69.935  1.00  0.00    -0.168 C  
HETATM   11  N   UNL     1      -9.002   5.565  69.933  1.00  0.00    -0.125 NA 
ENDROOT
BRANCH   8  12
HETATM   12  C1* UNL     1     -11.102   8.527  70.270  1.00  0.00    -0.214 C  
HETATM   13  C2* UNL     1     -11.127   9.344  71.560  1.00  0.00    -0.446 C  
HETATM   14  C3* UNL     1     -12.028  10.495  71.194  1.00  0.00    -0.336 C  
HETATM   15  O3* UNL     1     -13.388  10.079  71.355  1.00  0.00    -0.377 OA 
HETATM   16  C4* UNL     1     -11.739  10.718  69.711  1.00  0.00    -0.324 C  
HETATM   17  H3* UNL     1     -13.956  10.804  71.125  1.00  0.00     0.000 HD 
HETATM   18  O4* UNL     1     -11.158   9.494  69.203  1.00  0.00    -0.171 OA 
BRANCH  16  19
HETATM   19  C5* UNL     1     -10.743  11.850  69.450  1.00  0.00     0.041 C  
HETATM   20  O5* UNL     1      -9.460  11.338  69.097  1.00  0.00    -0.394 OA 
HETATM   21  H5* UNL     1      -8.842  12.041  68.935  1.00  0.00     0.000 HD 
ENDBRANCH  16  19
ENDBRANCH   8  12
TORSDOF 2
ENDMDL
MODEL      227
REMARK 921   NORMALIZED FREE ENERGY PREDICTED BY IDOCK:   -2.31 KCAL/MOL
REMARK 922        TOTAL FREE ENERGY PREDICTED BY IDOCK:   -2.91 KCAL/MOL
REMARK 923 INTER-LIGAND FREE ENERGY PREDICTED BY IDOCK:   -2.73 KCAL/MOL
REMARK 924 INTRA-LIGAND FREE ENERGY PREDICTED BY IDOCK:   -0.18 KCAL/MOL
REMARK 927      BINDING AFFINITY PREDICTED BY RF-SCORE:    0.00 PKD
ROOT
HETATM    1  N   UNL     1      -8.163   7.683  69.556  1.00  0.00    -0.127 NA 
HETATM    2  C   UNL     1      -8.481   6.720  68.660  1.00  0.00    -0.123 C  
HETATM    3  H2  UNL     1      -8.276   7.509  70.554  1.00  0.00     0.000 HD 
HETATM    4  H1  UNL     1      -7.810   8.582  69.230  1.00  0.00     0.000 HD 
HETATM    5  N   UNL     1      -8.927   5.586  69.072  1.00  0.00    -0.107 N  
HETATM    6  H   UNL     1      -9.043   5.403  70.068  1.00  0.00     0.000 HD 
HETATM    7  C   UNL     1      -9.241   4.632  68.148  1.00  0.00    -0.128 C  
HETATM    8  N   UNL     1      -9.407   5.033  66.844  1.00  0.00    -0.125 N  
HETATM    9  O   UNL     1      -9.345   3.453  68.476  1.00  0.00    -0.157 OA 
HETATM   10  C   UNL     1      -8.756   6.171  66.501  1.00  0.00    -0.133 C  
HETATM   11  N   UNL     1      -8.281   7.008  67.353  1.00  0.00    -0.118 NA 
ENDROOT
BRANCH   8  12
HETATM   12  C1* UNL     1      -9.780   4.044  65.847  1.00  0.00    -0.188 C  
HETATM   13  C2* UNL     1     -10.949   4.464  64.959  1.00  0.00    -0.041 C  
HETATM   14  C3* UNL     1     -10.718   3.644  63.715  1.00  0.00    -0.261 C  
HETATM   15  O3* UNL     1     -11.261   2.337  63.923  1.00  0.00    -0.569 OA 
HETATM   16  C4* UNL     1      -9.196   3.552  63.625  1.00  0.00    -0.105 C  
HETATM   17  H3* UNL     1     -11.116   1.820  63.140  1.00  0.00     0.000 HD 
HETATM   18  O4* UNL     1      -8.676   3.824  64.948  1.00  0.00    -0.111 OA 
BRANCH  16  19
HETATM   19  C5* UNL     1      -8.582   4.573  62.664  1.00  0.00    -0.104 C  
HETATM   20  O5* UNL     1      -8.789   5.906  63.126  1.00  0.00    -0.334 OA 
HETATM   21  H5* UNL     1      -8.408   6.539  62.529  1.00  0.00     0.000 HD 
ENDBRANCH  16  19
ENDBRANCH   8  12
TORSDOF 2
ENDMDL
MODEL      228
REMARK 921   NORMALIZED FREE ENERGY PREDICTED BY IDOCK:   -2.27 KCAL/MOL
REMARK 922        TOTAL FREE ENERGY PREDICTED BY IDOCK:   -2.87 KCAL/MOL
REMARK 923 INTER-LIGAND FREE ENERGY PREDICTED BY IDOCK:   -2.52 KCAL/MOL
REMARK 924 INTRA-LIGAND FREE ENERGY PREDICTED BY IDOCK:   -0.35 KCAL/MOL
REMARK 927      BINDING AFFINITY PREDICTED BY RF-SCORE:    0.00 PKD
ROOT
HETATM    1  N   UNL     1     -10.244   8.495  71.275  1.00  0.00    -0.207 NA 
HETATM    2  C   UNL     1      -9.902   7.537  70.384  1.00  0.00    -0.183 C  
HETATM    3  H2  UNL     1     -10.856   8.269  72.059  1.00  0.00     0.000 HD 
HETATM    4  H1  UNL     1      -9.889   9.445  71.161  1.00  0.00     0.000 HD 
HETATM    5  N   UNL     1     -10.350   6.340  70.528  1.00  0.00    -0.196 N  
HETATM    6  H   UNL     1     -10.962   6.104  71.309  1.00  0.00     0.000 HD 
HETATM    7  C   UNL     1      -9.990   5.392  69.615  1.00  0.00    -0.227 C  
HETATM    8  N   UNL     1      -9.473   5.821  68.415  1.00  0.00    -0.120 N  
HETATM    9  O   UNL     1     -10.103   4.197  69.875  1.00  0.00    -0.153 OA 
HETATM   10  C   UNL     1      -8.892   7.045  68.440  1.00  0.00    -0.123 C  
HETATM   11  N   UNL     1      -9.065   7.900  69.384  1.00  0.00    -0.146 NA 
ENDROOT
BRANCH   8  12
HETATM   12  C1* UNL     1      -9.118   4.834  67.411  1.00  0.00    -0.117 C  
HETATM   13  C2* UNL     1     -10.228   4.541  66.404  1.00  0.00    -0.249 C  
HETATM   14  C3* UNL     1      -9.455   4.048  65.208  1.00  0.00    -0.172 C  
HETATM   15  O3* UNL     1      -9.167   2.658  65.392  1.00  0.00    -0.162 OA 
HETATM   16  C4* UNL     1      -8.155   4.847  65.267  1.00  0.00    -0.115 C  
HETATM   17  H3* UNL     1      -8.681   2.347  64.639  1.00  0.00     0.000 HD 
HETATM   18  O4* UNL     1      -8.009   5.318  66.627  1.00  0.00    -0.103 OA 
BRANCH  16  19
HETATM   19  C5* UNL     1      -8.151   6.070  64.347  1.00  0.00    -0.119 C  
HETATM   20  O5* UNL     1      -8.187   7.281  65.098  1.00  0.00    -0.131 OA 
HETATM   21  H5* UNL     1      -8.184   8.040  64.527  1.00  0.00     0.000 HD 
ENDBRANCH  16  19
ENDBRANCH   8  12
TORSDOF 2
ENDMDL
MODEL      229
REMARK 921   NORMALIZED FREE ENERGY PREDICTED BY IDOCK:   -2.26 KCAL/MOL
REMARK 922        TOTAL FREE ENERGY PREDICTED BY IDOCK:   -2.86 KCAL/MOL
REMARK 923 INTER-LIGAND FREE ENERGY PREDICTED BY IDOCK:   -2.79 KCAL/MOL
REMARK 924 INTRA-LIGAND FREE ENERGY PREDICTED BY IDOCK:   -0.07 KCAL/MOL
REMARK 927      BINDING AFFINITY PREDICTED BY RF-SCORE:    0.00 PKD
ROOT
HETATM    1  N   UNL     1     -13.073  10.338  70.372  1.00  0.00    -0.546 NA 
HETATM    2  C   UNL     1     -11.909  10.153  69.709  1.00  0.00    -0.088 C  
HETATM    3  H2  UNL     1     -13.551   9.543  70.797  1.00  0.00     0.000 HD 
HETATM    4  H1  UNL     1     -13.471  11.273  70.447  1.00  0.00     0.000 HD 
HETATM    5  N   UNL     1     -11.406   8.972  69.615  1.00  0.00    -0.438 N  
HETATM    6  H   UNL     1     -11.877   8.172  70.037  1.00  0.00     0.000 HD 
HETATM    7  C   UNL     1     -10.231   8.813  68.941  1.00  0.00    -0.207 C  
HETATM    8  N   UNL     1      -9.829   9.828  68.106  1.00  0.00    -0.145 N  
HETATM    9  O   UNL     1      -9.550   7.804  69.100  1.00  0.00    -0.155 OA 
HETATM   10  C   UNL     1     -10.316  11.055  68.410  1.00  0.00    -0.183 C  
HETATM   11  N   UNL     1     -11.314  11.254  69.194  1.00  0.00    -0.255 NA 
ENDROOT
BRANCH   8  12
HETATM   12  C1* UNL     1      -8.601   9.666  67.346  1.00  0.00    -0.125 C  
HETATM   13  C2* UNL     1      -8.443  10.660  66.197  1.00  0.00    -0.159 C  
HETATM   14  C3* UNL     1      -6.947  10.710  66.018  1.00  0.00    -0.128 C  
HETATM   15  O3* UNL     1      -6.548   9.604  65.203  1.00  0.00    -0.083 OA 
HETATM   16  C4* UNL     1      -6.412  10.514  67.436  1.00  0.00    -0.062 C  
HETATM   17  H3* UNL     1      -5.606   9.635  65.090  1.00  0.00     0.000 HD 
HETATM   18  O4* UNL     1      -7.467   9.892  68.206  1.00  0.00    -0.079 OA 
BRANCH  16  19
HETATM   19  C5* UNL     1      -6.038  11.825  68.130  1.00  0.00    -0.050 C  
HETATM   20  O5* UNL     1      -7.093  12.779  68.034  1.00  0.00    -0.087 OA 
HETATM   21  H5* UNL     1      -6.861  13.593  68.466  1.00  0.00     0.000 HD 
ENDBRANCH  16  19
ENDBRANCH   8  12
TORSDOF 2
ENDMDL
MODEL      230
REMARK 921   NORMALIZED FREE ENERGY PREDICTED BY IDOCK:   -2.20 KCAL/MOL
REMARK 922        TOTAL FREE ENERGY PREDICTED BY IDOCK:   -2.80 KCAL/MOL
REMARK 923 INTER-LIGAND FREE ENERGY PREDICTED BY IDOCK:   -2.41 KCAL/MOL
REMARK 924 INTRA-LIGAND FREE ENERGY PREDICTED BY IDOCK:   -0.38 KCAL/MOL
REMARK 927      BINDING AFFINITY PREDICTED BY RF-SCORE:    0.00 PKD
ROOT
HETATM    1  N   UNL     1     -11.660   6.526  68.003  1.00  0.00    -0.527 NA 
HETATM    2  C   UNL     1     -10.846   6.222  69.040  1.00  0.00    -0.337 C  
HETATM    3  H2  UNL     1     -12.572   6.947  68.176  1.00  0.00     0.000 HD 
HETATM    4  H1  UNL     1     -11.359   6.332  67.048  1.00  0.00     0.000 HD 
HETATM    5  N   UNL     1     -11.226   6.466  70.244  1.00  0.00    -0.351 N  
HETATM    6  H   UNL     1     -12.137   6.888  70.427  1.00  0.00     0.000 HD 
HETATM    7  C   UNL     1     -10.387   6.150  71.272  1.00  0.00    -0.217 C  
HETATM    8  N   UNL     1      -9.355   5.280  71.012  1.00  0.00    -0.146 N  
HETATM    9  O   UNL     1     -10.541   6.651  72.383  1.00  0.00    -0.204 OA 
HETATM   10  C   UNL     1      -8.950   5.231  69.720  1.00  0.00    -0.111 C  
HETATM   11  N   UNL     1      -9.640   5.690  68.737  1.00  0.00    -0.125 NA 
ENDROOT
BRANCH   8  12
HETATM   12  C1* UNL     1      -8.470   4.896  72.098  1.00  0.00    -0.124 C  
HETATM   13  C2* UNL     1      -8.296   3.387  72.258  1.00  0.00    -0.081 C  
HETATM   14  C3* UNL     1      -6.954   3.288  72.938  1.00  0.00    -0.043 C  
HETATM   15  O3* UNL     1      -7.140   3.481  74.344  1.00  0.00    -0.049 OA 
HETATM   16  C4* UNL     1      -6.175   4.470  72.364  1.00  0.00    -0.017 C  
HETATM   17  H3* UNL     1      -6.296   3.419  74.773  1.00  0.00     0.000 HD 
HETATM   18  O4* UNL     1      -7.147   5.409  71.849  1.00  0.00    -0.078 OA 
BRANCH  16  19
HETATM   19  C5* UNL     1      -5.246   4.081  71.211  1.00  0.00     0.000 C  
HETATM   20  O5* UNL     1      -5.307   5.036  70.155  1.00  0.00    -0.003 OA 
HETATM   21  H5* UNL     1      -4.730   4.795  69.439  1.00  0.00     0.000 HD 
ENDBRANCH  16  19
ENDBRANCH   8  12
TORSDOF 2
ENDMDL
MODEL      231
REMARK 921   NORMALIZED FREE ENERGY PREDICTED BY IDOCK:   -2.12 KCAL/MOL
REMARK 922        TOTAL FREE ENERGY PREDICTED BY IDOCK:   -2.70 KCAL/MOL
REMARK 923 INTER-LIGAND FREE ENERGY PREDICTED BY IDOCK:   -3.04 KCAL/MOL
REMARK 924 INTRA-LIGAND FREE ENERGY PREDICTED BY IDOCK:    0.34 KCAL/MOL
REMARK 927      BINDING AFFINITY PREDICTED BY RF-SCORE:    0.00 PKD
ROOT
HETATM    1  N   UNL     1      -7.854   8.474  73.609  1.00  0.00    -0.400 NA 
HETATM    2  C   UNL     1      -8.025   8.392  72.269  1.00  0.00    -0.116 C  
HETATM    3  H2  UNL     1      -8.279   7.778  74.221  1.00  0.00     0.000 HD 
HETATM    4  H1  UNL     1      -7.300   9.232  74.005  1.00  0.00     0.000 HD 
HETATM    5  N   UNL     1      -8.724   7.435  71.770  1.00  0.00    -0.115 N  
HETATM    6  H   UNL     1      -9.153   6.734  72.375  1.00  0.00     0.000 HD 
HETATM    7  C   UNL     1      -8.882   7.376  70.416  1.00  0.00    -0.149 C  
HETATM    8  N   UNL     1      -8.598   8.508  69.688  1.00  0.00    -0.129 N  
HETATM    9  O   UNL     1      -9.240   6.335  69.872  1.00  0.00    -0.149 OA 
HETATM   10  C   UNL     1      -7.724   9.365  70.269  1.00  0.00    -0.144 C  
HETATM   11  N   UNL     1      -7.410   9.333  71.515  1.00  0.00    -0.334 NA 
ENDROOT
BRANCH   8  12
HETATM   12  C1* UNL     1      -8.794   8.484  68.249  1.00  0.00    -0.142 C  
HETATM   13  C2* UNL     1      -8.053   7.355  67.537  1.00  0.00    -0.114 C  
HETATM   14  C3* UNL     1      -8.876   7.168  66.288  1.00  0.00    -0.148 C  
HETATM   15  O3* UNL     1      -8.463   8.138  65.320  1.00  0.00    -0.157 OA 
HETATM   16  C4* UNL     1     -10.299   7.484  66.746  1.00  0.00    -0.262 C  
HETATM   17  H3* UNL     1      -8.981   8.020  64.533  1.00  0.00     0.000 HD 
HETATM   18  O4* UNL     1     -10.189   8.271  67.955  1.00  0.00    -0.197 OA 
BRANCH  16  19
HETATM   19  C5* UNL     1     -11.122   6.237  67.074  1.00  0.00    -0.297 C  
HETATM   20  O5* UNL     1     -10.282   5.148  67.449  1.00  0.00    -0.188 OA 
HETATM   21  H5* UNL     1     -10.793   4.373  67.654  1.00  0.00     0.000 HD 
ENDBRANCH  16  19
ENDBRANCH   8  12
TORSDOF 2
ENDMDL
MODEL      232
REMARK 921   NORMALIZED FREE ENERGY PREDICTED BY IDOCK:   -2.09 KCAL/MOL
REMARK 922        TOTAL FREE ENERGY PREDICTED BY IDOCK:   -2.68 KCAL/MOL
REMARK 923 INTER-LIGAND FREE ENERGY PREDICTED BY IDOCK:   -2.63 KCAL/MOL
REMARK 924 INTRA-LIGAND FREE ENERGY PREDICTED BY IDOCK:   -0.04 KCAL/MOL
REMARK 927      BINDING AFFINITY PREDICTED BY RF-SCORE:    0.00 PKD
ROOT
HETATM    1  N   UNL     1      -6.340   5.575  67.760  1.00  0.00    -0.041 NA 
HETATM    2  C   UNL     1      -7.048   6.671  67.403  1.00  0.00    -0.080 C  
HETATM    3  H2  UNL     1      -5.838   5.038  67.053  1.00  0.00     0.000 HD 
HETATM    4  H1  UNL     1      -6.310   5.286  68.737  1.00  0.00     0.000 HD 
HETATM    5  N   UNL     1      -7.086   7.035  66.170  1.00  0.00    -0.072 N  
HETATM    6  H   UNL     1      -6.586   6.505  65.456  1.00  0.00     0.000 HD 
HETATM    7  C   UNL     1      -7.807   8.144  65.836  1.00  0.00    -0.094 C  
HETATM    8  N   UNL     1      -8.729   8.606  66.745  1.00  0.00    -0.122 N  
HETATM    9  O   UNL     1      -7.613   8.719  64.769  1.00  0.00    -0.099 OA 
HETATM   10  C   UNL     1      -8.485   8.274  68.036  1.00  0.00    -0.132 C  
HETATM   11  N   UNL     1      -7.667   7.351  68.396  1.00  0.00    -0.118 NA 
ENDROOT
BRANCH   8  12
HETATM   12  C1* UNL     1      -9.538   9.761  66.399  1.00  0.00    -0.200 C  
HETATM   13  C2* UNL     1     -10.493  10.208  67.503  1.00  0.00    -0.304 C  
HETATM   14  C3* UNL     1     -10.699  11.666  67.180  1.00  0.00    -0.247 C  
HETATM   15  O3* UNL     1     -11.710  11.771  66.173  1.00  0.00    -0.462 OA 
HETATM   16  C4* UNL     1      -9.355  12.096  66.595  1.00  0.00    -0.226 C  
HETATM   17  H3* UNL     1     -11.841  12.689  65.969  1.00  0.00     0.000 HD 
HETATM   18  O4* UNL     1      -8.682  10.894  66.152  1.00  0.00    -0.172 OA 
BRANCH  16  19
HETATM   19  C5* UNL     1      -8.446  12.793  67.610  1.00  0.00    -0.178 C  
HETATM   20  O5* UNL     1      -7.402  11.927  68.047  1.00  0.00    -0.087 OA 
HETATM   21  H5* UNL     1      -6.837  12.360  68.677  1.00  0.00     0.000 HD 
ENDBRANCH  16  19
ENDBRANCH   8  12
TORSDOF 2
ENDMDL
MODEL      233
REMARK 921   NORMALIZED FREE ENERGY PREDICTED BY IDOCK:   -2.04 KCAL/MOL
REMARK 922        TOTAL FREE ENERGY PREDICTED BY IDOCK:   -2.61 KCAL/MOL
REMARK 923 INTER-LIGAND FREE ENERGY PREDICTED BY IDOCK:   -3.00 KCAL/MOL
REMARK 924 INTRA-LIGAND FREE ENERGY PREDICTED BY IDOCK:    0.39 KCAL/MOL
REMARK 927      BINDING AFFINITY PREDICTED BY RF-SCORE:    0.00 PKD
ROOT
HETATM    1  N   UNL     1     -13.276   7.111  70.988  1.00  0.00    -0.548 NA 
HETATM    2  C   UNL     1     -11.958   7.137  70.687  1.00  0.00    -0.269 C  
HETATM    3  H2  UNL     1     -13.681   7.842  71.572  1.00  0.00     0.000 HD 
HETATM    4  H1  UNL     1     -13.864   6.358  70.631  1.00  0.00     0.000 HD 
HETATM    5  N   UNL     1     -11.217   8.087  71.137  1.00  0.00    -0.256 N  
HETATM    6  H   UNL     1     -11.614   8.824  71.721  1.00  0.00     0.000 HD 
HETATM    7  C   UNL     1      -9.890   8.090  70.819  1.00  0.00    -0.183 C  
HETATM    8  N   UNL     1      -9.343   6.922  70.344  1.00  0.00    -0.159 N  
HETATM    9  O   UNL     1      -9.222   9.115  70.930  1.00  0.00    -0.234 OA 
HETATM   10  C   UNL     1     -10.216   6.071  69.755  1.00  0.00    -0.205 C  
HETATM   11  N   UNL     1     -11.492   6.151  69.886  1.00  0.00    -0.394 NA 
ENDROOT
BRANCH   8  12
HETATM   12  C1* UNL     1      -7.924   6.887  70.035  1.00  0.00    -0.116 C  
HETATM   13  C2* UNL     1      -7.482   7.934  69.015  1.00  0.00    -0.097 C  
HETATM   14  C3* UNL     1      -6.021   8.109  69.345  1.00  0.00    -0.037 C  
HETATM   15  O3* UNL     1      -5.280   7.070  68.698  1.00  0.00    -0.015 OA 
HETATM   16  C4* UNL     1      -5.970   7.900  70.858  1.00  0.00    -0.034 C  
HETATM   17  H3* UNL     1      -4.360   7.179  68.906  1.00  0.00     0.000 HD 
HETATM   18  O4* UNL     1      -7.162   7.168  71.226  1.00  0.00    -0.071 OA 
BRANCH  16  19
HETATM   19  C5* UNL     1      -5.963   9.209  71.651  1.00  0.00    -0.072 C  
HETATM   20  O5* UNL     1      -6.417   9.006  72.986  1.00  0.00    -0.311 OA 
HETATM   21  H5* UNL     1      -6.413   9.819  73.479  1.00  0.00     0.000 HD 
ENDBRANCH  16  19
ENDBRANCH   8  12
TORSDOF 2
ENDMDL
MODEL      234
REMARK 921   NORMALIZED FREE ENERGY PREDICTED BY IDOCK:   -1.99 KCAL/MOL
REMARK 922        TOTAL FREE ENERGY PREDICTED BY IDOCK:   -2.56 KCAL/MOL
REMARK 923 INTER-LIGAND FREE ENERGY PREDICTED BY IDOCK:   -2.36 KCAL/MOL
REMARK 924 INTRA-LIGAND FREE ENERGY PREDICTED BY IDOCK:   -0.20 KCAL/MOL
REMARK 927      BINDING AFFINITY PREDICTED BY RF-SCORE:    0.00 PKD
ROOT
HETATM    1  N   UNL     1      -6.209   8.447  62.330  1.00  0.00    -0.087 NA 
HETATM    2  C   UNL     1      -6.676   8.678  63.578  1.00  0.00    -0.088 C  
HETATM    3  H2  UNL     1      -5.567   7.673  62.160  1.00  0.00     0.000 HD 
HETATM    4  H1  UNL     1      -6.501   9.047  61.559  1.00  0.00     0.000 HD 
HETATM    5  N   UNL     1      -6.308   7.921  64.550  1.00  0.00    -0.052 N  
HETATM    6  H   UNL     1      -5.666   7.144  64.390  1.00  0.00     0.000 HD 
HETATM    7  C   UNL     1      -6.793   8.176  65.800  1.00  0.00    -0.063 C  
HETATM    8  N   UNL     1      -7.352   9.410  66.030  1.00  0.00    -0.091 N  
HETATM    9  O   UNL     1      -6.751   7.316  66.675  1.00  0.00    -0.057 OA 
HETATM   10  C   UNL     1      -7.840  10.039  64.933  1.00  0.00    -0.141 C  
HETATM   11  N   UNL     1      -7.546   9.704  63.727  1.00  0.00    -0.120 NA 
ENDROOT
BRANCH   8  12
HETATM   12  C1* UNL     1      -7.841   9.722  67.361  1.00  0.00    -0.099 C  
HETATM   13  C2* UNL     1      -8.102  11.208  67.599  1.00  0.00    -0.117 C  
HETATM   14  C3* UNL     1      -9.128  11.182  68.703  1.00  0.00    -0.166 C  
HETATM   15  O3* UNL     1      -8.449  11.035  69.953  1.00  0.00    -0.095 OA 
HETATM   16  C4* UNL     1      -9.934   9.917  68.412  1.00  0.00    -0.158 C  
HETATM   17  H3* UNL     1      -9.094  11.019  70.649  1.00  0.00     0.000 HD 
HETATM   18  O4* UNL     1      -9.109   9.072  67.576  1.00  0.00    -0.131 OA 
BRANCH  16  19
HETATM   19  C5* UNL     1     -11.238  10.187  67.659  1.00  0.00    -0.095 C  
HETATM   20  O5* UNL     1     -12.182  10.862  68.488  1.00  0.00    -0.799 OA 
HETATM   21  H5* UNL     1     -12.992  11.030  68.021  1.00  0.00     0.000 HD 
ENDBRANCH  16  19
ENDBRANCH   8  12
TORSDOF 2
ENDMDL
MODEL      235
REMARK 921   NORMALIZED FREE ENERGY PREDICTED BY IDOCK:   -1.99 KCAL/MOL
REMARK 922        TOTAL FREE ENERGY PREDICTED BY IDOCK:   -2.56 KCAL/MOL
REMARK 923 INTER-LIGAND FREE ENERGY PREDICTED BY IDOCK:   -2.74 KCAL/MOL
REMARK 924 INTRA-LIGAND FREE ENERGY PREDICTED BY IDOCK:    0.18 KCAL/MOL
REMARK 927      BINDING AFFINITY PREDICTED BY RF-SCORE:    0.00 PKD
ROOT
HETATM    1  N   UNL     1      -6.790   3.935  65.561  1.00  0.00    -0.055 NA 
HETATM    2  C   UNL     1      -7.581   4.813  66.220  1.00  0.00    -0.091 C  
HETATM    3  H2  UNL     1      -5.914   4.250  65.144  1.00  0.00     0.000 HD 
HETATM    4  H1  UNL     1      -7.072   2.958  65.482  1.00  0.00     0.000 HD 
HETATM    5  N   UNL     1      -7.226   6.045  66.319  1.00  0.00    -0.074 N  
HETATM    6  H   UNL     1      -6.351   6.369  65.906  1.00  0.00     0.000 HD 
HETATM    7  C   UNL     1      -8.042   6.910  66.988  1.00  0.00    -0.117 C  
HETATM    8  N   UNL     1      -9.342   6.522  67.211  1.00  0.00    -0.119 N  
HETATM    9  O   UNL     1      -7.613   7.985  67.397  1.00  0.00    -0.094 OA 
HETATM   10  C   UNL     1      -9.551   5.184  67.230  1.00  0.00    -0.142 C  
HETATM   11  N   UNL     1      -8.715   4.322  66.771  1.00  0.00    -0.111 NA 
ENDROOT
BRANCH   8  12
HETATM   12  C1* UNL     1     -10.242   7.440  67.886  1.00  0.00    -0.194 C  
HETATM   13  C2* UNL     1      -9.628   8.138  69.098  1.00  0.00    -0.157 C  
HETATM   14  C3* UNL     1     -10.453   9.396  69.196  1.00  0.00    -0.217 C  
HETATM   15  O3* UNL     1     -11.662   9.096  69.899  1.00  0.00    -0.455 OA 
HETATM   16  C4* UNL     1     -10.781   9.722  67.740  1.00  0.00    -0.272 C  
HETATM   17  H3* UNL     1     -12.181   9.888  69.961  1.00  0.00     0.000 HD 
HETATM   18  O4* UNL     1     -10.618   8.499  66.984  1.00  0.00    -0.306 OA 
BRANCH  16  19
HETATM   19  C5* UNL     1      -9.854  10.775  67.129  1.00  0.00    -0.185 C  
HETATM   20  O5* UNL     1      -9.158  10.256  65.998  1.00  0.00    -0.153 OA 
HETATM   21  H5* UNL     1      -8.582  10.910  65.619  1.00  0.00     0.000 HD 
ENDBRANCH  16  19
ENDBRANCH   8  12
TORSDOF 2
ENDMDL
MODEL      236
REMARK 921   NORMALIZED FREE ENERGY PREDICTED BY IDOCK:   -1.93 KCAL/MOL
REMARK 922        TOTAL FREE ENERGY PREDICTED BY IDOCK:   -2.49 KCAL/MOL
REMARK 923 INTER-LIGAND FREE ENERGY PREDICTED BY IDOCK:   -2.17 KCAL/MOL
REMARK 924 INTRA-LIGAND FREE ENERGY PREDICTED BY IDOCK:   -0.32 KCAL/MOL
REMARK 927      BINDING AFFINITY PREDICTED BY RF-SCORE:    0.00 PKD
ROOT
HETATM    1  N   UNL     1      -8.287   2.346  65.815  1.00  0.00    -0.089 NA 
HETATM    2  C   UNL     1      -8.377   3.314  66.755  1.00  0.00    -0.101 C  
HETATM    3  H2  UNL     1      -7.810   2.533  64.934  1.00  0.00     0.000 HD 
HETATM    4  H1  UNL     1      -8.697   1.429  65.989  1.00  0.00     0.000 HD 
HETATM    5  N   UNL     1      -7.860   4.471  66.535  1.00  0.00    -0.098 N  
HETATM    6  H   UNL     1      -7.380   4.668  65.656  1.00  0.00     0.000 HD 
HETATM    7  C   UNL     1      -7.966   5.430  67.500  1.00  0.00    -0.101 C  
HETATM    8  N   UNL     1      -8.903   5.244  68.488  1.00  0.00    -0.097 N  
HETATM    9  O   UNL     1      -7.226   6.411  67.491  1.00  0.00    -0.081 OA 
HETATM   10  C   UNL     1      -9.250   3.956  68.722  1.00  0.00    -0.152 C  
HETATM   11  N   UNL     1      -9.000   2.989  67.912  1.00  0.00    -0.134 NA 
ENDROOT
BRANCH   8  12
HETATM   12  C1* UNL     1      -9.063   6.269  69.505  1.00  0.00    -0.137 C  
HETATM   13  C2* UNL     1     -10.460   6.326  70.119  1.00  0.00    -0.278 C  
HETATM   14  C3* UNL     1     -10.193   6.946  71.467  1.00  0.00    -0.196 C  
HETATM   15  O3* UNL     1     -10.133   8.367  71.311  1.00  0.00    -0.183 OA 
HETATM   16  C4* UNL     1      -8.808   6.418  71.836  1.00  0.00    -0.138 C  
HETATM   17  H3* UNL     1      -9.966   8.758  72.160  1.00  0.00     0.000 HD 
HETATM   18  O4* UNL     1      -8.171   6.002  70.605  1.00  0.00    -0.116 OA 
BRANCH  16  19
HETATM   19  C5* UNL     1      -8.849   5.208  72.772  1.00  0.00    -0.118 C  
HETATM   20  O5* UNL     1     -10.136   5.059  73.366  1.00  0.00    -0.152 OA 
HETATM   21  H5* UNL     1     -10.161   4.308  73.947  1.00  0.00     0.000 HD 
ENDBRANCH  16  19
ENDBRANCH   8  12
TORSDOF 2
ENDMDL
MODEL      237
REMARK 921   NORMALIZED FREE ENERGY PREDICTED BY IDOCK:   -1.90 KCAL/MOL
REMARK 922        TOTAL FREE ENERGY PREDICTED BY IDOCK:   -2.46 KCAL/MOL
REMARK 923 INTER-LIGAND FREE ENERGY PREDICTED BY IDOCK:   -2.14 KCAL/MOL
REMARK 924 INTRA-LIGAND FREE ENERGY PREDICTED BY IDOCK:   -0.32 KCAL/MOL
REMARK 927      BINDING AFFINITY PREDICTED BY RF-SCORE:    0.00 PKD
ROOT
HETATM    1  N   UNL     1      -5.925   4.420  66.874  1.00  0.00    -0.023 NA 
HETATM    2  C   UNL     1      -6.689   5.510  67.116  1.00  0.00    -0.059 C  
HETATM    3  H2  UNL     1      -5.189   4.458  66.169  1.00  0.00     0.000 HD 
HETATM    4  H1  UNL     1      -6.087   3.560  67.397  1.00  0.00     0.000 HD 
HETATM    5  N   UNL     1      -6.484   6.594  66.456  1.00  0.00    -0.042 N  
HETATM    6  H   UNL     1      -5.750   6.642  65.749  1.00  0.00     0.000 HD 
HETATM    7  C   UNL     1      -7.268   7.680  66.719  1.00  0.00    -0.088 C  
HETATM    8  N   UNL     1      -8.444   7.470  67.400  1.00  0.00    -0.115 N  
HETATM    9  O   UNL     1      -6.915   8.805  66.377  1.00  0.00    -0.079 OA 
HETATM   10  C   UNL     1      -8.471   6.364  68.181  1.00  0.00    -0.115 C  
HETATM   11  N   UNL     1      -7.628   5.398  68.083  1.00  0.00    -0.080 NA 
ENDROOT
BRANCH   8  12
HETATM   12  C1* UNL     1      -9.316   8.602  67.659  1.00  0.00    -0.137 C  
HETATM   13  C2* UNL     1     -10.764   8.220  67.957  1.00  0.00    -0.111 C  
HETATM   14  C3* UNL     1     -11.247   9.397  68.765  1.00  0.00     0.159 C  
HETATM   15  O3* UNL     1     -11.640  10.438  67.866  1.00  0.00    -0.669 OA 
HETATM   16  C4* UNL     1     -10.004   9.836  69.537  1.00  0.00    -0.214 C  
HETATM   17  H3* UNL     1     -11.945  11.179  68.374  1.00  0.00     0.000 HD 
HETATM   18  O4* UNL     1      -8.858   9.308  68.829  1.00  0.00    -0.130 OA 
BRANCH  16  19
HETATM   19  C5* UNL     1      -9.956   9.297  70.969  1.00  0.00    -0.293 C  
HETATM   20  O5* UNL     1      -9.062   8.192  71.075  1.00  0.00    -0.143 OA 
HETATM   21  H5* UNL     1      -9.032   7.858  71.963  1.00  0.00     0.000 HD 
ENDBRANCH  16  19
ENDBRANCH   8  12
TORSDOF 2
ENDMDL
MODEL      238
REMARK 921   NORMALIZED FREE ENERGY PREDICTED BY IDOCK:   -1.90 KCAL/MOL
REMARK 922        TOTAL FREE ENERGY PREDICTED BY IDOCK:   -2.45 KCAL/MOL
REMARK 923 INTER-LIGAND FREE ENERGY PREDICTED BY IDOCK:   -2.12 KCAL/MOL
REMARK 924 INTRA-LIGAND FREE ENERGY PREDICTED BY IDOCK:   -0.33 KCAL/MOL
REMARK 927      BINDING AFFINITY PREDICTED BY RF-SCORE:    0.00 PKD
ROOT
HETATM    1  N   UNL     1      -5.155  11.175  67.425  1.00  0.00    -0.040 NA 
HETATM    2  C   UNL     1      -6.183  12.014  67.690  1.00  0.00    -0.096 C  
HETATM    3  H2  UNL     1      -4.369  11.493  66.858  1.00  0.00     0.000 HD 
HETATM    4  H1  UNL     1      -5.168  10.225  67.794  1.00  0.00     0.000 HD 
HETATM    5  N   UNL     1      -6.166  13.213  67.225  1.00  0.00    -0.180 N  
HETATM    6  H   UNL     1      -5.384  13.540  66.657  1.00  0.00     0.000 HD 
HETATM    7  C   UNL     1      -7.214  14.040  67.506  1.00  0.00    -0.165 C  
HETATM    8  N   UNL     1      -8.379  13.466  67.957  1.00  0.00    -0.154 N  
HETATM    9  O   UNL     1      -7.103  15.257  67.382  1.00  0.00    -0.183 OA 
HETATM   10  C   UNL     1      -8.235  12.264  68.565  1.00  0.00    -0.096 C  
HETATM   11  N   UNL     1      -7.179  11.537  68.471  1.00  0.00    -0.089 NA 
ENDROOT
BRANCH   8  12
HETATM   12  C1* UNL     1      -9.523  14.319  68.226  1.00  0.00    -0.209 C  
HETATM   13  C2* UNL     1     -10.448  14.520  67.027  1.00  0.00    -0.268 C  
HETATM   14  C3* UNL     1     -11.762  14.850  67.687  1.00  0.00    -0.307 C  
HETATM   15  O3* UNL     1     -11.773  16.244  68.011  1.00  0.00    -0.127 OA 
HETATM   16  C4* UNL     1     -11.732  14.030  68.975  1.00  0.00    -0.330 C  
HETATM   17  H3* UNL     1     -12.601  16.452  68.426  1.00  0.00     0.000 HD 
HETATM   18  O4* UNL     1     -10.345  13.718  69.246  1.00  0.00    -0.052 OA 
BRANCH  16  19
HETATM   19  C5* UNL     1     -12.496  12.708  68.872  1.00  0.00     0.477 C  
HETATM   20  O5* UNL     1     -11.822  11.666  69.573  1.00  0.00    -0.302 OA 
HETATM   21  H5* UNL     1     -12.297  10.846  69.509  1.00  0.00     0.000 HD 
ENDBRANCH  16  19
ENDBRANCH   8  12
TORSDOF 2
ENDMDL
MODEL      239
REMARK 921   NORMALIZED FREE ENERGY PREDICTED BY IDOCK:   -1.89 KCAL/MOL
REMARK 922        TOTAL FREE ENERGY PREDICTED BY IDOCK:   -2.45 KCAL/MOL
REMARK 923 INTER-LIGAND FREE ENERGY PREDICTED BY IDOCK:   -2.84 KCAL/MOL
REMARK 924 INTRA-LIGAND FREE ENERGY PREDICTED BY IDOCK:    0.39 KCAL/MOL
REMARK 927      BINDING AFFINITY PREDICTED BY RF-SCORE:    0.00 PKD
ROOT
HETATM    1  N   UNL     1      -9.718   9.749  70.698  1.00  0.00    -0.346 NA 
HETATM    2  C   UNL     1      -9.502   8.541  70.130  1.00  0.00    -0.165 C  
HETATM    3  H2  UNL     1     -10.313  10.433  70.232  1.00  0.00     0.000 HD 
HETATM    4  H1  UNL     1      -9.284   9.974  71.593  1.00  0.00     0.000 HD 
HETATM    5  N   UNL     1     -10.050   8.257  69.001  1.00  0.00    -0.197 N  
HETATM    6  H   UNL     1     -10.648   8.935  68.528  1.00  0.00     0.000 HD 
HETATM    7  C   UNL     1      -9.816   7.031  68.449  1.00  0.00    -0.146 C  
HETATM    8  N   UNL     1      -8.750   6.306  68.927  1.00  0.00    -0.125 N  
HETATM    9  O   UNL     1     -10.554   6.588  67.574  1.00  0.00    -0.205 OA 
HETATM   10  C   UNL     1      -8.369   6.604  70.193  1.00  0.00    -0.135 C  
HETATM   11  N   UNL     1      -8.724   7.671  70.815  1.00  0.00    -0.138 NA 
ENDROOT
BRANCH   8  12
HETATM   12  C1* UNL     1      -8.456   5.016  68.331  1.00  0.00    -0.094 C  
HETATM   13  C2* UNL     1      -9.623   4.032  68.362  1.00  0.00    -0.186 C  
HETATM   14  C3* UNL     1      -9.305   3.118  67.206  1.00  0.00    -0.179 C  
HETATM   15  O3* UNL     1      -8.373   2.127  67.651  1.00  0.00    -0.064 OA 
HETATM   16  C4* UNL     1      -8.621   4.041  66.199  1.00  0.00    -0.110 C  
HETATM   17  H3* UNL     1      -8.173   1.551  66.924  1.00  0.00     0.000 HD 
HETATM   18  O4* UNL     1      -8.139   5.189  66.935  1.00  0.00    -0.107 OA 
BRANCH  16  19
HETATM   19  C5* UNL     1      -9.563   4.549  65.105  1.00  0.00    -0.159 C  
HETATM   20  O5* UNL     1     -10.727   3.733  65.006  1.00  0.00    -0.482 OA 
HETATM   21  H5* UNL     1     -11.312   4.049  64.327  1.00  0.00     0.000 HD 
ENDBRANCH  16  19
ENDBRANCH   8  12
TORSDOF 2
ENDMDL
MODEL      240
REMARK 921   NORMALIZED FREE ENERGY PREDICTED BY IDOCK:   -1.89 KCAL/MOL
REMARK 922        TOTAL FREE ENERGY PREDICTED BY IDOCK:   -2.44 KCAL/MOL
REMARK 923 INTER-LIGAND FREE ENERGY PREDICTED BY IDOCK:   -2.88 KCAL/MOL
REMARK 924 INTRA-LIGAND FREE ENERGY PREDICTED BY IDOCK:    0.44 KCAL/MOL
REMARK 927      BINDING AFFINITY PREDICTED BY RF-SCORE:    0.00 PKD
ROOT
HETATM    1  N   UNL     1      -6.316  14.764  69.600  1.00  0.00    -0.130 NA 
HETATM    2  C   UNL     1      -6.978  13.964  68.733  1.00  0.00    -0.108 C  
HETATM    3  H2  UNL     1      -5.689  14.356  70.293  1.00  0.00     0.000 HD 
HETATM    4  H1  UNL     1      -6.445  15.774  69.559  1.00  0.00     0.000 HD 
HETATM    5  N   UNL     1      -6.815  12.690  68.784  1.00  0.00    -0.092 N  
HETATM    6  H   UNL     1      -6.189  12.273  69.474  1.00  0.00     0.000 HD 
HETATM    7  C   UNL     1      -7.495  11.906  67.898  1.00  0.00    -0.114 C  
HETATM    8  N   UNL     1      -8.569  12.462  67.244  1.00  0.00    -0.178 N  
HETATM    9  O   UNL     1      -7.136  10.752  67.680  1.00  0.00    -0.087 OA 
HETATM   10  C   UNL     1      -8.540  13.811  67.128  1.00  0.00    -0.198 C  
HETATM   11  N   UNL     1      -7.773  14.573  67.822  1.00  0.00    -0.140 NA 
ENDROOT
BRANCH   8  12
HETATM   12  C1* UNL     1      -9.334  11.637  66.325  1.00  0.00    -0.216 C  
HETATM   13  C2* UNL     1      -8.478  10.805  65.373  1.00  0.00    -0.132 C  
HETATM   14  C3* UNL     1      -9.399   9.662  65.028  1.00  0.00    -0.255 C  
HETATM   15  O3* UNL     1     -10.275  10.084  63.977  1.00  0.00    -0.448 OA 
HETATM   16  C4* UNL     1     -10.206   9.455  66.308  1.00  0.00    -0.214 C  
HETATM   17  H3* UNL     1     -10.855   9.364  63.760  1.00  0.00     0.000 HD 
HETATM   18  O4* UNL     1     -10.116  10.682  67.069  1.00  0.00    -0.195 OA 
BRANCH  16  19
HETATM   19  C5* UNL     1      -9.672   8.322  67.186  1.00  0.00    -0.195 C  
HETATM   20  O5* UNL     1      -9.344   7.175  66.405  1.00  0.00    -0.177 OA 
HETATM   21  H5* UNL     1      -9.012   6.472  66.950  1.00  0.00     0.000 HD 
ENDBRANCH  16  19
ENDBRANCH   8  12
TORSDOF 2
ENDMDL
MODEL      241
REMARK 921   NORMALIZED FREE ENERGY PREDICTED BY IDOCK:   -1.80 KCAL/MOL
REMARK 922        TOTAL FREE ENERGY PREDICTED BY IDOCK:   -2.35 KCAL/MOL
REMARK 923 INTER-LIGAND FREE ENERGY PREDICTED BY IDOCK:   -2.82 KCAL/MOL
REMARK 924 INTRA-LIGAND FREE ENERGY PREDICTED BY IDOCK:    0.47 KCAL/MOL
REMARK 927      BINDING AFFINITY PREDICTED BY RF-SCORE:    0.00 PKD
ROOT
HETATM    1  N   UNL     1     -13.248  10.978  71.141  1.00  0.00    -0.197 NA 
HETATM    2  C   UNL     1     -12.066  10.331  71.032  1.00  0.00    -0.386 C  
HETATM    3  H2  UNL     1     -13.583  11.562  70.375  1.00  0.00     0.000 HD 
HETATM    4  H1  UNL     1     -13.804  10.881  71.990  1.00  0.00     0.000 HD 
HETATM    5  N   UNL     1     -11.365  10.453  69.961  1.00  0.00    -0.290 N  
HETATM    6  H   UNL     1     -11.692  11.035  69.189  1.00  0.00     0.000 HD 
HETATM    7  C   UNL     1     -10.176   9.790  69.877  1.00  0.00    -0.254 C  
HETATM    8  N   UNL     1      -9.620   9.322  71.043  1.00  0.00    -0.276 N  
HETATM    9  O   UNL     1      -9.640   9.600  68.788  1.00  0.00    -0.147 OA 
HETATM   10  C   UNL     1     -10.496   9.091  72.050  1.00  0.00    -0.239 C  
HETATM   11  N   UNL     1     -11.696   9.552  72.075  1.00  0.00    -0.242 NA 
ENDROOT
BRANCH   8  12
HETATM   12  C1* UNL     1      -8.335   8.647  70.987  1.00  0.00    -0.161 C  
HETATM   13  C2* UNL     1      -8.181   7.696  69.802  1.00  0.00    -0.131 C  
HETATM   14  C3* UNL     1      -6.685   7.649  69.619  1.00  0.00    -0.040 C  
HETATM   15  O3* UNL     1      -6.143   6.695  70.538  1.00  0.00    -0.026 OA 
HETATM   16  C4* UNL     1      -6.232   9.052  70.019  1.00  0.00    -0.037 C  
HETATM   17  H3* UNL     1      -5.201   6.665  70.423  1.00  0.00     0.000 HD 
HETATM   18  O4* UNL     1      -7.283   9.620  70.835  1.00  0.00    -0.274 OA 
BRANCH  16  19
HETATM   19  C5* UNL     1      -6.015   9.983  68.823  1.00  0.00    -0.037 C  
HETATM   20  O5* UNL     1      -7.103   9.907  67.906  1.00  0.00    -0.084 OA 
HETATM   21  H5* UNL     1      -6.968  10.485  67.164  1.00  0.00     0.000 HD 
ENDBRANCH  16  19
ENDBRANCH   8  12
TORSDOF 2
ENDMDL
MODEL      242
REMARK 921   NORMALIZED FREE ENERGY PREDICTED BY IDOCK:   -1.78 KCAL/MOL
REMARK 922        TOTAL FREE ENERGY PREDICTED BY IDOCK:   -2.32 KCAL/MOL
REMARK 923 INTER-LIGAND FREE ENERGY PREDICTED BY IDOCK:   -2.03 KCAL/MOL
REMARK 924 INTRA-LIGAND FREE ENERGY PREDICTED BY IDOCK:   -0.29 KCAL/MOL
REMARK 927      BINDING AFFINITY PREDICTED BY RF-SCORE:    0.00 PKD
ROOT
HETATM    1  N   UNL     1      -5.588   3.727  67.838  1.00  0.00    -0.020 NA 
HETATM    2  C   UNL     1      -6.348   4.847  67.843  1.00  0.00    -0.036 C  
HETATM    3  H2  UNL     1      -5.315   3.292  68.719  1.00  0.00     0.000 HD 
HETATM    4  H1  UNL     1      -5.290   3.320  66.953  1.00  0.00     0.000 HD 
HETATM    5  N   UNL     1      -6.723   5.361  68.960  1.00  0.00    -0.051 N  
HETATM    6  H   UNL     1      -6.455   4.932  69.846  1.00  0.00     0.000 HD 
HETATM    7  C   UNL     1      -7.488   6.491  68.937  1.00  0.00    -0.095 C  
HETATM    8  N   UNL     1      -7.524   7.216  67.771  1.00  0.00    -0.096 N  
HETATM    9  O   UNL     1      -8.140   6.825  69.923  1.00  0.00    -0.121 OA 
HETATM   10  C   UNL     1      -7.254   6.514  66.644  1.00  0.00    -0.073 C  
HETATM   11  N   UNL     1      -6.696   5.356  66.639  1.00  0.00    -0.056 NA 
ENDROOT
BRANCH   8  12
HETATM   12  C1* UNL     1      -8.299   8.444  67.731  1.00  0.00    -0.130 C  
HETATM   13  C2* UNL     1      -7.453   9.716  67.716  1.00  0.00    -0.087 C  
HETATM   14  C3* UNL     1      -8.379  10.710  67.062  1.00  0.00    -0.126 C  
HETATM   15  O3* UNL     1      -9.264  11.232  68.058  1.00  0.00    -0.149 OA 
HETATM   16  C4* UNL     1      -9.175   9.860  66.073  1.00  0.00    -0.170 C  
HETATM   17  H3* UNL     1      -9.847  11.858  67.646  1.00  0.00     0.000 HD 
HETATM   18  O4* UNL     1      -9.076   8.487  66.518  1.00  0.00    -0.154 OA 
BRANCH  16  19
HETATM   19  C5* UNL     1      -8.634   9.926  64.643  1.00  0.00    -0.182 C  
HETATM   20  O5* UNL     1      -9.676   9.742  63.688  1.00  0.00    -0.485 OA 
HETATM   21  H5* UNL     1      -9.341   9.784  62.800  1.00  0.00     0.000 HD 
ENDBRANCH  16  19
ENDBRANCH   8  12
TORSDOF 2
ENDMDL
MODEL      243
REMARK 921   NORMALIZED FREE ENERGY PREDICTED BY IDOCK:   -1.78 KCAL/MOL
REMARK 922        TOTAL FREE ENERGY PREDICTED BY IDOCK:   -2.32 KCAL/MOL
REMARK 923 INTER-LIGAND FREE ENERGY PREDICTED BY IDOCK:   -2.46 KCAL/MOL
REMARK 924 INTRA-LIGAND FREE ENERGY PREDICTED BY IDOCK:    0.14 KCAL/MOL
REMARK 927      BINDING AFFINITY PREDICTED BY RF-SCORE:    0.00 PKD
ROOT
HETATM    1  N   UNL     1      -7.273   3.569  65.018  1.00  0.00    -0.065 NA 
HETATM    2  C   UNL     1      -7.924   3.914  66.153  1.00  0.00    -0.094 C  
HETATM    3  H2  UNL     1      -6.523   4.159  64.659  1.00  0.00     0.000 HD 
HETATM    4  H1  UNL     1      -7.534   2.717  64.523  1.00  0.00     0.000 HD 
HETATM    5  N   UNL     1      -7.594   4.989  66.778  1.00  0.00    -0.087 N  
HETATM    6  H   UNL     1      -6.845   5.586  66.427  1.00  0.00     0.000 HD 
HETATM    7  C   UNL     1      -8.266   5.315  67.920  1.00  0.00    -0.099 C  
HETATM    8  N   UNL     1      -9.470   4.695  68.154  1.00  0.00    -0.139 N  
HETATM    9  O   UNL     1      -7.790   6.118  68.719  1.00  0.00    -0.098 OA 
HETATM   10  C   UNL     1      -9.628   3.491  67.552  1.00  0.00    -0.127 C  
HETATM   11  N   UNL     1      -8.889   3.071  66.587  1.00  0.00    -0.138 NA 
ENDROOT
BRANCH   8  12
HETATM   12  C1* UNL     1     -10.224   5.053  69.342  1.00  0.00    -0.198 C  
HETATM   13  C2* UNL     1      -9.394   5.079  70.624  1.00  0.00    -0.216 C  
HETATM   14  C3* UNL     1     -10.176   6.031  71.494  1.00  0.00    -0.204 C  
HETATM   15  O3* UNL     1     -11.240   5.307  72.120  1.00  0.00    -0.181 OA 
HETATM   16  C4* UNL     1     -10.760   7.029  70.496  1.00  0.00    -0.238 C  
HETATM   17  H3* UNL     1     -11.732   5.906  72.668  1.00  0.00     0.000 HD 
HETATM   18  O4* UNL     1     -10.748   6.388  69.199  1.00  0.00    -0.224 OA 
BRANCH  16  19
HETATM   19  C5* UNL     1      -9.949   8.322  70.384  1.00  0.00    -0.188 C  
HETATM   20  O5* UNL     1      -9.547   8.564  69.039  1.00  0.00    -0.163 OA 
HETATM   21  H5* UNL     1      -9.043   9.367  68.970  1.00  0.00     0.000 HD 
ENDBRANCH  16  19
ENDBRANCH   8  12
TORSDOF 2
ENDMDL
MODEL      244
REMARK 921   NORMALIZED FREE ENERGY PREDICTED BY IDOCK:   -1.76 KCAL/MOL
REMARK 922        TOTAL FREE ENERGY PREDICTED BY IDOCK:   -2.30 KCAL/MOL
REMARK 923 INTER-LIGAND FREE ENERGY PREDICTED BY IDOCK:   -2.69 KCAL/MOL
REMARK 924 INTRA-LIGAND FREE ENERGY PREDICTED BY IDOCK:    0.40 KCAL/MOL
REMARK 927      BINDING AFFINITY PREDICTED BY RF-SCORE:    0.00 PKD
ROOT
HETATM    1  N   UNL     1     -11.818   9.660  71.612  1.00  0.00    -0.396 NA 
HETATM    2  C   UNL     1     -11.139   9.100  70.585  1.00  0.00    -0.265 C  
HETATM    3  H2  UNL     1     -11.741  10.661  71.790  1.00  0.00     0.000 HD 
HETATM    4  H1  UNL     1     -12.408   9.080  72.207  1.00  0.00     0.000 HD 
HETATM    5  N   UNL     1     -10.395   9.833  69.834  1.00  0.00    -0.236 N  
HETATM    6  H   UNL     1     -10.312  10.835  70.004  1.00  0.00     0.000 HD 
HETATM    7  C   UNL     1      -9.719   9.243  68.806  1.00  0.00    -0.157 C  
HETATM    8  N   UNL     1      -9.580   7.876  68.832  1.00  0.00    -0.154 N  
HETATM    9  O   UNL     1      -9.278   9.917  67.879  1.00  0.00    -0.131 OA 
HETATM   10  C   UNL     1     -10.524   7.211  69.540  1.00  0.00    -0.225 C  
HETATM   11  N   UNL     1     -11.308   7.772  70.390  1.00  0.00    -0.248 NA 
ENDROOT
BRANCH   8  12
HETATM   12  C1* UNL     1      -8.831   7.227  67.770  1.00  0.00    -0.124 C  
HETATM   13  C2* UNL     1      -9.319   7.569  66.364  1.00  0.00    -0.211 C  
HETATM   14  C3* UNL     1      -8.086   7.331  65.529  1.00  0.00    -0.132 C  
HETATM   15  O3* UNL     1      -8.001   5.934  65.230  1.00  0.00    -0.102 OA 
HETATM   16  C4* UNL     1      -6.942   7.720  66.463  1.00  0.00    -0.067 C  
HETATM   17  H3* UNL     1      -7.225   5.784  64.704  1.00  0.00     0.000 HD 
HETATM   18  O4* UNL     1      -7.457   7.658  67.813  1.00  0.00    -0.102 OA 
BRANCH  16  19
HETATM   19  C5* UNL     1      -6.421   9.139  66.227  1.00  0.00    -0.066 C  
HETATM   20  O5* UNL     1      -6.495   9.493  64.848  1.00  0.00    -0.078 OA 
HETATM   21  H5* UNL     1      -6.173  10.375  64.701  1.00  0.00     0.000 HD 
ENDBRANCH  16  19
ENDBRANCH   8  12
TORSDOF 2
ENDMDL
MODEL      245
REMARK 921   NORMALIZED FREE ENERGY PREDICTED BY IDOCK:   -1.75 KCAL/MOL
REMARK 922        TOTAL FREE ENERGY PREDICTED BY IDOCK:   -2.29 KCAL/MOL
REMARK 923 INTER-LIGAND FREE ENERGY PREDICTED BY IDOCK:   -1.99 KCAL/MOL
REMARK 924 INTRA-LIGAND FREE ENERGY PREDICTED BY IDOCK:   -0.30 KCAL/MOL
REMARK 927      BINDING AFFINITY PREDICTED BY RF-SCORE:    0.00 PKD
ROOT
HETATM    1  N   UNL     1      -7.748   4.258  68.433  1.00  0.00    -0.070 NA 
HETATM    2  C   UNL     1      -7.752   5.599  68.613  1.00  0.00    -0.092 C  
HETATM    3  H2  UNL     1      -7.970   3.638  69.211  1.00  0.00     0.000 HD 
HETATM    4  H1  UNL     1      -7.524   3.869  67.517  1.00  0.00     0.000 HD 
HETATM    5  N   UNL     1      -8.035   6.089  69.767  1.00  0.00    -0.104 N  
HETATM    6  H   UNL     1      -8.258   5.476  70.552  1.00  0.00     0.000 HD 
HETATM    7  C   UNL     1      -8.032   7.444  69.923  1.00  0.00    -0.121 C  
HETATM    8  N   UNL     1      -7.394   8.197  68.965  1.00  0.00    -0.081 N  
HETATM    9  O   UNL     1      -8.604   7.967  70.875  1.00  0.00    -0.126 OA 
HETATM   10  C   UNL     1      -7.297   7.618  67.744  1.00  0.00    -0.099 C  
HETATM   11  N   UNL     1      -7.477   6.363  67.531  1.00  0.00    -0.090 NA 
ENDROOT
BRANCH   8  12
HETATM   12  C1* UNL     1      -7.342   9.639  69.126  1.00  0.00    -0.077 C  
HETATM   13  C2* UNL     1      -6.039  10.152  69.736  1.00  0.00    -0.050 C  
HETATM   14  C3* UNL     1      -5.979  11.569  69.224  1.00  0.00    -0.065 C  
HETATM   15  O3* UNL     1      -6.779  12.396  70.074  1.00  0.00    -0.356 OA 
HETATM   16  C4* UNL     1      -6.633  11.478  67.846  1.00  0.00    -0.064 C  
HETATM   17  H3* UNL     1      -6.742  13.288  69.752  1.00  0.00     0.000 HD 
HETATM   18  O4* UNL     1      -7.435  10.274  67.836  1.00  0.00    -0.087 OA 
BRANCH  16  19
HETATM   19  C5* UNL     1      -5.622  11.374  66.701  1.00  0.00    -0.138 C  
HETATM   20  O5* UNL     1      -6.276  11.140  65.456  1.00  0.00    -0.371 OA 
HETATM   21  H5* UNL     1      -5.649  11.076  64.745  1.00  0.00     0.000 HD 
ENDBRANCH  16  19
ENDBRANCH   8  12
TORSDOF 2
ENDMDL
MODEL      246
REMARK 921   NORMALIZED FREE ENERGY PREDICTED BY IDOCK:   -1.69 KCAL/MOL
REMARK 922        TOTAL FREE ENERGY PREDICTED BY IDOCK:   -2.22 KCAL/MOL
REMARK 923 INTER-LIGAND FREE ENERGY PREDICTED BY IDOCK:   -2.76 KCAL/MOL
REMARK 924 INTRA-LIGAND FREE ENERGY PREDICTED BY IDOCK:    0.54 KCAL/MOL
REMARK 927      BINDING AFFINITY PREDICTED BY RF-SCORE:    0.00 PKD
ROOT
HETATM    1  N   UNL     1      -5.920  20.468  72.533  1.00  0.00    -0.185 NA 
HETATM    2  C   UNL     1      -6.150  20.089  71.255  1.00  0.00    -0.214 C  
HETATM    3  H2  UNL     1      -6.652  20.935  73.067  1.00  0.00     0.000 HD 
HETATM    4  H1  UNL     1      -5.012  20.286  72.961  1.00  0.00     0.000 HD 
HETATM    5  N   UNL     1      -7.295  20.318  70.716  1.00  0.00     0.422 N  
HETATM    6  H   UNL     1      -8.034  20.784  71.243  1.00  0.00     0.000 HD 
HETATM    7  C   UNL     1      -7.502  19.926  69.425  1.00  0.00    -0.046 C  
HETATM    8  N   UNL     1      -6.398  19.636  68.660  1.00  0.00    -0.258 N  
HETATM    9  O   UNL     1      -8.641  19.813  68.980  1.00  0.00    -0.229 OA 
HETATM   10  C   UNL     1      -5.295  19.260  69.352  1.00  0.00    -0.194 C  
HETATM   11  N   UNL     1      -5.144  19.450  70.614  1.00  0.00    -0.202 NA 
ENDROOT
BRANCH   8  12
HETATM   12  C1* UNL     1      -6.588  19.254  67.271  1.00  0.00    -0.192 C  
HETATM   13  C2* UNL     1      -5.487  18.353  66.715  1.00  0.00    -0.160 C  
HETATM   14  C3* UNL     1      -6.195  17.633  65.596  1.00  0.00    -0.009 C  
HETATM   15  O3* UNL     1      -6.185  18.471  64.436  1.00  0.00    -0.283 OA 
HETATM   16  C4* UNL     1      -7.627  17.496  66.109  1.00  0.00    -0.285 C  
HETATM   17  H3* UNL     1      -6.630  18.018  63.731  1.00  0.00     0.000 HD 
HETATM   18  O4* UNL     1      -7.805  18.494  67.141  1.00  0.00    -0.225 OA 
BRANCH  16  19
HETATM   19  C5* UNL     1      -7.921  16.128  66.728  1.00  0.00    -0.272 C  
HETATM   20  O5* UNL     1      -8.789  15.361  65.897  1.00  0.00    -0.425 OA 
HETATM   21  H5* UNL     1      -8.971  14.511  66.281  1.00  0.00     0.000 HD 
ENDBRANCH  16  19
ENDBRANCH   8  12
TORSDOF 2
ENDMDL
MODEL      247
REMARK 921   NORMALIZED FREE ENERGY PREDICTED BY IDOCK:   -1.68 KCAL/MOL
REMARK 922        TOTAL FREE ENERGY PREDICTED BY IDOCK:   -2.21 KCAL/MOL
REMARK 923 INTER-LIGAND FREE ENERGY PREDICTED BY IDOCK:   -2.65 KCAL/MOL
REMARK 924 INTRA-LIGAND FREE ENERGY PREDICTED BY IDOCK:    0.44 KCAL/MOL
REMARK 927      BINDING AFFINITY PREDICTED BY RF-SCORE:    0.00 PKD
ROOT
HETATM    1  N   UNL     1      -9.114   3.482  65.893  1.00  0.00    -0.149 NA 
HETATM    2  C   UNL     1      -9.244   4.420  66.860  1.00  0.00    -0.140 C  
HETATM    3  H2  UNL     1      -8.220   3.012  65.755  1.00  0.00     0.000 HD 
HETATM    4  H1  UNL     1      -9.912   3.247  65.304  1.00  0.00     0.000 HD 
HETATM    5  N   UNL     1      -8.237   4.717  67.603  1.00  0.00    -0.104 N  
HETATM    6  H   UNL     1      -7.339   4.252  67.472  1.00  0.00     0.000 HD 
HETATM    7  C   UNL     1      -8.395   5.667  68.570  1.00  0.00    -0.106 C  
HETATM    8  N   UNL     1      -9.484   6.500  68.478  1.00  0.00    -0.123 N  
HETATM    9  O   UNL     1      -7.599   5.750  69.502  1.00  0.00    -0.083 OA 
HETATM   10  C   UNL     1     -10.539   6.000  67.790  1.00  0.00    -0.267 C  
HETATM   11  N   UNL     1     -10.465   4.984  67.006  1.00  0.00    -0.190 NA 
ENDROOT
BRANCH   8  12
HETATM   12  C1* UNL     1      -9.654   7.545  69.472  1.00  0.00    -0.156 C  
HETATM   13  C2* UNL     1      -9.633   7.044  70.914  1.00  0.00    -0.167 C  
HETATM   14  C3* UNL     1      -9.197   8.270  71.675  1.00  0.00    -0.185 C  
HETATM   15  O3* UNL     1     -10.344   9.093  71.909  1.00  0.00    -0.335 OA 
HETATM   16  C4* UNL     1      -8.256   8.978  70.701  1.00  0.00    -0.181 C  
HETATM   17  H3* UNL     1     -10.070   9.866  72.388  1.00  0.00     0.000 HD 
HETATM   18  O4* UNL     1      -8.566   8.484  69.377  1.00  0.00    -0.125 OA 
BRANCH  16  19
HETATM   19  C5* UNL     1      -6.777   8.693  70.971  1.00  0.00    -0.063 C  
HETATM   20  O5* UNL     1      -6.108   9.854  71.458  1.00  0.00    -0.277 OA 
HETATM   21  H5* UNL     1      -5.190   9.677  71.626  1.00  0.00     0.000 HD 
ENDBRANCH  16  19
ENDBRANCH   8  12
TORSDOF 2
ENDMDL
MODEL      248
REMARK 921   NORMALIZED FREE ENERGY PREDICTED BY IDOCK:   -1.65 KCAL/MOL
REMARK 922        TOTAL FREE ENERGY PREDICTED BY IDOCK:   -2.18 KCAL/MOL
REMARK 923 INTER-LIGAND FREE ENERGY PREDICTED BY IDOCK:   -2.23 KCAL/MOL
REMARK 924 INTRA-LIGAND FREE ENERGY PREDICTED BY IDOCK:    0.05 KCAL/MOL
REMARK 927      BINDING AFFINITY PREDICTED BY RF-SCORE:    0.00 PKD
ROOT
HETATM    1  N   UNL     1     -11.209  11.430  68.749  1.00  0.00    -0.223 NA 
HETATM    2  C   UNL     1     -10.486  10.353  69.132  1.00  0.00    -0.227 C  
HETATM    3  H2  UNL     1     -12.202  11.331  68.541  1.00  0.00     0.000 HD 
HETATM    4  H1  UNL     1     -10.758  12.341  68.667  1.00  0.00     0.000 HD 
HETATM    5  N   UNL     1     -11.055   9.204  69.234  1.00  0.00    -0.440 N  
HETATM    6  H   UNL     1     -12.049   9.095  69.029  1.00  0.00     0.000 HD 
HETATM    7  C   UNL     1     -10.304   8.133  69.623  1.00  0.00    -0.221 C  
HETATM    8  N   UNL     1      -8.936   8.247  69.543  1.00  0.00    -0.149 N  
HETATM    9  O   UNL     1     -10.840   7.115  70.053  1.00  0.00    -0.241 OA 
HETATM   10  C   UNL     1      -8.457   9.513  69.598  1.00  0.00    -0.169 C  
HETATM   11  N   UNL     1      -9.180  10.561  69.418  1.00  0.00    -0.155 NA 
ENDROOT
BRANCH   8  12
HETATM   12  C1* UNL     1      -8.114   7.109  69.913  1.00  0.00    -0.125 C  
HETATM   13  C2* UNL     1      -8.340   5.869  69.050  1.00  0.00    -0.106 C  
HETATM   14  C3* UNL     1      -7.031   5.136  69.191  1.00  0.00    -0.055 C  
HETATM   15  O3* UNL     1      -7.060   4.377  70.404  1.00  0.00    -0.043 OA 
HETATM   16  C4* UNL     1      -6.004   6.260  69.321  1.00  0.00    -0.021 C  
HETATM   17  H3* UNL     1      -6.236   3.915  70.492  1.00  0.00     0.000 HD 
HETATM   18  O4* UNL     1      -6.722   7.442  69.745  1.00  0.00    -0.042 OA 
BRANCH  16  19
HETATM   19  C5* UNL     1      -5.296   6.591  68.005  1.00  0.00    -0.008 C  
HETATM   20  O5* UNL     1      -5.369   5.499  67.091  1.00  0.00    -0.007 OA 
HETATM   21  H5* UNL     1      -4.930   5.705  66.275  1.00  0.00     0.000 HD 
ENDBRANCH  16  19
ENDBRANCH   8  12
TORSDOF 2
ENDMDL
MODEL      249
REMARK 921   NORMALIZED FREE ENERGY PREDICTED BY IDOCK:   -1.60 KCAL/MOL
REMARK 922        TOTAL FREE ENERGY PREDICTED BY IDOCK:   -2.12 KCAL/MOL
REMARK 923 INTER-LIGAND FREE ENERGY PREDICTED BY IDOCK:   -1.94 KCAL/MOL
REMARK 924 INTRA-LIGAND FREE ENERGY PREDICTED BY IDOCK:   -0.18 KCAL/MOL
REMARK 927      BINDING AFFINITY PREDICTED BY RF-SCORE:    0.00 PKD
ROOT
HETATM    1  N   UNL     1     -10.616   7.867  71.860  1.00  0.00    -0.220 NA 
HETATM    2  C   UNL     1     -10.094   7.001  70.962  1.00  0.00    -0.195 C  
HETATM    3  H2  UNL     1     -11.253   7.532  72.582  1.00  0.00     0.000 HD 
HETATM    4  H1  UNL     1     -10.371   8.856  71.813  1.00  0.00     0.000 HD 
HETATM    5  N   UNL     1     -10.403   5.754  71.022  1.00  0.00    -0.219 N  
HETATM    6  H   UNL     1     -11.039   5.409  71.741  1.00  0.00     0.000 HD 
HETATM    7  C   UNL     1      -9.863   4.900  70.104  1.00  0.00    -0.239 C  
HETATM    8  N   UNL     1      -9.313   5.445  68.968  1.00  0.00    -0.122 N  
HETATM    9  O   UNL     1      -9.849   3.689  70.307  1.00  0.00    -0.174 OA 
HETATM   10  C   UNL     1      -8.889   6.727  69.088  1.00  0.00    -0.134 C  
HETATM   11  N   UNL     1      -9.235   7.508  70.048  1.00  0.00    -0.151 NA 
ENDROOT
BRANCH   8  12
HETATM   12  C1* UNL     1      -8.767   4.557  67.957  1.00  0.00    -0.104 C  
HETATM   13  C2* UNL     1      -8.340   5.262  66.672  1.00  0.00    -0.108 C  
HETATM   14  C3* UNL     1      -7.301   4.321  66.118  1.00  0.00    -0.076 C  
HETATM   15  O3* UNL     1      -7.967   3.277  65.402  1.00  0.00    -0.085 OA 
HETATM   16  C4* UNL     1      -6.644   3.738  67.369  1.00  0.00    -0.042 C  
HETATM   17  H3* UNL     1      -7.312   2.684  65.053  1.00  0.00     0.000 HD 
HETATM   18  O4* UNL     1      -7.573   3.927  68.462  1.00  0.00    -0.058 OA 
BRANCH  16  19
HETATM   19  C5* UNL     1      -5.333   4.432  67.746  1.00  0.00    -0.012 C  
HETATM   20  O5* UNL     1      -5.391   4.960  69.069  1.00  0.00    -0.003 OA 
HETATM   21  H5* UNL     1      -4.577   5.391  69.303  1.00  0.00     0.000 HD 
ENDBRANCH  16  19
ENDBRANCH   8  12
TORSDOF 2
ENDMDL
MODEL      250
REMARK 921   NORMALIZED FREE ENERGY PREDICTED BY IDOCK:   -1.60 KCAL/MOL
REMARK 922        TOTAL FREE ENERGY PREDICTED BY IDOCK:   -2.12 KCAL/MOL
REMARK 923 INTER-LIGAND FREE ENERGY PREDICTED BY IDOCK:   -3.19 KCAL/MOL
REMARK 924 INTRA-LIGAND FREE ENERGY PREDICTED BY IDOCK:    1.07 KCAL/MOL
REMARK 927      BINDING AFFINITY PREDICTED BY RF-SCORE:    0.00 PKD
ROOT
HETATM    1  N   UNL     1     -10.202   9.256  67.420  1.00  0.00    -0.226 NA 
HETATM    2  C   UNL     1     -10.062  10.595  67.299  1.00  0.00    -0.199 C  
HETATM    3  H2  UNL     1     -10.695   8.864  68.222  1.00  0.00     0.000 HD 
HETATM    4  H1  UNL     1      -9.814   8.638  66.707  1.00  0.00     0.000 HD 
HETATM    5  N   UNL     1     -10.551  11.374  68.199  1.00  0.00    -0.180 N  
HETATM    6  H   UNL     1     -11.046  10.991  69.004  1.00  0.00     0.000 HD 
HETATM    7  C   UNL     1     -10.396  12.722  68.054  1.00  0.00    -0.229 C  
HETATM    8  N   UNL     1      -9.440  13.164  67.170  1.00  0.00    -0.230 N  
HETATM    9  O   UNL     1     -11.107  13.505  68.676  1.00  0.00    -0.247 OA 
HETATM   10  C   UNL     1      -9.125  12.298  66.177  1.00  0.00    -0.074 C  
HETATM   11  N   UNL     1      -9.421  11.048  66.197  1.00  0.00    -0.196 NA 
ENDROOT
BRANCH   8  12
HETATM   12  C1* UNL     1      -9.227  14.594  67.025  1.00  0.00    -0.239 C  
HETATM   13  C2* UNL     1     -10.107  15.451  67.932  1.00  0.00    -0.226 C  
HETATM   14  C3* UNL     1      -9.300  16.717  68.061  1.00  0.00    -0.229 C  
HETATM   15  O3* UNL     1      -9.558  17.542  66.921  1.00  0.00    -0.259 OA 
HETATM   16  C4* UNL     1      -7.854  16.225  68.013  1.00  0.00    -0.149 C  
HETATM   17  H3* UNL     1      -9.050  18.339  67.002  1.00  0.00     0.000 HD 
HETATM   18  O4* UNL     1      -7.871  14.919  67.390  1.00  0.00    -0.170 OA 
BRANCH  16  19
HETATM   19  C5* UNL     1      -7.218  16.073  69.397  1.00  0.00    -0.213 C  
HETATM   20  O5* UNL     1      -6.522  14.835  69.512  1.00  0.00    -0.119 OA 
HETATM   21  H5* UNL     1      -6.127  14.741  70.370  1.00  0.00     0.000 HD 
ENDBRANCH  16  19
ENDBRANCH   8  12
TORSDOF 2
ENDMDL
MODEL      251
REMARK 921   NORMALIZED FREE ENERGY PREDICTED BY IDOCK:   -1.52 KCAL/MOL
REMARK 922        TOTAL FREE ENERGY PREDICTED BY IDOCK:   -2.04 KCAL/MOL
REMARK 923 INTER-LIGAND FREE ENERGY PREDICTED BY IDOCK:   -2.67 KCAL/MOL
REMARK 924 INTRA-LIGAND FREE ENERGY PREDICTED BY IDOCK:    0.64 KCAL/MOL
REMARK 927      BINDING AFFINITY PREDICTED BY RF-SCORE:    0.00 PKD
ROOT
HETATM    1  N   UNL     1     -12.470   8.328  71.049  1.00  0.00    -0.493 NA 
HETATM    2  C   UNL     1     -11.436   7.836  70.329  1.00  0.00    -0.104 C  
HETATM    3  H2  UNL     1     -13.375   7.858  71.031  1.00  0.00     0.000 HD 
HETATM    4  H1  UNL     1     -12.343   9.171  71.609  1.00  0.00     0.000 HD 
HETATM    5  N   UNL     1     -11.597   6.774  69.622  1.00  0.00    -0.616 N  
HETATM    6  H   UNL     1     -12.498   6.296  69.598  1.00  0.00     0.000 HD 
HETATM    7  C   UNL     1     -10.538   6.298  68.904  1.00  0.00    -0.268 C  
HETATM    8  N   UNL     1      -9.479   7.147  68.686  1.00  0.00    -0.140 N  
HETATM    9  O   UNL     1     -10.529   5.141  68.494  1.00  0.00    -0.126 OA 
HETATM   10  C   UNL     1      -9.336   8.140  69.596  1.00  0.00    -0.159 C  
HETATM   11  N   UNL     1     -10.257   8.495  70.420  1.00  0.00    -0.191 NA 
ENDROOT
BRANCH   8  12
HETATM   12  C1* UNL     1      -8.357   6.679  67.892  1.00  0.00    -0.119 C  
HETATM   13  C2* UNL     1      -7.035   6.620  68.654  1.00  0.00    -0.080 C  
HETATM   14  C3* UNL     1      -6.266   5.578  67.883  1.00  0.00    -0.037 C  
HETATM   15  O3* UNL     1      -5.659   6.205  66.748  1.00  0.00    -0.009 OA 
HETATM   16  C4* UNL     1      -7.350   4.612  67.408  1.00  0.00    -0.074 C  
HETATM   17  H3* UNL     1      -5.174   5.549  66.263  1.00  0.00     0.000 HD 
HETATM   18  O4* UNL     1      -8.605   5.329  67.452  1.00  0.00    -0.106 OA 
BRANCH  16  19
HETATM   19  C5* UNL     1      -7.489   3.373  68.295  1.00  0.00    -0.053 C  
HETATM   20  O5* UNL     1      -8.828   2.884  68.292  1.00  0.00    -0.097 OA 
HETATM   21  H5* UNL     1      -8.915   2.114  68.842  1.00  0.00     0.000 HD 
ENDBRANCH  16  19
ENDBRANCH   8  12
TORSDOF 2
ENDMDL
MODEL      252
REMARK 921   NORMALIZED FREE ENERGY PREDICTED BY IDOCK:   -1.47 KCAL/MOL
REMARK 922        TOTAL FREE ENERGY PREDICTED BY IDOCK:   -1.98 KCAL/MOL
REMARK 923 INTER-LIGAND FREE ENERGY PREDICTED BY IDOCK:   -2.34 KCAL/MOL
REMARK 924 INTRA-LIGAND FREE ENERGY PREDICTED BY IDOCK:    0.36 KCAL/MOL
REMARK 927      BINDING AFFINITY PREDICTED BY RF-SCORE:    0.00 PKD
ROOT
HETATM    1  N   UNL     1      -9.338  15.579  69.660  1.00  0.00    -0.327 NA 
HETATM    2  C   UNL     1      -9.624  14.309  69.290  1.00  0.00     0.189 C  
HETATM    3  H2  UNL     1      -8.434  15.988  69.426  1.00  0.00     0.000 HD 
HETATM    4  H1  UNL     1     -10.029  16.126  70.173  1.00  0.00     0.000 HD 
HETATM    5  N   UNL     1      -8.752  13.620  68.642  1.00  0.00    -0.348 N  
HETATM    6  H   UNL     1      -7.845  14.021  68.404  1.00  0.00     0.000 HD 
HETATM    7  C   UNL     1      -9.065  12.342  68.281  1.00  0.00    -0.187 C  
HETATM    8  N   UNL     1     -10.124  11.738  68.916  1.00  0.00    -0.131 N  
HETATM    9  O   UNL     1      -8.432  11.768  67.399  1.00  0.00    -0.145 OA 
HETATM   10  C   UNL     1     -11.052  12.583  69.425  1.00  0.00    -0.079 C  
HETATM   11  N   UNL     1     -10.852  13.840  69.608  1.00  0.00     0.028 NA 
ENDROOT
BRANCH   8  12
HETATM   12  C1* UNL     1     -10.453  10.364  68.579  1.00  0.00    -0.186 C  
HETATM   13  C2* UNL     1      -9.250   9.425  68.542  1.00  0.00    -0.131 C  
HETATM   14  C3* UNL     1      -9.882   8.082  68.806  1.00  0.00    -0.172 C  
HETATM   15  O3* UNL     1     -10.401   7.571  67.574  1.00  0.00    -0.207 OA 
HETATM   16  C4* UNL     1     -11.041   8.411  69.746  1.00  0.00    -0.056 C  
HETATM   17  H3* UNL     1     -10.799   6.726  67.740  1.00  0.00     0.000 HD 
HETATM   18  O4* UNL     1     -11.334   9.818  69.580  1.00  0.00    -0.212 OA 
BRANCH  16  19
HETATM   19  C5* UNL     1     -10.711   8.174  71.222  1.00  0.00    -0.227 C  
HETATM   20  O5* UNL     1      -9.534   7.384  71.367  1.00  0.00    -0.153 OA 
HETATM   21  H5* UNL     1      -9.329   7.237  72.283  1.00  0.00     0.000 HD 
ENDBRANCH  16  19
ENDBRANCH   8  12
TORSDOF 2
ENDMDL
MODEL      253
REMARK 921   NORMALIZED FREE ENERGY PREDICTED BY IDOCK:   -1.38 KCAL/MOL
REMARK 922        TOTAL FREE ENERGY PREDICTED BY IDOCK:   -1.88 KCAL/MOL
REMARK 923 INTER-LIGAND FREE ENERGY PREDICTED BY IDOCK:   -2.90 KCAL/MOL
REMARK 924 INTRA-LIGAND FREE ENERGY PREDICTED BY IDOCK:    1.02 KCAL/MOL
REMARK 927      BINDING AFFINITY PREDICTED BY RF-SCORE:    0.00 PKD
ROOT
HETATM    1  N   UNL     1     -11.260  11.428  68.776  1.00  0.00    -0.223 NA 
HETATM    2  C   UNL     1     -10.738  10.305  69.322  1.00  0.00    -0.234 C  
HETATM    3  H2  UNL     1     -12.217  11.428  68.425  1.00  0.00     0.000 HD 
HETATM    4  H1  UNL     1     -10.694  12.274  68.717  1.00  0.00     0.000 HD 
HETATM    5  N   UNL     1     -11.453   9.238  69.397  1.00  0.00    -0.417 N  
HETATM    6  H   UNL     1     -12.411   9.229  69.048  1.00  0.00     0.000 HD 
HETATM    7  C   UNL     1     -10.903   8.120  69.951  1.00  0.00    -0.215 C  
HETATM    8  N   UNL     1      -9.534   8.072  70.075  1.00  0.00    -0.160 N  
HETATM    9  O   UNL     1     -11.616   7.202  70.348  1.00  0.00    -0.295 OA 
HETATM   10  C   UNL     1      -8.917   9.277  70.136  1.00  0.00    -0.214 C  
HETATM   11  N   UNL     1      -9.472  10.384  69.793  1.00  0.00    -0.095 NA 
ENDROOT
BRANCH   8  12
HETATM   12  C1* UNL     1      -8.921   6.877  70.626  1.00  0.00    -0.151 C  
HETATM   13  C2* UNL     1      -9.904   5.927  71.307  1.00  0.00    -0.215 C  
HETATM   14  C3* UNL     1      -9.195   4.601  71.203  1.00  0.00    -0.139 C  
HETATM   15  O3* UNL     1      -8.254   4.501  72.277  1.00  0.00    -0.105 OA 
HETATM   16  C4* UNL     1      -8.442   4.701  69.877  1.00  0.00    -0.073 C  
HETATM   17  H3* UNL     1      -7.808   3.666  72.212  1.00  0.00     0.000 HD 
HETATM   18  O4* UNL     1      -8.320   6.109  69.565  1.00  0.00    -0.117 OA 
BRANCH  16  19
HETATM   19  C5* UNL     1      -9.171   4.026  68.713  1.00  0.00    -0.151 C  
HETATM   20  O5* UNL     1     -10.260   4.823  68.254  1.00  0.00    -0.093 OA 
HETATM   21  H5* UNL     1     -10.712   4.404  67.531  1.00  0.00     0.000 HD 
ENDBRANCH  16  19
ENDBRANCH   8  12
TORSDOF 2
ENDMDL
MODEL      254
REMARK 921   NORMALIZED FREE ENERGY PREDICTED BY IDOCK:   -1.34 KCAL/MOL
REMARK 922        TOTAL FREE ENERGY PREDICTED BY IDOCK:   -1.84 KCAL/MOL
REMARK 923 INTER-LIGAND FREE ENERGY PREDICTED BY IDOCK:   -1.54 KCAL/MOL
REMARK 924 INTRA-LIGAND FREE ENERGY PREDICTED BY IDOCK:   -0.30 KCAL/MOL
REMARK 927      BINDING AFFINITY PREDICTED BY RF-SCORE:    0.00 PKD
ROOT
HETATM    1  N   UNL     1      -7.445   8.792  72.256  1.00  0.00    -0.335 NA 
HETATM    2  C   UNL     1      -7.585   8.105  71.099  1.00  0.00    -0.082 C  
HETATM    3  H2  UNL     1      -7.248   8.296  73.124  1.00  0.00     0.000 HD 
HETATM    4  H1  UNL     1      -7.536   9.808  72.257  1.00  0.00     0.000 HD 
HETATM    5  N   UNL     1      -7.471   6.824  71.098  1.00  0.00    -0.086 N  
HETATM    6  H   UNL     1      -7.274   6.318  71.961  1.00  0.00     0.000 HD 
HETATM    7  C   UNL     1      -7.617   6.155  69.918  1.00  0.00    -0.088 C  
HETATM    8  N   UNL     1      -8.220   6.818  68.875  1.00  0.00    -0.120 N  
HETATM    9  O   UNL     1      -7.198   5.007  69.793  1.00  0.00    -0.053 OA 
HETATM   10  C   UNL     1      -8.136   8.170  68.924  1.00  0.00    -0.116 C  
HETATM   11  N   UNL     1      -7.818   8.829  69.980  1.00  0.00    -0.089 NA 
ENDROOT
BRANCH   8  12
HETATM   12  C1* UNL     1      -8.424   6.116  67.621  1.00  0.00    -0.108 C  
HETATM   13  C2* UNL     1      -9.847   6.212  67.075  1.00  0.00    -0.180 C  
HETATM   14  C3* UNL     1      -9.641   5.997  65.598  1.00  0.00     0.274 C  
HETATM   15  O3* UNL     1      -9.571   4.589  65.348  1.00  0.00    -0.163 OA 
HETATM   16  C4* UNL     1      -8.275   6.627  65.332  1.00  0.00    -0.138 C  
HETATM   17  H3* UNL     1      -9.441   4.453  64.417  1.00  0.00     0.000 HD 
HETATM   18  O4* UNL     1      -7.584   6.693  66.602  1.00  0.00    -0.090 OA 
BRANCH  16  19
HETATM   19  C5* UNL     1      -8.361   8.049  64.774  1.00  0.00    -0.077 C  
HETATM   20  O5* UNL     1      -7.277   8.323  63.889  1.00  0.00    -0.087 OA 
HETATM   21  H5* UNL     1      -7.331   9.206  63.542  1.00  0.00     0.000 HD 
ENDBRANCH  16  19
ENDBRANCH   8  12
TORSDOF 2
ENDMDL
MODEL      255
REMARK 921   NORMALIZED FREE ENERGY PREDICTED BY IDOCK:   -1.18 KCAL/MOL
REMARK 922        TOTAL FREE ENERGY PREDICTED BY IDOCK:   -1.65 KCAL/MOL
REMARK 923 INTER-LIGAND FREE ENERGY PREDICTED BY IDOCK:   -2.20 KCAL/MOL
REMARK 924 INTRA-LIGAND FREE ENERGY PREDICTED BY IDOCK:    0.55 KCAL/MOL
REMARK 927      BINDING AFFINITY PREDICTED BY RF-SCORE:    0.00 PKD
ROOT
HETATM    1  N   UNL     1     -11.853  10.078  71.490  1.00  0.00    -0.364 NA 
HETATM    2  C   UNL     1     -10.818   9.242  71.243  1.00  0.00    -0.347 C  
HETATM    3  H2  UNL     1     -11.715  11.087  71.450  1.00  0.00     0.000 HD 
HETATM    4  H1  UNL     1     -12.771   9.696  71.717  1.00  0.00     0.000 HD 
HETATM    5  N   UNL     1      -9.661   9.724  70.957  1.00  0.00    -0.201 N  
HETATM    6  H   UNL     1      -9.513  10.733  70.914  1.00  0.00     0.000 HD 
HETATM    7  C   UNL     1      -8.634   8.860  70.713  1.00  0.00    -0.199 C  
HETATM    8  N   UNL     1      -8.783   7.556  71.122  1.00  0.00    -0.135 N  
HETATM    9  O   UNL     1      -7.625   9.237  70.123  1.00  0.00    -0.081 OA 
HETATM   10  C   UNL     1     -10.063   7.128  71.239  1.00  0.00    -0.189 C  
HETATM   11  N   UNL     1     -11.078   7.915  71.287  1.00  0.00    -0.246 NA 
ENDROOT
BRANCH   8  12
HETATM   12  C1* UNL     1      -7.689   6.624  70.910  1.00  0.00    -0.094 C  
HETATM   13  C2* UNL     1      -8.111   5.298  70.283  1.00  0.00    -0.091 C  
HETATM   14  C3* UNL     1      -6.839   4.835  69.620  1.00  0.00    -0.052 C  
HETATM   15  O3* UNL     1      -6.023   4.187  70.600  1.00  0.00    -0.013 OA 
HETATM   16  C4* UNL     1      -6.170   6.138  69.184  1.00  0.00    -0.036 C  
HETATM   17  H3* UNL     1      -5.222   3.895  70.183  1.00  0.00     0.000 HD 
HETATM   18  O4* UNL     1      -6.739   7.197  69.989  1.00  0.00    -0.049 OA 
BRANCH  16  19
HETATM   19  C5* UNL     1      -6.416   6.485  67.714  1.00  0.00    -0.052 C  
HETATM   20  O5* UNL     1      -6.627   7.884  67.543  1.00  0.00    -0.054 OA 
HETATM   21  H5* UNL     1      -6.780   8.100  66.631  1.00  0.00     0.000 HD 
ENDBRANCH  16  19
ENDBRANCH   8  12
TORSDOF 2
ENDMDL
MODEL      256
REMARK 921   NORMALIZED FREE ENERGY PREDICTED BY IDOCK:   -1.16 KCAL/MOL
REMARK 922        TOTAL FREE ENERGY PREDICTED BY IDOCK:   -1.63 KCAL/MOL
REMARK 923 INTER-LIGAND FREE ENERGY PREDICTED BY IDOCK:   -2.63 KCAL/MOL
REMARK 924 INTRA-LIGAND FREE ENERGY PREDICTED BY IDOCK:    1.01 KCAL/MOL
REMARK 927      BINDING AFFINITY PREDICTED BY RF-SCORE:    0.00 PKD
ROOT
HETATM    1  N   UNL     1     -12.355  10.089  71.289  1.00  0.00    -0.366 NA 
HETATM    2  C   UNL     1     -11.423   9.118  71.159  1.00  0.00    -0.318 C  
HETATM    3  H2  UNL     1     -12.071  11.067  71.339  1.00  0.00     0.000 HD 
HETATM    4  H1  UNL     1     -13.343   9.841  71.337  1.00  0.00     0.000 HD 
HETATM    5  N   UNL     1     -10.177   9.432  71.099  1.00  0.00    -0.309 N  
HETATM    6  H   UNL     1      -9.883  10.407  71.148  1.00  0.00     0.000 HD 
HETATM    7  C   UNL     1      -9.256   8.433  70.969  1.00  0.00    -0.168 C  
HETATM    8  N   UNL     1      -9.656   7.151  71.261  1.00  0.00    -0.164 N  
HETATM    9  O   UNL     1      -8.118   8.678  70.578  1.00  0.00    -0.094 OA 
HETATM   10  C   UNL     1     -10.985   6.917  71.138  1.00  0.00    -0.251 C  
HETATM   11  N   UNL     1     -11.872   7.845  71.072  1.00  0.00    -0.288 NA 
ENDROOT
BRANCH   8  12
HETATM   12  C1* UNL     1      -8.685   6.075  71.168  1.00  0.00    -0.132 C  
HETATM   13  C2* UNL     1      -7.232   6.545  71.139  1.00  0.00    -0.078 C  
HETATM   14  C3* UNL     1      -6.494   5.342  71.666  1.00  0.00    -0.040 C  
HETATM   15  O3* UNL     1      -6.286   4.425  70.588  1.00  0.00    -0.024 OA 
HETATM   16  C4* UNL     1      -7.473   4.733  72.668  1.00  0.00    -0.086 C  
HETATM   17  H3* UNL     1      -5.821   3.667  70.919  1.00  0.00     0.000 HD 
HETATM   18  O4* UNL     1      -8.789   5.228  72.330  1.00  0.00    -0.128 OA 
BRANCH  16  19
HETATM   19  C5* UNL     1      -7.184   5.130  74.118  1.00  0.00    -0.083 C  
HETATM   20  O5* UNL     1      -7.818   6.362  74.451  1.00  0.00    -0.104 OA 
HETATM   21  H5* UNL     1      -7.639   6.608  75.351  1.00  0.00     0.000 HD 
ENDBRANCH  16  19
ENDBRANCH   8  12
TORSDOF 2
ENDMDL
MODEL      257
REMARK 921   NORMALIZED FREE ENERGY PREDICTED BY IDOCK:   41.36 KCAL/MOL
REMARK 922        TOTAL FREE ENERGY PREDICTED BY IDOCK:   45.86 KCAL/MOL
REMARK 923 INTER-LIGAND FREE ENERGY PREDICTED BY IDOCK:   46.03 KCAL/MOL
REMARK 924 INTRA-LIGAND FREE ENERGY PREDICTED BY IDOCK:   -0.18 KCAL/MOL
REMARK 927      BINDING AFFINITY PREDICTED BY RF-SCORE:    0.00 PKD
ROOT
HETATM    1  N   UNL     1      -8.673  14.087  71.346  1.00  0.00     5.334 NA 
HETATM    2  C   UNL     1      -9.010  13.117  70.466  1.00  0.00     6.153 C  
HETATM    3  H2  UNL     1      -7.885  14.703  71.150  1.00  0.00     0.000 HD 
HETATM    4  H1  UNL     1      -9.210  14.201  72.206  1.00  0.00     0.000 HD 
HETATM    5  N   UNL     1      -8.334  12.973  69.382  1.00  0.00     0.267 N  
HETATM    6  H   UNL     1      -7.544  13.585  69.177  1.00  0.00     0.000 HD 
HETATM    7  C   UNL     1      -8.694  11.986  68.511  1.00  0.00    -0.095 C  
HETATM    8  N   UNL     1      -9.512  10.986  68.979  1.00  0.00    -0.155 N  
HETATM    9  O   UNL     1      -8.316  12.014  67.343  1.00  0.00    -0.154 OA 
HETATM   10  C   UNL     1     -10.287  11.320  70.039  1.00  0.00     0.779 C  
HETATM   11  N   UNL     1     -10.084  12.353  70.776  1.00  0.00     5.141 NA 
ENDROOT
BRANCH   8  12
HETATM   12  C1* UNL     1      -9.879   9.902  68.084  1.00  0.00    -0.147 C  
HETATM   13  C2* UNL     1     -10.447   8.674  68.791  1.00  0.00    -0.209 C  
HETATM   14  C3* UNL     1     -11.283   8.038  67.709  1.00  0.00     0.608 C  
HETATM   15  O3* UNL     1     -10.428   7.246  66.879  1.00  0.00    -0.304 OA 
HETATM   16  C4* UNL     1     -11.800   9.232  66.909  1.00  0.00     4.198 C  
HETATM   17  H3* UNL     1     -10.954   6.845  66.198  1.00  0.00     0.000 HD 
HETATM   18  O4* UNL     1     -10.919  10.345  67.190  1.00  0.00    -0.267 OA 
BRANCH  16  19
HETATM   19  C5* UNL     1     -13.220   9.652  67.296  1.00  0.00    14.616 C  
HETATM   20  O5* UNL     1     -13.723   8.850  68.361  1.00  0.00    10.269 OA 
HETATM   21  H5* UNL     1     -14.605   9.110  68.602  1.00  0.00     0.000 HD 
ENDBRANCH  16  19
ENDBRANCH   8  12
TORSDOF 2
ENDMDL
