MODEL        1
REMARK 921   NORMALIZED FREE ENERGY PREDICTED BY IDOCK:   -6.06 KCAL/MOL
REMARK 922        TOTAL FREE ENERGY PREDICTED BY IDOCK:  -16.95 KCAL/MOL
REMARK 923 INTER-LIGAND FREE ENERGY PREDICTED BY IDOCK:  -14.20 KCAL/MOL
REMARK 924 INTRA-LIGAND FREE ENERGY PREDICTED BY IDOCK:   -2.75 KCAL/MOL
REMARK 927      BINDING AFFINITY PREDICTED BY RF-SCORE:    0.00 PKD
ROOT
HETATM    1  C   UNL     1     -10.810   4.444  73.025  1.00  0.00    -0.293 C  
HETATM    2  C   UNL     1     -10.812   5.914  73.354  1.00  0.00    -0.245 C  
HETATM    3  N   UNL     1     -11.278   6.765  72.386  1.00  0.00    -0.255 N  
HETATM    4  O   UNL     1     -10.379   6.308  74.438  1.00  0.00    -0.323 OA 
HETATM    5  O   UNL     1     -11.916   6.345  71.207  1.00  0.00    -0.326 OA 
ENDROOT
BRANCH   3   6
HETATM    6  C   UNL     1     -11.328   8.211  72.547  1.00  0.00    -0.401 C  
BRANCH   6   7
HETATM    7  C   UNL     1     -10.484   8.944  71.502  1.00  0.00    -0.393 C  
BRANCH   7   8
HETATM    8  C   UNL     1     -11.304  10.047  70.831  1.00  0.00    -0.439 C  
BRANCH   8   9
HETATM    9  C   UNL     1     -12.720  10.142  71.404  1.00  0.00    -0.530 C  
BRANCH   9  10
HETATM   10  C   UNL     1     -13.092  11.572  71.796  1.00  0.00    -0.398 C  
BRANCH  10  11
HETATM   11  N   UNL     1     -12.488  12.564  70.920  1.00  0.00    -0.336 N  
HETATM   12  C   UNL     1     -12.762  13.905  71.067  1.00  0.00    -0.357 C  
HETATM   13  H   UNL     1     -11.849  12.260  70.185  1.00  0.00     0.000 HD 
HETATM   14  O   UNL     1     -13.486  14.364  71.947  1.00  0.00    -0.340 OA 
BRANCH  12  15
HETATM   15  C   UNL     1     -12.069  14.772  70.038  1.00  0.00    -0.380 C  
BRANCH  15  16
HETATM   16  C   UNL     1     -12.026  14.066  68.685  1.00  0.00    -0.389 C  
BRANCH  16  17
HETATM   17  C   UNL     1     -10.666  13.461  68.392  1.00  0.00    -0.256 C  
HETATM   18  O   UNL     1      -9.632  14.098  68.584  1.00  0.00    -0.215 OA 
HETATM   19  N   UNL     1     -10.669  12.191  67.875  1.00  0.00    -0.201 N  
HETATM   20  O   UNL     1     -11.814  11.389  67.732  1.00  0.00    -0.595 OA 
BRANCH  19  21
HETATM   21  C   UNL     1      -9.463  11.485  67.467  1.00  0.00    -0.169 C  
BRANCH  21  22
HETATM   22  C   UNL     1      -9.748  10.391  66.434  1.00  0.00    -0.250 C  
BRANCH  22  23
HETATM   23  C   UNL     1      -8.848  10.494  65.188  1.00  0.00    -0.206 C  
BRANCH  23  24
HETATM   24  C   UNL     1      -9.617  10.345  63.874  1.00  0.00    -0.370 C  
BRANCH  24  25
HETATM   25  C   UNL     1      -9.685  11.666  63.111  1.00  0.00    -0.360 C  
BRANCH  25  26
HETATM   26  N   UNL     1     -10.275  12.718  63.914  1.00  0.00    -0.542 N  
HETATM   27  H   UNL     1      -9.669  13.296  64.496  1.00  0.00     0.000 HD 
HETATM   28  C   UNL     1     -11.629  12.958  63.913  1.00  0.00    -0.453 C  
HETATM   29  O   UNL     1     -12.429  12.326  63.230  1.00  0.00    -0.579 OA 
BRANCH  28  30
HETATM   30  C   UNL     1     -12.070  14.067  64.833  1.00  0.00    -0.435 C  
BRANCH  30  31
HETATM   31  C   UNL     1     -10.861  14.881  65.267  1.00  0.00    -0.398 C  
BRANCH  31  32
HETATM   32  C   UNL     1     -11.079  16.356  65.005  1.00  0.00    -0.208 C  
HETATM   33  N   UNL     1     -10.560  17.262  65.897  1.00  0.00    -0.283 N  
HETATM   34  O   UNL     1     -11.640  16.708  63.965  1.00  0.00    -1.197 OA 
HETATM   35  O   UNL     1     -10.320  16.870  67.228  1.00  0.00    -0.299 OA 
BRANCH  33  36
HETATM   36  C   UNL     1     -10.780  18.705  65.770  1.00  0.00    -0.179 C  
BRANCH  36  37
HETATM   37  C   UNL     1      -9.489  19.504  65.957  1.00  0.00    -0.309 C  
BRANCH  37  38
HETATM   38  C   UNL     1      -9.467  20.263  67.288  1.00  0.00    -0.557 C  
BRANCH  38  39
HETATM   39  C   UNL     1      -8.163  20.023  68.055  1.00  0.00    -0.256 C  
BRANCH  39  40
HETATM   40  C   UNL     1      -7.540  18.661  67.744  1.00  0.00    -0.232 C  
HETATM   41  N   UNL     1      -7.662  17.741  68.871  1.00  0.00    -0.243 NA 
HETATM   42  H2  UNL     1      -8.633  17.647  69.170  1.00  0.00     0.000 HD 
HETATM   43  H1  UNL     1      -7.247  16.833  68.664  1.00  0.00     0.000 HD 
ENDBRANCH  39  40
ENDBRANCH  38  39
ENDBRANCH  37  38
ENDBRANCH  36  37
ENDBRANCH  33  36
ENDBRANCH  31  32
ENDBRANCH  30  31
ENDBRANCH  28  30
ENDBRANCH  25  26
ENDBRANCH  24  25
ENDBRANCH  23  24
ENDBRANCH  22  23
ENDBRANCH  21  22
ENDBRANCH  19  21
ENDBRANCH  16  17
ENDBRANCH  15  16
ENDBRANCH  12  15
ENDBRANCH  10  11
ENDBRANCH   9  10
ENDBRANCH   8   9
ENDBRANCH   7   8
ENDBRANCH   6   7
ENDBRANCH   3   6
TORSDOF 23
ENDMDL
MODEL        2
REMARK 921   NORMALIZED FREE ENERGY PREDICTED BY IDOCK:   -5.80 KCAL/MOL
REMARK 922        TOTAL FREE ENERGY PREDICTED BY IDOCK:  -16.36 KCAL/MOL
REMARK 923 INTER-LIGAND FREE ENERGY PREDICTED BY IDOCK:  -12.99 KCAL/MOL
REMARK 924 INTRA-LIGAND FREE ENERGY PREDICTED BY IDOCK:   -3.36 KCAL/MOL
REMARK 927      BINDING AFFINITY PREDICTED BY RF-SCORE:    0.00 PKD
ROOT
HETATM    1  C   UNL     1     -12.884  14.956  70.923  1.00  0.00    -0.432 C  
HETATM    2  C   UNL     1     -13.280  13.773  71.767  1.00  0.00    -0.386 C  
HETATM    3  N   UNL     1     -12.890  12.537  71.322  1.00  0.00    -0.313 N  
HETATM    4  O   UNL     1     -13.951  13.935  72.787  1.00  0.00    -0.697 OA 
HETATM    5  O   UNL     1     -12.002  12.327  70.253  1.00  0.00    -0.344 OA 
ENDROOT
BRANCH   3   6
HETATM    6  C   UNL     1     -13.209  11.297  72.016  1.00  0.00    -0.331 C  
BRANCH   6   7
HETATM    7  C   UNL     1     -12.640  10.068  71.305  1.00  0.00    -0.495 C  
BRANCH   7   8
HETATM    8  C   UNL     1     -12.747   8.834  72.203  1.00  0.00    -0.461 C  
BRANCH   8   9
HETATM    9  C   UNL     1     -12.461   7.540  71.440  1.00  0.00    -0.382 C  
BRANCH   9  10
HETATM   10  C   UNL     1     -10.996   7.116  71.545  1.00  0.00    -0.235 C  
BRANCH  10  11
HETATM   11  N   UNL     1     -10.118   7.943  70.730  1.00  0.00    -0.192 N  
HETATM   12  C   UNL     1      -9.138   8.721  71.302  1.00  0.00    -0.234 C  
HETATM   13  H   UNL     1     -10.232   7.945  69.716  1.00  0.00     0.000 HD 
HETATM   14  O   UNL     1      -8.904   8.751  72.507  1.00  0.00    -0.402 OA 
BRANCH  12  15
HETATM   15  C   UNL     1      -8.357   9.536  70.293  1.00  0.00    -0.221 C  
BRANCH  15  16
HETATM   16  C   UNL     1      -9.301  10.182  69.282  1.00  0.00    -0.227 C  
BRANCH  16  17
HETATM   17  C   UNL     1      -8.727  10.190  67.879  1.00  0.00    -0.122 C  
HETATM   18  O   UNL     1      -7.531   9.984  67.679  1.00  0.00    -0.089 OA 
HETATM   19  N   UNL     1      -9.608  10.472  66.867  1.00  0.00    -0.172 N  
HETATM   20  O   UNL     1     -10.997  10.616  67.033  1.00  0.00    -0.269 OA 
BRANCH  19  21
HETATM   21  C   UNL     1      -9.219  10.594  65.470  1.00  0.00    -0.196 C  
BRANCH  21  22
HETATM   22  C   UNL     1     -10.415  10.852  64.549  1.00  0.00    -0.393 C  
BRANCH  22  23
HETATM   23  C   UNL     1     -10.318  12.195  63.801  1.00  0.00    -0.465 C  
BRANCH  23  24
HETATM   24  C   UNL     1     -11.662  12.911  63.667  1.00  0.00    -0.572 C  
BRANCH  24  25
HETATM   25  C   UNL     1     -11.706  14.185  64.509  1.00  0.00    -0.413 C  
BRANCH  25  26
HETATM   26  N   UNL     1     -10.734  14.150  65.584  1.00  0.00    -0.301 N  
HETATM   27  H   UNL     1      -9.741  14.207  65.356  1.00  0.00     0.000 HD 
HETATM   28  C   UNL     1     -11.113  14.041  66.901  1.00  0.00    -0.304 C  
HETATM   29  O   UNL     1     -12.283  13.986  67.267  1.00  0.00    -0.405 OA 
BRANCH  28  30
HETATM   30  C   UNL     1      -9.969  13.985  67.880  1.00  0.00    -0.237 C  
BRANCH  30  31
HETATM   31  C   UNL     1      -9.054  15.180  67.664  1.00  0.00    -0.181 C  
BRANCH  31  32
HETATM   32  C   UNL     1      -9.772  16.475  67.981  1.00  0.00    -0.236 C  
HETATM   33  N   UNL     1     -10.167  17.275  66.937  1.00  0.00    -0.314 N  
HETATM   34  O   UNL     1     -10.055  16.738  69.151  1.00  0.00    -0.274 OA 
HETATM   35  O   UNL     1      -9.493  17.194  65.703  1.00  0.00    -0.523 OA 
BRANCH  33  36
HETATM   36  C   UNL     1     -10.802  18.579  67.142  1.00  0.00    -0.254 C  
BRANCH  36  37
HETATM   37  C   UNL     1     -10.092  19.694  66.372  1.00  0.00    -0.573 C  
BRANCH  37  38
HETATM   38  C   UNL     1      -9.040  20.407  67.229  1.00  0.00    -0.500 C  
BRANCH  38  39
HETATM   39  C   UNL     1      -7.618  20.090  66.758  1.00  0.00    -0.306 C  
BRANCH  39  40
HETATM   40  C   UNL     1      -6.953  18.993  67.591  1.00  0.00    -0.213 C  
HETATM   41  N   UNL     1      -7.379  19.040  68.986  1.00  0.00    -0.327 NA 
HETATM   42  H2  UNL     1      -8.395  19.003  69.065  1.00  0.00     0.000 HD 
HETATM   43  H1  UNL     1      -6.936  18.308  69.541  1.00  0.00     0.000 HD 
ENDBRANCH  39  40
ENDBRANCH  38  39
ENDBRANCH  37  38
ENDBRANCH  36  37
ENDBRANCH  33  36
ENDBRANCH  31  32
ENDBRANCH  30  31
ENDBRANCH  28  30
ENDBRANCH  25  26
ENDBRANCH  24  25
ENDBRANCH  23  24
ENDBRANCH  22  23
ENDBRANCH  21  22
ENDBRANCH  19  21
ENDBRANCH  16  17
ENDBRANCH  15  16
ENDBRANCH  12  15
ENDBRANCH  10  11
ENDBRANCH   9  10
ENDBRANCH   8   9
ENDBRANCH   7   8
ENDBRANCH   6   7
ENDBRANCH   3   6
TORSDOF 23
ENDMDL
MODEL        3
REMARK 921   NORMALIZED FREE ENERGY PREDICTED BY IDOCK:   -5.76 KCAL/MOL
REMARK 922        TOTAL FREE ENERGY PREDICTED BY IDOCK:  -16.25 KCAL/MOL
REMARK 923 INTER-LIGAND FREE ENERGY PREDICTED BY IDOCK:  -13.28 KCAL/MOL
REMARK 924 INTRA-LIGAND FREE ENERGY PREDICTED BY IDOCK:   -2.97 KCAL/MOL
REMARK 927      BINDING AFFINITY PREDICTED BY RF-SCORE:    0.00 PKD
ROOT
HETATM    1  C   UNL     1     -13.249  15.312  71.051  1.00  0.00    -0.546 C  
HETATM    2  C   UNL     1     -13.502  14.027  71.795  1.00  0.00    -0.392 C  
HETATM    3  N   UNL     1     -12.927  12.893  71.285  1.00  0.00    -0.286 N  
HETATM    4  O   UNL     1     -14.223  14.019  72.794  1.00  0.00    -0.583 OA 
HETATM    5  O   UNL     1     -11.983  12.885  70.244  1.00  0.00    -0.341 OA 
ENDROOT
BRANCH   3   6
HETATM    6  C   UNL     1     -13.091  11.573  71.880  1.00  0.00    -0.387 C  
BRANCH   6   7
HETATM    7  C   UNL     1     -13.031  10.453  70.840  1.00  0.00    -0.475 C  
BRANCH   7   8
HETATM    8  C   UNL     1     -13.373   9.108  71.483  1.00  0.00    -0.416 C  
BRANCH   8   9
HETATM    9  C   UNL     1     -12.354   8.705  72.551  1.00  0.00    -0.378 C  
BRANCH   9  10
HETATM   10  C   UNL     1     -10.951   8.516  71.972  1.00  0.00    -0.340 C  
BRANCH  10  11
HETATM   11  N   UNL     1     -10.936   7.601  70.840  1.00  0.00    -0.246 N  
HETATM   12  C   UNL     1     -10.571   6.283  70.995  1.00  0.00    -0.238 C  
HETATM   13  H   UNL     1     -11.201   7.943  69.916  1.00  0.00     0.000 HD 
HETATM   14  O   UNL     1     -10.276   5.776  72.074  1.00  0.00    -0.191 OA 
BRANCH  12  15
HETATM   15  C   UNL     1     -10.582   5.504  69.697  1.00  0.00    -0.375 C  
BRANCH  15  16
HETATM   16  C   UNL     1      -9.530   6.052  68.736  1.00  0.00    -0.137 C  
BRANCH  16  17
HETATM   17  C   UNL     1     -10.140   6.882  67.623  1.00  0.00    -0.161 C  
HETATM   18  O   UNL     1     -10.845   6.366  66.757  1.00  0.00    -0.326 OA 
HETATM   19  N   UNL     1      -9.833   8.218  67.627  1.00  0.00    -0.159 N  
HETATM   20  O   UNL     1      -9.117   8.871  68.646  1.00  0.00    -0.137 OA 
BRANCH  19  21
HETATM   21  C   UNL     1     -10.270   9.149  66.597  1.00  0.00    -0.258 C  
BRANCH  21  22
HETATM   22  C   UNL     1      -9.524  10.484  66.660  1.00  0.00    -0.199 C  
BRANCH  22  23
HETATM   23  C   UNL     1      -9.097  11.001  65.273  1.00  0.00    -0.207 C  
BRANCH  23  24
HETATM   24  C   UNL     1      -9.955  10.450  64.133  1.00  0.00    -0.337 C  
BRANCH  24  25
HETATM   25  C   UNL     1     -10.721  11.562  63.419  1.00  0.00    -0.373 C  
BRANCH  25  26
HETATM   26  N   UNL     1     -11.168  12.583  64.345  1.00  0.00    -0.319 N  
HETATM   27  H   UNL     1     -10.476  13.186  64.791  1.00  0.00     0.000 HD 
HETATM   28  C   UNL     1     -12.499  12.761  64.640  1.00  0.00    -0.456 C  
HETATM   29  O   UNL     1     -13.400  12.097  64.138  1.00  0.00    -0.750 OA 
BRANCH  28  30
HETATM   30  C   UNL     1     -12.778  13.846  65.649  1.00  0.00    -0.534 C  
BRANCH  30  31
HETATM   31  C   UNL     1     -11.703  13.830  66.725  1.00  0.00    -0.420 C  
BRANCH  31  32
HETATM   32  C   UNL     1     -11.143  15.219  66.949  1.00  0.00    -0.288 C  
HETATM   33  N   UNL     1     -10.468  15.826  65.918  1.00  0.00    -0.333 N  
HETATM   34  O   UNL     1     -11.374  15.799  68.012  1.00  0.00    -0.348 OA 
HETATM   35  O   UNL     1      -9.860  15.037  64.923  1.00  0.00    -0.188 OA 
BRANCH  33  36
HETATM   36  C   UNL     1      -9.827  17.135  66.061  1.00  0.00    -0.219 C  
BRANCH  36  37
HETATM   37  C   UNL     1     -10.782  18.284  65.727  1.00  0.00    -0.129 C  
BRANCH  37  38
HETATM   38  C   UNL     1     -10.247  19.637  66.209  1.00  0.00    -0.598 C  
BRANCH  38  39
HETATM   39  C   UNL     1      -9.334  19.482  67.429  1.00  0.00    -0.405 C  
BRANCH  39  40
HETATM   40  C   UNL     1     -10.095  19.587  68.751  1.00  0.00    -0.430 C  
HETATM   41  N   UNL     1     -10.372  18.273  69.323  1.00  0.00    -0.377 NA 
HETATM   42  H2  UNL     1      -9.517  17.727  69.428  1.00  0.00     0.000 HD 
HETATM   43  H1  UNL     1     -10.880  18.344  70.205  1.00  0.00     0.000 HD 
ENDBRANCH  39  40
ENDBRANCH  38  39
ENDBRANCH  37  38
ENDBRANCH  36  37
ENDBRANCH  33  36
ENDBRANCH  31  32
ENDBRANCH  30  31
ENDBRANCH  28  30
ENDBRANCH  25  26
ENDBRANCH  24  25
ENDBRANCH  23  24
ENDBRANCH  22  23
ENDBRANCH  21  22
ENDBRANCH  19  21
ENDBRANCH  16  17
ENDBRANCH  15  16
ENDBRANCH  12  15
ENDBRANCH  10  11
ENDBRANCH   9  10
ENDBRANCH   8   9
ENDBRANCH   7   8
ENDBRANCH   6   7
ENDBRANCH   3   6
TORSDOF 23
ENDMDL
MODEL        4
REMARK 921   NORMALIZED FREE ENERGY PREDICTED BY IDOCK:   -5.61 KCAL/MOL
REMARK 922        TOTAL FREE ENERGY PREDICTED BY IDOCK:  -15.90 KCAL/MOL
REMARK 923 INTER-LIGAND FREE ENERGY PREDICTED BY IDOCK:  -12.64 KCAL/MOL
REMARK 924 INTRA-LIGAND FREE ENERGY PREDICTED BY IDOCK:   -3.26 KCAL/MOL
REMARK 927      BINDING AFFINITY PREDICTED BY RF-SCORE:    0.00 PKD
ROOT
HETATM    1  C   UNL     1      -6.109   8.960  70.507  1.00  0.00    -0.037 C  
HETATM    2  C   UNL     1      -6.730   8.890  71.877  1.00  0.00    -0.011 C  
HETATM    3  N   UNL     1      -7.988   8.353  71.960  1.00  0.00    -0.137 N  
HETATM    4  O   UNL     1      -6.128   9.333  72.856  1.00  0.00    -0.298 OA 
HETATM    5  O   UNL     1      -8.640   7.703  70.898  1.00  0.00    -0.126 OA 
ENDROOT
BRANCH   3   6
HETATM    6  C   UNL     1      -8.728   8.230  73.208  1.00  0.00    -0.215 C  
BRANCH   6   7
HETATM    7  C   UNL     1      -9.032   6.774  73.566  1.00  0.00    -0.153 C  
BRANCH   7   8
HETATM    8  C   UNL     1     -10.543   6.546  73.635  1.00  0.00    -0.306 C  
BRANCH   8   9
HETATM    9  C   UNL     1     -11.062   5.757  72.431  1.00  0.00    -0.332 C  
BRANCH   9  10
HETATM   10  C   UNL     1     -12.090   6.547  71.621  1.00  0.00    -0.328 C  
BRANCH  10  11
HETATM   11  N   UNL     1     -11.736   7.953  71.492  1.00  0.00    -0.274 N  
HETATM   12  C   UNL     1     -12.661   8.945  71.728  1.00  0.00    -0.364 C  
HETATM   13  H   UNL     1     -10.786   8.207  71.223  1.00  0.00     0.000 HD 
HETATM   14  O   UNL     1     -13.814   8.733  72.094  1.00  0.00    -0.410 OA 
BRANCH  12  15
HETATM   15  C   UNL     1     -12.112  10.338  71.505  1.00  0.00    -0.407 C  
BRANCH  15  16
HETATM   16  C   UNL     1     -13.252  11.341  71.340  1.00  0.00    -0.267 C  
BRANCH  16  17
HETATM   17  C   UNL     1     -12.819  12.762  71.643  1.00  0.00    -0.261 C  
HETATM   18  O   UNL     1     -13.069  13.286  72.726  1.00  0.00    -0.350 OA 
HETATM   19  N   UNL     1     -12.169  13.425  70.633  1.00  0.00    -0.366 N  
HETATM   20  O   UNL     1     -11.773  12.838  69.418  1.00  0.00    -0.292 OA 
BRANCH  19  21
HETATM   21  C   UNL     1     -11.748  14.815  70.721  1.00  0.00    -0.300 C  
BRANCH  21  22
HETATM   22  C   UNL     1     -11.779  15.523  69.364  1.00  0.00    -0.382 C  
BRANCH  22  23
HETATM   23  C   UNL     1     -10.402  16.067  68.939  1.00  0.00    -0.235 C  
BRANCH  23  24
HETATM   24  C   UNL     1     -10.466  16.991  67.723  1.00  0.00    -0.349 C  
BRANCH  24  25
HETATM   25  C   UNL     1      -9.814  16.352  66.498  1.00  0.00    -0.274 C  
BRANCH  25  26
HETATM   26  N   UNL     1     -10.724  15.454  65.816  1.00  0.00    -0.335 N  
HETATM   27  H   UNL     1     -10.867  14.516  66.190  1.00  0.00     0.000 HD 
HETATM   28  C   UNL     1     -11.399  15.830  64.679  1.00  0.00    -0.337 C  
HETATM   29  O   UNL     1     -11.303  16.943  64.171  1.00  0.00    -1.208 OA 
BRANCH  28  30
HETATM   30  C   UNL     1     -12.275  14.757  64.085  1.00  0.00    -0.321 C  
BRANCH  30  31
HETATM   31  C   UNL     1     -12.427  13.616  65.078  1.00  0.00    -0.454 C  
BRANCH  31  32
HETATM   32  C   UNL     1     -11.847  12.333  64.519  1.00  0.00    -0.369 C  
HETATM   33  N   UNL     1     -10.785  11.757  65.172  1.00  0.00    -0.282 N  
HETATM   34  O   UNL     1     -12.388  11.798  63.549  1.00  0.00    -0.509 OA 
HETATM   35  O   UNL     1      -9.941  12.554  65.969  1.00  0.00    -0.250 OA 
BRANCH  33  36
HETATM   36  C   UNL     1     -10.109  10.558  64.670  1.00  0.00    -0.338 C  
BRANCH  36  37
HETATM   37  C   UNL     1      -9.136   9.973  65.695  1.00  0.00    -0.222 C  
BRANCH  37  38
HETATM   38  C   UNL     1      -9.401   8.487  65.960  1.00  0.00    -0.266 C  
BRANCH  38  39
HETATM   39  C   UNL     1     -10.477   8.288  67.032  1.00  0.00    -0.384 C  
BRANCH  39  40
HETATM   40  C   UNL     1     -10.407   9.341  68.139  1.00  0.00    -0.215 C  
HETATM   41  N   UNL     1     -11.623  10.145  68.198  1.00  0.00    -0.672 NA 
HETATM   42  H2  UNL     1     -12.452   9.559  68.295  1.00  0.00     0.000 HD 
HETATM   43  H1  UNL     1     -11.576  10.847  68.937  1.00  0.00     0.000 HD 
ENDBRANCH  39  40
ENDBRANCH  38  39
ENDBRANCH  37  38
ENDBRANCH  36  37
ENDBRANCH  33  36
ENDBRANCH  31  32
ENDBRANCH  30  31
ENDBRANCH  28  30
ENDBRANCH  25  26
ENDBRANCH  24  25
ENDBRANCH  23  24
ENDBRANCH  22  23
ENDBRANCH  21  22
ENDBRANCH  19  21
ENDBRANCH  16  17
ENDBRANCH  15  16
ENDBRANCH  12  15
ENDBRANCH  10  11
ENDBRANCH   9  10
ENDBRANCH   8   9
ENDBRANCH   7   8
ENDBRANCH   6   7
ENDBRANCH   3   6
TORSDOF 23
ENDMDL
MODEL        5
REMARK 921   NORMALIZED FREE ENERGY PREDICTED BY IDOCK:   -5.55 KCAL/MOL
REMARK 922        TOTAL FREE ENERGY PREDICTED BY IDOCK:  -15.78 KCAL/MOL
REMARK 923 INTER-LIGAND FREE ENERGY PREDICTED BY IDOCK:  -12.17 KCAL/MOL
REMARK 924 INTRA-LIGAND FREE ENERGY PREDICTED BY IDOCK:   -3.61 KCAL/MOL
REMARK 927      BINDING AFFINITY PREDICTED BY RF-SCORE:    0.00 PKD
ROOT
HETATM    1  C   UNL     1     -10.530  18.451  65.845  1.00  0.00    -0.346 C  
HETATM    2  C   UNL     1     -10.331  16.962  65.955  1.00  0.00    -0.325 C  
HETATM    3  N   UNL     1     -10.976  16.182  65.032  1.00  0.00    -0.398 N  
HETATM    4  O   UNL     1      -9.642  16.493  66.862  1.00  0.00    -0.230 OA 
HETATM    5  O   UNL     1     -11.642  16.683  63.901  1.00  0.00    -1.204 OA 
ENDROOT
BRANCH   3   6
HETATM    6  C   UNL     1     -10.896  14.728  65.015  1.00  0.00    -0.425 C  
BRANCH   6   7
HETATM    7  C   UNL     1     -12.275  14.068  64.955  1.00  0.00    -0.455 C  
BRANCH   7   8
HETATM    8  C   UNL     1     -12.145  12.547  65.051  1.00  0.00    -0.504 C  
BRANCH   8   9
HETATM    9  C   UNL     1     -11.984  11.895  63.676  1.00  0.00    -0.578 C  
BRANCH   9  10
HETATM   10  C   UNL     1     -10.516  11.745  63.274  1.00  0.00    -0.388 C  
BRANCH  10  11
HETATM   11  N   UNL     1      -9.747  10.989  64.251  1.00  0.00    -0.261 N  
HETATM   12  C   UNL     1      -9.042   9.864  63.887  1.00  0.00    -0.259 C  
HETATM   13  H   UNL     1      -9.729  11.299  65.222  1.00  0.00     0.000 HD 
HETATM   14  O   UNL     1      -8.975   9.441  62.736  1.00  0.00    -0.243 OA 
BRANCH  12  15
HETATM   15  C   UNL     1      -8.339   9.197  65.050  1.00  0.00    -0.165 C  
BRANCH  15  16
HETATM   16  C   UNL     1      -9.357   8.646  66.045  1.00  0.00    -0.284 C  
BRANCH  16  17
HETATM   17  C   UNL     1      -8.971   7.276  66.569  1.00  0.00    -0.152 C  
HETATM   18  O   UNL     1      -9.338   6.251  65.999  1.00  0.00    -0.135 OA 
HETATM   19  N   UNL     1      -8.225   7.258  67.720  1.00  0.00    -0.118 N  
HETATM   20  O   UNL     1      -7.700   8.399  68.350  1.00  0.00    -0.101 OA 
BRANCH  19  21
HETATM   21  C   UNL     1      -7.829   6.035  68.402  1.00  0.00    -0.106 C  
BRANCH  21  22
HETATM   22  C   UNL     1      -8.558   5.847  69.736  1.00  0.00    -0.129 C  
BRANCH  22  23
HETATM   23  C   UNL     1      -9.916   5.138  69.583  1.00  0.00    -0.313 C  
BRANCH  23  24
HETATM   24  C   UNL     1     -11.111   6.066  69.806  1.00  0.00    -0.476 C  
BRANCH  24  25
HETATM   25  C   UNL     1     -10.681   7.397  70.418  1.00  0.00    -0.237 C  
BRANCH  25  26
HETATM   26  N   UNL     1     -11.796   8.313  70.545  1.00  0.00    -0.480 N  
HETATM   27  H   UNL     1     -12.292   8.610  69.704  1.00  0.00     0.000 HD 
HETATM   28  C   UNL     1     -12.205   8.793  71.767  1.00  0.00    -0.349 C  
HETATM   29  O   UNL     1     -11.680   8.475  72.830  1.00  0.00    -0.317 OA 
BRANCH  28  30
HETATM   30  C   UNL     1     -13.359   9.762  71.707  1.00  0.00    -0.506 C  
BRANCH  30  31
HETATM   31  C   UNL     1     -12.830  11.187  71.746  1.00  0.00    -0.479 C  
BRANCH  31  32
HETATM   32  C   UNL     1     -12.567  11.704  70.348  1.00  0.00    -0.132 C  
HETATM   33  N   UNL     1     -12.007  12.951  70.207  1.00  0.00    -0.327 N  
HETATM   34  O   UNL     1     -12.782  10.970  69.381  1.00  0.00    -0.279 OA 
HETATM   35  O   UNL     1     -12.164  13.905  71.230  1.00  0.00    -0.345 OA 
BRANCH  33  36
HETATM   36  C   UNL     1     -11.782  13.568  68.898  1.00  0.00    -0.339 C  
BRANCH  36  37
HETATM   37  C   UNL     1     -10.302  13.571  68.509  1.00  0.00    -0.242 C  
BRANCH  37  38
HETATM   38  C   UNL     1      -9.898  12.293  67.766  1.00  0.00    -0.201 C  
BRANCH  38  39
HETATM   39  C   UNL     1      -8.502  12.415  67.148  1.00  0.00    -0.185 C  
BRANCH  39  40
HETATM   40  C   UNL     1      -7.390  12.048  68.131  1.00  0.00    -0.094 C  
HETATM   41  N   UNL     1      -6.458  11.083  67.558  1.00  0.00    -0.060 NA 
HETATM   42  H2  UNL     1      -6.076  11.415  66.672  1.00  0.00     0.000 HD 
HETATM   43  H1  UNL     1      -5.716  10.838  68.214  1.00  0.00     0.000 HD 
ENDBRANCH  39  40
ENDBRANCH  38  39
ENDBRANCH  37  38
ENDBRANCH  36  37
ENDBRANCH  33  36
ENDBRANCH  31  32
ENDBRANCH  30  31
ENDBRANCH  28  30
ENDBRANCH  25  26
ENDBRANCH  24  25
ENDBRANCH  23  24
ENDBRANCH  22  23
ENDBRANCH  21  22
ENDBRANCH  19  21
ENDBRANCH  16  17
ENDBRANCH  15  16
ENDBRANCH  12  15
ENDBRANCH  10  11
ENDBRANCH   9  10
ENDBRANCH   8   9
ENDBRANCH   7   8
ENDBRANCH   6   7
ENDBRANCH   3   6
TORSDOF 23
ENDMDL
MODEL        6
REMARK 921   NORMALIZED FREE ENERGY PREDICTED BY IDOCK:   -5.55 KCAL/MOL
REMARK 922        TOTAL FREE ENERGY PREDICTED BY IDOCK:  -15.76 KCAL/MOL
REMARK 923 INTER-LIGAND FREE ENERGY PREDICTED BY IDOCK:  -12.92 KCAL/MOL
REMARK 924 INTRA-LIGAND FREE ENERGY PREDICTED BY IDOCK:   -2.83 KCAL/MOL
REMARK 927      BINDING AFFINITY PREDICTED BY RF-SCORE:    0.00 PKD
ROOT
HETATM    1  C   UNL     1     -10.452  16.463  65.846  1.00  0.00    -0.350 C  
HETATM    2  C   UNL     1     -11.183  15.767  64.729  1.00  0.00    -0.366 C  
HETATM    3  N   UNL     1     -11.382  14.418  64.865  1.00  0.00    -0.361 N  
HETATM    4  O   UNL     1     -11.545  16.398  63.735  1.00  0.00    -1.055 OA 
HETATM    5  O   UNL     1     -11.120  13.696  66.042  1.00  0.00    -0.292 OA 
ENDROOT
BRANCH   3   6
HETATM    6  C   UNL     1     -12.057  13.602  63.866  1.00  0.00    -0.411 C  
BRANCH   6   7
HETATM    7  C   UNL     1     -11.578  12.149  63.879  1.00  0.00    -0.532 C  
BRANCH   7   8
HETATM    8  C   UNL     1     -10.142  12.055  63.362  1.00  0.00    -0.437 C  
BRANCH   8   9
HETATM    9  C   UNL     1      -9.667  10.605  63.242  1.00  0.00    -0.385 C  
BRANCH   9  10
HETATM   10  C   UNL     1      -8.819  10.172  64.439  1.00  0.00    -0.211 C  
BRANCH  10  11
HETATM   11  N   UNL     1      -9.433   9.090  65.193  1.00  0.00    -0.449 N  
HETATM   12  C   UNL     1     -10.004   9.317  66.426  1.00  0.00    -0.286 C  
HETATM   13  H   UNL     1      -9.441   8.149  64.802  1.00  0.00     0.000 HD 
HETATM   14  O   UNL     1     -10.075  10.422  66.955  1.00  0.00    -0.197 OA 
BRANCH  12  15
HETATM   15  C   UNL     1     -10.555   8.061  67.068  1.00  0.00    -0.364 C  
BRANCH  15  16
HETATM   16  C   UNL     1      -9.434   7.260  67.725  1.00  0.00    -0.143 C  
BRANCH  16  17
HETATM   17  C   UNL     1      -9.205   7.664  69.169  1.00  0.00    -0.141 C  
HETATM   18  O   UNL     1      -8.267   8.394  69.484  1.00  0.00    -0.114 OA 
HETATM   19  N   UNL     1     -10.078   7.142  70.088  1.00  0.00    -0.187 N  
HETATM   20  O   UNL     1     -11.220   6.386  69.767  1.00  0.00    -0.352 OA 
BRANCH  19  21
HETATM   21  C   UNL     1      -9.965   7.362  71.522  1.00  0.00    -0.181 C  
BRANCH  21  22
HETATM   22  C   UNL     1     -10.225   8.820  71.912  1.00  0.00    -0.415 C  
BRANCH  22  23
HETATM   23  C   UNL     1     -11.577   9.347  71.397  1.00  0.00    -0.451 C  
BRANCH  23  24
HETATM   24  C   UNL     1     -11.436  10.444  70.341  1.00  0.00    -0.420 C  
BRANCH  24  25
HETATM   25  C   UNL     1     -12.218  11.698  70.726  1.00  0.00    -0.344 C  
BRANCH  25  26
HETATM   26  N   UNL     1     -11.769  12.859  69.983  1.00  0.00    -0.514 N  
HETATM   27  H   UNL     1     -11.013  12.751  69.306  1.00  0.00     0.000 HD 
HETATM   28  C   UNL     1     -12.332  14.099  70.165  1.00  0.00    -0.351 C  
HETATM   29  O   UNL     1     -13.256  14.316  70.942  1.00  0.00    -0.342 OA 
BRANCH  28  30
HETATM   30  C   UNL     1     -11.717  15.196  69.333  1.00  0.00    -0.355 C  
BRANCH  30  31
HETATM   31  C   UNL     1     -10.383  15.607  69.936  1.00  0.00    -0.322 C  
BRANCH  31  32
HETATM   32  C   UNL     1      -9.241  15.270  69.002  1.00  0.00    -0.223 C  
HETATM   33  N   UNL     1      -8.281  16.226  68.772  1.00  0.00    -0.215 N  
HETATM   34  O   UNL     1      -9.154  14.131  68.539  1.00  0.00    -0.192 OA 
HETATM   35  O   UNL     1      -8.600  17.587  68.940  1.00  0.00    -0.238 OA 
BRANCH  33  36
HETATM   36  C   UNL     1      -7.179  16.023  67.829  1.00  0.00    -0.143 C  
BRANCH  36  37
HETATM   37  C   UNL     1      -6.544  17.344  67.390  1.00  0.00    -0.172 C  
BRANCH  37  38
HETATM   38  C   UNL     1      -7.002  17.766  65.990  1.00  0.00    -0.335 C  
BRANCH  38  39
HETATM   39  C   UNL     1      -6.808  19.268  65.761  1.00  0.00    -0.306 C  
BRANCH  39  40
HETATM   40  C   UNL     1      -7.662  20.122  66.700  1.00  0.00    -0.295 C  
HETATM   41  N   UNL     1      -9.079  20.050  66.357  1.00  0.00    -0.478 NA 
HETATM   42  H2  UNL     1      -9.406  19.085  66.331  1.00  0.00     0.000 HD 
HETATM   43  H1  UNL     1      -9.648  20.620  66.984  1.00  0.00     0.000 HD 
ENDBRANCH  39  40
ENDBRANCH  38  39
ENDBRANCH  37  38
ENDBRANCH  36  37
ENDBRANCH  33  36
ENDBRANCH  31  32
ENDBRANCH  30  31
ENDBRANCH  28  30
ENDBRANCH  25  26
ENDBRANCH  24  25
ENDBRANCH  23  24
ENDBRANCH  22  23
ENDBRANCH  21  22
ENDBRANCH  19  21
ENDBRANCH  16  17
ENDBRANCH  15  16
ENDBRANCH  12  15
ENDBRANCH  10  11
ENDBRANCH   9  10
ENDBRANCH   8   9
ENDBRANCH   7   8
ENDBRANCH   6   7
ENDBRANCH   3   6
TORSDOF 23
ENDMDL
MODEL        7
REMARK 921   NORMALIZED FREE ENERGY PREDICTED BY IDOCK:   -5.54 KCAL/MOL
REMARK 922        TOTAL FREE ENERGY PREDICTED BY IDOCK:  -15.75 KCAL/MOL
REMARK 923 INTER-LIGAND FREE ENERGY PREDICTED BY IDOCK:  -12.77 KCAL/MOL
REMARK 924 INTRA-LIGAND FREE ENERGY PREDICTED BY IDOCK:   -2.98 KCAL/MOL
REMARK 927      BINDING AFFINITY PREDICTED BY RF-SCORE:    0.00 PKD
ROOT
HETATM    1  C   UNL     1     -12.703  10.045  71.642  1.00  0.00    -0.535 C  
HETATM    2  C   UNL     1     -11.825   8.831  71.795  1.00  0.00    -0.344 C  
HETATM    3  N   UNL     1     -12.430   7.609  71.659  1.00  0.00    -0.323 N  
HETATM    4  O   UNL     1     -10.629   8.958  72.062  1.00  0.00    -0.341 OA 
HETATM    5  O   UNL     1     -13.748   7.425  71.209  1.00  0.00    -0.359 OA 
ENDROOT
BRANCH   3   6
HETATM    6  C   UNL     1     -11.721   6.343  71.794  1.00  0.00    -0.324 C  
BRANCH   6   7
HETATM    7  C   UNL     1     -10.552   6.223  70.814  1.00  0.00    -0.297 C  
BRANCH   7   8
HETATM    8  C   UNL     1     -11.020   6.507  69.386  1.00  0.00    -0.395 C  
BRANCH   8   9
HETATM    9  C   UNL     1     -10.069   7.448  68.645  1.00  0.00    -0.186 C  
BRANCH   9  10
HETATM   10  C   UNL     1     -10.652   7.935  67.317  1.00  0.00    -0.295 C  
BRANCH  10  11
HETATM   11  N   UNL     1     -10.026   9.164  66.853  1.00  0.00    -0.216 N  
HETATM   12  C   UNL     1      -8.945   9.136  66.002  1.00  0.00    -0.181 C  
HETATM   13  H   UNL     1     -10.396  10.062  67.164  1.00  0.00     0.000 HD 
HETATM   14  O   UNL     1      -8.459   8.104  65.546  1.00  0.00    -0.148 OA 
BRANCH  12  15
HETATM   15  C   UNL     1      -8.413  10.513  65.665  1.00  0.00    -0.179 C  
BRANCH  15  16
HETATM   16  C   UNL     1      -7.289  10.901  66.622  1.00  0.00    -0.139 C  
BRANCH  16  17
HETATM   17  C   UNL     1      -7.711  11.978  67.603  1.00  0.00    -0.144 C  
HETATM   18  O   UNL     1      -8.759  11.885  68.238  1.00  0.00    -0.163 OA 
HETATM   19  N   UNL     1      -6.875  13.060  67.708  1.00  0.00    -0.127 N  
HETATM   20  O   UNL     1      -5.622  13.166  67.080  1.00  0.00    -0.342 OA 
BRANCH  19  21
HETATM   21  C   UNL     1      -7.158  14.218  68.543  1.00  0.00    -0.105 C  
BRANCH  21  22
HETATM   22  C   UNL     1      -6.773  15.536  67.865  1.00  0.00    -0.172 C  
BRANCH  22  23
HETATM   23  C   UNL     1      -7.728  15.923  66.720  1.00  0.00    -0.245 C  
BRANCH  23  24
HETATM   24  C   UNL     1      -8.337  17.316  66.886  1.00  0.00    -0.253 C  
BRANCH  24  25
HETATM   25  C   UNL     1      -9.685  17.427  66.177  1.00  0.00    -0.217 C  
BRANCH  25  26
HETATM   26  N   UNL     1     -10.333  16.137  66.054  1.00  0.00    -0.341 N  
HETATM   27  H   UNL     1     -10.138  15.417  66.749  1.00  0.00     0.000 HD 
HETATM   28  C   UNL     1     -11.202  15.856  65.026  1.00  0.00    -0.290 C  
HETATM   29  O   UNL     1     -11.509  16.668  64.158  1.00  0.00    -1.131 OA 
BRANCH  28  30
HETATM   30  C   UNL     1     -11.755  14.454  65.037  1.00  0.00    -0.389 C  
BRANCH  30  31
HETATM   31  C   UNL     1     -10.840  13.552  65.850  1.00  0.00    -0.279 C  
BRANCH  31  32
HETATM   32  C   UNL     1     -11.565  12.992  67.055  1.00  0.00    -0.360 C  
HETATM   33  N   UNL     1     -11.642  13.764  68.189  1.00  0.00    -0.314 N  
HETATM   34  O   UNL     1     -12.134  11.902  66.966  1.00  0.00    -0.600 OA 
HETATM   35  O   UNL     1     -10.672  14.759  68.421  1.00  0.00    -0.233 OA 
BRANCH  33  36
HETATM   36  C   UNL     1     -12.257  13.284  69.428  1.00  0.00    -0.158 C  
BRANCH  36  37
HETATM   37  C   UNL     1     -12.041  14.252  70.593  1.00  0.00    -0.417 C  
BRANCH  37  38
HETATM   38  C   UNL     1     -12.975  13.954  71.771  1.00  0.00    -0.442 C  
BRANCH  38  39
HETATM   39  C   UNL     1     -13.792  15.187  72.169  1.00  0.00    -0.607 C  
BRANCH  39  40
HETATM   40  C   UNL     1     -13.190  15.930  73.363  1.00  0.00    -0.562 C  
HETATM   41  N   UNL     1     -12.236  15.101  74.092  1.00  0.00    -0.613 NA 
HETATM   42  H2  UNL     1     -11.509  14.740  73.474  1.00  0.00     0.000 HD 
HETATM   43  H1  UNL     1     -11.835  15.597  74.888  1.00  0.00     0.000 HD 
ENDBRANCH  39  40
ENDBRANCH  38  39
ENDBRANCH  37  38
ENDBRANCH  36  37
ENDBRANCH  33  36
ENDBRANCH  31  32
ENDBRANCH  30  31
ENDBRANCH  28  30
ENDBRANCH  25  26
ENDBRANCH  24  25
ENDBRANCH  23  24
ENDBRANCH  22  23
ENDBRANCH  21  22
ENDBRANCH  19  21
ENDBRANCH  16  17
ENDBRANCH  15  16
ENDBRANCH  12  15
ENDBRANCH  10  11
ENDBRANCH   9  10
ENDBRANCH   8   9
ENDBRANCH   7   8
ENDBRANCH   6   7
ENDBRANCH   3   6
TORSDOF 23
ENDMDL
MODEL        8
REMARK 921   NORMALIZED FREE ENERGY PREDICTED BY IDOCK:   -5.54 KCAL/MOL
REMARK 922        TOTAL FREE ENERGY PREDICTED BY IDOCK:  -15.75 KCAL/MOL
REMARK 923 INTER-LIGAND FREE ENERGY PREDICTED BY IDOCK:  -11.84 KCAL/MOL
REMARK 924 INTRA-LIGAND FREE ENERGY PREDICTED BY IDOCK:   -3.91 KCAL/MOL
REMARK 927      BINDING AFFINITY PREDICTED BY RF-SCORE:    0.00 PKD
ROOT
HETATM    1  C   UNL     1     -12.366   6.933  71.615  1.00  0.00    -0.413 C  
HETATM    2  C   UNL     1     -11.923   8.309  71.192  1.00  0.00    -0.265 C  
HETATM    3  N   UNL     1     -11.053   8.381  70.135  1.00  0.00    -0.223 N  
HETATM    4  O   UNL     1     -12.313   9.303  71.804  1.00  0.00    -0.332 OA 
HETATM    5  O   UNL     1     -10.707   7.289  69.321  1.00  0.00    -0.222 OA 
ENDROOT
BRANCH   3   6
HETATM    6  C   UNL     1     -10.522   9.634  69.617  1.00  0.00    -0.229 C  
BRANCH   6   7
HETATM    7  C   UNL     1      -9.045   9.829  69.965  1.00  0.00    -0.258 C  
BRANCH   7   8
HETATM    8  C   UNL     1      -8.255  10.253  68.725  1.00  0.00    -0.119 C  
BRANCH   8   9
HETATM    9  C   UNL     1      -8.612  11.670  68.272  1.00  0.00    -0.162 C  
BRANCH   9  10
HETATM   10  C   UNL     1      -7.506  12.676  68.592  1.00  0.00    -0.094 C  
BRANCH  10  11
HETATM   11  N   UNL     1      -7.440  13.758  67.620  1.00  0.00    -0.165 N  
HETATM   12  C   UNL     1      -7.445  15.075  68.019  1.00  0.00    -0.123 C  
HETATM   13  H   UNL     1      -7.390  13.535  66.627  1.00  0.00     0.000 HD 
HETATM   14  O   UNL     1      -7.463  15.435  69.193  1.00  0.00    -0.155 OA 
BRANCH  12  15
HETATM   15  C   UNL     1      -7.410  16.050  66.862  1.00  0.00    -0.236 C  
BRANCH  15  16
HETATM   16  C   UNL     1      -6.323  17.100  67.080  1.00  0.00    -0.220 C  
BRANCH  16  17
HETATM   17  C   UNL     1      -6.868  18.377  67.689  1.00  0.00    -0.207 C  
HETATM   18  O   UNL     1      -6.881  18.546  68.907  1.00  0.00    -0.264 OA 
HETATM   19  N   UNL     1      -7.367  19.302  66.808  1.00  0.00    -0.213 N  
HETATM   20  O   UNL     1      -7.285  19.199  65.409  1.00  0.00    -0.466 OA 
BRANCH  19  21
HETATM   21  C   UNL     1      -7.995  20.550  67.219  1.00  0.00    -0.314 C  
BRANCH  21  22
HETATM   22  C   UNL     1      -9.500  20.567  66.939  1.00  0.00    -0.475 C  
BRANCH  22  23
HETATM   23  C   UNL     1     -10.330  19.949  68.079  1.00  0.00    -0.547 C  
BRANCH  23  24
HETATM   24  C   UNL     1     -10.879  18.561  67.744  1.00  0.00    -0.289 C  
BRANCH  24  25
HETATM   25  C   UNL     1     -10.356  17.502  68.713  1.00  0.00    -0.358 C  
BRANCH  25  26
HETATM   26  N   UNL     1     -10.640  16.161  68.243  1.00  0.00    -0.275 N  
HETATM   27  H   UNL     1     -10.286  15.870  67.332  1.00  0.00     0.000 HD 
HETATM   28  C   UNL     1     -11.372  15.270  68.992  1.00  0.00    -0.300 C  
HETATM   29  O   UNL     1     -11.819  15.527  70.105  1.00  0.00    -0.305 OA 
BRANCH  28  30
HETATM   30  C   UNL     1     -11.598  13.933  68.332  1.00  0.00    -0.368 C  
BRANCH  30  31
HETATM   31  C   UNL     1     -12.263  14.138  66.980  1.00  0.00    -0.374 C  
BRANCH  31  32
HETATM   32  C   UNL     1     -11.331  13.742  65.854  1.00  0.00    -0.307 C  
HETATM   33  N   UNL     1     -11.878  13.244  64.697  1.00  0.00    -0.360 N  
HETATM   34  O   UNL     1     -10.121  13.951  65.969  1.00  0.00    -0.295 OA 
HETATM   35  O   UNL     1     -13.145  12.631  64.733  1.00  0.00    -0.852 OA 
BRANCH  33  36
HETATM   36  C   UNL     1     -11.059  12.767  63.581  1.00  0.00    -0.393 C  
BRANCH  36  37
HETATM   37  C   UNL     1     -11.056  11.240  63.479  1.00  0.00    -0.261 C  
BRANCH  37  38
HETATM   38  C   UNL     1      -9.820  10.619  64.138  1.00  0.00    -0.396 C  
BRANCH  38  39
HETATM   39  C   UNL     1     -10.144  10.043  65.519  1.00  0.00    -0.325 C  
BRANCH  39  40
HETATM   40  C   UNL     1      -9.406   8.733  65.799  1.00  0.00    -0.191 C  
HETATM   41  N   UNL     1     -10.283   7.738  66.407  1.00  0.00    -0.487 NA 
HETATM   42  H2  UNL     1     -11.117   7.581  65.841  1.00  0.00     0.000 HD 
HETATM   43  H1  UNL     1      -9.791   6.864  66.593  1.00  0.00     0.000 HD 
ENDBRANCH  39  40
ENDBRANCH  38  39
ENDBRANCH  37  38
ENDBRANCH  36  37
ENDBRANCH  33  36
ENDBRANCH  31  32
ENDBRANCH  30  31
ENDBRANCH  28  30
ENDBRANCH  25  26
ENDBRANCH  24  25
ENDBRANCH  23  24
ENDBRANCH  22  23
ENDBRANCH  21  22
ENDBRANCH  19  21
ENDBRANCH  16  17
ENDBRANCH  15  16
ENDBRANCH  12  15
ENDBRANCH  10  11
ENDBRANCH   9  10
ENDBRANCH   8   9
ENDBRANCH   7   8
ENDBRANCH   6   7
ENDBRANCH   3   6
TORSDOF 23
ENDMDL
MODEL        9
REMARK 921   NORMALIZED FREE ENERGY PREDICTED BY IDOCK:   -5.53 KCAL/MOL
REMARK 922        TOTAL FREE ENERGY PREDICTED BY IDOCK:  -15.72 KCAL/MOL
REMARK 923 INTER-LIGAND FREE ENERGY PREDICTED BY IDOCK:  -13.10 KCAL/MOL
REMARK 924 INTRA-LIGAND FREE ENERGY PREDICTED BY IDOCK:   -2.62 KCAL/MOL
REMARK 927      BINDING AFFINITY PREDICTED BY RF-SCORE:    0.00 PKD
ROOT
HETATM    1  C   UNL     1     -13.255  14.637  72.696  1.00  0.00    -0.556 C  
HETATM    2  C   UNL     1     -12.358  15.577  71.934  1.00  0.00    -0.395 C  
HETATM    3  N   UNL     1     -12.067  15.241  70.638  1.00  0.00    -0.323 N  
HETATM    4  O   UNL     1     -11.895  16.577  72.484  1.00  0.00    -0.534 OA 
HETATM    5  O   UNL     1     -12.692  14.198  69.933  1.00  0.00    -0.255 OA 
ENDROOT
BRANCH   3   6
HETATM    6  C   UNL     1     -11.204  16.037  69.776  1.00  0.00    -0.344 C  
BRANCH   6   7
HETATM    7  C   UNL     1     -11.104  15.465  68.361  1.00  0.00    -0.301 C  
BRANCH   7   8
HETATM    8  C   UNL     1     -10.494  16.496  67.410  1.00  0.00    -0.310 C  
BRANCH   8   9
HETATM    9  C   UNL     1     -10.040  15.866  66.092  1.00  0.00    -0.334 C  
BRANCH   9  10
HETATM   10  C   UNL     1     -11.154  15.848  65.044  1.00  0.00    -0.360 C  
BRANCH  10  11
HETATM   11  N   UNL     1     -11.142  14.634  64.241  1.00  0.00    -0.605 N  
HETATM   12  C   UNL     1     -12.140  13.693  64.357  1.00  0.00    -0.427 C  
HETATM   13  H   UNL     1     -10.381  14.479  63.580  1.00  0.00     0.000 HD 
HETATM   14  O   UNL     1     -13.114  13.815  65.095  1.00  0.00    -0.762 OA 
BRANCH  12  15
HETATM   15  C   UNL     1     -11.929  12.487  63.467  1.00  0.00    -0.629 C  
BRANCH  15  16
HETATM   16  C   UNL     1     -11.155  11.402  64.212  1.00  0.00    -0.356 C  
BRANCH  16  17
HETATM   17  C   UNL     1      -9.804  11.121  63.583  1.00  0.00    -0.345 C  
HETATM   18  O   UNL     1      -9.428  11.732  62.585  1.00  0.00    -0.283 OA 
HETATM   19  N   UNL     1      -9.057  10.134  64.173  1.00  0.00    -0.229 N  
HETATM   20  O   UNL     1      -9.399   9.478  65.369  1.00  0.00    -0.229 OA 
BRANCH  19  21
HETATM   21  C   UNL     1      -7.771   9.682  63.661  1.00  0.00    -0.129 C  
BRANCH  21  22
HETATM   22  C   UNL     1      -7.683   8.157  63.565  1.00  0.00    -0.143 C  
BRANCH  22  23
HETATM   23  C   UNL     1      -6.507   7.572  64.370  1.00  0.00    -0.048 C  
BRANCH  23  24
HETATM   24  C   UNL     1      -6.939   6.523  65.396  1.00  0.00    -0.052 C  
BRANCH  24  25
HETATM   25  C   UNL     1      -8.372   6.055  65.151  1.00  0.00    -0.140 C  
BRANCH  25  26
HETATM   26  N   UNL     1      -9.302   6.673  66.074  1.00  0.00    -0.368 N  
HETATM   27  H   UNL     1      -9.233   7.676  66.251  1.00  0.00     0.000 HD 
HETATM   28  C   UNL     1     -10.275   5.947  66.719  1.00  0.00    -0.219 C  
HETATM   29  O   UNL     1     -10.445   4.743  66.552  1.00  0.00    -0.268 OA 
BRANCH  28  30
HETATM   30  C   UNL     1     -11.130   6.747  67.668  1.00  0.00    -0.309 C  
BRANCH  30  31
HETATM   31  C   UNL     1     -11.030   6.156  69.066  1.00  0.00    -0.436 C  
BRANCH  31  32
HETATM   32  C   UNL     1     -10.880   7.247  70.105  1.00  0.00    -0.256 C  
HETATM   33  N   UNL     1     -11.725   7.239  71.188  1.00  0.00    -0.290 N  
HETATM   34  O   UNL     1      -9.960   8.061  69.998  1.00  0.00    -0.187 OA 
HETATM   35  O   UNL     1     -12.981   6.610  71.087  1.00  0.00    -0.193 OA 
BRANCH  33  36
HETATM   36  C   UNL     1     -11.707   8.290  72.207  1.00  0.00    -0.388 C  
BRANCH  36  37
HETATM   37  C   UNL     1     -13.068   8.975  72.354  1.00  0.00    -0.487 C  
BRANCH  37  38
HETATM   38  C   UNL     1     -13.259  10.103  71.336  1.00  0.00    -0.474 C  
BRANCH  38  39
HETATM   39  C   UNL     1     -11.929  10.769  70.972  1.00  0.00    -0.409 C  
BRANCH  39  40
HETATM   40  C   UNL     1     -11.759  10.960  69.464  1.00  0.00    -0.328 C  
HETATM   41  N   UNL     1     -10.721  11.939  69.157  1.00  0.00    -0.393 NA 
HETATM   42  H2  UNL     1      -9.837  11.695  69.603  1.00  0.00     0.000 HD 
HETATM   43  H1  UNL     1     -10.608  12.067  68.151  1.00  0.00     0.000 HD 
ENDBRANCH  39  40
ENDBRANCH  38  39
ENDBRANCH  37  38
ENDBRANCH  36  37
ENDBRANCH  33  36
ENDBRANCH  31  32
ENDBRANCH  30  31
ENDBRANCH  28  30
ENDBRANCH  25  26
ENDBRANCH  24  25
ENDBRANCH  23  24
ENDBRANCH  22  23
ENDBRANCH  21  22
ENDBRANCH  19  21
ENDBRANCH  16  17
ENDBRANCH  15  16
ENDBRANCH  12  15
ENDBRANCH  10  11
ENDBRANCH   9  10
ENDBRANCH   8   9
ENDBRANCH   7   8
ENDBRANCH   6   7
ENDBRANCH   3   6
TORSDOF 23
ENDMDL
MODEL       10
REMARK 921   NORMALIZED FREE ENERGY PREDICTED BY IDOCK:   -5.52 KCAL/MOL
REMARK 922        TOTAL FREE ENERGY PREDICTED BY IDOCK:  -15.70 KCAL/MOL
REMARK 923 INTER-LIGAND FREE ENERGY PREDICTED BY IDOCK:  -11.85 KCAL/MOL
REMARK 924 INTRA-LIGAND FREE ENERGY PREDICTED BY IDOCK:   -3.84 KCAL/MOL
REMARK 927      BINDING AFFINITY PREDICTED BY RF-SCORE:    0.00 PKD
ROOT
HETATM    1  C   UNL     1     -11.210   4.819  73.326  1.00  0.00    -0.421 C  
HETATM    2  C   UNL     1     -10.969   6.301  73.447  1.00  0.00    -0.147 C  
HETATM    3  N   UNL     1     -11.637   7.111  72.566  1.00  0.00    -0.257 N  
HETATM    4  O   UNL     1     -10.179   6.735  74.286  1.00  0.00    -0.357 OA 
HETATM    5  O   UNL     1     -12.654   6.669  71.703  1.00  0.00    -0.347 OA 
ENDROOT
BRANCH   3   6
HETATM    6  C   UNL     1     -11.499   8.561  72.546  1.00  0.00    -0.298 C  
BRANCH   6   7
HETATM    7  C   UNL     1     -10.911   9.072  71.229  1.00  0.00    -0.384 C  
BRANCH   7   8
HETATM    8  C   UNL     1     -11.697  10.286  70.730  1.00  0.00    -0.453 C  
BRANCH   8   9
HETATM    9  C   UNL     1     -12.757  10.739  71.735  1.00  0.00    -0.464 C  
BRANCH   9  10
HETATM   10  C   UNL     1     -12.961  12.254  71.720  1.00  0.00    -0.325 C  
BRANCH  10  11
HETATM   11  N   UNL     1     -12.043  12.930  70.815  1.00  0.00    -0.492 N  
HETATM   12  C   UNL     1     -12.255  14.234  70.428  1.00  0.00    -0.342 C  
HETATM   13  H   UNL     1     -11.229  12.428  70.462  1.00  0.00     0.000 HD 
HETATM   14  O   UNL     1     -13.184  14.926  70.833  1.00  0.00    -0.375 OA 
BRANCH  12  15
HETATM   15  C   UNL     1     -11.213  14.745  69.456  1.00  0.00    -0.305 C  
BRANCH  15  16
HETATM   16  C   UNL     1     -10.689  13.605  68.586  1.00  0.00    -0.272 C  
BRANCH  16  17
HETATM   17  C   UNL     1     -11.701  13.158  67.548  1.00  0.00    -0.366 C  
HETATM   18  O   UNL     1     -12.282  12.080  67.649  1.00  0.00    -0.484 OA 
HETATM   19  N   UNL     1     -11.897  14.008  66.490  1.00  0.00    -0.397 N  
HETATM   20  O   UNL     1     -11.333  15.292  66.380  1.00  0.00    -0.284 OA 
BRANCH  19  21
HETATM   21  C   UNL     1     -12.772  13.708  65.367  1.00  0.00    -0.453 C  
BRANCH  21  22
HETATM   22  C   UNL     1     -12.001  13.514  64.059  1.00  0.00    -0.501 C  
BRANCH  22  23
HETATM   23  C   UNL     1     -12.085  12.073  63.520  1.00  0.00    -0.628 C  
BRANCH  23  24
HETATM   24  C   UNL     1     -10.720  11.395  63.392  1.00  0.00    -0.405 C  
BRANCH  24  25
HETATM   25  C   UNL     1      -9.884  11.574  64.657  1.00  0.00    -0.246 C  
BRANCH  25  26
HETATM   26  N   UNL     1     -10.362  10.736  65.738  1.00  0.00    -0.248 N  
HETATM   27  H   UNL     1     -11.086  11.096  66.360  1.00  0.00     0.000 HD 
HETATM   28  C   UNL     1      -9.868   9.470  65.947  1.00  0.00    -0.290 C  
HETATM   29  O   UNL     1      -9.013   8.950  65.237  1.00  0.00    -0.200 OA 
BRANCH  28  30
HETATM   30  C   UNL     1     -10.457   8.756  67.137  1.00  0.00    -0.354 C  
BRANCH  30  31
HETATM   31  C   UNL     1     -10.202   7.262  67.012  1.00  0.00    -0.348 C  
BRANCH  31  32
HETATM   32  C   UNL     1     -10.244   6.591  68.369  1.00  0.00    -0.172 C  
HETATM   33  N   UNL     1      -9.064   6.416  69.048  1.00  0.00    -0.131 N  
HETATM   34  O   UNL     1     -11.335   6.296  68.863  1.00  0.00    -0.373 OA 
HETATM   35  O   UNL     1      -7.852   6.355  68.335  1.00  0.00    -0.102 OA 
BRANCH  33  36
HETATM   36  C   UNL     1      -8.992   5.714  70.332  1.00  0.00    -0.140 C  
BRANCH  36  37
HETATM   37  C   UNL     1      -7.728   6.072  71.116  1.00  0.00    -0.109 C  
BRANCH  37  38
HETATM   38  C   UNL     1      -7.861   7.414  71.844  1.00  0.00    -0.091 C  
BRANCH  38  39
HETATM   39  C   UNL     1      -6.878   8.454  71.299  1.00  0.00    -0.065 C  
BRANCH  39  40
HETATM   40  C   UNL     1      -7.560   9.505  70.421  1.00  0.00    -0.159 C  
HETATM   41  N   UNL     1      -7.210   9.344  69.013  1.00  0.00    -0.070 NA 
HETATM   42  H2  UNL     1      -7.410   8.399  68.686  1.00  0.00     0.000 HD 
HETATM   43  H1  UNL     1      -7.665  10.045  68.428  1.00  0.00     0.000 HD 
ENDBRANCH  39  40
ENDBRANCH  38  39
ENDBRANCH  37  38
ENDBRANCH  36  37
ENDBRANCH  33  36
ENDBRANCH  31  32
ENDBRANCH  30  31
ENDBRANCH  28  30
ENDBRANCH  25  26
ENDBRANCH  24  25
ENDBRANCH  23  24
ENDBRANCH  22  23
ENDBRANCH  21  22
ENDBRANCH  19  21
ENDBRANCH  16  17
ENDBRANCH  15  16
ENDBRANCH  12  15
ENDBRANCH  10  11
ENDBRANCH   9  10
ENDBRANCH   8   9
ENDBRANCH   7   8
ENDBRANCH   6   7
ENDBRANCH   3   6
TORSDOF 23
ENDMDL
MODEL       11
REMARK 921   NORMALIZED FREE ENERGY PREDICTED BY IDOCK:   -5.50 KCAL/MOL
REMARK 922        TOTAL FREE ENERGY PREDICTED BY IDOCK:  -15.65 KCAL/MOL
REMARK 923 INTER-LIGAND FREE ENERGY PREDICTED BY IDOCK:  -12.06 KCAL/MOL
REMARK 924 INTRA-LIGAND FREE ENERGY PREDICTED BY IDOCK:   -3.59 KCAL/MOL
REMARK 927      BINDING AFFINITY PREDICTED BY RF-SCORE:    0.00 PKD
ROOT
HETATM    1  C   UNL     1     -13.990   8.657  72.137  1.00  0.00    -0.496 C  
HETATM    2  C   UNL     1     -12.743   7.927  71.713  1.00  0.00    -0.329 C  
HETATM    3  N   UNL     1     -11.814   8.647  71.010  1.00  0.00    -0.284 N  
HETATM    4  O   UNL     1     -12.606   6.730  71.971  1.00  0.00    -0.308 OA 
HETATM    5  O   UNL     1     -11.864  10.039  70.829  1.00  0.00    -0.297 OA 
ENDROOT
BRANCH   3   6
HETATM    6  C   UNL     1     -10.566   8.080  70.517  1.00  0.00    -0.220 C  
BRANCH   6   7
HETATM    7  C   UNL     1      -9.339   8.688  71.199  1.00  0.00    -0.274 C  
BRANCH   7   8
HETATM    8  C   UNL     1      -8.282   9.068  70.160  1.00  0.00    -0.140 C  
BRANCH   8   9
HETATM    9  C   UNL     1      -8.530  10.456  69.567  1.00  0.00    -0.115 C  
BRANCH   9  10
HETATM   10  C   UNL     1      -7.311  10.993  68.817  1.00  0.00    -0.111 C  
BRANCH  10  11
HETATM   11  N   UNL     1      -6.985  12.360  69.192  1.00  0.00    -0.244 N  
HETATM   12  C   UNL     1      -6.013  13.070  68.522  1.00  0.00    -0.075 C  
HETATM   13  H   UNL     1      -7.485  12.800  69.964  1.00  0.00     0.000 HD 
HETATM   14  O   UNL     1      -5.390  12.635  67.558  1.00  0.00    -0.114 OA 
BRANCH  12  15
HETATM   15  C   UNL     1      -5.794  14.458  69.085  1.00  0.00    -0.093 C  
BRANCH  15  16
HETATM   16  C   UNL     1      -7.126  15.188  69.242  1.00  0.00    -0.172 C  
BRANCH  16  17
HETATM   17  C   UNL     1      -7.206  16.436  68.385  1.00  0.00    -0.158 C  
HETATM   18  O   UNL     1      -7.720  16.410  67.268  1.00  0.00    -0.139 OA 
HETATM   19  N   UNL     1      -6.648  17.571  68.916  1.00  0.00    -0.216 N  
HETATM   20  O   UNL     1      -6.140  17.676  70.223  1.00  0.00    -0.142 OA 
BRANCH  19  21
HETATM   21  C   UNL     1      -6.569  18.838  68.205  1.00  0.00    -0.225 C  
BRANCH  21  22
HETATM   22  C   UNL     1      -7.784  19.733  68.468  1.00  0.00    -0.324 C  
BRANCH  22  23
HETATM   23  C   UNL     1      -8.672  19.920  67.223  1.00  0.00    -0.399 C  
BRANCH  23  24
HETATM   24  C   UNL     1     -10.123  19.493  67.446  1.00  0.00    -0.525 C  
BRANCH  24  25
HETATM   25  C   UNL     1     -10.238  18.461  68.566  1.00  0.00    -0.364 C  
BRANCH  25  26
HETATM   26  N   UNL     1     -10.723  17.187  68.073  1.00  0.00    -0.383 N  
HETATM   27  H   UNL     1     -10.781  17.036  67.066  1.00  0.00     0.000 HD 
HETATM   28  C   UNL     1     -11.107  16.178  68.924  1.00  0.00    -0.347 C  
HETATM   29  O   UNL     1     -11.052  16.266  70.147  1.00  0.00    -0.347 OA 
BRANCH  28  30
HETATM   30  C   UNL     1     -11.616  14.937  68.237  1.00  0.00    -0.356 C  
BRANCH  30  31
HETATM   31  C   UNL     1     -10.845  13.726  68.736  1.00  0.00    -0.281 C  
BRANCH  31  32
HETATM   32  C   UNL     1     -10.209  12.977  67.583  1.00  0.00    -0.216 C  
HETATM   33  N   UNL     1     -10.899  11.929  67.024  1.00  0.00    -0.246 N  
HETATM   34  O   UNL     1      -9.135  13.373  67.124  1.00  0.00    -0.217 OA 
HETATM   35  O   UNL     1     -11.861  11.242  67.788  1.00  0.00    -0.610 OA 
BRANCH  33  36
HETATM   36  C   UNL     1     -10.338  11.099  65.956  1.00  0.00    -0.254 C  
BRANCH  36  37
HETATM   37  C   UNL     1     -10.808  11.547  64.571  1.00  0.00    -0.390 C  
BRANCH  37  38
HETATM   38  C   UNL     1     -12.084  12.392  64.640  1.00  0.00    -0.487 C  
BRANCH  38  39
HETATM   39  C   UNL     1     -11.953  13.682  63.824  1.00  0.00    -0.425 C  
BRANCH  39  40
HETATM   40  C   UNL     1     -11.816  14.924  64.705  1.00  0.00    -0.407 C  
HETATM   41  N   UNL     1     -12.028  16.152  63.945  1.00  0.00    -1.332 NA 
HETATM   42  H2  UNL     1     -12.924  16.138  63.458  1.00  0.00     0.000 HD 
HETATM   43  H1  UNL     1     -11.937  16.981  64.533  1.00  0.00     0.000 HD 
ENDBRANCH  39  40
ENDBRANCH  38  39
ENDBRANCH  37  38
ENDBRANCH  36  37
ENDBRANCH  33  36
ENDBRANCH  31  32
ENDBRANCH  30  31
ENDBRANCH  28  30
ENDBRANCH  25  26
ENDBRANCH  24  25
ENDBRANCH  23  24
ENDBRANCH  22  23
ENDBRANCH  21  22
ENDBRANCH  19  21
ENDBRANCH  16  17
ENDBRANCH  15  16
ENDBRANCH  12  15
ENDBRANCH  10  11
ENDBRANCH   9  10
ENDBRANCH   8   9
ENDBRANCH   7   8
ENDBRANCH   6   7
ENDBRANCH   3   6
TORSDOF 23
ENDMDL
MODEL       12
REMARK 921   NORMALIZED FREE ENERGY PREDICTED BY IDOCK:   -5.50 KCAL/MOL
REMARK 922        TOTAL FREE ENERGY PREDICTED BY IDOCK:  -15.64 KCAL/MOL
REMARK 923 INTER-LIGAND FREE ENERGY PREDICTED BY IDOCK:  -12.47 KCAL/MOL
REMARK 924 INTRA-LIGAND FREE ENERGY PREDICTED BY IDOCK:   -3.17 KCAL/MOL
REMARK 927      BINDING AFFINITY PREDICTED BY RF-SCORE:    0.00 PKD
ROOT
HETATM    1  C   UNL     1     -12.844  15.152  73.817  1.00  0.00    -0.565 C  
HETATM    2  C   UNL     1     -13.134  14.656  72.425  1.00  0.00    -0.387 C  
HETATM    3  N   UNL     1     -12.593  15.370  71.388  1.00  0.00    -0.369 N  
HETATM    4  O   UNL     1     -13.854  13.671  72.253  1.00  0.00    -0.515 OA 
HETATM    5  O   UNL     1     -11.650  16.400  71.546  1.00  0.00    -0.437 OA 
ENDROOT
BRANCH   3   6
HETATM    6  C   UNL     1     -12.793  15.027  69.987  1.00  0.00    -0.082 C  
BRANCH   6   7
HETATM    7  C   UNL     1     -11.855  15.799  69.057  1.00  0.00    -0.367 C  
BRANCH   7   8
HETATM    8  C   UNL     1     -11.064  14.832  68.174  1.00  0.00    -0.288 C  
BRANCH   8   9
HETATM    9  C   UNL     1     -11.965  13.789  67.511  1.00  0.00    -0.411 C  
BRANCH   9  10
HETATM   10  C   UNL     1     -12.350  14.178  66.084  1.00  0.00    -0.436 C  
BRANCH  10  11
HETATM   11  N   UNL     1     -11.635  13.399  65.084  1.00  0.00    -0.301 N  
HETATM   12  C   UNL     1     -12.283  12.454  64.320  1.00  0.00    -0.452 C  
HETATM   13  H   UNL     1     -10.637  13.556  64.946  1.00  0.00     0.000 HD 
HETATM   14  O   UNL     1     -13.487  12.226  64.390  1.00  0.00    -0.686 OA 
BRANCH  12  15
HETATM   15  C   UNL     1     -11.362  11.724  63.366  1.00  0.00    -0.437 C  
BRANCH  15  16
HETATM   16  C   UNL     1      -9.916  11.810  63.847  1.00  0.00    -0.356 C  
BRANCH  16  17
HETATM   17  C   UNL     1      -9.432  10.509  64.459  1.00  0.00    -0.276 C  
HETATM   18  O   UNL     1      -9.062   9.573  63.753  1.00  0.00    -0.224 OA 
HETATM   19  N   UNL     1      -9.465  10.435  65.828  1.00  0.00    -0.185 N  
HETATM   20  O   UNL     1      -9.785  11.508  66.678  1.00  0.00    -0.193 OA 
BRANCH  19  21
HETATM   21  C   UNL     1      -9.108   9.241  66.579  1.00  0.00    -0.154 C  
BRANCH  21  22
HETATM   22  C   UNL     1     -10.307   8.317  66.812  1.00  0.00    -0.361 C  
BRANCH  22  23
HETATM   23  C   UNL     1     -10.009   6.847  66.458  1.00  0.00    -0.150 C  
BRANCH  23  24
HETATM   24  C   UNL     1      -8.566   6.614  66.009  1.00  0.00    -0.152 C  
BRANCH  24  25
HETATM   25  C   UNL     1      -7.807   5.732  66.999  1.00  0.00    -0.102 C  
BRANCH  25  26
HETATM   26  N   UNL     1      -8.303   5.895  68.350  1.00  0.00    -0.111 N  
HETATM   27  H   UNL     1      -8.830   6.736  68.587  1.00  0.00     0.000 HD 
HETATM   28  C   UNL     1      -8.084   4.948  69.323  1.00  0.00    -0.078 C  
HETATM   29  O   UNL     1      -7.479   3.899  69.123  1.00  0.00    -0.053 OA 
BRANCH  28  30
HETATM   30  C   UNL     1      -8.642   5.299  70.678  1.00  0.00    -0.126 C  
BRANCH  30  31
HETATM   31  C   UNL     1     -10.043   4.723  70.817  1.00  0.00    -0.286 C  
BRANCH  31  32
HETATM   32  C   UNL     1     -11.091   5.796  70.609  1.00  0.00    -0.202 C  
HETATM   33  N   UNL     1     -11.643   6.394  71.716  1.00  0.00    -0.304 N  
HETATM   34  O   UNL     1     -11.363   6.162  69.463  1.00  0.00    -0.418 OA 
HETATM   35  O   UNL     1     -11.654   5.709  72.945  1.00  0.00    -0.277 OA 
BRANCH  33  36
HETATM   36  C   UNL     1     -12.714   7.388  71.621  1.00  0.00    -0.365 C  
BRANCH  36  37
HETATM   37  C   UNL     1     -12.279   8.757  72.148  1.00  0.00    -0.448 C  
BRANCH  37  38
HETATM   38  C   UNL     1     -10.824   9.078  71.791  1.00  0.00    -0.437 C  
BRANCH  38  39
HETATM   39  C   UNL     1     -10.689   9.548  70.339  1.00  0.00    -0.341 C  
BRANCH  39  40
HETATM   40  C   UNL     1     -11.533  10.789  70.042  1.00  0.00    -0.331 C  
HETATM   41  N   UNL     1     -12.168  10.710  68.730  1.00  0.00    -0.808 NA 
HETATM   42  H2  UNL     1     -12.716   9.855  68.633  1.00  0.00     0.000 HD 
HETATM   43  H1  UNL     1     -12.730  11.537  68.532  1.00  0.00     0.000 HD 
ENDBRANCH  39  40
ENDBRANCH  38  39
ENDBRANCH  37  38
ENDBRANCH  36  37
ENDBRANCH  33  36
ENDBRANCH  31  32
ENDBRANCH  30  31
ENDBRANCH  28  30
ENDBRANCH  25  26
ENDBRANCH  24  25
ENDBRANCH  23  24
ENDBRANCH  22  23
ENDBRANCH  21  22
ENDBRANCH  19  21
ENDBRANCH  16  17
ENDBRANCH  15  16
ENDBRANCH  12  15
ENDBRANCH  10  11
ENDBRANCH   9  10
ENDBRANCH   8   9
ENDBRANCH   7   8
ENDBRANCH   6   7
ENDBRANCH   3   6
TORSDOF 23
ENDMDL
MODEL       13
REMARK 921   NORMALIZED FREE ENERGY PREDICTED BY IDOCK:   -5.49 KCAL/MOL
REMARK 922        TOTAL FREE ENERGY PREDICTED BY IDOCK:  -15.62 KCAL/MOL
REMARK 923 INTER-LIGAND FREE ENERGY PREDICTED BY IDOCK:  -11.60 KCAL/MOL
REMARK 924 INTRA-LIGAND FREE ENERGY PREDICTED BY IDOCK:   -4.02 KCAL/MOL
REMARK 927      BINDING AFFINITY PREDICTED BY RF-SCORE:    0.00 PKD
ROOT
HETATM    1  C   UNL     1     -10.182  10.738  64.627  1.00  0.00    -0.419 C  
HETATM    2  C   UNL     1     -10.872  12.076  64.687  1.00  0.00    -0.309 C  
HETATM    3  N   UNL     1     -11.713  12.291  65.747  1.00  0.00    -0.401 N  
HETATM    4  O   UNL     1     -10.694  12.907  63.796  1.00  0.00    -0.397 OA 
HETATM    5  O   UNL     1     -11.823  11.434  66.855  1.00  0.00    -0.489 OA 
ENDROOT
BRANCH   3   6
HETATM    6  C   UNL     1     -12.463  13.525  65.938  1.00  0.00    -0.429 C  
BRANCH   6   7
HETATM    7  C   UNL     1     -12.334  14.072  67.361  1.00  0.00    -0.150 C  
BRANCH   7   8
HETATM    8  C   UNL     1     -11.218  15.115  67.434  1.00  0.00    -0.323 C  
BRANCH   8   9
HETATM    9  C   UNL     1     -10.866  15.679  66.056  1.00  0.00    -0.276 C  
BRANCH   9  10
HETATM   10  C   UNL     1      -9.356  15.761  65.831  1.00  0.00    -0.321 C  
BRANCH  10  11
HETATM   11  N   UNL     1      -8.653  14.595  66.345  1.00  0.00    -0.429 N  
HETATM   12  C   UNL     1      -7.588  14.729  67.207  1.00  0.00    -0.165 C  
HETATM   13  H   UNL     1      -8.955  13.663  66.062  1.00  0.00     0.000 HD 
HETATM   14  O   UNL     1      -7.181  15.807  67.631  1.00  0.00    -0.135 OA 
BRANCH  12  15
HETATM   15  C   UNL     1      -6.967  13.405  67.599  1.00  0.00    -0.168 C  
BRANCH  15  16
HETATM   16  C   UNL     1      -7.948  12.261  67.353  1.00  0.00    -0.171 C  
BRANCH  16  17
HETATM   17  C   UNL     1      -7.245  10.943  67.091  1.00  0.00    -0.104 C  
HETATM   18  O   UNL     1      -6.780  10.680  65.984  1.00  0.00    -0.122 OA 
HETATM   19  N   UNL     1      -7.193  10.066  68.143  1.00  0.00    -0.081 N  
HETATM   20  O   UNL     1      -7.621  10.359  69.450  1.00  0.00    -0.113 OA 
BRANCH  19  21
HETATM   21  C   UNL     1      -6.624   8.730  68.050  1.00  0.00    -0.061 C  
BRANCH  21  22
HETATM   22  C   UNL     1      -7.686   7.632  68.163  1.00  0.00    -0.119 C  
BRANCH  22  23
HETATM   23  C   UNL     1      -8.471   7.420  66.855  1.00  0.00    -0.123 C  
BRANCH  23  24
HETATM   24  C   UNL     1      -9.927   7.880  66.942  1.00  0.00    -0.332 C  
BRANCH  24  25
HETATM   25  C   UNL     1     -10.868   6.713  67.233  1.00  0.00    -0.385 C  
BRANCH  25  26
HETATM   26  N   UNL     1     -11.376   6.760  68.589  1.00  0.00    -0.560 N  
HETATM   27  H   UNL     1     -12.113   7.426  68.820  1.00  0.00     0.000 HD 
HETATM   28  C   UNL     1     -10.892   5.931  69.574  1.00  0.00    -0.372 C  
HETATM   29  O   UNL     1     -10.022   5.087  69.383  1.00  0.00    -0.188 OA 
BRANCH  28  30
HETATM   30  C   UNL     1     -11.512   6.142  70.932  1.00  0.00    -0.317 C  
BRANCH  30  31
HETATM   31  C   UNL     1     -10.852   7.330  71.615  1.00  0.00    -0.246 C  
BRANCH  31  32
HETATM   32  C   UNL     1     -11.844   8.455  71.820  1.00  0.00    -0.316 C  
HETATM   33  N   UNL     1     -12.045   9.345  70.792  1.00  0.00    -0.247 N  
HETATM   34  O   UNL     1     -12.502   8.499  72.861  1.00  0.00    -0.276 OA 
HETATM   35  O   UNL     1     -11.033   9.541  69.833  1.00  0.00    -0.231 OA 
BRANCH  33  36
HETATM   36  C   UNL     1     -12.927  10.507  70.919  1.00  0.00    -0.367 C  
BRANCH  36  37
HETATM   37  C   UNL     1     -12.214  11.814  70.568  1.00  0.00    -0.438 C  
BRANCH  37  38
HETATM   38  C   UNL     1     -12.837  13.020  71.278  1.00  0.00    -0.370 C  
BRANCH  38  39
HETATM   39  C   UNL     1     -12.210  14.337  70.811  1.00  0.00    -0.423 C  
BRANCH  39  40
HETATM   40  C   UNL     1     -12.909  15.563  71.401  1.00  0.00    -0.465 C  
HETATM   41  N   UNL     1     -14.361  15.457  71.304  1.00  0.00    -0.763 NA 
HETATM   42  H2  UNL     1     -14.700  14.595  71.731  1.00  0.00     0.000 HD 
HETATM   43  H1  UNL     1     -14.827  16.275  71.698  1.00  0.00     0.000 HD 
ENDBRANCH  39  40
ENDBRANCH  38  39
ENDBRANCH  37  38
ENDBRANCH  36  37
ENDBRANCH  33  36
ENDBRANCH  31  32
ENDBRANCH  30  31
ENDBRANCH  28  30
ENDBRANCH  25  26
ENDBRANCH  24  25
ENDBRANCH  23  24
ENDBRANCH  22  23
ENDBRANCH  21  22
ENDBRANCH  19  21
ENDBRANCH  16  17
ENDBRANCH  15  16
ENDBRANCH  12  15
ENDBRANCH  10  11
ENDBRANCH   9  10
ENDBRANCH   8   9
ENDBRANCH   7   8
ENDBRANCH   6   7
ENDBRANCH   3   6
TORSDOF 23
ENDMDL
MODEL       14
REMARK 921   NORMALIZED FREE ENERGY PREDICTED BY IDOCK:   -5.47 KCAL/MOL
REMARK 922        TOTAL FREE ENERGY PREDICTED BY IDOCK:  -15.58 KCAL/MOL
REMARK 923 INTER-LIGAND FREE ENERGY PREDICTED BY IDOCK:  -11.89 KCAL/MOL
REMARK 924 INTRA-LIGAND FREE ENERGY PREDICTED BY IDOCK:   -3.69 KCAL/MOL
REMARK 927      BINDING AFFINITY PREDICTED BY RF-SCORE:    0.00 PKD
ROOT
HETATM    1  C   UNL     1     -10.279   4.811  65.871  1.00  0.00    -0.286 C  
HETATM    2  C   UNL     1     -10.637   5.602  67.102  1.00  0.00    -0.270 C  
HETATM    3  N   UNL     1     -10.095   5.181  68.287  1.00  0.00    -0.155 N  
HETATM    4  O   UNL     1     -11.410   6.558  67.022  1.00  0.00    -0.342 OA 
HETATM    5  O   UNL     1      -9.098   4.197  68.395  1.00  0.00    -0.114 OA 
ENDROOT
BRANCH   3   6
HETATM    6  C   UNL     1     -10.357   5.831  69.564  1.00  0.00    -0.263 C  
BRANCH   6   7
HETATM    7  C   UNL     1     -10.267   4.859  70.743  1.00  0.00    -0.276 C  
BRANCH   7   8
HETATM    8  C   UNL     1      -9.667   5.555  71.965  1.00  0.00    -0.192 C  
BRANCH   8   9
HETATM    9  C   UNL     1      -9.882   7.069  71.928  1.00  0.00    -0.173 C  
BRANCH   9  10
HETATM   10  C   UNL     1     -10.951   7.527  72.921  1.00  0.00    -0.383 C  
BRANCH  10  11
HETATM   11  N   UNL     1     -11.765   8.615  72.399  1.00  0.00    -0.357 N  
HETATM   12  C   UNL     1     -12.933   8.364  71.715  1.00  0.00    -0.344 C  
HETATM   13  H   UNL     1     -11.465   9.578  72.542  1.00  0.00     0.000 HD 
HETATM   14  O   UNL     1     -13.391   7.240  71.530  1.00  0.00    -0.379 OA 
BRANCH  12  15
HETATM   15  C   UNL     1     -13.616   9.621  71.219  1.00  0.00    -0.294 C  
BRANCH  15  16
HETATM   16  C   UNL     1     -13.089  10.845  71.964  1.00  0.00    -0.462 C  
BRANCH  16  17
HETATM   17  C   UNL     1     -12.855  12.027  71.043  1.00  0.00    -0.187 C  
HETATM   18  O   UNL     1     -12.299  11.885  69.956  1.00  0.00    -0.220 OA 
HETATM   19  N   UNL     1     -13.269  13.248  71.509  1.00  0.00    -0.335 N  
HETATM   20  O   UNL     1     -13.996  13.446  72.696  1.00  0.00    -0.755 OA 
BRANCH  19  21
HETATM   21  C   UNL     1     -13.059  14.497  70.793  1.00  0.00    -0.306 C  
BRANCH  21  22
HETATM   22  C   UNL     1     -11.640  15.043  70.973  1.00  0.00    -0.367 C  
BRANCH  22  23
HETATM   23  C   UNL     1     -11.032  15.581  69.664  1.00  0.00    -0.288 C  
BRANCH  23  24
HETATM   24  C   UNL     1     -10.801  14.494  68.613  1.00  0.00    -0.259 C  
BRANCH  24  25
HETATM   25  C   UNL     1     -11.684  14.704  67.385  1.00  0.00    -0.390 C  
BRANCH  25  26
HETATM   26  N   UNL     1     -11.548  13.617  66.436  1.00  0.00    -0.335 N  
HETATM   27  H   UNL     1     -10.729  13.011  66.491  1.00  0.00     0.000 HD 
HETATM   28  C   UNL     1     -12.491  13.380  65.465  1.00  0.00    -0.483 C  
HETATM   29  O   UNL     1     -13.515  14.045  65.337  1.00  0.00    -0.679 OA 
BRANCH  28  30
HETATM   30  C   UNL     1     -12.169  12.230  64.545  1.00  0.00    -0.469 C  
BRANCH  30  31
HETATM   31  C   UNL     1     -10.885  12.528  63.787  1.00  0.00    -0.489 C  
BRANCH  31  32
HETATM   32  C   UNL     1      -9.936  11.349  63.846  1.00  0.00    -0.315 C  
HETATM   33  N   UNL     1      -9.341  11.048  65.047  1.00  0.00    -0.219 N  
HETATM   34  O   UNL     1      -9.786  10.644  62.846  1.00  0.00    -0.317 OA 
HETATM   35  O   UNL     1      -9.181  12.057  66.017  1.00  0.00    -0.221 OA 
BRANCH  33  36
HETATM   36  C   UNL     1      -8.355   9.975  65.189  1.00  0.00    -0.153 C  
BRANCH  36  37
HETATM   37  C   UNL     1      -8.945   8.736  65.868  1.00  0.00    -0.240 C  
BRANCH  37  38
HETATM   38  C   UNL     1      -8.087   8.260  67.045  1.00  0.00    -0.104 C  
BRANCH  38  39
HETATM   39  C   UNL     1      -8.456   8.984  68.343  1.00  0.00    -0.129 C  
BRANCH  39  40
HETATM   40  C   UNL     1      -9.938   9.355  68.408  1.00  0.00    -0.170 C  
HETATM   41  N   UNL     1     -10.131  10.800  68.479  1.00  0.00    -0.168 NA 
HETATM   42  H2  UNL     1      -9.662  11.275  67.708  1.00  0.00     0.000 HD 
HETATM   43  H1  UNL     1     -11.120  11.048  68.523  1.00  0.00     0.000 HD 
ENDBRANCH  39  40
ENDBRANCH  38  39
ENDBRANCH  37  38
ENDBRANCH  36  37
ENDBRANCH  33  36
ENDBRANCH  31  32
ENDBRANCH  30  31
ENDBRANCH  28  30
ENDBRANCH  25  26
ENDBRANCH  24  25
ENDBRANCH  23  24
ENDBRANCH  22  23
ENDBRANCH  21  22
ENDBRANCH  19  21
ENDBRANCH  16  17
ENDBRANCH  15  16
ENDBRANCH  12  15
ENDBRANCH  10  11
ENDBRANCH   9  10
ENDBRANCH   8   9
ENDBRANCH   7   8
ENDBRANCH   6   7
ENDBRANCH   3   6
TORSDOF 23
ENDMDL
MODEL       15
REMARK 921   NORMALIZED FREE ENERGY PREDICTED BY IDOCK:   -5.46 KCAL/MOL
REMARK 922        TOTAL FREE ENERGY PREDICTED BY IDOCK:  -15.56 KCAL/MOL
REMARK 923 INTER-LIGAND FREE ENERGY PREDICTED BY IDOCK:  -13.16 KCAL/MOL
REMARK 924 INTRA-LIGAND FREE ENERGY PREDICTED BY IDOCK:   -2.40 KCAL/MOL
REMARK 927      BINDING AFFINITY PREDICTED BY RF-SCORE:    0.00 PKD
ROOT
HETATM    1  C   UNL     1     -10.161  11.760  63.207  1.00  0.00    -0.448 C  
HETATM    2  C   UNL     1     -10.555  11.239  64.564  1.00  0.00    -0.336 C  
HETATM    3  N   UNL     1      -9.818  10.198  65.065  1.00  0.00    -0.315 N  
HETATM    4  O   UNL     1     -11.518  11.722  65.160  1.00  0.00    -0.278 OA 
HETATM    5  O   UNL     1      -8.627   9.724  64.488  1.00  0.00    -0.156 OA 
ENDROOT
BRANCH   3   6
HETATM    6  C   UNL     1     -10.083   9.574  66.354  1.00  0.00    -0.258 C  
BRANCH   6   7
HETATM    7  C   UNL     1      -9.561   8.138  66.426  1.00  0.00    -0.286 C  
BRANCH   7   8
HETATM    8  C   UNL     1     -10.597   7.225  67.084  1.00  0.00    -0.416 C  
BRANCH   8   9
HETATM    9  C   UNL     1     -10.124   6.701  68.441  1.00  0.00    -0.163 C  
BRANCH   9  10
HETATM   10  C   UNL     1     -11.287   6.430  69.395  1.00  0.00    -0.377 C  
BRANCH  10  11
HETATM   11  N   UNL     1     -11.629   7.593  70.200  1.00  0.00    -0.483 N  
HETATM   12  C   UNL     1     -11.604   7.539  71.576  1.00  0.00    -0.272 C  
HETATM   13  H   UNL     1     -11.892   8.462  69.737  1.00  0.00     0.000 HD 
HETATM   14  O   UNL     1     -11.263   6.549  72.217  1.00  0.00    -0.249 OA 
BRANCH  12  15
HETATM   15  C   UNL     1     -12.028   8.836  72.231  1.00  0.00    -0.415 C  
BRANCH  15  16
HETATM   16  C   UNL     1     -13.090   9.539  71.388  1.00  0.00    -0.449 C  
BRANCH  16  17
HETATM   17  C   UNL     1     -12.829  11.027  71.254  1.00  0.00    -0.425 C  
HETATM   18  O   UNL     1     -13.258  11.826  72.084  1.00  0.00    -0.498 OA 
HETATM   19  N   UNL     1     -12.123  11.419  70.146  1.00  0.00    -0.344 N  
HETATM   20  O   UNL     1     -11.528  10.540  69.224  1.00  0.00    -0.253 OA 
BRANCH  19  21
HETATM   21  C   UNL     1     -11.845  12.810  69.818  1.00  0.00    -0.310 C  
BRANCH  21  22
HETATM   22  C   UNL     1     -11.611  13.022  68.320  1.00  0.00    -0.375 C  
BRANCH  22  23
HETATM   23  C   UNL     1     -10.120  13.155  67.958  1.00  0.00    -0.232 C  
BRANCH  23  24
HETATM   24  C   UNL     1      -9.418  14.298  68.693  1.00  0.00    -0.178 C  
BRANCH  24  25
HETATM   25  C   UNL     1      -7.899  14.165  68.616  1.00  0.00    -0.137 C  
BRANCH  25  26
HETATM   26  N   UNL     1      -7.318  15.167  67.744  1.00  0.00    -0.147 N  
HETATM   27  H   UNL     1      -7.339  15.017  66.735  1.00  0.00     0.000 HD 
HETATM   28  C   UNL     1      -6.741  16.312  68.238  1.00  0.00    -0.131 C  
HETATM   29  O   UNL     1      -6.689  16.584  69.433  1.00  0.00    -0.203 OA 
BRANCH  28  30
HETATM   30  C   UNL     1      -6.158  17.224  67.188  1.00  0.00    -0.184 C  
BRANCH  30  31
HETATM   31  C   UNL     1      -6.158  18.656  67.700  1.00  0.00    -0.187 C  
BRANCH  31  32
HETATM   32  C   UNL     1      -7.544  19.260  67.617  1.00  0.00    -0.244 C  
HETATM   33  N   UNL     1      -8.143  19.353  66.384  1.00  0.00    -0.305 N  
HETATM   34  O   UNL     1      -8.130  19.574  68.655  1.00  0.00    -0.352 OA 
HETATM   35  O   UNL     1      -7.347  19.400  65.224  1.00  0.00    -0.414 OA 
BRANCH  33  36
HETATM   36  C   UNL     1      -9.449  19.987  66.191  1.00  0.00    -0.350 C  
BRANCH  36  37
HETATM   37  C   UNL     1     -10.549  18.965  65.898  1.00  0.00    -0.438 C  
BRANCH  37  38
HETATM   38  C   UNL     1     -10.285  17.621  66.584  1.00  0.00    -0.341 C  
BRANCH  38  39
HETATM   39  C   UNL     1      -9.839  16.552  65.582  1.00  0.00    -0.187 C  
BRANCH  39  40
HETATM   40  C   UNL     1     -11.012  15.747  65.019  1.00  0.00    -0.417 C  
HETATM   41  N   UNL     1     -11.578  16.376  63.830  1.00  0.00    -1.602 NA 
HETATM   42  H2  UNL     1     -10.864  16.539  63.121  1.00  0.00     0.000 HD 
HETATM   43  H1  UNL     1     -12.361  15.840  63.455  1.00  0.00     0.000 HD 
ENDBRANCH  39  40
ENDBRANCH  38  39
ENDBRANCH  37  38
ENDBRANCH  36  37
ENDBRANCH  33  36
ENDBRANCH  31  32
ENDBRANCH  30  31
ENDBRANCH  28  30
ENDBRANCH  25  26
ENDBRANCH  24  25
ENDBRANCH  23  24
ENDBRANCH  22  23
ENDBRANCH  21  22
ENDBRANCH  19  21
ENDBRANCH  16  17
ENDBRANCH  15  16
ENDBRANCH  12  15
ENDBRANCH  10  11
ENDBRANCH   9  10
ENDBRANCH   8   9
ENDBRANCH   7   8
ENDBRANCH   6   7
ENDBRANCH   3   6
TORSDOF 23
ENDMDL
MODEL       16
REMARK 921   NORMALIZED FREE ENERGY PREDICTED BY IDOCK:   -5.46 KCAL/MOL
REMARK 922        TOTAL FREE ENERGY PREDICTED BY IDOCK:  -15.55 KCAL/MOL
REMARK 923 INTER-LIGAND FREE ENERGY PREDICTED BY IDOCK:  -12.54 KCAL/MOL
REMARK 924 INTRA-LIGAND FREE ENERGY PREDICTED BY IDOCK:   -3.00 KCAL/MOL
REMARK 927      BINDING AFFINITY PREDICTED BY RF-SCORE:    0.00 PKD
ROOT
HETATM    1  C   UNL     1     -11.584  11.373  68.262  1.00  0.00    -0.376 C  
HETATM    2  C   UNL     1     -11.818  11.145  69.733  1.00  0.00    -0.349 C  
HETATM    3  N   UNL     1     -11.411   9.941  70.245  1.00  0.00    -0.273 N  
HETATM    4  O   UNL     1     -12.380  12.005  70.412  1.00  0.00    -0.298 OA 
HETATM    5  O   UNL     1     -10.636   9.004  69.541  1.00  0.00    -0.223 OA 
ENDROOT
BRANCH   3   6
HETATM    6  C   UNL     1     -11.582   9.566  71.642  1.00  0.00    -0.381 C  
BRANCH   6   7
HETATM    7  C   UNL     1     -12.654   8.491  71.831  1.00  0.00    -0.400 C  
BRANCH   7   8
HETATM    8  C   UNL     1     -12.007   7.128  72.079  1.00  0.00    -0.332 C  
BRANCH   8   9
HETATM    9  C   UNL     1     -10.681   7.249  72.833  1.00  0.00    -0.365 C  
BRANCH   9  10
HETATM   10  C   UNL     1      -9.557   6.459  72.161  1.00  0.00    -0.149 C  
BRANCH  10  11
HETATM   11  N   UNL     1      -9.710   6.396  70.715  1.00  0.00    -0.179 N  
HETATM   12  C   UNL     1      -9.725   5.190  70.053  1.00  0.00    -0.205 C  
HETATM   13  H   UNL     1      -9.808   7.261  70.184  1.00  0.00     0.000 HD 
HETATM   14  O   UNL     1      -9.653   4.100  70.613  1.00  0.00    -0.163 OA 
BRANCH  12  15
HETATM   15  C   UNL     1      -9.854   5.335  68.551  1.00  0.00    -0.210 C  
BRANCH  15  16
HETATM   16  C   UNL     1      -8.553   5.863  67.952  1.00  0.00    -0.105 C  
BRANCH  16  17
HETATM   17  C   UNL     1      -8.781   6.645  66.673  1.00  0.00    -0.126 C  
HETATM   18  O   UNL     1      -9.251   6.106  65.673  1.00  0.00    -0.067 OA 
HETATM   19  N   UNL     1      -8.405   7.964  66.696  1.00  0.00    -0.121 N  
HETATM   20  O   UNL     1      -7.958   8.648  67.840  1.00  0.00    -0.105 OA 
BRANCH  19  21
HETATM   21  C   UNL     1      -8.484   8.844  65.540  1.00  0.00    -0.159 C  
BRANCH  21  22
HETATM   22  C   UNL     1      -9.774   9.668  65.519  1.00  0.00    -0.372 C  
BRANCH  22  23
HETATM   23  C   UNL     1      -9.563  11.101  64.994  1.00  0.00    -0.278 C  
BRANCH  23  24
HETATM   24  C   UNL     1     -10.159  11.331  63.605  1.00  0.00    -0.432 C  
BRANCH  24  25
HETATM   25  C   UNL     1     -11.340  12.298  63.654  1.00  0.00    -0.470 C  
BRANCH  25  26
HETATM   26  N   UNL     1     -10.919  13.640  64.003  1.00  0.00    -0.551 N  
HETATM   27  H   UNL     1     -10.007  13.971  63.686  1.00  0.00     0.000 HD 
HETATM   28  C   UNL     1     -11.712  14.478  64.749  1.00  0.00    -0.422 C  
HETATM   29  O   UNL     1     -12.829  14.171  65.155  1.00  0.00    -0.686 OA 
BRANCH  28  30
HETATM   30  C   UNL     1     -11.100  15.824  65.045  1.00  0.00    -0.380 C  
BRANCH  30  31
HETATM   31  C   UNL     1     -10.070  15.682  66.155  1.00  0.00    -0.333 C  
BRANCH  31  32
HETATM   32  C   UNL     1     -10.503  16.439  67.393  1.00  0.00    -0.309 C  
HETATM   33  N   UNL     1     -10.352  15.833  68.616  1.00  0.00    -0.219 N  
HETATM   34  O   UNL     1     -10.899  17.602  67.282  1.00  0.00    -0.275 OA 
HETATM   35  O   UNL     1     -10.316  14.428  68.698  1.00  0.00    -0.234 OA 
BRANCH  33  36
HETATM   36  C   UNL     1     -10.806  16.454  69.863  1.00  0.00    -0.333 C  
BRANCH  36  37
HETATM   37  C   UNL     1     -11.459  15.442  70.806  1.00  0.00    -0.385 C  
BRANCH  37  38
HETATM   38  C   UNL     1     -12.989  15.507  70.753  1.00  0.00    -0.490 C  
BRANCH  38  39
HETATM   39  C   UNL     1     -13.609  15.394  72.149  1.00  0.00    -0.600 C  
BRANCH  39  40
HETATM   40  C   UNL     1     -13.092  14.182  72.926  1.00  0.00    -0.444 C  
HETATM   41  N   UNL     1     -13.875  12.984  72.643  1.00  0.00    -0.742 NA 
HETATM   42  H2  UNL     1     -13.915  12.794  71.642  1.00  0.00     0.000 HD 
HETATM   43  H1  UNL     1     -13.530  12.176  73.161  1.00  0.00     0.000 HD 
ENDBRANCH  39  40
ENDBRANCH  38  39
ENDBRANCH  37  38
ENDBRANCH  36  37
ENDBRANCH  33  36
ENDBRANCH  31  32
ENDBRANCH  30  31
ENDBRANCH  28  30
ENDBRANCH  25  26
ENDBRANCH  24  25
ENDBRANCH  23  24
ENDBRANCH  22  23
ENDBRANCH  21  22
ENDBRANCH  19  21
ENDBRANCH  16  17
ENDBRANCH  15  16
ENDBRANCH  12  15
ENDBRANCH  10  11
ENDBRANCH   9  10
ENDBRANCH   8   9
ENDBRANCH   7   8
ENDBRANCH   6   7
ENDBRANCH   3   6
TORSDOF 23
ENDMDL
MODEL       17
REMARK 921   NORMALIZED FREE ENERGY PREDICTED BY IDOCK:   -5.45 KCAL/MOL
REMARK 922        TOTAL FREE ENERGY PREDICTED BY IDOCK:  -15.53 KCAL/MOL
REMARK 923 INTER-LIGAND FREE ENERGY PREDICTED BY IDOCK:  -13.13 KCAL/MOL
REMARK 924 INTRA-LIGAND FREE ENERGY PREDICTED BY IDOCK:   -2.39 KCAL/MOL
REMARK 927      BINDING AFFINITY PREDICTED BY RF-SCORE:    0.00 PKD
ROOT
HETATM    1  C   UNL     1     -10.527  18.402  65.866  1.00  0.00    -0.346 C  
HETATM    2  C   UNL     1     -10.433  16.910  66.054  1.00  0.00    -0.290 C  
HETATM    3  N   UNL     1     -11.026  16.128  65.097  1.00  0.00    -0.363 N  
HETATM    4  O   UNL     1      -9.873  16.443  67.046  1.00  0.00    -0.240 OA 
HETATM    5  O   UNL     1     -11.538  16.615  63.883  1.00  0.00    -1.204 OA 
ENDROOT
BRANCH   3   6
HETATM    6  C   UNL     1     -11.034  14.672  65.145  1.00  0.00    -0.386 C  
BRANCH   6   7
HETATM    7  C   UNL     1     -12.387  14.111  65.589  1.00  0.00    -0.473 C  
BRANCH   7   8
HETATM    8  C   UNL     1     -12.750  12.875  64.763  1.00  0.00    -0.442 C  
BRANCH   8   9
HETATM    9  C   UNL     1     -12.007  12.838  63.426  1.00  0.00    -0.613 C  
BRANCH   9  10
HETATM   10  C   UNL     1     -11.044  11.654  63.331  1.00  0.00    -0.337 C  
BRANCH  10  11
HETATM   11  N   UNL     1     -10.602  11.190  64.638  1.00  0.00    -0.330 N  
HETATM   12  C   UNL     1      -9.621  10.232  64.759  1.00  0.00    -0.307 C  
HETATM   13  H   UNL     1     -11.028  11.581  65.478  1.00  0.00     0.000 HD 
HETATM   14  O   UNL     1      -9.027   9.735  63.806  1.00  0.00    -0.223 OA 
BRANCH  12  15
HETATM   15  C   UNL     1      -9.329   9.855  66.196  1.00  0.00    -0.232 C  
BRANCH  15  16
HETATM   16  C   UNL     1      -8.681   8.475  66.265  1.00  0.00    -0.164 C  
BRANCH  16  17
HETATM   17  C   UNL     1      -9.675   7.387  66.624  1.00  0.00    -0.194 C  
HETATM   18  O   UNL     1     -10.674   7.635  67.296  1.00  0.00    -0.306 OA 
HETATM   19  N   UNL     1      -9.372   6.123  66.186  1.00  0.00    -0.139 N  
HETATM   20  O   UNL     1      -8.298   5.808  65.335  1.00  0.00    -0.131 OA 
BRANCH  19  21
HETATM   21  C   UNL     1     -10.172   4.949  66.500  1.00  0.00    -0.270 C  
BRANCH  21  22
HETATM   22  C   UNL     1      -9.325   3.789  67.030  1.00  0.00    -0.219 C  
BRANCH  22  23
HETATM   23  C   UNL     1      -8.812   4.026  68.463  1.00  0.00    -0.143 C  
BRANCH  23  24
HETATM   24  C   UNL     1      -9.904   4.496  69.426  1.00  0.00    -0.260 C  
BRANCH  24  25
HETATM   25  C   UNL     1      -9.431   5.671  70.279  1.00  0.00    -0.161 C  
BRANCH  25  26
HETATM   26  N   UNL     1     -10.426   6.722  70.340  1.00  0.00    -0.202 N  
HETATM   27  H   UNL     1     -10.441   7.434  69.609  1.00  0.00     0.000 HD 
HETATM   28  C   UNL     1     -11.351   6.788  71.355  1.00  0.00    -0.279 C  
HETATM   29  O   UNL     1     -11.420   5.965  72.263  1.00  0.00    -0.293 OA 
BRANCH  28  30
HETATM   30  C   UNL     1     -12.287   7.967  71.277  1.00  0.00    -0.300 C  
BRANCH  30  31
HETATM   31  C   UNL     1     -11.541   9.174  70.730  1.00  0.00    -0.329 C  
BRANCH  31  32
HETATM   32  C   UNL     1     -12.219  10.462  71.145  1.00  0.00    -0.394 C  
HETATM   33  N   UNL     1     -11.994  11.591  70.394  1.00  0.00    -0.367 N  
HETATM   34  O   UNL     1     -13.014  10.450  72.087  1.00  0.00    -0.429 OA 
HETATM   35  O   UNL     1     -10.815  11.697  69.632  1.00  0.00    -0.106 OA 
BRANCH  33  36
HETATM   36  C   UNL     1     -12.546  12.898  70.756  1.00  0.00    -0.232 C  
BRANCH  36  37
HETATM   37  C   UNL     1     -11.829  14.045  70.040  1.00  0.00    -0.388 C  
BRANCH  37  38
HETATM   38  C   UNL     1     -12.362  15.416  70.468  1.00  0.00    -0.452 C  
BRANCH  38  39
HETATM   39  C   UNL     1     -11.828  15.825  71.844  1.00  0.00    -0.568 C  
BRANCH  39  40
HETATM   40  C   UNL     1     -12.880  15.691  72.947  1.00  0.00    -0.471 C  
HETATM   41  N   UNL     1     -14.217  15.494  72.398  1.00  0.00    -0.548 NA 
HETATM   42  H2  UNL     1     -14.244  14.699  71.760  1.00  0.00     0.000 HD 
HETATM   43  H1  UNL     1     -14.919  15.404  73.133  1.00  0.00     0.000 HD 
ENDBRANCH  39  40
ENDBRANCH  38  39
ENDBRANCH  37  38
ENDBRANCH  36  37
ENDBRANCH  33  36
ENDBRANCH  31  32
ENDBRANCH  30  31
ENDBRANCH  28  30
ENDBRANCH  25  26
ENDBRANCH  24  25
ENDBRANCH  23  24
ENDBRANCH  22  23
ENDBRANCH  21  22
ENDBRANCH  19  21
ENDBRANCH  16  17
ENDBRANCH  15  16
ENDBRANCH  12  15
ENDBRANCH  10  11
ENDBRANCH   9  10
ENDBRANCH   8   9
ENDBRANCH   7   8
ENDBRANCH   6   7
ENDBRANCH   3   6
TORSDOF 23
ENDMDL
MODEL       18
REMARK 921   NORMALIZED FREE ENERGY PREDICTED BY IDOCK:   -5.44 KCAL/MOL
REMARK 922        TOTAL FREE ENERGY PREDICTED BY IDOCK:  -15.52 KCAL/MOL
REMARK 923 INTER-LIGAND FREE ENERGY PREDICTED BY IDOCK:  -13.53 KCAL/MOL
REMARK 924 INTRA-LIGAND FREE ENERGY PREDICTED BY IDOCK:   -1.99 KCAL/MOL
REMARK 927      BINDING AFFINITY PREDICTED BY RF-SCORE:    0.00 PKD
ROOT
HETATM    1  C   UNL     1      -6.058  20.533  67.812  1.00  0.00    -0.300 C  
HETATM    2  C   UNL     1      -7.450  19.961  67.877  1.00  0.00    -0.293 C  
HETATM    3  N   UNL     1      -8.046  19.647  66.683  1.00  0.00    -0.293 N  
HETATM    4  O   UNL     1      -8.016  19.823  68.962  1.00  0.00    -0.274 OA 
HETATM    5  O   UNL     1      -7.382  19.647  65.445  1.00  0.00    -0.403 OA 
ENDROOT
BRANCH   3   6
HETATM    6  C   UNL     1      -9.392  19.101  66.578  1.00  0.00    -0.348 C  
BRANCH   6   7
HETATM    7  C   UNL     1      -9.477  17.657  67.077  1.00  0.00    -0.266 C  
BRANCH   7   8
HETATM    8  C   UNL     1     -10.773  17.438  67.860  1.00  0.00    -0.351 C  
BRANCH   8   9
HETATM    9  C   UNL     1     -10.746  16.138  68.665  1.00  0.00    -0.295 C  
BRANCH   9  10
HETATM   10  C   UNL     1     -12.142  15.705  69.115  1.00  0.00    -0.227 C  
BRANCH  10  11
HETATM   11  N   UNL     1     -12.103  14.805  70.258  1.00  0.00    -0.301 N  
HETATM   12  C   UNL     1     -13.020  14.912  71.280  1.00  0.00    -0.363 C  
HETATM   13  H   UNL     1     -11.385  14.082  70.302  1.00  0.00     0.000 HD 
HETATM   14  O   UNL     1     -13.941  15.724  71.292  1.00  0.00    -0.526 OA 
BRANCH  12  15
HETATM   15  C   UNL     1     -12.791  13.912  72.394  1.00  0.00    -0.379 C  
BRANCH  15  16
HETATM   16  C   UNL     1     -13.515  12.602  72.094  1.00  0.00    -0.561 C  
BRANCH  16  17
HETATM   17  C   UNL     1     -12.642  11.619  71.338  1.00  0.00    -0.286 C  
HETATM   18  O   UNL     1     -11.790  12.007  70.541  1.00  0.00    -0.302 OA 
HETATM   19  N   UNL     1     -12.884  10.290  71.574  1.00  0.00    -0.414 N  
HETATM   20  O   UNL     1     -13.775   9.800  72.545  1.00  0.00    -0.340 OA 
BRANCH  19  21
HETATM   21  C   UNL     1     -12.195   9.211  70.883  1.00  0.00    -0.183 C  
BRANCH  21  22
HETATM   22  C   UNL     1     -11.713   8.117  71.840  1.00  0.00    -0.362 C  
BRANCH  22  23
HETATM   23  C   UNL     1     -11.994   6.696  71.319  1.00  0.00    -0.409 C  
BRANCH  23  24
HETATM   24  C   UNL     1     -10.724   5.884  71.059  1.00  0.00    -0.331 C  
BRANCH  24  25
HETATM   25  C   UNL     1     -10.651   5.406  69.611  1.00  0.00    -0.258 C  
BRANCH  25  26
HETATM   26  N   UNL     1     -11.050   6.445  68.683  1.00  0.00    -0.466 N  
HETATM   27  H   UNL     1     -12.033   6.713  68.632  1.00  0.00     0.000 HD 
HETATM   28  C   UNL     1     -10.141   7.079  67.869  1.00  0.00    -0.169 C  
HETATM   29  O   UNL     1      -8.939   6.836  67.878  1.00  0.00    -0.116 OA 
BRANCH  28  30
HETATM   30  C   UNL     1     -10.738   8.109  66.945  1.00  0.00    -0.186 C  
BRANCH  30  31
HETATM   31  C   UNL     1      -9.637   8.744  66.110  1.00  0.00    -0.323 C  
BRANCH  31  32
HETATM   32  C   UNL     1     -10.004  10.160  65.718  1.00  0.00    -0.271 C  
HETATM   33  N   UNL     1      -9.857  10.534  64.404  1.00  0.00    -0.322 N  
HETATM   34  O   UNL     1     -10.499  10.911  66.561  1.00  0.00    -0.243 OA 
HETATM   35  O   UNL     1      -8.933   9.855  63.586  1.00  0.00    -0.218 OA 
BRANCH  33  36
HETATM   36  C   UNL     1     -10.115  11.899  63.941  1.00  0.00    -0.370 C  
BRANCH  36  37
HETATM   37  C   UNL     1     -11.594  12.131  63.628  1.00  0.00    -0.575 C  
BRANCH  37  38
HETATM   38  C   UNL     1     -12.237  13.135  64.591  1.00  0.00    -0.471 C  
BRANCH  38  39
HETATM   39  C   UNL     1     -11.187  14.018  65.272  1.00  0.00    -0.319 C  
BRANCH  39  40
HETATM   40  C   UNL     1     -11.223  15.464  64.777  1.00  0.00    -0.395 C  
HETATM   41  N   UNL     1     -12.218  15.651  63.726  1.00  0.00    -1.018 NA 
HETATM   42  H2  UNL     1     -13.141  15.338  64.028  1.00  0.00     0.000 HD 
HETATM   43  H1  UNL     1     -12.243  16.616  63.395  1.00  0.00     0.000 HD 
ENDBRANCH  39  40
ENDBRANCH  38  39
ENDBRANCH  37  38
ENDBRANCH  36  37
ENDBRANCH  33  36
ENDBRANCH  31  32
ENDBRANCH  30  31
ENDBRANCH  28  30
ENDBRANCH  25  26
ENDBRANCH  24  25
ENDBRANCH  23  24
ENDBRANCH  22  23
ENDBRANCH  21  22
ENDBRANCH  19  21
ENDBRANCH  16  17
ENDBRANCH  15  16
ENDBRANCH  12  15
ENDBRANCH  10  11
ENDBRANCH   9  10
ENDBRANCH   8   9
ENDBRANCH   7   8
ENDBRANCH   6   7
ENDBRANCH   3   6
TORSDOF 23
ENDMDL
MODEL       19
REMARK 921   NORMALIZED FREE ENERGY PREDICTED BY IDOCK:   -5.44 KCAL/MOL
REMARK 922        TOTAL FREE ENERGY PREDICTED BY IDOCK:  -15.51 KCAL/MOL
REMARK 923 INTER-LIGAND FREE ENERGY PREDICTED BY IDOCK:  -12.88 KCAL/MOL
REMARK 924 INTRA-LIGAND FREE ENERGY PREDICTED BY IDOCK:   -2.64 KCAL/MOL
REMARK 927      BINDING AFFINITY PREDICTED BY RF-SCORE:    0.00 PKD
ROOT
HETATM    1  C   UNL     1     -12.413  12.660  64.066  1.00  0.00    -0.487 C  
HETATM    2  C   UNL     1     -11.779  12.477  65.420  1.00  0.00    -0.398 C  
HETATM    3  N   UNL     1     -10.583  11.810  65.458  1.00  0.00    -0.267 N  
HETATM    4  O   UNL     1     -12.347  12.888  66.433  1.00  0.00    -0.463 OA 
HETATM    5  O   UNL     1      -9.836  11.462  64.320  1.00  0.00    -0.239 OA 
ENDROOT
BRANCH   3   6
HETATM    6  C   UNL     1      -9.854  11.539  66.690  1.00  0.00    -0.202 C  
BRANCH   6   7
HETATM    7  C   UNL     1     -10.433  10.352  67.462  1.00  0.00    -0.292 C  
BRANCH   7   8
HETATM    8  C   UNL     1      -9.677   9.068  67.113  1.00  0.00    -0.237 C  
BRANCH   8   9
HETATM    9  C   UNL     1      -8.298   9.015  67.772  1.00  0.00    -0.117 C  
BRANCH   9  10
HETATM   10  C   UNL     1      -8.274   8.096  68.994  1.00  0.00    -0.127 C  
BRANCH  10  11
HETATM   11  N   UNL     1      -9.445   8.267  69.840  1.00  0.00    -0.166 N  
HETATM   12  C   UNL     1      -9.336   8.787  71.111  1.00  0.00    -0.233 C  
HETATM   13  H   UNL     1     -10.362   7.997  69.486  1.00  0.00     0.000 HD 
HETATM   14  O   UNL     1      -8.280   9.174  71.604  1.00  0.00    -0.343 OA 
BRANCH  12  15
HETATM   15  C   UNL     1     -10.658   8.849  71.846  1.00  0.00    -0.419 C  
BRANCH  15  16
HETATM   16  C   UNL     1     -11.744   9.429  70.943  1.00  0.00    -0.378 C  
BRANCH  16  17
HETATM   17  C   UNL     1     -12.807  10.177  71.724  1.00  0.00    -0.452 C  
HETATM   18  O   UNL     1     -13.556   9.589  72.503  1.00  0.00    -0.433 OA 
HETATM   19  N   UNL     1     -12.899  11.524  71.485  1.00  0.00    -0.409 N  
HETATM   20  O   UNL     1     -12.005  12.255  70.683  1.00  0.00    -0.318 OA 
BRANCH  19  21
HETATM   21  C   UNL     1     -13.906  12.383  72.089  1.00  0.00    -0.016 C  
BRANCH  21  22
HETATM   22  C   UNL     1     -13.298  13.628  72.741  1.00  0.00    -0.465 C  
BRANCH  22  23
HETATM   23  C   UNL     1     -13.892  14.941  72.197  1.00  0.00    -0.576 C  
BRANCH  23  24
HETATM   24  C   UNL     1     -13.080  15.543  71.050  1.00  0.00    -0.551 C  
BRANCH  24  25
HETATM   25  C   UNL     1     -11.631  15.798  71.461  1.00  0.00    -0.459 C  
BRANCH  25  26
HETATM   26  N   UNL     1     -10.698  15.146  70.564  1.00  0.00    -0.507 N  
HETATM   27  H   UNL     1     -10.467  14.164  70.717  1.00  0.00     0.000 HD 
HETATM   28  C   UNL     1     -10.114  15.814  69.514  1.00  0.00    -0.279 C  
HETATM   29  O   UNL     1     -10.349  16.988  69.244  1.00  0.00    -0.308 OA 
BRANCH  28  30
HETATM   30  C   UNL     1      -9.144  14.990  68.707  1.00  0.00    -0.197 C  
BRANCH  30  31
HETATM   31  C   UNL     1      -9.266  15.354  67.236  1.00  0.00    -0.217 C  
BRANCH  31  32
HETATM   32  C   UNL     1      -8.095  16.204  66.791  1.00  0.00    -0.270 C  
HETATM   33  N   UNL     1      -8.328  17.518  66.464  1.00  0.00    -0.257 N  
HETATM   34  O   UNL     1      -6.959  15.726  66.811  1.00  0.00    -0.218 OA 
HETATM   35  O   UNL     1      -9.612  17.914  66.043  1.00  0.00    -0.502 OA 
BRANCH  33  36
HETATM   36  C   UNL     1      -7.276  18.400  65.954  1.00  0.00    -0.232 C  
BRANCH  36  37
HETATM   37  C   UNL     1      -6.891  19.483  66.964  1.00  0.00    -0.208 C  
BRANCH  37  38
HETATM   38  C   UNL     1      -6.652  18.908  68.364  1.00  0.00    -0.260 C  
BRANCH  38  39
HETATM   39  C   UNL     1      -6.906  19.952  69.455  1.00  0.00    -0.313 C  
BRANCH  39  40
HETATM   40  C   UNL     1      -5.754  20.049  70.457  1.00  0.00    -0.308 C  
HETATM   41  N   UNL     1      -6.199  20.573  71.744  1.00  0.00    -0.755 NA 
HETATM   42  H2  UNL     1      -6.974  20.027  72.120  1.00  0.00     0.000 HD 
HETATM   43  H1  UNL     1      -5.431  20.639  72.412  1.00  0.00     0.000 HD 
ENDBRANCH  39  40
ENDBRANCH  38  39
ENDBRANCH  37  38
ENDBRANCH  36  37
ENDBRANCH  33  36
ENDBRANCH  31  32
ENDBRANCH  30  31
ENDBRANCH  28  30
ENDBRANCH  25  26
ENDBRANCH  24  25
ENDBRANCH  23  24
ENDBRANCH  22  23
ENDBRANCH  21  22
ENDBRANCH  19  21
ENDBRANCH  16  17
ENDBRANCH  15  16
ENDBRANCH  12  15
ENDBRANCH  10  11
ENDBRANCH   9  10
ENDBRANCH   8   9
ENDBRANCH   7   8
ENDBRANCH   6   7
ENDBRANCH   3   6
TORSDOF 23
ENDMDL
MODEL       20
REMARK 921   NORMALIZED FREE ENERGY PREDICTED BY IDOCK:   -5.43 KCAL/MOL
REMARK 922        TOTAL FREE ENERGY PREDICTED BY IDOCK:  -15.49 KCAL/MOL
REMARK 923 INTER-LIGAND FREE ENERGY PREDICTED BY IDOCK:  -12.41 KCAL/MOL
REMARK 924 INTRA-LIGAND FREE ENERGY PREDICTED BY IDOCK:   -3.08 KCAL/MOL
REMARK 927      BINDING AFFINITY PREDICTED BY RF-SCORE:    0.00 PKD
ROOT
HETATM    1  C   UNL     1      -7.406  16.228  69.031  1.00  0.00    -0.214 C  
HETATM    2  C   UNL     1      -7.187  17.078  67.806  1.00  0.00    -0.152 C  
HETATM    3  N   UNL     1      -7.068  18.428  68.003  1.00  0.00    -0.226 N  
HETATM    4  O   UNL     1      -7.154  16.560  66.689  1.00  0.00    -0.218 OA 
HETATM    5  O   UNL     1      -6.950  19.035  69.265  1.00  0.00    -0.310 OA 
ENDROOT
BRANCH   3   6
HETATM    6  C   UNL     1      -6.870  19.382  66.920  1.00  0.00    -0.196 C  
BRANCH   6   7
HETATM    7  C   UNL     1      -8.140  19.603  66.097  1.00  0.00    -0.356 C  
BRANCH   7   8
HETATM    8  C   UNL     1      -9.234  20.232  66.961  1.00  0.00    -0.503 C  
BRANCH   8   9
HETATM    9  C   UNL     1     -10.483  19.352  67.041  1.00  0.00    -0.571 C  
BRANCH   9  10
HETATM   10  C   UNL     1     -10.443  18.395  68.233  1.00  0.00    -0.299 C  
BRANCH  10  11
HETATM   11  N   UNL     1     -11.011  17.092  67.919  1.00  0.00    -0.293 N  
HETATM   12  C   UNL     1     -11.226  16.153  68.903  1.00  0.00    -0.351 C  
HETATM   13  H   UNL     1     -11.253  16.871  66.953  1.00  0.00     0.000 HD 
HETATM   14  O   UNL     1     -11.002  16.347  70.094  1.00  0.00    -0.349 OA 
BRANCH  12  15
HETATM   15  C   UNL     1     -11.785  14.851  68.372  1.00  0.00    -0.336 C  
BRANCH  15  16
HETATM   16  C   UNL     1     -10.711  14.078  67.611  1.00  0.00    -0.261 C  
BRANCH  16  17
HETATM   17  C   UNL     1     -10.833  14.246  66.109  1.00  0.00    -0.310 C  
HETATM   18  O   UNL     1     -10.204  15.118  65.513  1.00  0.00    -0.322 OA 
HETATM   19  N   UNL     1     -11.702  13.396  65.474  1.00  0.00    -0.327 N  
HETATM   20  O   UNL     1     -12.366  12.322  66.093  1.00  0.00    -0.588 OA 
BRANCH  19  21
HETATM   21  C   UNL     1     -11.998  13.462  64.051  1.00  0.00    -0.464 C  
BRANCH  21  22
HETATM   22  C   UNL     1     -11.793  12.118  63.347  1.00  0.00    -0.553 C  
BRANCH  22  23
HETATM   23  C   UNL     1     -10.316  11.682  63.305  1.00  0.00    -0.444 C  
BRANCH  23  24
HETATM   24  C   UNL     1      -9.934  10.730  64.439  1.00  0.00    -0.400 C  
BRANCH  24  25
HETATM   25  C   UNL     1      -8.984   9.636  63.957  1.00  0.00    -0.223 C  
BRANCH  25  26
HETATM   26  N   UNL     1      -9.038   8.466  64.810  1.00  0.00    -0.332 N  
HETATM   27  H   UNL     1      -9.792   7.791  64.677  1.00  0.00     0.000 HD 
HETATM   28  C   UNL     1      -8.104   8.240  65.792  1.00  0.00    -0.109 C  
HETATM   29  O   UNL     1      -7.155   8.987  66.009  1.00  0.00    -0.083 OA 
BRANCH  28  30
HETATM   30  C   UNL     1      -8.336   6.992  66.605  1.00  0.00    -0.118 C  
BRANCH  30  31
HETATM   31  C   UNL     1      -9.723   7.040  67.227  1.00  0.00    -0.189 C  
BRANCH  31  32
HETATM   32  C   UNL     1      -9.876   8.260  68.111  1.00  0.00    -0.172 C  
HETATM   33  N   UNL     1      -9.274   8.252  69.346  1.00  0.00    -0.154 N  
HETATM   34  O   UNL     1     -10.462   9.252  67.675  1.00  0.00    -0.238 OA 
HETATM   35  O   UNL     1      -8.999   7.025  69.979  1.00  0.00    -0.142 OA 
BRANCH  33  36
HETATM   36  C   UNL     1      -9.425   9.352  70.301  1.00  0.00    -0.251 C  
BRANCH  36  37
HETATM   37  C   UNL     1     -10.356   8.987  71.459  1.00  0.00    -0.412 C  
BRANCH  37  38
HETATM   38  C   UNL     1     -11.833   9.060  71.057  1.00  0.00    -0.339 C  
BRANCH  38  39
HETATM   39  C   UNL     1     -12.415  10.457  71.295  1.00  0.00    -0.521 C  
BRANCH  39  40
HETATM   40  C   UNL     1     -12.160  11.407  70.124  1.00  0.00    -0.357 C  
HETATM   41  N   UNL     1     -12.508  10.795  68.845  1.00  0.00    -0.731 NA 
HETATM   42  H2  UNL     1     -13.470  10.455  68.846  1.00  0.00     0.000 HD 
HETATM   43  H1  UNL     1     -12.338  11.429  68.064  1.00  0.00     0.000 HD 
ENDBRANCH  39  40
ENDBRANCH  38  39
ENDBRANCH  37  38
ENDBRANCH  36  37
ENDBRANCH  33  36
ENDBRANCH  31  32
ENDBRANCH  30  31
ENDBRANCH  28  30
ENDBRANCH  25  26
ENDBRANCH  24  25
ENDBRANCH  23  24
ENDBRANCH  22  23
ENDBRANCH  21  22
ENDBRANCH  19  21
ENDBRANCH  16  17
ENDBRANCH  15  16
ENDBRANCH  12  15
ENDBRANCH  10  11
ENDBRANCH   9  10
ENDBRANCH   8   9
ENDBRANCH   7   8
ENDBRANCH   6   7
ENDBRANCH   3   6
TORSDOF 23
ENDMDL
MODEL       21
REMARK 921   NORMALIZED FREE ENERGY PREDICTED BY IDOCK:   -5.42 KCAL/MOL
REMARK 922        TOTAL FREE ENERGY PREDICTED BY IDOCK:  -15.47 KCAL/MOL
REMARK 923 INTER-LIGAND FREE ENERGY PREDICTED BY IDOCK:  -12.27 KCAL/MOL
REMARK 924 INTRA-LIGAND FREE ENERGY PREDICTED BY IDOCK:   -3.20 KCAL/MOL
REMARK 927      BINDING AFFINITY PREDICTED BY RF-SCORE:    0.00 PKD
ROOT
HETATM    1  C   UNL     1      -9.931  18.387  66.353  1.00  0.00    -0.399 C  
HETATM    2  C   UNL     1      -9.794  16.893  66.220  1.00  0.00    -0.302 C  
HETATM    3  N   UNL     1     -10.567  16.283  65.267  1.00  0.00    -0.379 N  
HETATM    4  O   UNL     1      -9.039  16.269  66.966  1.00  0.00    -0.197 OA 
HETATM    5  O   UNL     1     -11.321  16.972  64.302  1.00  0.00    -1.191 OA 
ENDROOT
BRANCH   3   6
HETATM    6  C   UNL     1     -10.559  14.847  65.026  1.00  0.00    -0.422 C  
BRANCH   6   7
HETATM    7  C   UNL     1     -11.959  14.234  65.109  1.00  0.00    -0.395 C  
BRANCH   7   8
HETATM    8  C   UNL     1     -12.045  13.257  66.283  1.00  0.00    -0.472 C  
BRANCH   8   9
HETATM    9  C   UNL     1     -11.786  13.945  67.625  1.00  0.00    -0.422 C  
BRANCH   9  10
HETATM   10  C   UNL     1     -10.723  13.221  68.452  1.00  0.00    -0.257 C  
BRANCH  10  11
HETATM   11  N   UNL     1     -10.173  12.065  67.761  1.00  0.00    -0.198 N  
HETATM   12  C   UNL     1      -8.918  12.102  67.197  1.00  0.00    -0.189 C  
HETATM   13  H   UNL     1     -10.727  11.211  67.694  1.00  0.00     0.000 HD 
HETATM   14  O   UNL     1      -8.166  13.071  67.263  1.00  0.00    -0.180 OA 
BRANCH  12  15
HETATM   15  C   UNL     1      -8.541  10.817  66.491  1.00  0.00    -0.150 C  
BRANCH  15  16
HETATM   16  C   UNL     1      -8.557   9.646  67.470  1.00  0.00    -0.126 C  
BRANCH  16  17
HETATM   17  C   UNL     1      -9.624   8.623  67.131  1.00  0.00    -0.173 C  
HETATM   18  O   UNL     1     -10.819   8.902  67.204  1.00  0.00    -0.209 OA 
HETATM   19  N   UNL     1      -9.176   7.377  66.775  1.00  0.00    -0.149 N  
HETATM   20  O   UNL     1      -7.825   7.039  66.582  1.00  0.00    -0.102 OA 
BRANCH  19  21
HETATM   21  C   UNL     1     -10.057   6.255  66.489  1.00  0.00    -0.108 C  
BRANCH  21  22
HETATM   22  C   UNL     1     -10.514   5.532  67.759  1.00  0.00    -0.245 C  
BRANCH  22  23
HETATM   23  C   UNL     1      -9.428   4.615  68.352  1.00  0.00    -0.201 C  
BRANCH  23  24
HETATM   24  C   UNL     1      -9.232   4.806  69.857  1.00  0.00    -0.183 C  
BRANCH  24  25
HETATM   25  C   UNL     1      -8.728   6.210  70.183  1.00  0.00    -0.141 C  
BRANCH  25  26
HETATM   26  N   UNL     1      -9.773   7.033  70.759  1.00  0.00    -0.169 N  
HETATM   27  H   UNL     1     -10.513   7.390  70.154  1.00  0.00     0.000 HD 
HETATM   28  C   UNL     1      -9.794   7.347  72.097  1.00  0.00    -0.172 C  
HETATM   29  O   UNL     1      -8.958   6.947  72.901  1.00  0.00    -0.126 OA 
BRANCH  28  30
HETATM   30  C   UNL     1     -10.935   8.241  72.514  1.00  0.00    -0.424 C  
BRANCH  30  31
HETATM   31  C   UNL     1     -11.817   8.535  71.311  1.00  0.00    -0.335 C  
BRANCH  31  32
HETATM   32  C   UNL     1     -11.807  10.013  70.981  1.00  0.00    -0.386 C  
HETATM   33  N   UNL     1     -12.691  10.835  71.637  1.00  0.00    -0.424 N  
HETATM   34  O   UNL     1     -10.959  10.453  70.202  1.00  0.00    -0.284 OA 
HETATM   35  O   UNL     1     -13.881  10.298  72.164  1.00  0.00    -0.170 OA 
BRANCH  33  36
HETATM   36  C   UNL     1     -12.808  12.263  71.336  1.00  0.00    -0.271 C  
BRANCH  36  37
HETATM   37  C   UNL     1     -13.866  12.951  72.201  1.00  0.00    -0.390 C  
BRANCH  37  38
HETATM   38  C   UNL     1     -13.925  14.461  71.950  1.00  0.00    -0.574 C  
BRANCH  38  39
HETATM   39  C   UNL     1     -12.529  15.052  71.728  1.00  0.00    -0.407 C  
BRANCH  39  40
HETATM   40  C   UNL     1     -11.987  15.762  72.970  1.00  0.00    -0.488 C  
HETATM   41  N   UNL     1     -13.024  15.956  73.978  1.00  0.00    -0.861 NA 
HETATM   42  H2  UNL     1     -13.476  15.075  74.221  1.00  0.00     0.000 HD 
HETATM   43  H1  UNL     1     -12.662  16.430  74.806  1.00  0.00     0.000 HD 
ENDBRANCH  39  40
ENDBRANCH  38  39
ENDBRANCH  37  38
ENDBRANCH  36  37
ENDBRANCH  33  36
ENDBRANCH  31  32
ENDBRANCH  30  31
ENDBRANCH  28  30
ENDBRANCH  25  26
ENDBRANCH  24  25
ENDBRANCH  23  24
ENDBRANCH  22  23
ENDBRANCH  21  22
ENDBRANCH  19  21
ENDBRANCH  16  17
ENDBRANCH  15  16
ENDBRANCH  12  15
ENDBRANCH  10  11
ENDBRANCH   9  10
ENDBRANCH   8   9
ENDBRANCH   7   8
ENDBRANCH   6   7
ENDBRANCH   3   6
TORSDOF 23
ENDMDL
MODEL       22
REMARK 921   NORMALIZED FREE ENERGY PREDICTED BY IDOCK:   -5.41 KCAL/MOL
REMARK 922        TOTAL FREE ENERGY PREDICTED BY IDOCK:  -15.43 KCAL/MOL
REMARK 923 INTER-LIGAND FREE ENERGY PREDICTED BY IDOCK:  -13.12 KCAL/MOL
REMARK 924 INTRA-LIGAND FREE ENERGY PREDICTED BY IDOCK:   -2.31 KCAL/MOL
REMARK 927      BINDING AFFINITY PREDICTED BY RF-SCORE:    0.00 PKD
ROOT
HETATM    1  C   UNL     1      -9.146   3.745  72.350  1.00  0.00    -0.140 C  
HETATM    2  C   UNL     1      -9.172   5.199  72.742  1.00  0.00    -0.136 C  
HETATM    3  N   UNL     1     -10.395   5.733  73.055  1.00  0.00    -0.194 N  
HETATM    4  O   UNL     1      -8.134   5.862  72.741  1.00  0.00    -0.104 OA 
HETATM    5  O   UNL     1     -11.569   4.978  73.214  1.00  0.00    -0.322 OA 
ENDROOT
BRANCH   3   6
HETATM    6  C   UNL     1     -10.587   7.125  73.438  1.00  0.00    -0.382 C  
BRANCH   6   7
HETATM    7  C   UNL     1     -10.499   8.076  72.243  1.00  0.00    -0.344 C  
BRANCH   7   8
HETATM    8  C   UNL     1     -11.632   7.798  71.253  1.00  0.00    -0.301 C  
BRANCH   8   9
HETATM    9  C   UNL     1     -13.009   7.888  71.915  1.00  0.00    -0.323 C  
BRANCH   9  10
HETATM   10  C   UNL     1     -13.597   9.297  71.840  1.00  0.00    -0.427 C  
BRANCH  10  11
HETATM   11  N   UNL     1     -12.930  10.126  70.847  1.00  0.00    -0.468 N  
HETATM   12  C   UNL     1     -12.763  11.478  71.043  1.00  0.00    -0.328 C  
HETATM   13  H   UNL     1     -12.581   9.696  69.990  1.00  0.00     0.000 HD 
HETATM   14  O   UNL     1     -13.116  12.071  72.058  1.00  0.00    -0.456 OA 
BRANCH  12  15
HETATM   15  C   UNL     1     -12.083  12.171  69.881  1.00  0.00    -0.324 C  
BRANCH  15  16
HETATM   16  C   UNL     1     -11.708  11.159  68.801  1.00  0.00    -0.394 C  
BRANCH  16  17
HETATM   17  C   UNL     1     -10.220  11.150  68.510  1.00  0.00    -0.198 C  
HETATM   18  O   UNL     1      -9.538  12.164  68.648  1.00  0.00    -0.165 OA 
HETATM   19  N   UNL     1      -9.699   9.965  68.057  1.00  0.00    -0.139 N  
HETATM   20  O   UNL     1     -10.414   8.757  67.977  1.00  0.00    -0.223 OA 
BRANCH  19  21
HETATM   21  C   UNL     1      -8.310   9.795  67.659  1.00  0.00    -0.114 C  
BRANCH  21  22
HETATM   22  C   UNL     1      -8.158   9.543  66.156  1.00  0.00    -0.111 C  
BRANCH  22  23
HETATM   23  C   UNL     1      -8.784  10.656  65.295  1.00  0.00    -0.198 C  
BRANCH  23  24
HETATM   24  C   UNL     1      -9.459  10.132  64.027  1.00  0.00    -0.341 C  
BRANCH  24  25
HETATM   25  C   UNL     1     -10.283  11.218  63.340  1.00  0.00    -0.403 C  
BRANCH  25  26
HETATM   26  N   UNL     1     -10.885  12.121  64.301  1.00  0.00    -0.314 N  
HETATM   27  H   UNL     1     -10.296  12.547  65.017  1.00  0.00     0.000 HD 
HETATM   28  C   UNL     1     -12.227  12.420  64.274  1.00  0.00    -0.452 C  
HETATM   29  O   UNL     1     -13.004  11.971  63.437  1.00  0.00    -0.772 OA 
BRANCH  28  30
HETATM   30  C   UNL     1     -12.684  13.350  65.368  1.00  0.00    -0.484 C  
BRANCH  30  31
HETATM   31  C   UNL     1     -11.497  13.741  66.234  1.00  0.00    -0.349 C  
BRANCH  31  32
HETATM   32  C   UNL     1     -10.915  15.065  65.786  1.00  0.00    -0.350 C  
HETATM   33  N   UNL     1     -10.634  16.013  66.740  1.00  0.00    -0.315 N  
HETATM   34  O   UNL     1     -10.632  15.230  64.597  1.00  0.00    -0.335 OA 
HETATM   35  O   UNL     1     -11.325  15.992  67.967  1.00  0.00    -0.340 OA 
BRANCH  33  36
HETATM   36  C   UNL     1     -10.138  17.348  66.401  1.00  0.00    -0.327 C  
BRANCH  36  37
HETATM   37  C   UNL     1     -10.107  18.278  67.615  1.00  0.00    -0.368 C  
BRANCH  37  38
HETATM   38  C   UNL     1     -10.768  19.629  67.324  1.00  0.00    -0.583 C  
BRANCH  38  39
HETATM   39  C   UNL     1      -9.728  20.732  67.105  1.00  0.00    -0.457 C  
BRANCH  39  40
HETATM   40  C   UNL     1      -8.303  20.264  67.401  1.00  0.00    -0.340 C  
HETATM   41  N   UNL     1      -7.316  21.283  67.058  1.00  0.00    -0.795 NA 
HETATM   42  H2  UNL     1      -7.521  22.168  67.522  1.00  0.00     0.000 HD 
HETATM   43  H1  UNL     1      -6.365  20.971  67.256  1.00  0.00     0.000 HD 
ENDBRANCH  39  40
ENDBRANCH  38  39
ENDBRANCH  37  38
ENDBRANCH  36  37
ENDBRANCH  33  36
ENDBRANCH  31  32
ENDBRANCH  30  31
ENDBRANCH  28  30
ENDBRANCH  25  26
ENDBRANCH  24  25
ENDBRANCH  23  24
ENDBRANCH  22  23
ENDBRANCH  21  22
ENDBRANCH  19  21
ENDBRANCH  16  17
ENDBRANCH  15  16
ENDBRANCH  12  15
ENDBRANCH  10  11
ENDBRANCH   9  10
ENDBRANCH   8   9
ENDBRANCH   7   8
ENDBRANCH   6   7
ENDBRANCH   3   6
TORSDOF 23
ENDMDL
MODEL       23
REMARK 921   NORMALIZED FREE ENERGY PREDICTED BY IDOCK:   -5.40 KCAL/MOL
REMARK 922        TOTAL FREE ENERGY PREDICTED BY IDOCK:  -15.41 KCAL/MOL
REMARK 923 INTER-LIGAND FREE ENERGY PREDICTED BY IDOCK:  -12.17 KCAL/MOL
REMARK 924 INTRA-LIGAND FREE ENERGY PREDICTED BY IDOCK:   -3.24 KCAL/MOL
REMARK 927      BINDING AFFINITY PREDICTED BY RF-SCORE:    0.00 PKD
ROOT
HETATM    1  C   UNL     1     -11.179   4.854  73.211  1.00  0.00    -0.423 C  
HETATM    2  C   UNL     1     -10.949   6.339  73.313  1.00  0.00    -0.194 C  
HETATM    3  N   UNL     1     -11.660   7.135  72.454  1.00  0.00    -0.271 N  
HETATM    4  O   UNL     1     -10.130   6.787  74.117  1.00  0.00    -0.317 OA 
HETATM    5  O   UNL     1     -12.705   6.678  71.635  1.00  0.00    -0.342 OA 
ENDROOT
BRANCH   3   6
HETATM    6  C   UNL     1     -11.537   8.586  72.419  1.00  0.00    -0.354 C  
BRANCH   6   7
HETATM    7  C   UNL     1     -11.021   9.095  71.071  1.00  0.00    -0.375 C  
BRANCH   7   8
HETATM    8  C   UNL     1     -11.840  10.301  70.607  1.00  0.00    -0.439 C  
BRANCH   8   9
HETATM    9  C   UNL     1     -12.925  10.683  71.615  1.00  0.00    -0.582 C  
BRANCH   9  10
HETATM   10  C   UNL     1     -13.126  12.196  71.706  1.00  0.00    -0.352 C  
BRANCH  10  11
HETATM   11  N   UNL     1     -12.167  12.933  70.896  1.00  0.00    -0.447 N  
HETATM   12  C   UNL     1     -12.357  14.265  70.604  1.00  0.00    -0.361 C  
HETATM   13  H   UNL     1     -11.341  12.455  70.539  1.00  0.00     0.000 HD 
HETATM   14  O   UNL     1     -13.300  14.931  71.023  1.00  0.00    -0.385 OA 
BRANCH  12  15
HETATM   15  C   UNL     1     -11.273  14.843  69.720  1.00  0.00    -0.308 C  
BRANCH  15  16
HETATM   16  C   UNL     1     -10.728  13.774  68.775  1.00  0.00    -0.267 C  
BRANCH  16  17
HETATM   17  C   UNL     1     -11.708  13.423  67.673  1.00  0.00    -0.359 C  
HETATM   18  O   UNL     1     -12.345  12.372  67.699  1.00  0.00    -0.305 OA 
HETATM   19  N   UNL     1     -11.810  14.325  66.645  1.00  0.00    -0.408 N  
HETATM   20  O   UNL     1     -11.179  15.581  66.618  1.00  0.00    -0.252 OA 
BRANCH  19  21
HETATM   21  C   UNL     1     -12.643  14.117  65.470  1.00  0.00    -0.479 C  
BRANCH  21  22
HETATM   22  C   UNL     1     -11.818  13.898  64.199  1.00  0.00    -0.417 C  
BRANCH  22  23
HETATM   23  C   UNL     1     -11.920  12.459  63.657  1.00  0.00    -0.626 C  
BRANCH  23  24
HETATM   24  C   UNL     1     -10.560  11.777  63.495  1.00  0.00    -0.499 C  
BRANCH  24  25
HETATM   25  C   UNL     1      -9.678  11.986  64.724  1.00  0.00    -0.085 C  
BRANCH  25  26
HETATM   26  N   UNL     1     -10.185  11.265  65.875  1.00  0.00    -0.241 N  
HETATM   27  H   UNL     1     -10.744  11.766  66.566  1.00  0.00     0.000 HD 
HETATM   28  C   UNL     1      -9.933   9.927  66.062  1.00  0.00    -0.268 C  
HETATM   29  O   UNL     1      -9.288   9.243  65.273  1.00  0.00    -0.241 OA 
BRANCH  28  30
HETATM   30  C   UNL     1     -10.509   9.350  67.330  1.00  0.00    -0.332 C  
BRANCH  30  31
HETATM   31  C   UNL     1     -10.468   7.832  67.263  1.00  0.00    -0.392 C  
BRANCH  31  32
HETATM   32  C   UNL     1      -9.503   7.272  68.287  1.00  0.00    -0.141 C  
HETATM   33  N   UNL     1      -9.850   6.120  68.951  1.00  0.00    -0.136 N  
HETATM   34  O   UNL     1      -8.404   7.810  68.439  1.00  0.00    -0.123 OA 
HETATM   35  O   UNL     1     -11.208   5.778  69.088  1.00  0.00    -0.270 OA 
BRANCH  33  36
HETATM   36  C   UNL     1      -9.018   5.542  70.008  1.00  0.00    -0.131 C  
BRANCH  36  37
HETATM   37  C   UNL     1      -9.282   4.047  70.197  1.00  0.00    -0.212 C  
BRANCH  37  38
HETATM   38  C   UNL     1      -8.434   3.187  69.253  1.00  0.00    -0.098 C  
BRANCH  38  39
HETATM   39  C   UNL     1      -9.306   2.289  68.370  1.00  0.00    -0.260 C  
BRANCH  39  40
HETATM   40  C   UNL     1      -9.186   2.630  66.884  1.00  0.00    -0.097 C  
HETATM   41  N   UNL     1      -9.905   3.856  66.550  1.00  0.00    -0.376 NA 
HETATM   42  H2  UNL     1      -9.604   4.634  67.136  1.00  0.00     0.000 HD 
HETATM   43  H1  UNL     1      -9.825   4.083  65.559  1.00  0.00     0.000 HD 
ENDBRANCH  39  40
ENDBRANCH  38  39
ENDBRANCH  37  38
ENDBRANCH  36  37
ENDBRANCH  33  36
ENDBRANCH  31  32
ENDBRANCH  30  31
ENDBRANCH  28  30
ENDBRANCH  25  26
ENDBRANCH  24  25
ENDBRANCH  23  24
ENDBRANCH  22  23
ENDBRANCH  21  22
ENDBRANCH  19  21
ENDBRANCH  16  17
ENDBRANCH  15  16
ENDBRANCH  12  15
ENDBRANCH  10  11
ENDBRANCH   9  10
ENDBRANCH   8   9
ENDBRANCH   7   8
ENDBRANCH   6   7
ENDBRANCH   3   6
TORSDOF 23
ENDMDL
MODEL       24
REMARK 921   NORMALIZED FREE ENERGY PREDICTED BY IDOCK:   -5.38 KCAL/MOL
REMARK 922        TOTAL FREE ENERGY PREDICTED BY IDOCK:  -15.37 KCAL/MOL
REMARK 923 INTER-LIGAND FREE ENERGY PREDICTED BY IDOCK:  -13.00 KCAL/MOL
REMARK 924 INTRA-LIGAND FREE ENERGY PREDICTED BY IDOCK:   -2.37 KCAL/MOL
REMARK 927      BINDING AFFINITY PREDICTED BY RF-SCORE:    0.00 PKD
ROOT
HETATM    1  C   UNL     1     -10.560   4.791  65.861  1.00  0.00    -0.290 C  
HETATM    2  C   UNL     1      -9.674   4.568  67.059  1.00  0.00    -0.202 C  
HETATM    3  N   UNL     1      -9.954   5.304  68.180  1.00  0.00    -0.154 N  
HETATM    4  O   UNL     1      -8.730   3.780  66.995  1.00  0.00    -0.104 OA 
HETATM    5  O   UNL     1     -11.105   6.094  68.340  1.00  0.00    -0.330 OA 
ENDROOT
BRANCH   3   6
HETATM    6  C   UNL     1      -9.182   5.213  69.412  1.00  0.00    -0.112 C  
BRANCH   6   7
HETATM    7  C   UNL     1      -9.785   4.220  70.407  1.00  0.00    -0.280 C  
BRANCH   7   8
HETATM    8  C   UNL     1      -9.246   4.480  71.815  1.00  0.00    -0.179 C  
BRANCH   8   9
HETATM    9  C   UNL     1     -10.320   4.290  72.887  1.00  0.00    -0.241 C  
BRANCH   9  10
HETATM   10  C   UNL     1     -11.425   5.343  72.793  1.00  0.00    -0.268 C  
BRANCH  10  11
HETATM   11  N   UNL     1     -10.898   6.689  72.628  1.00  0.00    -0.237 N  
HETATM   12  C   UNL     1     -11.662   7.691  72.072  1.00  0.00    -0.298 C  
HETATM   13  H   UNL     1      -9.946   6.894  72.931  1.00  0.00     0.000 HD 
HETATM   14  O   UNL     1     -12.828   7.545  71.717  1.00  0.00    -0.326 OA 
BRANCH  12  15
HETATM   15  C   UNL     1     -10.925   9.007  71.951  1.00  0.00    -0.423 C  
BRANCH  15  16
HETATM   16  C   UNL     1     -11.512   9.847  70.820  1.00  0.00    -0.433 C  
BRANCH  16  17
HETATM   17  C   UNL     1     -10.799   9.619  69.501  1.00  0.00    -0.231 C  
HETATM   18  O   UNL     1      -9.870   8.819  69.410  1.00  0.00    -0.179 OA 
HETATM   19  N   UNL     1     -11.230  10.376  68.442  1.00  0.00    -0.274 N  
HETATM   20  O   UNL     1     -12.348  11.228  68.471  1.00  0.00    -0.543 OA 
BRANCH  19  21
HETATM   21  C   UNL     1     -10.614  10.342  67.124  1.00  0.00    -0.261 C  
BRANCH  21  22
HETATM   22  C   UNL     1      -9.690  11.539  66.879  1.00  0.00    -0.205 C  
BRANCH  22  23
HETATM   23  C   UNL     1      -9.056  11.531  65.475  1.00  0.00    -0.101 C  
BRANCH  23  24
HETATM   24  C   UNL     1      -9.908  10.808  64.431  1.00  0.00    -0.374 C  
BRANCH  24  25
HETATM   25  C   UNL     1     -10.468  11.779  63.394  1.00  0.00    -0.434 C  
BRANCH  25  26
HETATM   26  N   UNL     1     -10.995  12.978  64.013  1.00  0.00    -0.453 N  
HETATM   27  H   UNL     1     -10.389  13.793  64.110  1.00  0.00     0.000 HD 
HETATM   28  C   UNL     1     -12.289  13.049  64.472  1.00  0.00    -0.398 C  
HETATM   29  O   UNL     1     -13.092  12.126  64.379  1.00  0.00    -0.740 OA 
BRANCH  28  30
HETATM   30  C   UNL     1     -12.654  14.361  65.118  1.00  0.00    -0.323 C  
BRANCH  30  31
HETATM   31  C   UNL     1     -12.075  14.417  66.522  1.00  0.00    -0.395 C  
BRANCH  31  32
HETATM   32  C   UNL     1     -10.929  15.404  66.595  1.00  0.00    -0.275 C  
HETATM   33  N   UNL     1     -10.633  15.974  67.809  1.00  0.00    -0.301 N  
HETATM   34  O   UNL     1     -10.243  15.610  65.591  1.00  0.00    -0.321 OA 
HETATM   35  O   UNL     1     -11.632  16.070  68.796  1.00  0.00    -0.377 OA 
BRANCH  33  36
HETATM   36  C   UNL     1      -9.592  16.992  67.968  1.00  0.00    -0.260 C  
BRANCH  36  37
HETATM   37  C   UNL     1     -10.165  18.336  68.423  1.00  0.00    -0.402 C  
BRANCH  37  38
HETATM   38  C   UNL     1     -10.701  19.162  67.249  1.00  0.00    -0.585 C  
BRANCH  38  39
HETATM   39  C   UNL     1      -9.835  20.397  66.984  1.00  0.00    -0.594 C  
BRANCH  39  40
HETATM   40  C   UNL     1      -8.346  20.060  66.878  1.00  0.00    -0.326 C  
HETATM   41  N   UNL     1      -7.515  21.258  66.932  1.00  0.00    -0.770 NA 
HETATM   42  H2  UNL     1      -7.713  21.810  67.767  1.00  0.00     0.000 HD 
HETATM   43  H1  UNL     1      -6.523  21.033  66.861  1.00  0.00     0.000 HD 
ENDBRANCH  39  40
ENDBRANCH  38  39
ENDBRANCH  37  38
ENDBRANCH  36  37
ENDBRANCH  33  36
ENDBRANCH  31  32
ENDBRANCH  30  31
ENDBRANCH  28  30
ENDBRANCH  25  26
ENDBRANCH  24  25
ENDBRANCH  23  24
ENDBRANCH  22  23
ENDBRANCH  21  22
ENDBRANCH  19  21
ENDBRANCH  16  17
ENDBRANCH  15  16
ENDBRANCH  12  15
ENDBRANCH  10  11
ENDBRANCH   9  10
ENDBRANCH   8   9
ENDBRANCH   7   8
ENDBRANCH   6   7
ENDBRANCH   3   6
TORSDOF 23
ENDMDL
MODEL       25
REMARK 921   NORMALIZED FREE ENERGY PREDICTED BY IDOCK:   -5.38 KCAL/MOL
REMARK 922        TOTAL FREE ENERGY PREDICTED BY IDOCK:  -15.37 KCAL/MOL
REMARK 923 INTER-LIGAND FREE ENERGY PREDICTED BY IDOCK:  -12.36 KCAL/MOL
REMARK 924 INTRA-LIGAND FREE ENERGY PREDICTED BY IDOCK:   -3.02 KCAL/MOL
REMARK 927      BINDING AFFINITY PREDICTED BY RF-SCORE:    0.00 PKD
ROOT
HETATM    1  C   UNL     1      -7.041  13.376  68.632  1.00  0.00    -0.106 C  
HETATM    2  C   UNL     1      -6.730  12.026  68.040  1.00  0.00    -0.070 C  
HETATM    3  N   UNL     1      -7.693  11.463  67.244  1.00  0.00    -0.137 N  
HETATM    4  O   UNL     1      -5.667  11.463  68.301  1.00  0.00    -0.046 OA 
HETATM    5  O   UNL     1      -8.846  12.135  66.802  1.00  0.00    -0.197 OA 
ENDROOT
BRANCH   3   6
HETATM    6  C   UNL     1      -7.549  10.158  66.612  1.00  0.00    -0.107 C  
BRANCH   6   7
HETATM    7  C   UNL     1      -7.702  10.227  65.091  1.00  0.00    -0.136 C  
BRANCH   7   8
HETATM    8  C   UNL     1      -8.854   9.332  64.629  1.00  0.00    -0.218 C  
BRANCH   8   9
HETATM    9  C   UNL     1      -9.036   9.366  63.111  1.00  0.00    -0.166 C  
BRANCH   9  10
HETATM   10  C   UNL     1      -9.540  10.722  62.617  1.00  0.00    -0.261 C  
BRANCH  10  11
HETATM   11  N   UNL     1     -10.811  11.095  63.219  1.00  0.00    -0.787 N  
HETATM   12  C   UNL     1     -10.976  12.313  63.839  1.00  0.00    -0.406 C  
HETATM   13  H   UNL     1     -11.594  10.442  63.181  1.00  0.00     0.000 HD 
HETATM   14  O   UNL     1     -10.103  13.175  63.898  1.00  0.00    -0.334 OA 
BRANCH  12  15
HETATM   15  C   UNL     1     -12.355  12.498  64.435  1.00  0.00    -0.537 C  
BRANCH  15  16
HETATM   16  C   UNL     1     -12.467  13.863  65.110  1.00  0.00    -0.479 C  
BRANCH  16  17
HETATM   17  C   UNL     1     -11.819  13.885  66.481  1.00  0.00    -0.414 C  
HETATM   18  O   UNL     1     -12.068  13.017  67.316  1.00  0.00    -0.348 OA 
HETATM   19  N   UNL     1     -10.976  14.936  66.735  1.00  0.00    -0.321 N  
HETATM   20  O   UNL     1     -10.584  15.894  65.784  1.00  0.00    -0.332 OA 
BRANCH  19  21
HETATM   21  C   UNL     1     -10.326  15.156  68.019  1.00  0.00    -0.240 C  
BRANCH  21  22
HETATM   22  C   UNL     1     -10.847  16.408  68.730  1.00  0.00    -0.338 C  
BRANCH  22  23
HETATM   23  C   UNL     1     -11.181  16.161  70.214  1.00  0.00    -0.389 C  
BRANCH  23  24
HETATM   24  C   UNL     1     -12.500  15.416  70.420  1.00  0.00    -0.447 C  
BRANCH  24  25
HETATM   25  C   UNL     1     -12.307  14.154  71.258  1.00  0.00    -0.369 C  
BRANCH  25  26
HETATM   26  N   UNL     1     -11.975  13.010  70.433  1.00  0.00    -0.517 N  
HETATM   27  H   UNL     1     -11.386  13.146  69.612  1.00  0.00     0.000 HD 
HETATM   28  C   UNL     1     -12.433  11.747  70.726  1.00  0.00    -0.312 C  
HETATM   29  O   UNL     1     -13.130  11.489  71.703  1.00  0.00    -0.452 OA 
BRANCH  28  30
HETATM   30  C   UNL     1     -12.018  10.685  69.741  1.00  0.00    -0.363 C  
BRANCH  30  31
HETATM   31  C   UNL     1     -10.506  10.522  69.775  1.00  0.00    -0.245 C  
BRANCH  31  32
HETATM   32  C   UNL     1     -10.115   9.260  70.516  1.00  0.00    -0.255 C  
HETATM   33  N   UNL     1      -9.901   8.115  69.789  1.00  0.00    -0.184 N  
HETATM   34  O   UNL     1      -9.919   9.310  71.732  1.00  0.00    -0.273 OA 
HETATM   35  O   UNL     1     -10.518   7.962  68.533  1.00  0.00    -0.206 OA 
BRANCH  33  36
HETATM   36  C   UNL     1      -9.592   6.830  70.419  1.00  0.00    -0.169 C  
BRANCH  36  37
HETATM   37  C   UNL     1     -10.792   5.882  70.418  1.00  0.00    -0.378 C  
BRANCH  37  38
HETATM   38  C   UNL     1     -12.124   6.637  70.484  1.00  0.00    -0.302 C  
BRANCH  38  39
HETATM   39  C   UNL     1     -12.557   6.893  71.931  1.00  0.00    -0.336 C  
BRANCH  39  40
HETATM   40  C   UNL     1     -13.741   7.857  72.028  1.00  0.00    -0.228 C  
HETATM   41  N   UNL     1     -13.492   8.924  72.991  1.00  0.00    -0.952 NA 
HETATM   42  H2  UNL     1     -12.625   9.420  72.780  1.00  0.00     0.000 HD 
HETATM   43  H1  UNL     1     -14.281   9.567  73.056  1.00  0.00     0.000 HD 
ENDBRANCH  39  40
ENDBRANCH  38  39
ENDBRANCH  37  38
ENDBRANCH  36  37
ENDBRANCH  33  36
ENDBRANCH  31  32
ENDBRANCH  30  31
ENDBRANCH  28  30
ENDBRANCH  25  26
ENDBRANCH  24  25
ENDBRANCH  23  24
ENDBRANCH  22  23
ENDBRANCH  21  22
ENDBRANCH  19  21
ENDBRANCH  16  17
ENDBRANCH  15  16
ENDBRANCH  12  15
ENDBRANCH  10  11
ENDBRANCH   9  10
ENDBRANCH   8   9
ENDBRANCH   7   8
ENDBRANCH   6   7
ENDBRANCH   3   6
TORSDOF 23
ENDMDL
MODEL       26
REMARK 921   NORMALIZED FREE ENERGY PREDICTED BY IDOCK:   -5.38 KCAL/MOL
REMARK 922        TOTAL FREE ENERGY PREDICTED BY IDOCK:  -15.37 KCAL/MOL
REMARK 923 INTER-LIGAND FREE ENERGY PREDICTED BY IDOCK:  -12.91 KCAL/MOL
REMARK 924 INTRA-LIGAND FREE ENERGY PREDICTED BY IDOCK:   -2.46 KCAL/MOL
REMARK 927      BINDING AFFINITY PREDICTED BY RF-SCORE:    0.00 PKD
ROOT
HETATM    1  C   UNL     1      -6.642   5.022  67.614  1.00  0.00    -0.050 C  
HETATM    2  C   UNL     1      -7.629   5.706  66.704  1.00  0.00    -0.092 C  
HETATM    3  N   UNL     1      -7.421   7.037  66.456  1.00  0.00    -0.079 N  
HETATM    4  O   UNL     1      -8.587   5.083  66.245  1.00  0.00    -0.112 OA 
HETATM    5  O   UNL     1      -6.265   7.740  66.835  1.00  0.00    -0.050 OA 
ENDROOT
BRANCH   3   6
HETATM    6  C   UNL     1      -8.293   7.841  65.611  1.00  0.00    -0.139 C  
BRANCH   6   7
HETATM    7  C   UNL     1      -7.570   8.388  64.378  1.00  0.00    -0.115 C  
BRANCH   7   8
HETATM    8  C   UNL     1      -8.533   9.201  63.511  1.00  0.00    -0.193 C  
BRANCH   8   9
HETATM    9  C   UNL     1      -9.474  10.066  64.351  1.00  0.00    -0.349 C  
BRANCH   9  10
HETATM   10  C   UNL     1     -10.282  11.043  63.497  1.00  0.00    -0.365 C  
BRANCH  10  11
HETATM   11  N   UNL     1     -10.943  12.065  64.295  1.00  0.00    -0.321 N  
HETATM   12  C   UNL     1     -12.257  12.407  64.068  1.00  0.00    -0.490 C  
HETATM   13  H   UNL     1     -10.423  12.536  65.035  1.00  0.00     0.000 HD 
HETATM   14  O   UNL     1     -12.970  11.866  63.226  1.00  0.00    -0.707 OA 
BRANCH  12  15
HETATM   15  C   UNL     1     -12.751  13.514  64.973  1.00  0.00    -0.399 C  
BRANCH  15  16
HETATM   16  C   UNL     1     -12.076  14.837  64.617  1.00  0.00    -0.437 C  
BRANCH  16  17
HETATM   17  C   UNL     1     -10.937  15.177  65.558  1.00  0.00    -0.365 C  
HETATM   18  O   UNL     1     -10.389  14.308  66.233  1.00  0.00    -0.280 OA 
HETATM   19  N   UNL     1     -10.585  16.501  65.628  1.00  0.00    -0.350 N  
HETATM   20  O   UNL     1     -11.112  17.512  64.806  1.00  0.00    -0.959 OA 
BRANCH  19  21
HETATM   21  C   UNL     1      -9.566  17.017  66.529  1.00  0.00    -0.278 C  
BRANCH  21  22
HETATM   22  C   UNL     1     -10.121  17.329  67.922  1.00  0.00    -0.317 C  
BRANCH  22  23
HETATM   23  C   UNL     1      -9.665  16.318  68.991  1.00  0.00    -0.252 C  
BRANCH  23  24
HETATM   24  C   UNL     1     -10.757  15.977  70.006  1.00  0.00    -0.328 C  
BRANCH  24  25
HETATM   25  C   UNL     1     -11.847  15.106  69.385  1.00  0.00    -0.330 C  
BRANCH  25  26
HETATM   26  N   UNL     1     -12.099  13.918  70.176  1.00  0.00    -0.329 N  
HETATM   27  H   UNL     1     -11.497  13.104  70.053  1.00  0.00     0.000 HD 
HETATM   28  C   UNL     1     -13.125  13.858  71.089  1.00  0.00    -0.281 C  
HETATM   29  O   UNL     1     -13.884  14.795  71.317  1.00  0.00    -0.401 OA 
BRANCH  28  30
HETATM   30  C   UNL     1     -13.259  12.534  71.797  1.00  0.00    -0.444 C  
BRANCH  30  31
HETATM   31  C   UNL     1     -12.525  11.460  71.011  1.00  0.00    -0.486 C  
BRANCH  31  32
HETATM   32  C   UNL     1     -12.696  10.103  71.660  1.00  0.00    -0.447 C  
HETATM   33  N   UNL     1     -11.574   9.350  71.909  1.00  0.00    -0.355 N  
HETATM   34  O   UNL     1     -13.818   9.743  72.022  1.00  0.00    -0.305 OA 
HETATM   35  O   UNL     1     -10.412   9.558  71.141  1.00  0.00    -0.313 OA 
BRANCH  33  36
HETATM   36  C   UNL     1     -11.641   7.998  72.465  1.00  0.00    -0.403 C  
BRANCH  36  37
HETATM   37  C   UNL     1     -11.807   6.934  71.378  1.00  0.00    -0.373 C  
BRANCH  37  38
HETATM   38  C   UNL     1     -10.608   5.981  71.316  1.00  0.00    -0.302 C  
BRANCH  38  39
HETATM   39  C   UNL     1     -10.250   5.616  69.873  1.00  0.00    -0.320 C  
BRANCH  39  40
HETATM   40  C   UNL     1     -10.403   6.796  68.912  1.00  0.00    -0.192 C  
HETATM   41  N   UNL     1     -11.247   6.459  67.771  1.00  0.00    -0.601 NA 
HETATM   42  H2  UNL     1     -12.155   6.105  68.072  1.00  0.00     0.000 HD 
HETATM   43  H1  UNL     1     -11.349   7.246  67.130  1.00  0.00     0.000 HD 
ENDBRANCH  39  40
ENDBRANCH  38  39
ENDBRANCH  37  38
ENDBRANCH  36  37
ENDBRANCH  33  36
ENDBRANCH  31  32
ENDBRANCH  30  31
ENDBRANCH  28  30
ENDBRANCH  25  26
ENDBRANCH  24  25
ENDBRANCH  23  24
ENDBRANCH  22  23
ENDBRANCH  21  22
ENDBRANCH  19  21
ENDBRANCH  16  17
ENDBRANCH  15  16
ENDBRANCH  12  15
ENDBRANCH  10  11
ENDBRANCH   9  10
ENDBRANCH   8   9
ENDBRANCH   7   8
ENDBRANCH   6   7
ENDBRANCH   3   6
TORSDOF 23
ENDMDL
MODEL       27
REMARK 921   NORMALIZED FREE ENERGY PREDICTED BY IDOCK:   -5.37 KCAL/MOL
REMARK 922        TOTAL FREE ENERGY PREDICTED BY IDOCK:  -15.35 KCAL/MOL
REMARK 923 INTER-LIGAND FREE ENERGY PREDICTED BY IDOCK:  -12.31 KCAL/MOL
REMARK 924 INTRA-LIGAND FREE ENERGY PREDICTED BY IDOCK:   -3.04 KCAL/MOL
REMARK 927      BINDING AFFINITY PREDICTED BY RF-SCORE:    0.00 PKD
ROOT
HETATM    1  C   UNL     1      -9.716  19.951  68.032  1.00  0.00    -0.510 C  
HETATM    2  C   UNL     1      -9.909  18.881  66.990  1.00  0.00    -0.324 C  
HETATM    3  N   UNL     1     -10.303  17.647  67.435  1.00  0.00    -0.349 N  
HETATM    4  O   UNL     1      -9.685  19.123  65.803  1.00  0.00    -0.428 OA 
HETATM    5  O   UNL     1     -10.712  17.376  68.752  1.00  0.00    -0.309 OA 
ENDROOT
BRANCH   3   6
HETATM    6  C   UNL     1     -10.517  16.507  66.554  1.00  0.00    -0.270 C  
BRANCH   6   7
HETATM    7  C   UNL     1      -9.594  15.332  66.886  1.00  0.00    -0.245 C  
BRANCH   7   8
HETATM    8  C   UNL     1     -10.409  14.053  67.084  1.00  0.00    -0.265 C  
BRANCH   8   9
HETATM    9  C   UNL     1     -11.900  14.341  67.263  1.00  0.00    -0.444 C  
BRANCH   9  10
HETATM   10  C   UNL     1     -12.737  13.813  66.097  1.00  0.00    -0.283 C  
BRANCH  10  11
HETATM   11  N   UNL     1     -12.081  12.723  65.391  1.00  0.00    -0.439 N  
HETATM   12  C   UNL     1     -12.009  12.706  64.016  1.00  0.00    -0.451 C  
HETATM   13  H   UNL     1     -11.666  11.959  65.924  1.00  0.00     0.000 HD 
HETATM   14  O   UNL     1     -12.445  13.601  63.297  1.00  0.00    -0.801 OA 
BRANCH  12  15
HETATM   15  C   UNL     1     -11.322  11.473  63.469  1.00  0.00    -0.375 C  
BRANCH  15  16
HETATM   16  C   UNL     1      -9.893  11.378  63.998  1.00  0.00    -0.316 C  
BRANCH  16  17
HETATM   17  C   UNL     1      -9.761  10.381  65.132  1.00  0.00    -0.291 C  
HETATM   18  O   UNL     1     -10.316  10.570  66.213  1.00  0.00    -0.234 OA 
HETATM   19  N   UNL     1      -8.968   9.289  64.888  1.00  0.00    -0.200 N  
HETATM   20  O   UNL     1      -8.395   8.980  63.642  1.00  0.00    -0.171 OA 
BRANCH  19  21
HETATM   21  C   UNL     1      -8.670   8.271  65.884  1.00  0.00    -0.159 C  
BRANCH  21  22
HETATM   22  C   UNL     1      -7.175   7.945  65.959  1.00  0.00    -0.073 C  
BRANCH  22  23
HETATM   23  C   UNL     1      -6.570   8.215  67.349  1.00  0.00    -0.058 C  
BRANCH  23  24
HETATM   24  C   UNL     1      -7.598   8.705  68.371  1.00  0.00    -0.096 C  
BRANCH  24  25
HETATM   25  C   UNL     1      -7.911   7.631  69.410  1.00  0.00    -0.125 C  
BRANCH  25  26
HETATM   26  N   UNL     1      -9.337   7.499  69.630  1.00  0.00    -0.154 N  
HETATM   27  H   UNL     1      -9.917   8.338  69.638  1.00  0.00     0.000 HD 
HETATM   28  C   UNL     1      -9.931   6.275  69.827  1.00  0.00    -0.168 C  
HETATM   29  O   UNL     1      -9.315   5.213  69.814  1.00  0.00    -0.116 OA 
BRANCH  28  30
HETATM   30  C   UNL     1     -11.417   6.330  70.074  1.00  0.00    -0.460 C  
BRANCH  30  31
HETATM   31  C   UNL     1     -11.687   7.008  71.408  1.00  0.00    -0.344 C  
BRANCH  31  32
HETATM   32  C   UNL     1     -12.659   8.157  71.243  1.00  0.00    -0.229 C  
HETATM   33  N   UNL     1     -12.169   9.375  70.839  1.00  0.00    -0.264 N  
HETATM   34  O   UNL     1     -13.866   7.954  71.394  1.00  0.00    -0.335 OA 
HETATM   35  O   UNL     1     -10.820   9.698  71.082  1.00  0.00    -0.337 OA 
BRANCH  33  36
HETATM   36  C   UNL     1     -13.016  10.564  70.722  1.00  0.00    -0.330 C  
BRANCH  36  37
HETATM   37  C   UNL     1     -13.109  11.338  72.038  1.00  0.00    -0.431 C  
BRANCH  37  38
HETATM   38  C   UNL     1     -13.390  12.828  71.812  1.00  0.00    -0.436 C  
BRANCH  38  39
HETATM   39  C   UNL     1     -12.395  13.448  70.826  1.00  0.00    -0.433 C  
BRANCH  39  40
HETATM   40  C   UNL     1     -12.183  14.943  71.066  1.00  0.00    -0.317 C  
HETATM   41  N   UNL     1     -13.154  15.752  70.336  1.00  0.00    -0.743 NA 
HETATM   42  H2  UNL     1     -14.110  15.472  70.554  1.00  0.00     0.000 HD 
HETATM   43  H1  UNL     1     -13.012  16.749  70.496  1.00  0.00     0.000 HD 
ENDBRANCH  39  40
ENDBRANCH  38  39
ENDBRANCH  37  38
ENDBRANCH  36  37
ENDBRANCH  33  36
ENDBRANCH  31  32
ENDBRANCH  30  31
ENDBRANCH  28  30
ENDBRANCH  25  26
ENDBRANCH  24  25
ENDBRANCH  23  24
ENDBRANCH  22  23
ENDBRANCH  21  22
ENDBRANCH  19  21
ENDBRANCH  16  17
ENDBRANCH  15  16
ENDBRANCH  12  15
ENDBRANCH  10  11
ENDBRANCH   9  10
ENDBRANCH   8   9
ENDBRANCH   7   8
ENDBRANCH   6   7
ENDBRANCH   3   6
TORSDOF 23
ENDMDL
MODEL       28
REMARK 921   NORMALIZED FREE ENERGY PREDICTED BY IDOCK:   -5.36 KCAL/MOL
REMARK 922        TOTAL FREE ENERGY PREDICTED BY IDOCK:  -15.33 KCAL/MOL
REMARK 923 INTER-LIGAND FREE ENERGY PREDICTED BY IDOCK:  -12.17 KCAL/MOL
REMARK 924 INTRA-LIGAND FREE ENERGY PREDICTED BY IDOCK:   -3.16 KCAL/MOL
REMARK 927      BINDING AFFINITY PREDICTED BY RF-SCORE:    0.00 PKD
ROOT
HETATM    1  C   UNL     1      -6.196  13.767  67.867  1.00  0.00    -0.160 C  
HETATM    2  C   UNL     1      -6.389  12.287  67.666  1.00  0.00    -0.122 C  
HETATM    3  N   UNL     1      -7.605  11.882  67.180  1.00  0.00    -0.152 N  
HETATM    4  O   UNL     1      -5.492  11.497  67.964  1.00  0.00    -0.043 OA 
HETATM    5  O   UNL     1      -8.590  12.755  66.690  1.00  0.00    -0.136 OA 
ENDROOT
BRANCH   3   6
HETATM    6  C   UNL     1      -7.950  10.486  66.947  1.00  0.00    -0.121 C  
BRANCH   6   7
HETATM    7  C   UNL     1      -7.619  10.033  65.523  1.00  0.00    -0.136 C  
BRANCH   7   8
HETATM    8  C   UNL     1      -8.882   9.550  64.809  1.00  0.00    -0.244 C  
BRANCH   8   9
HETATM    9  C   UNL     1      -8.728   9.576  63.287  1.00  0.00    -0.238 C  
BRANCH   9  10
HETATM   10  C   UNL     1      -9.383  10.807  62.659  1.00  0.00    -0.313 C  
BRANCH  10  11
HETATM   11  N   UNL     1     -10.714  11.060  63.190  1.00  0.00    -0.789 N  
HETATM   12  C   UNL     1     -11.023  12.256  63.799  1.00  0.00    -0.435 C  
HETATM   13  H   UNL     1     -11.431  10.339  63.108  1.00  0.00     0.000 HD 
HETATM   14  O   UNL     1     -10.237  13.193  63.906  1.00  0.00    -0.365 OA 
BRANCH  12  15
HETATM   15  C   UNL     1     -12.444  12.312  64.318  1.00  0.00    -0.508 C  
BRANCH  15  16
HETATM   16  C   UNL     1     -12.585  13.404  65.375  1.00  0.00    -0.528 C  
BRANCH  16  17
HETATM   17  C   UNL     1     -12.078  12.962  66.734  1.00  0.00    -0.265 C  
HETATM   18  O   UNL     1     -12.099  11.779  67.066  1.00  0.00    -0.575 OA 
HETATM   19  N   UNL     1     -11.634  13.957  67.567  1.00  0.00    -0.339 N  
HETATM   20  O   UNL     1     -11.498  15.307  67.198  1.00  0.00    -0.307 OA 
BRANCH  19  21
HETATM   21  C   UNL     1     -11.183  13.724  68.931  1.00  0.00    -0.272 C  
BRANCH  21  22
HETATM   22  C   UNL     1     -12.091  14.390  69.968  1.00  0.00    -0.401 C  
BRANCH  22  23
HETATM   23  C   UNL     1     -12.530  13.428  71.088  1.00  0.00    -0.414 C  
BRANCH  23  24
HETATM   24  C   UNL     1     -12.638  11.974  70.627  1.00  0.00    -0.255 C  
BRANCH  24  25
HETATM   25  C   UNL     1     -13.159  11.069  71.743  1.00  0.00    -0.449 C  
BRANCH  25  26
HETATM   26  N   UNL     1     -12.420   9.824  71.811  1.00  0.00    -0.391 N  
HETATM   27  H   UNL     1     -11.422   9.851  72.023  1.00  0.00     0.000 HD 
HETATM   28  C   UNL     1     -13.026   8.609  71.598  1.00  0.00    -0.344 C  
HETATM   29  O   UNL     1     -14.222   8.481  71.358  1.00  0.00    -0.388 OA 
BRANCH  28  30
HETATM   30  C   UNL     1     -12.098   7.423  71.675  1.00  0.00    -0.349 C  
BRANCH  30  31
HETATM   31  C   UNL     1     -10.771   7.853  72.281  1.00  0.00    -0.344 C  
BRANCH  31  32
HETATM   32  C   UNL     1      -9.753   8.146  71.200  1.00  0.00    -0.163 C  
HETATM   33  N   UNL     1      -9.188   7.088  70.529  1.00  0.00    -0.159 N  
HETATM   34  O   UNL     1      -9.517   9.317  70.893  1.00  0.00    -0.258 OA 
HETATM   35  O   UNL     1      -9.131   5.824  71.145  1.00  0.00    -0.144 OA 
BRANCH  33  36
HETATM   36  C   UNL     1      -8.142   7.265  69.520  1.00  0.00    -0.129 C  
BRANCH  36  37
HETATM   37  C   UNL     1      -8.558   6.712  68.155  1.00  0.00    -0.115 C  
BRANCH  37  38
HETATM   38  C   UNL     1      -9.828   7.385  67.623  1.00  0.00    -0.194 C  
BRANCH  38  39
HETATM   39  C   UNL     1     -10.940   6.365  67.362  1.00  0.00    -0.463 C  
BRANCH  39  40
HETATM   40  C   UNL     1     -10.419   5.075  66.726  1.00  0.00    -0.219 C  
HETATM   41  N   UNL     1     -11.151   4.738  65.509  1.00  0.00    -0.943 NA 
HETATM   42  H2  UNL     1     -11.142   5.511  64.844  1.00  0.00     0.000 HD 
HETATM   43  H1  UNL     1     -10.803   3.878  65.084  1.00  0.00     0.000 HD 
ENDBRANCH  39  40
ENDBRANCH  38  39
ENDBRANCH  37  38
ENDBRANCH  36  37
ENDBRANCH  33  36
ENDBRANCH  31  32
ENDBRANCH  30  31
ENDBRANCH  28  30
ENDBRANCH  25  26
ENDBRANCH  24  25
ENDBRANCH  23  24
ENDBRANCH  22  23
ENDBRANCH  21  22
ENDBRANCH  19  21
ENDBRANCH  16  17
ENDBRANCH  15  16
ENDBRANCH  12  15
ENDBRANCH  10  11
ENDBRANCH   9  10
ENDBRANCH   8   9
ENDBRANCH   7   8
ENDBRANCH   6   7
ENDBRANCH   3   6
TORSDOF 23
ENDMDL
MODEL       29
REMARK 921   NORMALIZED FREE ENERGY PREDICTED BY IDOCK:   -5.33 KCAL/MOL
REMARK 922        TOTAL FREE ENERGY PREDICTED BY IDOCK:  -15.25 KCAL/MOL
REMARK 923 INTER-LIGAND FREE ENERGY PREDICTED BY IDOCK:  -12.01 KCAL/MOL
REMARK 924 INTRA-LIGAND FREE ENERGY PREDICTED BY IDOCK:   -3.24 KCAL/MOL
REMARK 927      BINDING AFFINITY PREDICTED BY RF-SCORE:    0.00 PKD
ROOT
HETATM    1  C   UNL     1     -10.566  19.010  65.942  1.00  0.00    -0.466 C  
HETATM    2  C   UNL     1     -10.097  17.581  66.006  1.00  0.00    -0.260 C  
HETATM    3  N   UNL     1     -10.689  16.696  65.143  1.00  0.00    -0.283 N  
HETATM    4  O   UNL     1      -9.244  17.243  66.827  1.00  0.00    -0.238 OA 
HETATM    5  O   UNL     1     -11.549  17.069  64.097  1.00  0.00    -1.022 OA 
ENDROOT
BRANCH   3   6
HETATM    6  C   UNL     1     -10.355  15.279  65.094  1.00  0.00    -0.381 C  
BRANCH   6   7
HETATM    7  C   UNL     1     -11.559  14.409  64.727  1.00  0.00    -0.410 C  
BRANCH   7   8
HETATM    8  C   UNL     1     -11.894  13.450  65.871  1.00  0.00    -0.414 C  
BRANCH   8   9
HETATM    9  C   UNL     1     -11.682  11.987  65.476  1.00  0.00    -0.315 C  
BRANCH   9  10
HETATM   10  C   UNL     1     -10.716  11.838  64.300  1.00  0.00    -0.342 C  
BRANCH  10  11
HETATM   11  N   UNL     1      -9.350  11.586  64.731  1.00  0.00    -0.402 N  
HETATM   12  C   UNL     1      -9.014  10.426  65.393  1.00  0.00    -0.183 C  
HETATM   13  H   UNL     1      -8.628  12.280  64.540  1.00  0.00     0.000 HD 
HETATM   14  O   UNL     1      -9.808   9.519  65.631  1.00  0.00    -0.297 OA 
BRANCH  12  15
HETATM   15  C   UNL     1      -7.555  10.367  65.792  1.00  0.00    -0.147 C  
BRANCH  15  16
HETATM   16  C   UNL     1      -7.392  10.705  67.272  1.00  0.00    -0.092 C  
BRANCH  16  17
HETATM   17  C   UNL     1      -7.366  12.200  67.524  1.00  0.00    -0.135 C  
HETATM   18  O   UNL     1      -6.379  12.876  67.239  1.00  0.00    -0.217 OA 
HETATM   19  N   UNL     1      -8.485  12.734  68.110  1.00  0.00    -0.172 N  
HETATM   20  O   UNL     1      -9.671  12.023  68.363  1.00  0.00    -0.208 OA 
BRANCH  19  21
HETATM   21  C   UNL     1      -8.605  14.134  68.491  1.00  0.00    -0.163 C  
BRANCH  21  22
HETATM   22  C   UNL     1     -10.059  14.555  68.717  1.00  0.00    -0.239 C  
BRANCH  22  23
HETATM   23  C   UNL     1     -10.225  15.530  69.898  1.00  0.00    -0.305 C  
BRANCH  23  24
HETATM   24  C   UNL     1     -11.102  14.975  71.021  1.00  0.00    -0.214 C  
BRANCH  24  25
HETATM   25  C   UNL     1     -12.325  14.245  70.470  1.00  0.00    -0.360 C  
BRANCH  25  26
HETATM   26  N   UNL     1     -12.329  12.846  70.849  1.00  0.00    -0.401 N  
HETATM   27  H   UNL     1     -11.752  12.189  70.323  1.00  0.00     0.000 HD 
HETATM   28  C   UNL     1     -13.088  12.381  71.896  1.00  0.00    -0.366 C  
HETATM   29  O   UNL     1     -13.794  13.101  72.594  1.00  0.00    -0.691 OA 
BRANCH  28  30
HETATM   30  C   UNL     1     -12.995  10.894  72.126  1.00  0.00    -0.273 C  
BRANCH  30  31
HETATM   31  C   UNL     1     -11.975  10.293  71.171  1.00  0.00    -0.472 C  
BRANCH  31  32
HETATM   32  C   UNL     1     -11.685   8.850  71.527  1.00  0.00    -0.324 C  
HETATM   33  N   UNL     1     -10.424   8.525  71.964  1.00  0.00    -0.309 N  
HETATM   34  O   UNL     1     -12.600   8.025  71.495  1.00  0.00    -0.305 OA 
HETATM   35  O   UNL     1      -9.331   9.333  71.600  1.00  0.00    -0.301 OA 
BRANCH  33  36
HETATM   36  C   UNL     1     -10.026   7.148  72.263  1.00  0.00    -0.172 C  
BRANCH  36  37
HETATM   37  C   UNL     1      -9.165   6.543  71.153  1.00  0.00    -0.156 C  
BRANCH  37  38
HETATM   38  C   UNL     1      -9.998   5.735  70.152  1.00  0.00    -0.258 C  
BRANCH  38  39
HETATM   39  C   UNL     1      -9.495   5.921  68.717  1.00  0.00    -0.143 C  
BRANCH  39  40
HETATM   40  C   UNL     1      -9.371   7.394  68.324  1.00  0.00    -0.140 C  
HETATM   41  N   UNL     1     -10.678   8.030  68.191  1.00  0.00    -0.429 NA 
HETATM   42  H2  UNL     1     -11.234   7.917  69.039  1.00  0.00     0.000 HD 
HETATM   43  H1  UNL     1     -10.595   9.012  67.929  1.00  0.00     0.000 HD 
ENDBRANCH  39  40
ENDBRANCH  38  39
ENDBRANCH  37  38
ENDBRANCH  36  37
ENDBRANCH  33  36
ENDBRANCH  31  32
ENDBRANCH  30  31
ENDBRANCH  28  30
ENDBRANCH  25  26
ENDBRANCH  24  25
ENDBRANCH  23  24
ENDBRANCH  22  23
ENDBRANCH  21  22
ENDBRANCH  19  21
ENDBRANCH  16  17
ENDBRANCH  15  16
ENDBRANCH  12  15
ENDBRANCH  10  11
ENDBRANCH   9  10
ENDBRANCH   8   9
ENDBRANCH   7   8
ENDBRANCH   6   7
ENDBRANCH   3   6
TORSDOF 23
ENDMDL
MODEL       30
REMARK 921   NORMALIZED FREE ENERGY PREDICTED BY IDOCK:   -5.33 KCAL/MOL
REMARK 922        TOTAL FREE ENERGY PREDICTED BY IDOCK:  -15.24 KCAL/MOL
REMARK 923 INTER-LIGAND FREE ENERGY PREDICTED BY IDOCK:  -12.11 KCAL/MOL
REMARK 924 INTRA-LIGAND FREE ENERGY PREDICTED BY IDOCK:   -3.13 KCAL/MOL
REMARK 927      BINDING AFFINITY PREDICTED BY RF-SCORE:    0.00 PKD
ROOT
HETATM    1  C   UNL     1      -6.603  10.501  65.790  1.00  0.00    -0.123 C  
HETATM    2  C   UNL     1      -7.870  10.226  65.023  1.00  0.00    -0.133 C  
HETATM    3  N   UNL     1      -8.995  10.895  65.427  1.00  0.00    -0.196 N  
HETATM    4  O   UNL     1      -7.872   9.410  64.101  1.00  0.00    -0.113 OA 
HETATM    5  O   UNL     1      -9.000  11.938  66.368  1.00  0.00    -0.202 OA 
ENDROOT
BRANCH   3   6
HETATM    6  C   UNL     1     -10.298  10.725  64.797  1.00  0.00    -0.310 C  
BRANCH   6   7
HETATM    7  C   UNL     1     -10.513  11.693  63.632  1.00  0.00    -0.483 C  
BRANCH   7   8
HETATM    8  C   UNL     1     -11.951  12.214  63.629  1.00  0.00    -0.628 C  
BRANCH   8   9
HETATM    9  C   UNL     1     -12.119  13.447  64.519  1.00  0.00    -0.457 C  
BRANCH   9  10
HETATM   10  C   UNL     1     -10.793  14.168  64.768  1.00  0.00    -0.413 C  
BRANCH  10  11
HETATM   11  N   UNL     1     -10.708  14.727  66.108  1.00  0.00    -0.305 N  
HETATM   12  C   UNL     1     -10.423  16.059  66.307  1.00  0.00    -0.320 C  
HETATM   13  H   UNL     1     -10.862  14.121  66.914  1.00  0.00     0.000 HD 
HETATM   14  O   UNL     1     -10.263  16.868  65.398  1.00  0.00    -0.605 OA 
BRANCH  12  15
HETATM   15  C   UNL     1     -10.340  16.440  67.770  1.00  0.00    -0.287 C  
BRANCH  15  16
HETATM   16  C   UNL     1     -11.610  16.019  68.505  1.00  0.00    -0.316 C  
BRANCH  16  17
HETATM   17  C   UNL     1     -11.316  15.398  69.858  1.00  0.00    -0.304 C  
HETATM   18  O   UNL     1     -10.168  15.111  70.190  1.00  0.00    -0.202 OA 
HETATM   19  N   UNL     1     -12.402  15.153  70.658  1.00  0.00    -0.340 N  
HETATM   20  O   UNL     1     -13.718  15.552  70.366  1.00  0.00    -0.176 OA 
BRANCH  19  21
HETATM   21  C   UNL     1     -12.315  14.497  71.955  1.00  0.00    -0.313 C  
BRANCH  21  22
HETATM   22  C   UNL     1     -13.522  13.598  72.238  1.00  0.00    -0.652 C  
BRANCH  22  23
HETATM   23  C   UNL     1     -13.201  12.098  72.089  1.00  0.00    -0.438 C  
BRANCH  23  24
HETATM   24  C   UNL     1     -12.309  11.787  70.887  1.00  0.00    -0.420 C  
BRANCH  24  25
HETATM   25  C   UNL     1     -12.276  10.290  70.586  1.00  0.00    -0.329 C  
BRANCH  25  26
HETATM   26  N   UNL     1     -11.518   9.560  71.583  1.00  0.00    -0.389 N  
HETATM   27  H   UNL     1     -10.646   9.959  71.931  1.00  0.00     0.000 HD 
HETATM   28  C   UNL     1     -11.941   8.347  72.071  1.00  0.00    -0.357 C  
HETATM   29  O   UNL     1     -12.985   7.803  71.724  1.00  0.00    -0.322 OA 
BRANCH  28  30
HETATM   30  C   UNL     1     -11.011   7.716  73.076  1.00  0.00    -0.457 C  
BRANCH  30  31
HETATM   31  C   UNL     1      -9.573   8.071  72.731  1.00  0.00    -0.345 C  
BRANCH  31  32
HETATM   32  C   UNL     1      -9.042   7.171  71.635  1.00  0.00    -0.137 C  
HETATM   33  N   UNL     1      -8.412   7.752  70.561  1.00  0.00    -0.126 N  
HETATM   34  O   UNL     1      -9.114   5.948  71.769  1.00  0.00    -0.142 OA 
HETATM   35  O   UNL     1      -8.707   9.085  70.218  1.00  0.00    -0.149 OA 
BRANCH  33  36
HETATM   36  C   UNL     1      -7.930   6.974  69.418  1.00  0.00    -0.118 C  
BRANCH  36  37
HETATM   37  C   UNL     1      -7.765   7.834  68.163  1.00  0.00    -0.119 C  
BRANCH  37  38
HETATM   38  C   UNL     1      -8.558   7.280  66.975  1.00  0.00    -0.122 C  
BRANCH  38  39
HETATM   39  C   UNL     1     -10.058   7.557  67.117  1.00  0.00    -0.317 C  
BRANCH  39  40
HETATM   40  C   UNL     1     -10.835   6.340  67.621  1.00  0.00    -0.346 C  
HETATM   41  N   UNL     1     -11.536   6.624  68.869  1.00  0.00    -0.602 NA 
HETATM   42  H2  UNL     1     -12.140   7.440  68.778  1.00  0.00     0.000 HD 
HETATM   43  H1  UNL     1     -12.054   5.812  69.205  1.00  0.00     0.000 HD 
ENDBRANCH  39  40
ENDBRANCH  38  39
ENDBRANCH  37  38
ENDBRANCH  36  37
ENDBRANCH  33  36
ENDBRANCH  31  32
ENDBRANCH  30  31
ENDBRANCH  28  30
ENDBRANCH  25  26
ENDBRANCH  24  25
ENDBRANCH  23  24
ENDBRANCH  22  23
ENDBRANCH  21  22
ENDBRANCH  19  21
ENDBRANCH  16  17
ENDBRANCH  15  16
ENDBRANCH  12  15
ENDBRANCH  10  11
ENDBRANCH   9  10
ENDBRANCH   8   9
ENDBRANCH   7   8
ENDBRANCH   6   7
ENDBRANCH   3   6
TORSDOF 23
ENDMDL
MODEL       31
REMARK 921   NORMALIZED FREE ENERGY PREDICTED BY IDOCK:   -5.30 KCAL/MOL
REMARK 922        TOTAL FREE ENERGY PREDICTED BY IDOCK:  -15.19 KCAL/MOL
REMARK 923 INTER-LIGAND FREE ENERGY PREDICTED BY IDOCK:  -12.31 KCAL/MOL
REMARK 924 INTRA-LIGAND FREE ENERGY PREDICTED BY IDOCK:   -2.88 KCAL/MOL
REMARK 927      BINDING AFFINITY PREDICTED BY RF-SCORE:    0.00 PKD
ROOT
HETATM    1  C   UNL     1     -12.301  12.367  63.454  1.00  0.00    -0.603 C  
HETATM    2  C   UNL     1     -11.684  11.982  64.774  1.00  0.00    -0.275 C  
HETATM    3  N   UNL     1     -10.536  11.236  64.726  1.00  0.00    -0.315 N  
HETATM    4  O   UNL     1     -12.226  12.308  65.831  1.00  0.00    -0.634 OA 
HETATM    5  O   UNL     1      -9.812  10.975  63.551  1.00  0.00    -0.290 OA 
ENDROOT
BRANCH   3   6
HETATM    6  C   UNL     1      -9.831  10.773  65.913  1.00  0.00    -0.239 C  
BRANCH   6   7
HETATM    7  C   UNL     1      -9.910   9.254  66.084  1.00  0.00    -0.363 C  
BRANCH   7   8
HETATM    8  C   UNL     1      -8.567   8.699  66.561  1.00  0.00    -0.124 C  
BRANCH   8   9
HETATM    9  C   UNL     1      -8.085   9.382  67.843  1.00  0.00    -0.103 C  
BRANCH   9  10
HETATM   10  C   UNL     1      -7.742   8.375  68.942  1.00  0.00    -0.105 C  
BRANCH  10  11
HETATM   11  N   UNL     1      -8.798   7.396  69.149  1.00  0.00    -0.136 N  
HETATM   12  C   UNL     1      -8.859   6.646  70.302  1.00  0.00    -0.152 C  
HETATM   13  H   UNL     1      -9.506   7.264  68.427  1.00  0.00     0.000 HD 
HETATM   14  O   UNL     1      -8.074   6.766  71.239  1.00  0.00    -0.109 OA 
BRANCH  12  15
HETATM   15  C   UNL     1     -10.006   5.658  70.312  1.00  0.00    -0.269 C  
BRANCH  15  16
HETATM   16  C   UNL     1     -11.301   6.338  69.876  1.00  0.00    -0.504 C  
BRANCH  16  17
HETATM   17  C   UNL     1     -11.901   7.197  70.973  1.00  0.00    -0.333 C  
HETATM   18  O   UNL     1     -12.474   6.690  71.936  1.00  0.00    -0.344 OA 
HETATM   19  N   UNL     1     -11.792   8.554  70.807  1.00  0.00    -0.222 N  
HETATM   20  O   UNL     1     -11.062   9.177  69.779  1.00  0.00    -0.215 OA 
BRANCH  19  21
HETATM   21  C   UNL     1     -12.372   9.526  71.721  1.00  0.00    -0.394 C  
BRANCH  21  22
HETATM   22  C   UNL     1     -12.907  10.764  70.995  1.00  0.00    -0.480 C  
BRANCH  22  23
HETATM   23  C   UNL     1     -13.159  11.953  71.942  1.00  0.00    -0.474 C  
BRANCH  23  24
HETATM   24  C   UNL     1     -12.722  13.296  71.355  1.00  0.00    -0.401 C  
BRANCH  24  25
HETATM   25  C   UNL     1     -12.127  13.130  69.958  1.00  0.00    -0.305 C  
BRANCH  25  26
HETATM   26  N   UNL     1     -10.884  13.862  69.816  1.00  0.00    -0.452 N  
HETATM   27  H   UNL     1     -10.004  13.387  70.019  1.00  0.00     0.000 HD 
HETATM   28  C   UNL     1     -10.857  15.176  69.416  1.00  0.00    -0.262 C  
HETATM   29  O   UNL     1     -11.864  15.819  69.132  1.00  0.00    -0.381 OA 
BRANCH  28  30
HETATM   30  C   UNL     1      -9.480  15.786  69.356  1.00  0.00    -0.275 C  
BRANCH  30  31
HETATM   31  C   UNL     1      -8.690  15.151  68.222  1.00  0.00    -0.171 C  
BRANCH  31  32
HETATM   32  C   UNL     1      -7.648  16.109  67.686  1.00  0.00    -0.145 C  
HETATM   33  N   UNL     1      -7.980  16.907  66.618  1.00  0.00    -0.235 N  
HETATM   34  O   UNL     1      -6.564  16.210  68.266  1.00  0.00    -0.117 OA 
HETATM   35  O   UNL     1      -8.999  16.500  65.736  1.00  0.00    -0.481 OA 
BRANCH  33  36
HETATM   36  C   UNL     1      -7.019  17.812  65.983  1.00  0.00    -0.300 C  
BRANCH  36  37
HETATM   37  C   UNL     1      -7.383  19.282  66.199  1.00  0.00    -0.289 C  
BRANCH  37  38
HETATM   38  C   UNL     1      -8.295  19.479  67.414  1.00  0.00    -0.330 C  
BRANCH  38  39
HETATM   39  C   UNL     1      -9.579  20.226  67.042  1.00  0.00    -0.572 C  
BRANCH  39  40
HETATM   40  C   UNL     1     -10.774  19.289  66.860  1.00  0.00    -0.444 C  
HETATM   41  N   UNL     1     -10.879  18.807  65.486  1.00  0.00    -0.471 NA 
HETATM   42  H2  UNL     1     -10.011  18.368  65.179  1.00  0.00     0.000 HD 
HETATM   43  H1  UNL     1     -11.676  18.182  65.365  1.00  0.00     0.000 HD 
ENDBRANCH  39  40
ENDBRANCH  38  39
ENDBRANCH  37  38
ENDBRANCH  36  37
ENDBRANCH  33  36
ENDBRANCH  31  32
ENDBRANCH  30  31
ENDBRANCH  28  30
ENDBRANCH  25  26
ENDBRANCH  24  25
ENDBRANCH  23  24
ENDBRANCH  22  23
ENDBRANCH  21  22
ENDBRANCH  19  21
ENDBRANCH  16  17
ENDBRANCH  15  16
ENDBRANCH  12  15
ENDBRANCH  10  11
ENDBRANCH   9  10
ENDBRANCH   8   9
ENDBRANCH   7   8
ENDBRANCH   6   7
ENDBRANCH   3   6
TORSDOF 23
ENDMDL
MODEL       32
REMARK 921   NORMALIZED FREE ENERGY PREDICTED BY IDOCK:   -5.28 KCAL/MOL
REMARK 922        TOTAL FREE ENERGY PREDICTED BY IDOCK:  -15.14 KCAL/MOL
REMARK 923 INTER-LIGAND FREE ENERGY PREDICTED BY IDOCK:  -11.68 KCAL/MOL
REMARK 924 INTRA-LIGAND FREE ENERGY PREDICTED BY IDOCK:   -3.46 KCAL/MOL
REMARK 927      BINDING AFFINITY PREDICTED BY RF-SCORE:    0.00 PKD
ROOT
HETATM    1  C   UNL     1     -11.883  14.467  64.726  1.00  0.00    -0.446 C  
HETATM    2  C   UNL     1     -11.401  15.893  64.788  1.00  0.00    -0.309 C  
HETATM    3  N   UNL     1     -10.776  16.286  65.942  1.00  0.00    -0.273 N  
HETATM    4  O   UNL     1     -11.603  16.658  63.844  1.00  0.00    -1.204 OA 
HETATM    5  O   UNL     1     -10.396  15.409  66.972  1.00  0.00    -0.268 OA 
ENDROOT
BRANCH   3   6
HETATM    6  C   UNL     1     -10.269  17.634  66.161  1.00  0.00    -0.343 C  
BRANCH   6   7
HETATM    7  C   UNL     1     -10.578  18.152  67.567  1.00  0.00    -0.419 C  
BRANCH   7   8
HETATM    8  C   UNL     1      -9.422  19.008  68.087  1.00  0.00    -0.387 C  
BRANCH   8   9
HETATM    9  C   UNL     1      -8.060  18.384  67.780  1.00  0.00    -0.264 C  
BRANCH   9  10
HETATM   10  C   UNL     1      -7.693  17.277  68.769  1.00  0.00    -0.261 C  
BRANCH  10  11
HETATM   11  N   UNL     1      -7.587  15.974  68.131  1.00  0.00    -0.133 N  
HETATM   12  C   UNL     1      -7.259  14.850  68.856  1.00  0.00    -0.128 C  
HETATM   13  H   UNL     1      -7.758  15.891  67.129  1.00  0.00     0.000 HD 
HETATM   14  O   UNL     1      -7.075  14.848  70.070  1.00  0.00    -0.176 OA 
BRANCH  12  15
HETATM   15  C   UNL     1      -7.160  13.600  68.008  1.00  0.00    -0.132 C  
BRANCH  15  16
HETATM   16  C   UNL     1      -8.117  12.528  68.523  1.00  0.00    -0.089 C  
BRANCH  16  17
HETATM   17  C   UNL     1      -7.696  11.130  68.112  1.00  0.00    -0.107 C  
HETATM   18  O   UNL     1      -7.724  10.779  66.934  1.00  0.00    -0.118 OA 
HETATM   19  N   UNL     1      -7.318  10.289  69.127  1.00  0.00    -0.086 N  
HETATM   20  O   UNL     1      -7.175  10.673  70.471  1.00  0.00    -0.158 OA 
BRANCH  19  21
HETATM   21  C   UNL     1      -6.955   8.895  68.924  1.00  0.00    -0.065 C  
BRANCH  21  22
HETATM   22  C   UNL     1      -8.149   7.950  69.085  1.00  0.00    -0.124 C  
BRANCH  22  23
HETATM   23  C   UNL     1      -8.659   7.393  67.742  1.00  0.00    -0.120 C  
BRANCH  23  24
HETATM   24  C   UNL     1     -10.139   7.685  67.490  1.00  0.00    -0.264 C  
BRANCH  24  25
HETATM   25  C   UNL     1     -11.024   6.525  67.942  1.00  0.00    -0.294 C  
BRANCH  25  26
HETATM   26  N   UNL     1     -11.668   6.807  69.209  1.00  0.00    -0.605 N  
HETATM   27  H   UNL     1     -12.470   7.437  69.228  1.00  0.00     0.000 HD 
HETATM   28  C   UNL     1     -11.228   6.249  70.386  1.00  0.00    -0.373 C  
HETATM   29  O   UNL     1     -10.285   5.466  70.454  1.00  0.00    -0.221 OA 
BRANCH  28  30
HETATM   30  C   UNL     1     -11.995   6.680  71.610  1.00  0.00    -0.395 C  
BRANCH  30  31
HETATM   31  C   UNL     1     -11.438   7.998  72.123  1.00  0.00    -0.393 C  
BRANCH  31  32
HETATM   32  C   UNL     1     -12.386   9.140  71.819  1.00  0.00    -0.372 C  
HETATM   33  N   UNL     1     -12.078   9.987  70.783  1.00  0.00    -0.309 N  
HETATM   34  O   UNL     1     -13.441   9.233  72.450  1.00  0.00    -0.451 OA 
HETATM   35  O   UNL     1     -10.738  10.134  70.377  1.00  0.00    -0.291 OA 
BRANCH  33  36
HETATM   36  C   UNL     1     -12.892  11.160  70.458  1.00  0.00    -0.132 C  
BRANCH  36  37
HETATM   37  C   UNL     1     -12.697  12.295  71.466  1.00  0.00    -0.339 C  
BRANCH  37  38
HETATM   38  C   UNL     1     -12.734  13.673  70.797  1.00  0.00    -0.338 C  
BRANCH  38  39
HETATM   39  C   UNL     1     -12.226  14.771  71.737  1.00  0.00    -0.416 C  
BRANCH  39  40
HETATM   40  C   UNL     1     -11.370  15.813  71.015  1.00  0.00    -0.392 C  
HETATM   41  N   UNL     1     -10.433  15.192  70.084  1.00  0.00    -0.485 NA 
HETATM   42  H2  UNL     1     -10.916  14.584  69.422  1.00  0.00     0.000 HD 
HETATM   43  H1  UNL     1      -9.862  15.887  69.602  1.00  0.00     0.000 HD 
ENDBRANCH  39  40
ENDBRANCH  38  39
ENDBRANCH  37  38
ENDBRANCH  36  37
ENDBRANCH  33  36
ENDBRANCH  31  32
ENDBRANCH  30  31
ENDBRANCH  28  30
ENDBRANCH  25  26
ENDBRANCH  24  25
ENDBRANCH  23  24
ENDBRANCH  22  23
ENDBRANCH  21  22
ENDBRANCH  19  21
ENDBRANCH  16  17
ENDBRANCH  15  16
ENDBRANCH  12  15
ENDBRANCH  10  11
ENDBRANCH   9  10
ENDBRANCH   8   9
ENDBRANCH   7   8
ENDBRANCH   6   7
ENDBRANCH   3   6
TORSDOF 23
ENDMDL
MODEL       33
REMARK 921   NORMALIZED FREE ENERGY PREDICTED BY IDOCK:   -5.27 KCAL/MOL
REMARK 922        TOTAL FREE ENERGY PREDICTED BY IDOCK:  -15.10 KCAL/MOL
REMARK 923 INTER-LIGAND FREE ENERGY PREDICTED BY IDOCK:  -12.31 KCAL/MOL
REMARK 924 INTRA-LIGAND FREE ENERGY PREDICTED BY IDOCK:   -2.80 KCAL/MOL
REMARK 927      BINDING AFFINITY PREDICTED BY RF-SCORE:    0.00 PKD
ROOT
HETATM    1  C   UNL     1     -11.652  12.996  68.972  1.00  0.00    -0.367 C  
HETATM    2  C   UNL     1     -12.153  12.502  70.304  1.00  0.00    -0.294 C  
HETATM    3  N   UNL     1     -12.240  11.145  70.467  1.00  0.00    -0.357 N  
HETATM    4  O   UNL     1     -12.492  13.303  71.176  1.00  0.00    -0.363 OA 
HETATM    5  O   UNL     1     -11.725  10.205  69.559  1.00  0.00    -0.173 OA 
ENDROOT
BRANCH   3   6
HETATM    6  C   UNL     1     -12.720  10.513  71.689  1.00  0.00    -0.445 C  
BRANCH   6   7
HETATM    7  C   UNL     1     -13.769   9.434  71.415  1.00  0.00    -0.309 C  
BRANCH   7   8
HETATM    8  C   UNL     1     -13.147   8.041  71.535  1.00  0.00    -0.322 C  
BRANCH   8   9
HETATM    9  C   UNL     1     -12.036   7.995  72.585  1.00  0.00    -0.334 C  
BRANCH   9  10
HETATM   10  C   UNL     1     -10.695   7.559  71.992  1.00  0.00    -0.225 C  
BRANCH  10  11
HETATM   11  N   UNL     1     -10.777   7.302  70.562  1.00  0.00    -0.227 N  
HETATM   12  C   UNL     1     -10.714   6.020  70.064  1.00  0.00    -0.311 C  
HETATM   13  H   UNL     1     -10.884   8.086  69.918  1.00  0.00     0.000 HD 
HETATM   14  O   UNL     1     -10.626   5.017  70.766  1.00  0.00    -0.193 OA 
BRANCH  12  15
HETATM   15  C   UNL     1     -10.778   5.963  68.553  1.00  0.00    -0.327 C  
BRANCH  15  16
HETATM   16  C   UNL     1      -9.389   6.161  67.951  1.00  0.00    -0.113 C  
BRANCH  16  17
HETATM   17  C   UNL     1      -9.340   7.324  66.979  1.00  0.00    -0.148 C  
HETATM   18  O   UNL     1      -9.712   7.195  65.815  1.00  0.00     0.252 OA 
HETATM   19  N   UNL     1      -8.831   8.500  67.468  1.00  0.00    -0.135 N  
HETATM   20  O   UNL     1      -8.487   8.724  68.812  1.00  0.00    -0.126 OA 
BRANCH  19  21
HETATM   21  C   UNL     1      -8.643   9.694  66.658  1.00  0.00    -0.130 C  
BRANCH  21  22
HETATM   22  C   UNL     1      -9.932  10.506  66.505  1.00  0.00    -0.266 C  
BRANCH  22  23
HETATM   23  C   UNL     1      -9.839  11.577  65.401  1.00  0.00    -0.271 C  
BRANCH  23  24
HETATM   24  C   UNL     1     -10.506  11.154  64.091  1.00  0.00    -0.442 C  
BRANCH  24  25
HETATM   25  C   UNL     1     -11.674  12.072  63.735  1.00  0.00    -0.481 C  
BRANCH  25  26
HETATM   26  N   UNL     1     -11.306  13.470  63.838  1.00  0.00    -0.596 N  
HETATM   27  H   UNL     1     -10.515  13.815  63.296  1.00  0.00     0.000 HD 
HETATM   28  C   UNL     1     -11.994  14.342  64.648  1.00  0.00    -0.464 C  
HETATM   29  O   UNL     1     -12.969  14.019  65.319  1.00  0.00    -0.743 OA 
BRANCH  28  30
HETATM   30  C   UNL     1     -11.452  15.749  64.658  1.00  0.00    -0.284 C  
BRANCH  30  31
HETATM   31  C   UNL     1     -10.553  15.940  65.869  1.00  0.00    -0.348 C  
BRANCH  31  32
HETATM   32  C   UNL     1     -10.468  17.401  66.254  1.00  0.00    -0.276 C  
HETATM   33  N   UNL     1     -10.417  17.724  67.588  1.00  0.00    -0.378 N  
HETATM   34  O   UNL     1     -10.364  18.254  65.370  1.00  0.00    -0.509 OA 
HETATM   35  O   UNL     1     -10.949  16.834  68.541  1.00  0.00    -0.345 OA 
BRANCH  33  36
HETATM   36  C   UNL     1     -10.407  19.109  68.063  1.00  0.00    -0.393 C  
BRANCH  36  37
HETATM   37  C   UNL     1      -9.173  19.419  68.913  1.00  0.00    -0.391 C  
BRANCH  37  38
HETATM   38  C   UNL     1      -7.874  18.994  68.221  1.00  0.00    -0.350 C  
BRANCH  38  39
HETATM   39  C   UNL     1      -6.879  20.154  68.123  1.00  0.00    -0.326 C  
BRANCH  39  40
HETATM   40  C   UNL     1      -7.028  20.948  66.824  1.00  0.00    -0.251 C  
HETATM   41  N   UNL     1      -7.922  20.282  65.883  1.00  0.00    -0.543 NA 
HETATM   42  H2  UNL     1      -8.830  20.088  66.306  1.00  0.00     0.000 HD 
HETATM   43  H1  UNL     1      -8.021  20.812  65.016  1.00  0.00     0.000 HD 
ENDBRANCH  39  40
ENDBRANCH  38  39
ENDBRANCH  37  38
ENDBRANCH  36  37
ENDBRANCH  33  36
ENDBRANCH  31  32
ENDBRANCH  30  31
ENDBRANCH  28  30
ENDBRANCH  25  26
ENDBRANCH  24  25
ENDBRANCH  23  24
ENDBRANCH  22  23
ENDBRANCH  21  22
ENDBRANCH  19  21
ENDBRANCH  16  17
ENDBRANCH  15  16
ENDBRANCH  12  15
ENDBRANCH  10  11
ENDBRANCH   9  10
ENDBRANCH   8   9
ENDBRANCH   7   8
ENDBRANCH   6   7
ENDBRANCH   3   6
TORSDOF 23
ENDMDL
MODEL       34
REMARK 921   NORMALIZED FREE ENERGY PREDICTED BY IDOCK:   -5.26 KCAL/MOL
REMARK 922        TOTAL FREE ENERGY PREDICTED BY IDOCK:  -15.10 KCAL/MOL
REMARK 923 INTER-LIGAND FREE ENERGY PREDICTED BY IDOCK:  -11.37 KCAL/MOL
REMARK 924 INTRA-LIGAND FREE ENERGY PREDICTED BY IDOCK:   -3.73 KCAL/MOL
REMARK 927      BINDING AFFINITY PREDICTED BY RF-SCORE:    0.00 PKD
ROOT
HETATM    1  C   UNL     1     -10.671  19.713  66.195  1.00  0.00    -0.520 C  
HETATM    2  C   UNL     1     -10.204  18.911  67.382  1.00  0.00    -0.392 C  
HETATM    3  N   UNL     1      -9.628  17.696  67.119  1.00  0.00    -0.271 N  
HETATM    4  O   UNL     1     -10.374  19.337  68.525  1.00  0.00    -0.393 OA 
HETATM    5  O   UNL     1      -9.281  17.247  65.834  1.00  0.00    -0.507 OA 
ENDROOT
BRANCH   3   6
HETATM    6  C   UNL     1      -9.140  16.798  68.158  1.00  0.00    -0.227 C  
BRANCH   6   7
HETATM    7  C   UNL     1      -8.002  15.902  67.667  1.00  0.00    -0.163 C  
BRANCH   7   8
HETATM    8  C   UNL     1      -7.741  14.773  68.666  1.00  0.00    -0.130 C  
BRANCH   8   9
HETATM    9  C   UNL     1      -6.271  14.703  69.084  1.00  0.00    -0.105 C  
BRANCH   9  10
HETATM   10  C   UNL     1      -5.953  13.432  69.874  1.00  0.00    -0.133 C  
BRANCH  10  11
HETATM   11  N   UNL     1      -5.887  12.252  69.025  1.00  0.00    -0.062 N  
HETATM   12  C   UNL     1      -6.212  11.006  69.512  1.00  0.00    -0.085 C  
HETATM   13  H   UNL     1      -5.596  12.350  68.052  1.00  0.00     0.000 HD 
HETATM   14  O   UNL     1      -6.609  10.799  70.655  1.00  0.00    -0.332 OA 
BRANCH  12  15
HETATM   15  C   UNL     1      -6.043   9.903  68.488  1.00  0.00    -0.045 C  
BRANCH  15  16
HETATM   16  C   UNL     1      -7.385   9.560  67.846  1.00  0.00    -0.083 C  
BRANCH  16  17
HETATM   17  C   UNL     1      -7.582  10.254  66.512  1.00  0.00    -0.113 C  
HETATM   18  O   UNL     1      -6.829  11.154  66.147  1.00  0.00    -0.100 OA 
HETATM   19  N   UNL     1      -8.656   9.839  65.767  1.00  0.00    -0.131 N  
HETATM   20  O   UNL     1      -9.483   8.750  66.095  1.00  0.00    -0.218 OA 
BRANCH  19  21
HETATM   21  C   UNL     1      -9.038  10.442  64.499  1.00  0.00    -0.229 C  
BRANCH  21  22
HETATM   22  C   UNL     1     -10.520  10.825  64.457  1.00  0.00    -0.351 C  
BRANCH  22  23
HETATM   23  C   UNL     1     -10.837  11.876  63.376  1.00  0.00    -0.469 C  
BRANCH  23  24
HETATM   24  C   UNL     1     -12.240  12.471  63.505  1.00  0.00    -0.652 C  
BRANCH  24  25
HETATM   25  C   UNL     1     -12.193  13.921  63.984  1.00  0.00    -0.369 C  
BRANCH  25  26
HETATM   26  N   UNL     1     -12.470  14.025  65.403  1.00  0.00    -0.478 N  
HETATM   27  H   UNL     1     -13.439  14.099  65.714  1.00  0.00     0.000 HD 
HETATM   28  C   UNL     1     -11.465  14.027  66.340  1.00  0.00    -0.352 C  
HETATM   29  O   UNL     1     -10.275  13.922  66.058  1.00  0.00    -0.292 OA 
BRANCH  28  30
HETATM   30  C   UNL     1     -11.935  14.177  67.764  1.00  0.00    -0.389 C  
BRANCH  30  31
HETATM   31  C   UNL     1     -11.007  13.408  68.691  1.00  0.00    -0.288 C  
BRANCH  31  32
HETATM   32  C   UNL     1     -11.792  12.696  69.773  1.00  0.00    -0.309 C  
HETATM   33  N   UNL     1     -11.973  11.339  69.664  1.00  0.00    -0.334 N  
HETATM   34  O   UNL     1     -12.176  13.331  70.758  1.00  0.00    -0.358 OA 
HETATM   35  O   UNL     1     -11.919  10.728  68.396  1.00  0.00    -0.508 OA 
BRANCH  33  36
HETATM   36  C   UNL     1     -12.777  10.573  70.619  1.00  0.00    -0.355 C  
BRANCH  36  37
HETATM   37  C   UNL     1     -11.915   9.694  71.526  1.00  0.00    -0.485 C  
BRANCH  37  38
HETATM   38  C   UNL     1     -12.032   8.208  71.169  1.00  0.00    -0.296 C  
BRANCH  38  39
HETATM   39  C   UNL     1     -10.660   7.581  70.902  1.00  0.00    -0.227 C  
BRANCH  39  40
HETATM   40  C   UNL     1     -10.139   7.884  69.496  1.00  0.00    -0.195 C  
HETATM   41  N   UNL     1     -11.133   7.576  68.473  1.00  0.00    -0.421 NA 
HETATM   42  H2  UNL     1     -12.014   8.055  68.654  1.00  0.00     0.000 HD 
HETATM   43  H1  UNL     1     -10.785   7.778  67.535  1.00  0.00     0.000 HD 
ENDBRANCH  39  40
ENDBRANCH  38  39
ENDBRANCH  37  38
ENDBRANCH  36  37
ENDBRANCH  33  36
ENDBRANCH  31  32
ENDBRANCH  30  31
ENDBRANCH  28  30
ENDBRANCH  25  26
ENDBRANCH  24  25
ENDBRANCH  23  24
ENDBRANCH  22  23
ENDBRANCH  21  22
ENDBRANCH  19  21
ENDBRANCH  16  17
ENDBRANCH  15  16
ENDBRANCH  12  15
ENDBRANCH  10  11
ENDBRANCH   9  10
ENDBRANCH   8   9
ENDBRANCH   7   8
ENDBRANCH   6   7
ENDBRANCH   3   6
TORSDOF 23
ENDMDL
MODEL       35
REMARK 921   NORMALIZED FREE ENERGY PREDICTED BY IDOCK:   -5.25 KCAL/MOL
REMARK 922        TOTAL FREE ENERGY PREDICTED BY IDOCK:  -15.06 KCAL/MOL
REMARK 923 INTER-LIGAND FREE ENERGY PREDICTED BY IDOCK:  -12.71 KCAL/MOL
REMARK 924 INTRA-LIGAND FREE ENERGY PREDICTED BY IDOCK:   -2.35 KCAL/MOL
REMARK 927      BINDING AFFINITY PREDICTED BY RF-SCORE:    0.00 PKD
ROOT
HETATM    1  C   UNL     1     -10.350  18.064  66.194  1.00  0.00    -0.368 C  
HETATM    2  C   UNL     1     -10.223  16.574  66.011  1.00  0.00    -0.356 C  
HETATM    3  N   UNL     1     -10.947  16.012  64.993  1.00  0.00    -0.417 N  
HETATM    4  O   UNL     1      -9.521  15.912  66.777  1.00  0.00    -0.217 OA 
HETATM    5  O   UNL     1     -11.634  16.747  64.012  1.00  0.00    -1.195 OA 
ENDROOT
BRANCH   3   6
HETATM    6  C   UNL     1     -10.943  14.585  64.699  1.00  0.00    -0.336 C  
BRANCH   6   7
HETATM    7  C   UNL     1     -12.274  13.915  65.045  1.00  0.00    -0.444 C  
BRANCH   7   8
HETATM    8  C   UNL     1     -12.332  12.505  64.452  1.00  0.00    -0.537 C  
BRANCH   8   9
HETATM    9  C   UNL     1     -11.176  12.239  63.486  1.00  0.00    -0.535 C  
BRANCH   9  10
HETATM   10  C   UNL     1     -10.382  10.987  63.863  1.00  0.00    -0.372 C  
BRANCH  10  11
HETATM   11  N   UNL     1      -9.361  11.257  64.863  1.00  0.00    -0.324 N  
HETATM   12  C   UNL     1      -9.442  10.719  66.128  1.00  0.00    -0.187 C  
HETATM   13  H   UNL     1      -8.570  11.855  64.623  1.00  0.00     0.000 HD 
HETATM   14  O   UNL     1     -10.335   9.958  66.492  1.00  0.00    -0.228 OA 
BRANCH  12  15
HETATM   15  C   UNL     1      -8.307  11.146  67.033  1.00  0.00    -0.144 C  
BRANCH  15  16
HETATM   16  C   UNL     1      -8.541  10.645  68.456  1.00  0.00    -0.137 C  
BRANCH  16  17
HETATM   17  C   UNL     1      -7.496   9.636  68.893  1.00  0.00    -0.075 C  
HETATM   18  O   UNL     1      -6.573   9.314  68.147  1.00  0.00    -0.058 OA 
HETATM   19  N   UNL     1      -7.664   9.092  70.140  1.00  0.00    -0.090 N  
HETATM   20  O   UNL     1      -8.642   9.500  71.064  1.00  0.00    -0.273 OA 
BRANCH  19  21
HETATM   21  C   UNL     1      -6.801   8.058  70.691  1.00  0.00    -0.037 C  
BRANCH  21  22
HETATM   22  C   UNL     1      -7.530   6.724  70.873  1.00  0.00    -0.083 C  
BRANCH  22  23
HETATM   23  C   UNL     1      -8.596   6.470  69.790  1.00  0.00    -0.136 C  
BRANCH  23  24
HETATM   24  C   UNL     1      -9.366   5.164  69.994  1.00  0.00    -0.201 C  
BRANCH  24  25
HETATM   25  C   UNL     1     -10.197   5.198  71.275  1.00  0.00    -0.222 C  
BRANCH  25  26
HETATM   26  N   UNL     1     -11.305   6.126  71.169  1.00  0.00    -0.296 N  
HETATM   27  H   UNL     1     -12.030   5.955  70.472  1.00  0.00     0.000 HD 
HETATM   28  C   UNL     1     -11.407   7.230  71.982  1.00  0.00    -0.260 C  
HETATM   29  O   UNL     1     -10.593   7.502  72.859  1.00  0.00    -0.270 OA 
BRANCH  28  30
HETATM   30  C   UNL     1     -12.606   8.102  71.709  1.00  0.00    -0.360 C  
BRANCH  30  31
HETATM   31  C   UNL     1     -12.192   9.279  70.840  1.00  0.00    -0.264 C  
BRANCH  31  32
HETATM   32  C   UNL     1     -12.719  10.581  71.407  1.00  0.00    -0.442 C  
HETATM   33  N   UNL     1     -12.452  11.744  70.727  1.00  0.00    -0.348 N  
HETATM   34  O   UNL     1     -13.435  10.557  72.409  1.00  0.00    -0.258 OA 
HETATM   35  O   UNL     1     -11.331  11.815  69.879  1.00  0.00    -0.226 OA 
BRANCH  33  36
HETATM   36  C   UNL     1     -12.855  13.059  71.231  1.00  0.00    -0.281 C  
BRANCH  36  37
HETATM   37  C   UNL     1     -12.215  14.201  70.440  1.00  0.00    -0.427 C  
BRANCH  37  38
HETATM   38  C   UNL     1     -12.246  15.526  71.211  1.00  0.00    -0.447 C  
BRANCH  38  39
HETATM   39  C   UNL     1     -11.690  15.367  72.629  1.00  0.00    -0.556 C  
BRANCH  39  40
HETATM   40  C   UNL     1     -12.439  16.221  73.653  1.00  0.00    -0.545 C  
HETATM   41  N   UNL     1     -13.884  16.042  73.553  1.00  0.00    -0.760 NA 
HETATM   42  H2  UNL     1     -14.143  15.059  73.629  1.00  0.00     0.000 HD 
HETATM   43  H1  UNL     1     -14.384  16.612  74.236  1.00  0.00     0.000 HD 
ENDBRANCH  39  40
ENDBRANCH  38  39
ENDBRANCH  37  38
ENDBRANCH  36  37
ENDBRANCH  33  36
ENDBRANCH  31  32
ENDBRANCH  30  31
ENDBRANCH  28  30
ENDBRANCH  25  26
ENDBRANCH  24  25
ENDBRANCH  23  24
ENDBRANCH  22  23
ENDBRANCH  21  22
ENDBRANCH  19  21
ENDBRANCH  16  17
ENDBRANCH  15  16
ENDBRANCH  12  15
ENDBRANCH  10  11
ENDBRANCH   9  10
ENDBRANCH   8   9
ENDBRANCH   7   8
ENDBRANCH   6   7
ENDBRANCH   3   6
TORSDOF 23
ENDMDL
MODEL       36
REMARK 921   NORMALIZED FREE ENERGY PREDICTED BY IDOCK:   -5.24 KCAL/MOL
REMARK 922        TOTAL FREE ENERGY PREDICTED BY IDOCK:  -15.05 KCAL/MOL
REMARK 923 INTER-LIGAND FREE ENERGY PREDICTED BY IDOCK:  -11.40 KCAL/MOL
REMARK 924 INTRA-LIGAND FREE ENERGY PREDICTED BY IDOCK:   -3.64 KCAL/MOL
REMARK 927      BINDING AFFINITY PREDICTED BY RF-SCORE:    0.00 PKD
ROOT
HETATM    1  C   UNL     1      -9.075   9.415  70.593  1.00  0.00    -0.292 C  
HETATM    2  C   UNL     1      -9.827   9.855  69.363  1.00  0.00    -0.217 C  
HETATM    3  N   UNL     1      -9.297  10.902  68.656  1.00  0.00    -0.181 N  
HETATM    4  O   UNL     1     -10.882   9.302  69.050  1.00  0.00    -0.200 OA 
HETATM    5  O   UNL     1      -8.027  11.454  68.894  1.00  0.00    -0.142 OA 
ENDROOT
BRANCH   3   6
HETATM    6  C   UNL     1      -9.913  11.452  67.456  1.00  0.00    -0.182 C  
BRANCH   6   7
HETATM    7  C   UNL     1      -9.274  10.915  66.174  1.00  0.00    -0.205 C  
BRANCH   7   8
HETATM    8  C   UNL     1      -9.878   9.560  65.803  1.00  0.00    -0.363 C  
BRANCH   8   9
HETATM    9  C   UNL     1      -8.802   8.511  65.512  1.00  0.00    -0.196 C  
BRANCH   9  10
HETATM   10  C   UNL     1      -8.103   8.029  66.784  1.00  0.00    -0.107 C  
BRANCH  10  11
HETATM   11  N   UNL     1      -8.684   6.801  67.306  1.00  0.00    -0.119 N  
HETATM   12  C   UNL     1      -8.204   6.219  68.457  1.00  0.00    -0.112 C  
HETATM   13  H   UNL     1      -9.461   6.364  66.810  1.00  0.00     0.000 HD 
HETATM   14  O   UNL     1      -7.301   6.695  69.140  1.00  0.00    -0.088 OA 
BRANCH  12  15
HETATM   15  C   UNL     1      -8.912   4.930  68.815  1.00  0.00    -0.132 C  
BRANCH  15  16
HETATM   16  C   UNL     1      -9.661   5.081  70.137  1.00  0.00    -0.280 C  
BRANCH  16  17
HETATM   17  C   UNL     1     -10.935   5.891  69.991  1.00  0.00    -0.360 C  
HETATM   18  O   UNL     1     -11.406   6.141  68.883  1.00  0.00    -0.367 OA 
HETATM   19  N   UNL     1     -11.499   6.346  71.155  1.00  0.00    -0.317 N  
HETATM   20  O   UNL     1     -11.056   6.005  72.445  1.00  0.00    -0.247 OA 
BRANCH  19  21
HETATM   21  C   UNL     1     -12.679   7.198  71.199  1.00  0.00    -0.315 C  
BRANCH  21  22
HETATM   22  C   UNL     1     -12.498   8.399  72.131  1.00  0.00    -0.422 C  
BRANCH  22  23
HETATM   23  C   UNL     1     -13.384   9.598  71.744  1.00  0.00    -0.505 C  
BRANCH  23  24
HETATM   24  C   UNL     1     -12.655  10.940  71.827  1.00  0.00    -0.345 C  
BRANCH  24  25
HETATM   25  C   UNL     1     -12.741  11.708  70.509  1.00  0.00    -0.074 C  
BRANCH  25  26
HETATM   26  N   UNL     1     -11.851  12.851  70.497  1.00  0.00    -0.535 N  
HETATM   27  H   UNL     1     -10.929  12.757  70.072  1.00  0.00     0.000 HD 
HETATM   28  C   UNL     1     -12.215  14.059  71.044  1.00  0.00    -0.353 C  
HETATM   29  O   UNL     1     -13.309  14.268  71.558  1.00  0.00    -0.326 OA 
BRANCH  28  30
HETATM   30  C   UNL     1     -11.152  15.126  70.972  1.00  0.00    -0.283 C  
BRANCH  30  31
HETATM   31  C   UNL     1     -11.492  16.110  69.864  1.00  0.00    -0.286 C  
BRANCH  31  32
HETATM   32  C   UNL     1     -10.652  15.847  68.631  1.00  0.00    -0.250 C  
HETATM   33  N   UNL     1     -11.226  15.174  67.581  1.00  0.00    -0.320 N  
HETATM   34  O   UNL     1      -9.511  16.310  68.567  1.00  0.00    -0.206 OA 
HETATM   35  O   UNL     1     -12.316  14.314  67.816  1.00  0.00    -0.247 OA 
BRANCH  33  36
HETATM   36  C   UNL     1     -10.476  14.809  66.377  1.00  0.00    -0.293 C  
BRANCH  36  37
HETATM   37  C   UNL     1     -11.081  15.422  65.112  1.00  0.00    -0.402 C  
BRANCH  37  38
HETATM   38  C   UNL     1     -12.140  14.512  64.480  1.00  0.00    -0.501 C  
BRANCH  38  39
HETATM   39  C   UNL     1     -11.849  13.033  64.750  1.00  0.00    -0.409 C  
BRANCH  39  40
HETATM   40  C   UNL     1     -12.521  12.107  63.735  1.00  0.00    -0.514 C  
HETATM   41  N   UNL     1     -11.544  11.444  62.878  1.00  0.00    -0.710 NA 
HETATM   42  H2  UNL     1     -10.843  10.948  63.428  1.00  0.00     0.000 HD 
HETATM   43  H1  UNL     1     -11.992  10.826  62.201  1.00  0.00     0.000 HD 
ENDBRANCH  39  40
ENDBRANCH  38  39
ENDBRANCH  37  38
ENDBRANCH  36  37
ENDBRANCH  33  36
ENDBRANCH  31  32
ENDBRANCH  30  31
ENDBRANCH  28  30
ENDBRANCH  25  26
ENDBRANCH  24  25
ENDBRANCH  23  24
ENDBRANCH  22  23
ENDBRANCH  21  22
ENDBRANCH  19  21
ENDBRANCH  16  17
ENDBRANCH  15  16
ENDBRANCH  12  15
ENDBRANCH  10  11
ENDBRANCH   9  10
ENDBRANCH   8   9
ENDBRANCH   7   8
ENDBRANCH   6   7
ENDBRANCH   3   6
TORSDOF 23
ENDMDL
MODEL       37
REMARK 921   NORMALIZED FREE ENERGY PREDICTED BY IDOCK:   -5.24 KCAL/MOL
REMARK 922        TOTAL FREE ENERGY PREDICTED BY IDOCK:  -15.04 KCAL/MOL
REMARK 923 INTER-LIGAND FREE ENERGY PREDICTED BY IDOCK:  -12.27 KCAL/MOL
REMARK 924 INTRA-LIGAND FREE ENERGY PREDICTED BY IDOCK:   -2.77 KCAL/MOL
REMARK 927      BINDING AFFINITY PREDICTED BY RF-SCORE:    0.00 PKD
ROOT
HETATM    1  C   UNL     1     -10.780  19.824  65.721  1.00  0.00    -0.474 C  
HETATM    2  C   UNL     1     -10.320  18.603  66.474  1.00  0.00    -0.421 C  
HETATM    3  N   UNL     1     -10.573  17.388  65.895  1.00  0.00    -0.283 N  
HETATM    4  O   UNL     1      -9.774  18.720  67.572  1.00  0.00    -0.295 OA 
HETATM    5  O   UNL     1     -11.052  17.221  64.585  1.00  0.00    -1.052 OA 
ENDROOT
BRANCH   3   6
HETATM    6  C   UNL     1     -10.205  16.117  66.505  1.00  0.00    -0.297 C  
BRANCH   6   7
HETATM    7  C   UNL     1      -8.744  15.746  66.244  1.00  0.00    -0.358 C  
BRANCH   7   8
HETATM    8  C   UNL     1      -8.448  14.339  66.766  1.00  0.00    -0.051 C  
BRANCH   8   9
HETATM    9  C   UNL     1      -8.409  14.287  68.294  1.00  0.00    -0.165 C  
BRANCH   9  10
HETATM   10  C   UNL     1      -7.135  13.624  68.819  1.00  0.00    -0.103 C  
BRANCH  10  11
HETATM   11  N   UNL     1      -7.349  12.237  69.203  1.00  0.00    -0.318 N  
HETATM   12  C   UNL     1      -6.384  11.530  69.885  1.00  0.00    -0.136 C  
HETATM   13  H   UNL     1      -8.228  11.780  68.962  1.00  0.00     0.000 HD 
HETATM   14  O   UNL     1      -5.314  12.009  70.250  1.00  0.00    -0.088 OA 
BRANCH  12  15
HETATM   15  C   UNL     1      -6.778  10.094  70.159  1.00  0.00    -0.138 C  
BRANCH  15  16
HETATM   16  C   UNL     1      -8.264   9.885  69.880  1.00  0.00    -0.199 C  
BRANCH  16  17
HETATM   17  C   UNL     1      -8.690   8.441  70.068  1.00  0.00    -0.133 C  
HETATM   18  O   UNL     1      -8.022   7.516  69.611  1.00  0.00    -0.119 OA 
HETATM   19  N   UNL     1      -9.868   8.242  70.741  1.00  0.00    -0.177 N  
HETATM   20  O   UNL     1     -10.614   9.257  71.365  1.00  0.00    -0.314 OA 
BRANCH  19  21
HETATM   21  C   UNL     1     -10.465   6.931  70.948  1.00  0.00    -0.211 C  
BRANCH  21  22
HETATM   22  C   UNL     1     -11.524   6.597  69.894  1.00  0.00    -0.414 C  
BRANCH  22  23
HETATM   23  C   UNL     1     -10.962   5.776  68.718  1.00  0.00    -0.223 C  
BRANCH  23  24
HETATM   24  C   UNL     1     -11.265   6.392  67.352  1.00  0.00    -0.283 C  
BRANCH  24  25
HETATM   25  C   UNL     1     -10.089   7.218  66.836  1.00  0.00    -0.247 C  
BRANCH  25  26
HETATM   26  N   UNL     1     -10.372   8.639  66.881  1.00  0.00    -0.293 N  
HETATM   27  H   UNL     1     -10.931   9.008  67.650  1.00  0.00     0.000 HD 
HETATM   28  C   UNL     1      -9.909   9.502  65.915  1.00  0.00    -0.290 C  
HETATM   29  O   UNL     1      -9.215   9.148  64.967  1.00  0.00    -0.208 OA 
BRANCH  28  30
HETATM   30  C   UNL     1     -10.329  10.937  66.104  1.00  0.00    -0.305 C  
BRANCH  30  31
HETATM   31  C   UNL     1     -11.375  11.022  67.204  1.00  0.00    -0.214 C  
BRANCH  31  32
HETATM   32  C   UNL     1     -11.735  12.463  67.498  1.00  0.00    -0.357 C  
HETATM   33  N   UNL     1     -11.614  12.917  68.788  1.00  0.00    -0.289 N  
HETATM   34  O   UNL     1     -12.046  13.210  66.567  1.00  0.00    -0.393 OA 
HETATM   35  O   UNL     1     -11.680  12.003  69.857  1.00  0.00    -0.314 OA 
BRANCH  33  36
HETATM   36  C   UNL     1     -12.005  14.271  69.186  1.00  0.00    -0.335 C  
BRANCH  36  37
HETATM   37  C   UNL     1     -12.899  14.272  70.428  1.00  0.00    -0.276 C  
BRANCH  37  38
HETATM   38  C   UNL     1     -12.122  14.640  71.697  1.00  0.00    -0.404 C  
BRANCH  38  39
HETATM   39  C   UNL     1     -12.978  14.462  72.955  1.00  0.00    -0.575 C  
BRANCH  39  40
HETATM   40  C   UNL     1     -12.344  15.099  74.192  1.00  0.00    -0.569 C  
HETATM   41  N   UNL     1     -12.892  16.425  74.459  1.00  0.00    -0.951 NA 
HETATM   42  H2  UNL     1     -13.909  16.399  74.534  1.00  0.00     0.000 HD 
HETATM   43  H1  UNL     1     -12.469  16.851  75.284  1.00  0.00     0.000 HD 
ENDBRANCH  39  40
ENDBRANCH  38  39
ENDBRANCH  37  38
ENDBRANCH  36  37
ENDBRANCH  33  36
ENDBRANCH  31  32
ENDBRANCH  30  31
ENDBRANCH  28  30
ENDBRANCH  25  26
ENDBRANCH  24  25
ENDBRANCH  23  24
ENDBRANCH  22  23
ENDBRANCH  21  22
ENDBRANCH  19  21
ENDBRANCH  16  17
ENDBRANCH  15  16
ENDBRANCH  12  15
ENDBRANCH  10  11
ENDBRANCH   9  10
ENDBRANCH   8   9
ENDBRANCH   7   8
ENDBRANCH   6   7
ENDBRANCH   3   6
TORSDOF 23
ENDMDL
MODEL       38
REMARK 921   NORMALIZED FREE ENERGY PREDICTED BY IDOCK:   -5.24 KCAL/MOL
REMARK 922        TOTAL FREE ENERGY PREDICTED BY IDOCK:  -15.04 KCAL/MOL
REMARK 923 INTER-LIGAND FREE ENERGY PREDICTED BY IDOCK:  -11.99 KCAL/MOL
REMARK 924 INTRA-LIGAND FREE ENERGY PREDICTED BY IDOCK:   -3.04 KCAL/MOL
REMARK 927      BINDING AFFINITY PREDICTED BY RF-SCORE:    0.00 PKD
ROOT
HETATM    1  C   UNL     1     -12.722   8.609  72.211  1.00  0.00    -0.450 C  
HETATM    2  C   UNL     1     -12.037   9.501  71.209  1.00  0.00    -0.360 C  
HETATM    3  N   UNL     1     -12.465  10.801  71.144  1.00  0.00    -0.389 N  
HETATM    4  O   UNL     1     -11.159   9.049  70.473  1.00  0.00    -0.242 OA 
HETATM    5  O   UNL     1     -13.350  11.388  72.064  1.00  0.00    -0.467 OA 
ENDROOT
BRANCH   3   6
HETATM    6  C   UNL     1     -11.913  11.782  70.219  1.00  0.00    -0.343 C  
BRANCH   6   7
HETATM    7  C   UNL     1     -12.311  13.214  70.581  1.00  0.00    -0.405 C  
BRANCH   7   8
HETATM    8  C   UNL     1     -12.278  14.108  69.340  1.00  0.00    -0.329 C  
BRANCH   8   9
HETATM    9  C   UNL     1     -11.125  15.112  69.385  1.00  0.00    -0.283 C  
BRANCH   9  10
HETATM   10  C   UNL     1     -11.213  16.147  68.263  1.00  0.00    -0.343 C  
BRANCH  10  11
HETATM   11  N   UNL     1     -10.581  17.408  68.619  1.00  0.00    -0.348 N  
HETATM   12  C   UNL     1     -10.399  18.403  67.685  1.00  0.00    -0.405 C  
HETATM   13  H   UNL     1     -10.269  17.558  69.578  1.00  0.00     0.000 HD 
HETATM   14  O   UNL     1     -10.779  18.325  66.520  1.00  0.00    -0.321 OA 
BRANCH  12  15
HETATM   15  C   UNL     1      -9.692  19.621  68.239  1.00  0.00    -0.500 C  
BRANCH  15  16
HETATM   16  C   UNL     1      -8.465  19.957  67.395  1.00  0.00    -0.377 C  
BRANCH  16  17
HETATM   17  C   UNL     1      -7.423  18.855  67.425  1.00  0.00    -0.229 C  
HETATM   18  O   UNL     1      -7.305  18.066  66.489  1.00  0.00    -0.206 OA 
HETATM   19  N   UNL     1      -6.657  18.778  68.559  1.00  0.00    -0.235 N  
HETATM   20  O   UNL     1      -6.686  19.713  69.608  1.00  0.00    -0.333 OA 
BRANCH  19  21
HETATM   21  C   UNL     1      -5.662  17.741  68.790  1.00  0.00    -0.176 C  
BRANCH  21  22
HETATM   22  C   UNL     1      -6.146  16.675  69.776  1.00  0.00    -0.221 C  
BRANCH  22  23
HETATM   23  C   UNL     1      -7.080  15.636  69.126  1.00  0.00    -0.168 C  
BRANCH  23  24
HETATM   24  C   UNL     1      -6.439  14.899  67.950  1.00  0.00    -0.177 C  
BRANCH  24  25
HETATM   25  C   UNL     1      -5.537  13.762  68.424  1.00  0.00    -0.102 C  
BRANCH  25  26
HETATM   26  N   UNL     1      -5.837  12.520  67.741  1.00  0.00    -0.102 N  
HETATM   27  H   UNL     1      -5.472  12.372  66.799  1.00  0.00     0.000 HD 
HETATM   28  C   UNL     1      -6.599  11.536  68.324  1.00  0.00    -0.061 C  
HETATM   29  O   UNL     1      -7.060  11.620  69.458  1.00  0.00    -0.063 OA 
BRANCH  28  30
HETATM   30  C   UNL     1      -6.837  10.328  67.455  1.00  0.00    -0.077 C  
BRANCH  30  31
HETATM   31  C   UNL     1      -8.201   9.735  67.770  1.00  0.00    -0.114 C  
BRANCH  31  32
HETATM   32  C   UNL     1      -9.152   9.918  66.606  1.00  0.00    -0.147 C  
HETATM   33  N   UNL     1      -9.719  11.155  66.413  1.00  0.00    -0.199 N  
HETATM   34  O   UNL     1      -9.331   8.987  65.819  1.00  0.00    -0.223 OA 
HETATM   35  O   UNL     1      -9.851  12.038  67.502  1.00  0.00    -0.183 OA 
BRANCH  33  36
HETATM   36  C   UNL     1     -10.705  11.413  65.362  1.00  0.00    -0.253 C  
BRANCH  36  37
HETATM   37  C   UNL     1     -11.882  12.249  65.867  1.00  0.00    -0.420 C  
BRANCH  37  38
HETATM   38  C   UNL     1     -12.533  13.067  64.747  1.00  0.00    -0.485 C  
BRANCH  38  39
HETATM   39  C   UNL     1     -12.580  14.559  65.090  1.00  0.00    -0.242 C  
BRANCH  39  40
HETATM   40  C   UNL     1     -11.278  15.283  64.745  1.00  0.00    -0.396 C  
HETATM   41  N   UNL     1     -11.517  16.462  63.919  1.00  0.00    -1.618 NA 
HETATM   42  H2  UNL     1     -12.189  17.092  64.356  1.00  0.00     0.000 HD 
HETATM   43  H1  UNL     1     -10.648  16.945  63.689  1.00  0.00     0.000 HD 
ENDBRANCH  39  40
ENDBRANCH  38  39
ENDBRANCH  37  38
ENDBRANCH  36  37
ENDBRANCH  33  36
ENDBRANCH  31  32
ENDBRANCH  30  31
ENDBRANCH  28  30
ENDBRANCH  25  26
ENDBRANCH  24  25
ENDBRANCH  23  24
ENDBRANCH  22  23
ENDBRANCH  21  22
ENDBRANCH  19  21
ENDBRANCH  16  17
ENDBRANCH  15  16
ENDBRANCH  12  15
ENDBRANCH  10  11
ENDBRANCH   9  10
ENDBRANCH   8   9
ENDBRANCH   7   8
ENDBRANCH   6   7
ENDBRANCH   3   6
TORSDOF 23
ENDMDL
MODEL       39
REMARK 921   NORMALIZED FREE ENERGY PREDICTED BY IDOCK:   -5.24 KCAL/MOL
REMARK 922        TOTAL FREE ENERGY PREDICTED BY IDOCK:  -15.03 KCAL/MOL
REMARK 923 INTER-LIGAND FREE ENERGY PREDICTED BY IDOCK:  -11.46 KCAL/MOL
REMARK 924 INTRA-LIGAND FREE ENERGY PREDICTED BY IDOCK:   -3.57 KCAL/MOL
REMARK 927      BINDING AFFINITY PREDICTED BY RF-SCORE:    0.00 PKD
ROOT
HETATM    1  C   UNL     1      -8.990   6.781  66.078  1.00  0.00    -0.129 C  
HETATM    2  C   UNL     1      -9.363   5.903  67.243  1.00  0.00    -0.113 C  
HETATM    3  N   UNL     1      -9.182   4.554  67.085  1.00  0.00    -0.127 N  
HETATM    4  O   UNL     1      -9.837   6.398  68.267  1.00  0.00    -0.125 OA 
HETATM    5  O   UNL     1      -8.508   3.970  65.999  1.00  0.00    -0.108 OA 
ENDROOT
BRANCH   3   6
HETATM    6  C   UNL     1      -9.508   3.575  68.112  1.00  0.00    -0.155 C  
BRANCH   6   7
HETATM    7  C   UNL     1      -8.267   2.863  68.655  1.00  0.00    -0.080 C  
BRANCH   7   8
HETATM    8  C   UNL     1      -8.229   2.945  70.182  1.00  0.00    -0.068 C  
BRANCH   8   9
HETATM    9  C   UNL     1      -9.510   3.550  70.758  1.00  0.00    -0.240 C  
BRANCH   9  10
HETATM   10  C   UNL     1      -9.243   4.840  71.535  1.00  0.00    -0.142 C  
BRANCH  10  11
HETATM   11  N   UNL     1     -10.280   5.839  71.325  1.00  0.00    -0.207 N  
HETATM   12  C   UNL     1     -11.407   5.873  72.115  1.00  0.00    -0.288 C  
HETATM   13  H   UNL     1     -10.169   6.527  70.580  1.00  0.00     0.000 HD 
HETATM   14  O   UNL     1     -11.606   5.112  73.058  1.00  0.00    -0.320 OA 
BRANCH  12  15
HETATM   15  C   UNL     1     -12.384   6.959  71.716  1.00  0.00    -0.401 C  
BRANCH  15  16
HETATM   16  C   UNL     1     -11.985   8.293  72.343  1.00  0.00    -0.447 C  
BRANCH  16  17
HETATM   17  C   UNL     1     -11.171   9.155  71.398  1.00  0.00    -0.349 C  
HETATM   18  O   UNL     1      -9.954   9.010  71.292  1.00  0.00    -0.260 OA 
HETATM   19  N   UNL     1     -11.864  10.114  70.705  1.00  0.00    -0.317 N  
HETATM   20  O   UNL     1     -13.263  10.253  70.717  1.00  0.00    -0.385 OA 
BRANCH  19  21
HETATM   21  C   UNL     1     -11.236  11.076  69.812  1.00  0.00    -0.268 C  
BRANCH  21  22
HETATM   22  C   UNL     1     -11.595  10.833  68.344  1.00  0.00    -0.311 C  
BRANCH  22  23
HETATM   23  C   UNL     1     -10.673   9.804  67.662  1.00  0.00    -0.334 C  
BRANCH  23  24
HETATM   24  C   UNL     1      -9.383  10.417  67.115  1.00  0.00    -0.177 C  
BRANCH  24  25
HETATM   25  C   UNL     1      -9.384  10.455  65.588  1.00  0.00    -0.198 C  
BRANCH  25  26
HETATM   26  N   UNL     1     -10.542  11.156  65.071  1.00  0.00    -0.293 N  
HETATM   27  H   UNL     1     -11.248  11.496  65.724  1.00  0.00     0.000 HD 
HETATM   28  C   UNL     1     -10.715  11.376  63.725  1.00  0.00    -0.403 C  
HETATM   29  O   UNL     1      -9.909  11.021  62.871  1.00  0.00    -0.310 OA 
BRANCH  28  30
HETATM   30  C   UNL     1     -11.992  12.091  63.365  1.00  0.00    -0.571 C  
BRANCH  30  31
HETATM   31  C   UNL     1     -12.528  12.823  64.586  1.00  0.00    -0.525 C  
BRANCH  31  32
HETATM   32  C   UNL     1     -12.110  14.279  64.569  1.00  0.00    -0.480 C  
HETATM   33  N   UNL     1     -10.997  14.647  65.285  1.00  0.00    -0.344 N  
HETATM   34  O   UNL     1     -12.723  15.075  63.856  1.00  0.00    -0.775 OA 
HETATM   35  O   UNL     1     -10.586  13.869  66.384  1.00  0.00    -0.276 OA 
BRANCH  33  36
HETATM   36  C   UNL     1     -10.555  16.040  65.391  1.00  0.00    -0.408 C  
BRANCH  36  37
HETATM   37  C   UNL     1      -9.172  16.159  66.032  1.00  0.00    -0.363 C  
BRANCH  37  38
HETATM   38  C   UNL     1      -9.211  16.950  67.344  1.00  0.00    -0.224 C  
BRANCH  38  39
HETATM   39  C   UNL     1     -10.640  17.096  67.874  1.00  0.00    -0.376 C  
BRANCH  39  40
HETATM   40  C   UNL     1     -10.854  16.365  69.200  1.00  0.00    -0.329 C  
HETATM   41  N   UNL     1     -10.861  14.916  69.024  1.00  0.00    -0.236 NA 
HETATM   42  H2  UNL     1     -10.015  14.595  68.554  1.00  0.00     0.000 HD 
HETATM   43  H1  UNL     1     -11.004  14.428  69.909  1.00  0.00     0.000 HD 
ENDBRANCH  39  40
ENDBRANCH  38  39
ENDBRANCH  37  38
ENDBRANCH  36  37
ENDBRANCH  33  36
ENDBRANCH  31  32
ENDBRANCH  30  31
ENDBRANCH  28  30
ENDBRANCH  25  26
ENDBRANCH  24  25
ENDBRANCH  23  24
ENDBRANCH  22  23
ENDBRANCH  21  22
ENDBRANCH  19  21
ENDBRANCH  16  17
ENDBRANCH  15  16
ENDBRANCH  12  15
ENDBRANCH  10  11
ENDBRANCH   9  10
ENDBRANCH   8   9
ENDBRANCH   7   8
ENDBRANCH   6   7
ENDBRANCH   3   6
TORSDOF 23
ENDMDL
MODEL       40
REMARK 921   NORMALIZED FREE ENERGY PREDICTED BY IDOCK:   -5.22 KCAL/MOL
REMARK 922        TOTAL FREE ENERGY PREDICTED BY IDOCK:  -15.00 KCAL/MOL
REMARK 923 INTER-LIGAND FREE ENERGY PREDICTED BY IDOCK:  -11.25 KCAL/MOL
REMARK 924 INTRA-LIGAND FREE ENERGY PREDICTED BY IDOCK:   -3.75 KCAL/MOL
REMARK 927      BINDING AFFINITY PREDICTED BY RF-SCORE:    0.00 PKD
ROOT
HETATM    1  C   UNL     1     -10.549  18.336  65.952  1.00  0.00    -0.274 C  
HETATM    2  C   UNL     1     -10.261  16.859  66.003  1.00  0.00    -0.336 C  
HETATM    3  N   UNL     1     -10.852  16.079  65.044  1.00  0.00    -0.440 N  
HETATM    4  O   UNL     1      -9.549  16.395  66.895  1.00  0.00    -0.232 OA 
HETATM    5  O   UNL     1     -11.542  16.586  63.929  1.00  0.00    -1.175 OA 
ENDROOT
BRANCH   3   6
HETATM    6  C   UNL     1     -10.684  14.634  64.969  1.00  0.00    -0.430 C  
BRANCH   6   7
HETATM    7  C   UNL     1     -11.851  13.877  65.605  1.00  0.00    -0.383 C  
BRANCH   7   8
HETATM    8  C   UNL     1     -11.755  12.383  65.289  1.00  0.00    -0.437 C  
BRANCH   8   9
HETATM    9  C   UNL     1     -11.486  12.125  63.805  1.00  0.00    -0.548 C  
BRANCH   9  10
HETATM   10  C   UNL     1     -10.291  11.196  63.585  1.00  0.00    -0.389 C  
BRANCH  10  11
HETATM   11  N   UNL     1      -9.231  11.415  64.557  1.00  0.00    -0.404 N  
HETATM   12  C   UNL     1      -8.615  10.359  65.190  1.00  0.00    -0.180 C  
HETATM   13  H   UNL     1      -8.939  12.368  64.773  1.00  0.00     0.000 HD 
HETATM   14  O   UNL     1      -8.874   9.180  64.963  1.00  0.00    -0.190 OA 
BRANCH  12  15
HETATM   15  C   UNL     1      -7.566  10.792  66.192  1.00  0.00    -0.139 C  
BRANCH  15  16
HETATM   16  C   UNL     1      -7.988  10.406  67.607  1.00  0.00    -0.106 C  
BRANCH  16  17
HETATM   17  C   UNL     1      -9.143  11.248  68.116  1.00  0.00    -0.166 C  
HETATM   18  O   UNL     1      -9.003  12.448  68.344  1.00  0.00    -0.187 OA 
HETATM   19  N   UNL     1     -10.324  10.586  68.332  1.00  0.00    -0.168 N  
HETATM   20  O   UNL     1     -10.560   9.242  67.994  1.00  0.00    -0.228 OA 
BRANCH  19  21
HETATM   21  C   UNL     1     -11.512  11.218  68.886  1.00  0.00    -0.297 C  
BRANCH  21  22
HETATM   22  C   UNL     1     -12.223  10.330  69.911  1.00  0.00    -0.130 C  
BRANCH  22  23
HETATM   23  C   UNL     1     -12.465  11.040  71.256  1.00  0.00    -0.475 C  
BRANCH  23  24
HETATM   24  C   UNL     1     -13.373  10.252  72.201  1.00  0.00    -0.404 C  
BRANCH  24  25
HETATM   25  C   UNL     1     -13.654   8.849  71.669  1.00  0.00    -0.383 C  
BRANCH  25  26
HETATM   26  N   UNL     1     -12.864   7.847  72.356  1.00  0.00    -0.540 N  
HETATM   27  H   UNL     1     -12.787   7.889  73.372  1.00  0.00     0.000 HD 
HETATM   28  C   UNL     1     -12.215   6.844  71.677  1.00  0.00    -0.361 C  
HETATM   29  O   UNL     1     -12.269   6.706  70.459  1.00  0.00    -0.364 OA 
BRANCH  28  30
HETATM   30  C   UNL     1     -11.413   5.912  72.549  1.00  0.00    -0.347 C  
BRANCH  30  31
HETATM   31  C   UNL     1     -10.738   6.706  73.657  1.00  0.00    -0.262 C  
BRANCH  31  32
HETATM   32  C   UNL     1      -9.262   6.883  73.373  1.00  0.00    -0.144 C  
HETATM   33  N   UNL     1      -8.809   8.130  73.018  1.00  0.00    -0.230 N  
HETATM   34  O   UNL     1      -8.495   5.933  73.545  1.00  0.00    -0.120 OA 
HETATM   35  O   UNL     1      -9.696   9.052  72.428  1.00  0.00    -0.210 OA 
BRANCH  33  36
HETATM   36  C   UNL     1      -7.414   8.386  72.653  1.00  0.00    -0.074 C  
BRANCH  36  37
HETATM   37  C   UNL     1      -7.251   8.672  71.159  1.00  0.00    -0.085 C  
BRANCH  37  38
HETATM   38  C   UNL     1      -6.593   7.503  70.417  1.00  0.00    -0.042 C  
BRANCH  38  39
HETATM   39  C   UNL     1      -7.480   6.984  69.281  1.00  0.00    -0.094 C  
BRANCH  39  40
HETATM   40  C   UNL     1      -8.716   6.242  69.792  1.00  0.00    -0.137 C  
HETATM   41  N   UNL     1      -9.844   6.374  68.875  1.00  0.00    -0.135 NA 
HETATM   42  H2  UNL     1      -9.593   6.074  67.933  1.00  0.00     0.000 HD 
HETATM   43  H1  UNL     1     -10.668   5.879  69.216  1.00  0.00     0.000 HD 
ENDBRANCH  39  40
ENDBRANCH  38  39
ENDBRANCH  37  38
ENDBRANCH  36  37
ENDBRANCH  33  36
ENDBRANCH  31  32
ENDBRANCH  30  31
ENDBRANCH  28  30
ENDBRANCH  25  26
ENDBRANCH  24  25
ENDBRANCH  23  24
ENDBRANCH  22  23
ENDBRANCH  21  22
ENDBRANCH  19  21
ENDBRANCH  16  17
ENDBRANCH  15  16
ENDBRANCH  12  15
ENDBRANCH  10  11
ENDBRANCH   9  10
ENDBRANCH   8   9
ENDBRANCH   7   8
ENDBRANCH   6   7
ENDBRANCH   3   6
TORSDOF 23
ENDMDL
MODEL       41
REMARK 921   NORMALIZED FREE ENERGY PREDICTED BY IDOCK:   -5.19 KCAL/MOL
REMARK 922        TOTAL FREE ENERGY PREDICTED BY IDOCK:  -14.92 KCAL/MOL
REMARK 923 INTER-LIGAND FREE ENERGY PREDICTED BY IDOCK:  -12.13 KCAL/MOL
REMARK 924 INTRA-LIGAND FREE ENERGY PREDICTED BY IDOCK:   -2.79 KCAL/MOL
REMARK 927      BINDING AFFINITY PREDICTED BY RF-SCORE:    0.00 PKD
ROOT
HETATM    1  C   UNL     1     -12.755  14.553  64.616  1.00  0.00    -0.062 C  
HETATM    2  C   UNL     1     -12.438  13.093  64.419  1.00  0.00    -0.310 C  
HETATM    3  N   UNL     1     -11.132  12.774  64.159  1.00  0.00    -0.364 N  
HETATM    4  O   UNL     1     -13.336  12.251  64.463  1.00  0.00    -0.769 OA 
HETATM    5  O   UNL     1     -10.063  13.681  64.250  1.00  0.00    -0.313 OA 
ENDROOT
BRANCH   3   6
HETATM    6  C   UNL     1     -10.670  11.411  63.930  1.00  0.00    -0.397 C  
BRANCH   6   7
HETATM    7  C   UNL     1      -9.559  11.002  64.899  1.00  0.00    -0.289 C  
BRANCH   7   8
HETATM    8  C   UNL     1      -9.863   9.634  65.513  1.00  0.00    -0.352 C  
BRANCH   8   9
HETATM    9  C   UNL     1      -8.796   9.206  66.522  1.00  0.00    -0.156 C  
BRANCH   9  10
HETATM   10  C   UNL     1      -8.423   7.730  66.382  1.00  0.00    -0.136 C  
BRANCH  10  11
HETATM   11  N   UNL     1      -8.559   7.001  67.635  1.00  0.00    -0.122 N  
HETATM   12  C   UNL     1      -8.608   5.626  67.656  1.00  0.00    -0.108 C  
HETATM   13  H   UNL     1      -8.619   7.519  68.511  1.00  0.00     0.000 HD 
HETATM   14  O   UNL     1      -8.503   4.921  66.656  1.00  0.00    -0.107 OA 
BRANCH  12  15
HETATM   15  C   UNL     1      -8.789   5.057  69.047  1.00  0.00    -0.112 C  
BRANCH  15  16
HETATM   16  C   UNL     1     -10.271   4.852  69.352  1.00  0.00    -0.229 C  
BRANCH  16  17
HETATM   17  C   UNL     1     -10.920   6.094  69.932  1.00  0.00    -0.389 C  
HETATM   18  O   UNL     1     -11.137   7.083  69.235  1.00  0.00    -0.204 OA 
HETATM   19  N   UNL     1     -11.213   6.053  71.271  1.00  0.00    -0.282 N  
HETATM   20  O   UNL     1     -11.075   4.915  72.085  1.00  0.00    -0.082 OA 
BRANCH  19  21
HETATM   21  C   UNL     1     -11.768   7.178  72.009  1.00  0.00    -0.289 C  
BRANCH  21  22
HETATM   22  C   UNL     1     -13.257   7.387  71.723  1.00  0.00    -0.371 C  
BRANCH  22  23
HETATM   23  C   UNL     1     -13.655   8.874  71.666  1.00  0.00    -0.432 C  
BRANCH  23  24
HETATM   24  C   UNL     1     -12.455   9.822  71.693  1.00  0.00    -0.500 C  
BRANCH  24  25
HETATM   25  C   UNL     1     -12.803  11.185  71.098  1.00  0.00    -0.374 C  
BRANCH  25  26
HETATM   26  N   UNL     1     -11.668  11.778  70.420  1.00  0.00    -0.519 N  
HETATM   27  H   UNL     1     -11.044  12.391  70.945  1.00  0.00     0.000 HD 
HETATM   28  C   UNL     1     -11.410  11.539  69.092  1.00  0.00    -0.286 C  
HETATM   29  O   UNL     1     -12.095  10.801  68.390  1.00  0.00    -0.501 OA 
BRANCH  28  30
HETATM   30  C   UNL     1     -10.208  12.266  68.545  1.00  0.00    -0.213 C  
BRANCH  30  31
HETATM   31  C   UNL     1     -10.663  13.347  67.577  1.00  0.00    -0.263 C  
BRANCH  31  32
HETATM   32  C   UNL     1     -10.901  14.655  68.302  1.00  0.00    -0.245 C  
HETATM   33  N   UNL     1     -10.700  15.828  67.616  1.00  0.00    -0.305 N  
HETATM   34  O   UNL     1     -11.344  14.637  69.452  1.00  0.00    -0.257 OA 
HETATM   35  O   UNL     1      -9.825  15.850  66.513  1.00  0.00    -0.236 OA 
BRANCH  33  36
HETATM   36  C   UNL     1     -10.834  17.142  68.249  1.00  0.00    -0.314 C  
BRANCH  36  37
HETATM   37  C   UNL     1      -9.479  17.818  68.467  1.00  0.00    -0.304 C  
BRANCH  37  38
HETATM   38  C   UNL     1      -9.537  19.326  68.203  1.00  0.00    -0.423 C  
BRANCH  38  39
HETATM   39  C   UNL     1     -10.771  19.709  67.380  1.00  0.00    -0.563 C  
BRANCH  39  40
HETATM   40  C   UNL     1     -10.473  19.805  65.883  1.00  0.00    -0.486 C  
HETATM   41  N   UNL     1     -10.786  18.560  65.188  1.00  0.00    -0.463 NA 
HETATM   42  H2  UNL     1     -11.750  18.272  65.358  1.00  0.00     0.000 HD 
HETATM   43  H1  UNL     1     -10.588  18.624  64.190  1.00  0.00     0.000 HD 
ENDBRANCH  39  40
ENDBRANCH  38  39
ENDBRANCH  37  38
ENDBRANCH  36  37
ENDBRANCH  33  36
ENDBRANCH  31  32
ENDBRANCH  30  31
ENDBRANCH  28  30
ENDBRANCH  25  26
ENDBRANCH  24  25
ENDBRANCH  23  24
ENDBRANCH  22  23
ENDBRANCH  21  22
ENDBRANCH  19  21
ENDBRANCH  16  17
ENDBRANCH  15  16
ENDBRANCH  12  15
ENDBRANCH  10  11
ENDBRANCH   9  10
ENDBRANCH   8   9
ENDBRANCH   7   8
ENDBRANCH   6   7
ENDBRANCH   3   6
TORSDOF 23
ENDMDL
MODEL       42
REMARK 921   NORMALIZED FREE ENERGY PREDICTED BY IDOCK:   -5.18 KCAL/MOL
REMARK 922        TOTAL FREE ENERGY PREDICTED BY IDOCK:  -14.90 KCAL/MOL
REMARK 923 INTER-LIGAND FREE ENERGY PREDICTED BY IDOCK:  -12.62 KCAL/MOL
REMARK 924 INTRA-LIGAND FREE ENERGY PREDICTED BY IDOCK:   -2.29 KCAL/MOL
REMARK 927      BINDING AFFINITY PREDICTED BY RF-SCORE:    0.00 PKD
ROOT
HETATM    1  C   UNL     1     -10.331   4.561  65.901  1.00  0.00    -0.289 C  
HETATM    2  C   UNL     1     -10.558   5.644  66.923  1.00  0.00    -0.296 C  
HETATM    3  N   UNL     1     -10.012   5.447  68.164  1.00  0.00    -0.149 N  
HETATM    4  O   UNL     1     -11.233   6.634  66.640  1.00  0.00    -0.231 OA 
HETATM    5  O   UNL     1      -9.116   4.411  68.477  1.00  0.00    -0.109 OA 
ENDROOT
BRANCH   3   6
HETATM    6  C   UNL     1     -10.155   6.392  69.263  1.00  0.00    -0.172 C  
BRANCH   6   7
HETATM    7  C   UNL     1     -11.504   6.262  69.973  1.00  0.00    -0.460 C  
BRANCH   7   8
HETATM    8  C   UNL     1     -11.303   6.161  71.486  1.00  0.00    -0.340 C  
BRANCH   8   9
HETATM    9  C   UNL     1     -10.217   7.114  71.987  1.00  0.00    -0.209 C  
BRANCH   9  10
HETATM   10  C   UNL     1     -10.799   8.408  72.558  1.00  0.00    -0.305 C  
BRANCH  10  11
HETATM   11  N   UNL     1     -11.142   9.368  71.520  1.00  0.00    -0.376 N  
HETATM   12  C   UNL     1     -12.446   9.758  71.313  1.00  0.00    -0.367 C  
HETATM   13  H   UNL     1     -10.403   9.760  70.937  1.00  0.00     0.000 HD 
HETATM   14  O   UNL     1     -13.393   9.369  71.992  1.00  0.00    -0.389 OA 
BRANCH  12  15
HETATM   15  C   UNL     1     -12.603  10.732  70.166  1.00  0.00    -0.309 C  
BRANCH  15  16
HETATM   16  C   UNL     1     -11.241  11.080  69.570  1.00  0.00    -0.343 C  
BRANCH  16  17
HETATM   17  C   UNL     1     -11.188  10.847  68.072  1.00  0.00    -0.314 C  
HETATM   18  O   UNL     1     -10.836   9.764  67.610  1.00  0.00    -0.282 OA 
HETATM   19  N   UNL     1     -11.523  11.916  67.282  1.00  0.00    -0.321 N  
HETATM   20  O   UNL     1     -12.026  13.138  67.761  1.00  0.00    -0.350 OA 
BRANCH  19  21
HETATM   21  C   UNL     1     -11.457  11.895  65.828  1.00  0.00    -0.265 C  
BRANCH  21  22
HETATM   22  C   UNL     1     -12.605  12.674  65.179  1.00  0.00    -0.459 C  
BRANCH  22  23
HETATM   23  C   UNL     1     -12.122  13.897  64.377  1.00  0.00    -0.477 C  
BRANCH  23  24
HETATM   24  C   UNL     1     -10.739  14.392  64.804  1.00  0.00    -0.423 C  
BRANCH  24  25
HETATM   25  C   UNL     1     -10.764  15.873  65.175  1.00  0.00    -0.429 C  
BRANCH  25  26
HETATM   26  N   UNL     1      -9.491  16.312  65.711  1.00  0.00    -0.267 N  
HETATM   27  H   UNL     1      -8.737  15.633  65.814  1.00  0.00     0.000 HD 
HETATM   28  C   UNL     1      -9.271  17.617  66.084  1.00  0.00    -0.119 C  
HETATM   29  O   UNL     1     -10.113  18.503  65.976  1.00  0.00    -0.485 OA 
BRANCH  28  30
HETATM   30  C   UNL     1      -7.901  17.885  66.652  1.00  0.00    -0.272 C  
BRANCH  30  31
HETATM   31  C   UNL     1      -8.014  18.173  68.141  1.00  0.00    -0.290 C  
BRANCH  31  32
HETATM   32  C   UNL     1      -8.262  16.899  68.920  1.00  0.00    -0.218 C  
HETATM   33  N   UNL     1      -9.561  16.535  69.181  1.00  0.00    -0.253 N  
HETATM   34  O   UNL     1      -7.307  16.183  69.228  1.00  0.00    -0.219 OA 
HETATM   35  O   UNL     1     -10.567  17.519  69.213  1.00  0.00    -0.268 OA 
BRANCH  33  36
HETATM   36  C   UNL     1      -9.901  15.361  69.989  1.00  0.00    -0.095 C  
BRANCH  36  37
HETATM   37  C   UNL     1     -11.380  15.339  70.379  1.00  0.00    -0.325 C  
BRANCH  37  38
HETATM   38  C   UNL     1     -11.577  15.135  71.885  1.00  0.00    -0.490 C  
BRANCH  38  39
HETATM   39  C   UNL     1     -12.716  16.002  72.429  1.00  0.00    -0.496 C  
BRANCH  39  40
HETATM   40  C   UNL     1     -12.880  15.875  73.944  1.00  0.00    -0.539 C  
HETATM   41  N   UNL     1     -12.038  14.817  74.493  1.00  0.00    -0.617 NA 
HETATM   42  H2  UNL     1     -11.060  14.950  74.234  1.00  0.00     0.000 HD 
HETATM   43  H1  UNL     1     -12.148  14.733  75.503  1.00  0.00     0.000 HD 
ENDBRANCH  39  40
ENDBRANCH  38  39
ENDBRANCH  37  38
ENDBRANCH  36  37
ENDBRANCH  33  36
ENDBRANCH  31  32
ENDBRANCH  30  31
ENDBRANCH  28  30
ENDBRANCH  25  26
ENDBRANCH  24  25
ENDBRANCH  23  24
ENDBRANCH  22  23
ENDBRANCH  21  22
ENDBRANCH  19  21
ENDBRANCH  16  17
ENDBRANCH  15  16
ENDBRANCH  12  15
ENDBRANCH  10  11
ENDBRANCH   9  10
ENDBRANCH   8   9
ENDBRANCH   7   8
ENDBRANCH   6   7
ENDBRANCH   3   6
TORSDOF 23
ENDMDL
MODEL       43
REMARK 921   NORMALIZED FREE ENERGY PREDICTED BY IDOCK:   -5.17 KCAL/MOL
REMARK 922        TOTAL FREE ENERGY PREDICTED BY IDOCK:  -14.88 KCAL/MOL
REMARK 923 INTER-LIGAND FREE ENERGY PREDICTED BY IDOCK:  -12.13 KCAL/MOL
REMARK 924 INTRA-LIGAND FREE ENERGY PREDICTED BY IDOCK:   -2.75 KCAL/MOL
REMARK 927      BINDING AFFINITY PREDICTED BY RF-SCORE:    0.00 PKD
ROOT
HETATM    1  C   UNL     1     -10.371  16.863  65.878  1.00  0.00    -0.327 C  
HETATM    2  C   UNL     1     -11.128  15.994  64.908  1.00  0.00    -0.370 C  
HETATM    3  N   UNL     1     -11.207  14.659  65.205  1.00  0.00    -0.355 N  
HETATM    4  O   UNL     1     -11.615  16.481  63.887  1.00  0.00    -1.175 OA 
HETATM    5  O   UNL     1     -10.798  14.096  66.426  1.00  0.00    -0.299 OA 
ENDROOT
BRANCH   3   6
HETATM    6  C   UNL     1     -11.890  13.688  64.360  1.00  0.00    -0.424 C  
BRANCH   6   7
HETATM    7  C   UNL     1     -11.233  12.307  64.411  1.00  0.00    -0.389 C  
BRANCH   7   8
HETATM    8  C   UNL     1      -9.897  12.323  63.665  1.00  0.00    -0.181 C  
BRANCH   8   9
HETATM    9  C   UNL     1      -9.494  10.930  63.178  1.00  0.00    -0.361 C  
BRANCH   9  10
HETATM   10  C   UNL     1      -8.648  10.179  64.206  1.00  0.00    -0.193 C  
BRANCH  10  11
HETATM   11  N   UNL     1      -9.437   9.257  65.009  1.00  0.00    -0.453 N  
HETATM   12  C   UNL     1      -9.774   9.556  66.310  1.00  0.00    -0.245 C  
HETATM   13  H   UNL     1      -9.747   8.376  64.600  1.00  0.00     0.000 HD 
HETATM   14  O   UNL     1      -9.479  10.608  66.870  1.00  0.00    -0.162 OA 
BRANCH  12  15
HETATM   15  C   UNL     1     -10.564   8.457  66.989  1.00  0.00    -0.316 C  
BRANCH  15  16
HETATM   16  C   UNL     1      -9.640   7.568  67.818  1.00  0.00    -0.166 C  
BRANCH  16  17
HETATM   17  C   UNL     1      -9.575   7.997  69.271  1.00  0.00    -0.157 C  
HETATM   18  O   UNL     1      -8.785   8.862  69.644  1.00  0.00    -0.132 OA 
HETATM   19  N   UNL     1     -10.418   7.344  70.132  1.00  0.00    -0.215 N  
HETATM   20  O   UNL     1     -11.404   6.422  69.740  1.00  0.00    -0.384 OA 
BRANCH  19  21
HETATM   21  C   UNL     1     -10.439   7.574  71.569  1.00  0.00    -0.204 C  
BRANCH  21  22
HETATM   22  C   UNL     1     -10.966   8.965  71.931  1.00  0.00    -0.439 C  
BRANCH  22  23
HETATM   23  C   UNL     1     -12.465   9.138  71.622  1.00  0.00    -0.434 C  
BRANCH  23  24
HETATM   24  C   UNL     1     -12.783  10.437  70.881  1.00  0.00    -0.477 C  
BRANCH  24  25
HETATM   25  C   UNL     1     -13.050  11.586  71.851  1.00  0.00    -0.387 C  
BRANCH  25  26
HETATM   26  N   UNL     1     -13.011  12.871  71.182  1.00  0.00    -0.234 N  
HETATM   27  H   UNL     1     -12.659  12.922  70.226  1.00  0.00     0.000 HD 
HETATM   28  C   UNL     1     -13.435  14.024  71.800  1.00  0.00    -0.392 C  
HETATM   29  O   UNL     1     -13.892  14.053  72.939  1.00  0.00    -0.657 OA 
BRANCH  28  30
HETATM   30  C   UNL     1     -13.291  15.272  70.968  1.00  0.00    -0.537 C  
BRANCH  30  31
HETATM   31  C   UNL     1     -11.953  15.930  71.264  1.00  0.00    -0.493 C  
BRANCH  31  32
HETATM   32  C   UNL     1     -10.903  15.498  70.262  1.00  0.00    -0.339 C  
HETATM   33  N   UNL     1     -10.040  16.445  69.769  1.00  0.00    -0.141 N  
HETATM   34  O   UNL     1     -10.796  14.303  69.977  1.00  0.00    -0.039 OA 
HETATM   35  O   UNL     1     -10.425  17.800  69.759  1.00  0.00     0.093 OA 
BRANCH  33  36
HETATM   36  C   UNL     1      -9.040  16.141  68.744  1.00  0.00    -0.229 C  
BRANCH  36  37
HETATM   37  C   UNL     1      -7.708  16.845  69.009  1.00  0.00    -0.199 C  
BRANCH  37  38
HETATM   38  C   UNL     1      -6.508  15.975  68.618  1.00  0.00    -0.118 C  
BRANCH  38  39
HETATM   39  C   UNL     1      -6.743  15.253  67.289  1.00  0.00    -0.059 C  
BRANCH  39  40
HETATM   40  C   UNL     1      -6.869  13.738  67.457  1.00  0.00    -0.131 C  
HETATM   41  N   UNL     1      -8.130  13.237  66.920  1.00  0.00    -0.408 NA 
HETATM   42  H2  UNL     1      -8.257  13.515  65.948  1.00  0.00     0.000 HD 
HETATM   43  H1  UNL     1      -8.214  12.227  67.033  1.00  0.00     0.000 HD 
ENDBRANCH  39  40
ENDBRANCH  38  39
ENDBRANCH  37  38
ENDBRANCH  36  37
ENDBRANCH  33  36
ENDBRANCH  31  32
ENDBRANCH  30  31
ENDBRANCH  28  30
ENDBRANCH  25  26
ENDBRANCH  24  25
ENDBRANCH  23  24
ENDBRANCH  22  23
ENDBRANCH  21  22
ENDBRANCH  19  21
ENDBRANCH  16  17
ENDBRANCH  15  16
ENDBRANCH  12  15
ENDBRANCH  10  11
ENDBRANCH   9  10
ENDBRANCH   8   9
ENDBRANCH   7   8
ENDBRANCH   6   7
ENDBRANCH   3   6
TORSDOF 23
ENDMDL
MODEL       44
REMARK 921   NORMALIZED FREE ENERGY PREDICTED BY IDOCK:   -5.17 KCAL/MOL
REMARK 922        TOTAL FREE ENERGY PREDICTED BY IDOCK:  -14.87 KCAL/MOL
REMARK 923 INTER-LIGAND FREE ENERGY PREDICTED BY IDOCK:  -12.24 KCAL/MOL
REMARK 924 INTRA-LIGAND FREE ENERGY PREDICTED BY IDOCK:   -2.63 KCAL/MOL
REMARK 927      BINDING AFFINITY PREDICTED BY RF-SCORE:    0.00 PKD
ROOT
HETATM    1  C   UNL     1     -10.614   3.739  64.149  1.00  0.00    -0.263 C  
HETATM    2  C   UNL     1      -9.942   4.439  65.301  1.00  0.00    -0.200 C  
HETATM    3  N   UNL     1      -8.837   5.195  65.007  1.00  0.00    -0.152 N  
HETATM    4  O   UNL     1     -10.366   4.296  66.448  1.00  0.00    -0.169 OA 
HETATM    5  O   UNL     1      -8.416   5.503  63.702  1.00  0.00    -0.114 OA 
ENDROOT
BRANCH   3   6
HETATM    6  C   UNL     1      -8.070   5.919  66.011  1.00  0.00    -0.115 C  
BRANCH   6   7
HETATM    7  C   UNL     1      -7.442   7.198  65.454  1.00  0.00    -0.087 C  
BRANCH   7   8
HETATM    8  C   UNL     1      -7.896   8.413  66.266  1.00  0.00    -0.098 C  
BRANCH   8   9
HETATM    9  C   UNL     1      -7.519   8.292  67.743  1.00  0.00    -0.094 C  
BRANCH   9  10
HETATM   10  C   UNL     1      -8.632   8.788  68.668  1.00  0.00    -0.134 C  
BRANCH  10  11
HETATM   11  N   UNL     1      -9.310   7.699  69.356  1.00  0.00    -0.153 N  
HETATM   12  C   UNL     1     -10.429   7.104  68.817  1.00  0.00    -0.202 C  
HETATM   13  H   UNL     1      -8.950   7.371  70.252  1.00  0.00     0.000 HD 
HETATM   14  O   UNL     1     -10.908   7.406  67.728  1.00  0.00    -0.194 OA 
BRANCH  12  15
HETATM   15  C   UNL     1     -11.010   6.019  69.699  1.00  0.00    -0.470 C  
BRANCH  15  16
HETATM   16  C   UNL     1     -11.103   6.499  71.145  1.00  0.00    -0.332 C  
BRANCH  16  17
HETATM   17  C   UNL     1     -12.221   7.503  71.351  1.00  0.00    -0.335 C  
HETATM   18  O   UNL     1     -13.399   7.179  71.217  1.00  0.00    -0.368 OA 
HETATM   19  N   UNL     1     -11.835   8.782  71.659  1.00  0.00    -0.307 N  
HETATM   20  O   UNL     1     -10.511   9.177  71.920  1.00  0.00    -0.348 OA 
BRANCH  19  21
HETATM   21  C   UNL     1     -12.767   9.888  71.818  1.00  0.00    -0.428 C  
BRANCH  21  22
HETATM   22  C   UNL     1     -12.456  11.055  70.877  1.00  0.00    -0.509 C  
BRANCH  22  23
HETATM   23  C   UNL     1     -11.881  10.598  69.523  1.00  0.00    -0.345 C  
BRANCH  23  24
HETATM   24  C   UNL     1     -11.749  11.733  68.507  1.00  0.00    -0.390 C  
BRANCH  24  25
HETATM   25  C   UNL     1     -11.240  11.225  67.160  1.00  0.00    -0.275 C  
BRANCH  25  26
HETATM   26  N   UNL     1     -11.440  12.202  66.109  1.00  0.00    -0.363 N  
HETATM   27  H   UNL     1     -11.889  13.089  66.337  1.00  0.00     0.000 HD 
HETATM   28  C   UNL     1     -11.042  11.967  64.815  1.00  0.00    -0.317 C  
HETATM   29  O   UNL     1     -10.477  10.938  64.456  1.00  0.00    -0.346 OA 
BRANCH  28  30
HETATM   30  C   UNL     1     -11.360  13.079  63.848  1.00  0.00    -0.460 C  
BRANCH  30  31
HETATM   31  C   UNL     1     -12.279  14.088  64.518  1.00  0.00    -0.463 C  
BRANCH  31  32
HETATM   32  C   UNL     1     -11.580  15.419  64.701  1.00  0.00    -0.311 C  
HETATM   33  N   UNL     1     -10.775  15.589  65.801  1.00  0.00    -0.339 N  
HETATM   34  O   UNL     1     -11.683  16.281  63.825  1.00  0.00    -0.969 OA 
HETATM   35  O   UNL     1     -10.997  14.811  66.953  1.00  0.00    -0.313 OA 
BRANCH  33  36
HETATM   36  C   UNL     1     -10.115  16.860  66.104  1.00  0.00    -0.333 C  
BRANCH  36  37
HETATM   37  C   UNL     1     -10.569  17.441  67.444  1.00  0.00    -0.308 C  
BRANCH  37  38
HETATM   38  C   UNL     1     -10.691  18.968  67.400  1.00  0.00    -0.559 C  
BRANCH  38  39
HETATM   39  C   UNL     1     -10.156  19.540  66.083  1.00  0.00    -0.557 C  
BRANCH  39  40
HETATM   40  C   UNL     1      -8.740  20.102  66.218  1.00  0.00    -0.215 C  
HETATM   41  N   UNL     1      -8.238  19.982  67.583  1.00  0.00    -0.308 NA 
HETATM   42  H2  UNL     1      -8.289  19.018  67.914  1.00  0.00     0.000 HD 
HETATM   43  H1  UNL     1      -7.294  20.356  67.673  1.00  0.00     0.000 HD 
ENDBRANCH  39  40
ENDBRANCH  38  39
ENDBRANCH  37  38
ENDBRANCH  36  37
ENDBRANCH  33  36
ENDBRANCH  31  32
ENDBRANCH  30  31
ENDBRANCH  28  30
ENDBRANCH  25  26
ENDBRANCH  24  25
ENDBRANCH  23  24
ENDBRANCH  22  23
ENDBRANCH  21  22
ENDBRANCH  19  21
ENDBRANCH  16  17
ENDBRANCH  15  16
ENDBRANCH  12  15
ENDBRANCH  10  11
ENDBRANCH   9  10
ENDBRANCH   8   9
ENDBRANCH   7   8
ENDBRANCH   6   7
ENDBRANCH   3   6
TORSDOF 23
ENDMDL
MODEL       45
REMARK 921   NORMALIZED FREE ENERGY PREDICTED BY IDOCK:   -5.17 KCAL/MOL
REMARK 922        TOTAL FREE ENERGY PREDICTED BY IDOCK:  -14.87 KCAL/MOL
REMARK 923 INTER-LIGAND FREE ENERGY PREDICTED BY IDOCK:  -12.24 KCAL/MOL
REMARK 924 INTRA-LIGAND FREE ENERGY PREDICTED BY IDOCK:   -2.63 KCAL/MOL
REMARK 927      BINDING AFFINITY PREDICTED BY RF-SCORE:    0.00 PKD
ROOT
HETATM    1  C   UNL     1      -5.405  19.139  67.694  1.00  0.00    -0.172 C  
HETATM    2  C   UNL     1      -6.840  18.769  67.426  1.00  0.00    -0.204 C  
HETATM    3  N   UNL     1      -7.062  17.600  66.747  1.00  0.00    -0.186 N  
HETATM    4  O   UNL     1      -7.751  19.517  67.782  1.00  0.00    -0.271 OA 
HETATM    5  O   UNL     1      -6.065  16.652  66.459  1.00  0.00    -0.303 OA 
ENDROOT
BRANCH   3   6
HETATM    6  C   UNL     1      -8.390  17.113  66.399  1.00  0.00    -0.280 C  
BRANCH   6   7
HETATM    7  C   UNL     1      -8.979  16.202  67.477  1.00  0.00    -0.197 C  
BRANCH   7   8
HETATM    8  C   UNL     1     -10.377  16.679  67.874  1.00  0.00    -0.310 C  
BRANCH   8   9
HETATM    9  C   UNL     1     -10.697  16.371  69.338  1.00  0.00    -0.324 C  
BRANCH   9  10
HETATM   10  C   UNL     1     -12.110  15.815  69.519  1.00  0.00    -0.242 C  
BRANCH  10  11
HETATM   11  N   UNL     1     -12.193  14.849  70.604  1.00  0.00    -0.294 N  
HETATM   12  C   UNL     1     -13.290  14.803  71.435  1.00  0.00    -0.392 C  
HETATM   13  H   UNL     1     -11.424  14.195  70.752  1.00  0.00     0.000 HD 
HETATM   14  O   UNL     1     -14.276  15.524  71.307  1.00  0.00    -0.544 OA 
BRANCH  12  15
HETATM   15  C   UNL     1     -13.171  13.759  72.524  1.00  0.00    -0.599 C  
BRANCH  15  16
HETATM   16  C   UNL     1     -13.910  12.484  72.125  1.00  0.00    -0.185 C  
BRANCH  16  17
HETATM   17  C   UNL     1     -12.989  11.452  71.503  1.00  0.00    -0.399 C  
HETATM   18  O   UNL     1     -12.067  11.787  70.763  1.00  0.00    -0.360 OA 
HETATM   19  N   UNL     1     -13.269  10.141  71.790  1.00  0.00    -0.432 N  
HETATM   20  O   UNL     1     -14.247   9.714  72.706  1.00  0.00    -0.224 OA 
BRANCH  19  21
HETATM   21  C   UNL     1     -12.538   9.018  71.223  1.00  0.00    -0.280 C  
BRANCH  21  22
HETATM   22  C   UNL     1     -12.117   7.998  72.285  1.00  0.00    -0.392 C  
BRANCH  22  23
HETATM   23  C   UNL     1     -11.992   6.567  71.727  1.00  0.00    -0.394 C  
BRANCH  23  24
HETATM   24  C   UNL     1     -10.893   5.748  72.405  1.00  0.00    -0.294 C  
BRANCH  24  25
HETATM   25  C   UNL     1      -9.598   6.547  72.537  1.00  0.00    -0.151 C  
BRANCH  25  26
HETATM   26  N   UNL     1      -9.081   6.944  71.243  1.00  0.00    -0.149 N  
HETATM   27  H   UNL     1      -9.070   6.264  70.483  1.00  0.00     0.000 HD 
HETATM   28  C   UNL     1      -8.604   8.213  71.011  1.00  0.00    -0.137 C  
HETATM   29  O   UNL     1      -8.598   9.100  71.859  1.00  0.00    -0.332 OA 
BRANCH  28  30
HETATM   30  C   UNL     1      -8.074   8.439  69.618  1.00  0.00    -0.115 C  
BRANCH  30  31
HETATM   31  C   UNL     1      -8.350   9.874  69.195  1.00  0.00    -0.145 C  
BRANCH  31  32
HETATM   32  C   UNL     1      -9.677   9.979  68.475  1.00  0.00    -0.155 C  
HETATM   33  N   UNL     1     -10.040  11.195  67.947  1.00  0.00    -0.173 N  
HETATM   34  O   UNL     1     -10.357   8.965  68.309  1.00  0.00    -0.199 OA 
HETATM   35  O   UNL     1      -9.502  12.378  68.488  1.00  0.00    -0.184 OA 
BRANCH  33  36
HETATM   36  C   UNL     1     -11.333  11.416  67.297  1.00  0.00    -0.275 C  
BRANCH  36  37
HETATM   37  C   UNL     1     -11.490  12.853  66.796  1.00  0.00    -0.391 C  
BRANCH  37  38
HETATM   38  C   UNL     1     -12.332  12.930  65.518  1.00  0.00    -0.517 C  
BRANCH  38  39
HETATM   39  C   UNL     1     -12.587  14.380  65.096  1.00  0.00    -0.323 C  
BRANCH  39  40
HETATM   40  C   UNL     1     -11.293  15.152  64.831  1.00  0.00    -0.399 C  
HETATM   41  N   UNL     1     -11.453  16.121  63.752  1.00  0.00    -1.318 NA 
HETATM   42  H2  UNL     1     -12.232  16.753  63.933  1.00  0.00     0.000 HD 
HETATM   43  H1  UNL     1     -10.590  16.635  63.574  1.00  0.00     0.000 HD 
ENDBRANCH  39  40
ENDBRANCH  38  39
ENDBRANCH  37  38
ENDBRANCH  36  37
ENDBRANCH  33  36
ENDBRANCH  31  32
ENDBRANCH  30  31
ENDBRANCH  28  30
ENDBRANCH  25  26
ENDBRANCH  24  25
ENDBRANCH  23  24
ENDBRANCH  22  23
ENDBRANCH  21  22
ENDBRANCH  19  21
ENDBRANCH  16  17
ENDBRANCH  15  16
ENDBRANCH  12  15
ENDBRANCH  10  11
ENDBRANCH   9  10
ENDBRANCH   8   9
ENDBRANCH   7   8
ENDBRANCH   6   7
ENDBRANCH   3   6
TORSDOF 23
ENDMDL
MODEL       46
REMARK 921   NORMALIZED FREE ENERGY PREDICTED BY IDOCK:   -5.15 KCAL/MOL
REMARK 922        TOTAL FREE ENERGY PREDICTED BY IDOCK:  -14.83 KCAL/MOL
REMARK 923 INTER-LIGAND FREE ENERGY PREDICTED BY IDOCK:  -11.70 KCAL/MOL
REMARK 924 INTRA-LIGAND FREE ENERGY PREDICTED BY IDOCK:   -3.14 KCAL/MOL
REMARK 927      BINDING AFFINITY PREDICTED BY RF-SCORE:    0.00 PKD
ROOT
HETATM    1  C   UNL     1     -11.693  15.463  72.448  1.00  0.00    -0.565 C  
HETATM    2  C   UNL     1     -12.288  15.588  71.070  1.00  0.00    -0.416 C  
HETATM    3  N   UNL     1     -11.412  15.593  70.016  1.00  0.00    -0.313 N  
HETATM    4  O   UNL     1     -13.505  15.713  70.927  1.00  0.00    -0.569 OA 
HETATM    5  O   UNL     1     -10.041  15.303  70.127  1.00  0.00    -0.238 OA 
ENDROOT
BRANCH   3   6
HETATM    6  C   UNL     1     -11.829  15.722  68.627  1.00  0.00    -0.275 C  
BRANCH   6   7
HETATM    7  C   UNL     1     -10.685  16.165  67.713  1.00  0.00    -0.325 C  
BRANCH   7   8
HETATM    8  C   UNL     1     -10.622  15.278  66.468  1.00  0.00    -0.304 C  
BRANCH   8   9
HETATM    9  C   UNL     1     -12.010  14.820  66.016  1.00  0.00    -0.155 C  
BRANCH   9  10
HETATM   10  C   UNL     1     -12.085  14.603  64.504  1.00  0.00    -0.475 C  
BRANCH  10  11
HETATM   11  N   UNL     1     -11.209  13.532  64.053  1.00  0.00    -0.576 N  
HETATM   12  C   UNL     1     -11.722  12.343  63.584  1.00  0.00    -0.514 C  
HETATM   13  H   UNL     1     -10.199  13.665  64.084  1.00  0.00     0.000 HD 
HETATM   14  O   UNL     1     -12.922  12.111  63.474  1.00  0.00    -0.794 OA 
BRANCH  12  15
HETATM   15  C   UNL     1     -10.652  11.343  63.199  1.00  0.00    -0.278 C  
BRANCH  15  16
HETATM   16  C   UNL     1      -9.658  11.156  64.342  1.00  0.00    -0.288 C  
BRANCH  16  17
HETATM   17  C   UNL     1      -8.708  10.000  64.100  1.00  0.00    -0.205 C  
HETATM   18  O   UNL     1      -7.935  10.002  63.144  1.00  0.00    -0.137 OA 
HETATM   19  N   UNL     1      -8.790   8.954  64.983  1.00  0.00    -0.174 N  
HETATM   20  O   UNL     1      -9.584   8.949  66.143  1.00  0.00    -0.234 OA 
BRANCH  19  21
HETATM   21  C   UNL     1      -8.008   7.733  64.861  1.00  0.00    -0.139 C  
BRANCH  21  22
HETATM   22  C   UNL     1      -7.058   7.526  66.044  1.00  0.00    -0.069 C  
BRANCH  22  23
HETATM   23  C   UNL     1      -7.358   6.239  66.836  1.00  0.00    -0.083 C  
BRANCH  23  24
HETATM   24  C   UNL     1      -6.442   6.046  68.045  1.00  0.00    -0.050 C  
BRANCH  24  25
HETATM   25  C   UNL     1      -6.956   4.942  68.967  1.00  0.00    -0.052 C  
BRANCH  25  26
HETATM   26  N   UNL     1      -8.212   5.308  69.592  1.00  0.00    -0.093 N  
HETATM   27  H   UNL     1      -8.233   6.099  70.236  1.00  0.00     0.000 HD 
HETATM   28  C   UNL     1      -9.374   4.619  69.340  1.00  0.00    -0.141 C  
HETATM   29  O   UNL     1      -9.445   3.669  68.566  1.00  0.00    -0.168 OA 
BRANCH  28  30
HETATM   30  C   UNL     1     -10.576   5.116  70.102  1.00  0.00    -0.225 C  
BRANCH  30  31
HETATM   31  C   UNL     1     -11.226   6.260  69.339  1.00  0.00    -0.489 C  
BRANCH  31  32
HETATM   32  C   UNL     1     -10.886   7.593  69.970  1.00  0.00    -0.243 C  
HETATM   33  N   UNL     1     -11.649   8.029  71.026  1.00  0.00    -0.284 N  
HETATM   34  O   UNL     1      -9.893   8.211  69.581  1.00  0.00    -0.179 OA 
HETATM   35  O   UNL     1     -12.970   7.563  71.171  1.00  0.00    -0.292 OA 
BRANCH  33  36
HETATM   36  C   UNL     1     -11.446   9.336  71.656  1.00  0.00    -0.398 C  
BRANCH  36  37
HETATM   37  C   UNL     1     -12.682  10.231  71.539  1.00  0.00    -0.557 C  
BRANCH  37  38
HETATM   38  C   UNL     1     -12.874  10.766  70.116  1.00  0.00    -0.148 C  
BRANCH  38  39
HETATM   39  C   UNL     1     -11.939  11.942  69.822  1.00  0.00    -0.377 C  
BRANCH  39  40
HETATM   40  C   UNL     1     -11.124  11.742  68.543  1.00  0.00    -0.239 C  
HETATM   41  N   UNL     1     -11.481  10.500  67.864  1.00  0.00    -0.633 NA 
HETATM   42  H2  UNL     1     -12.483  10.452  67.679  1.00  0.00     0.000 HD 
HETATM   43  H1  UNL     1     -10.938  10.366  67.011  1.00  0.00     0.000 HD 
ENDBRANCH  39  40
ENDBRANCH  38  39
ENDBRANCH  37  38
ENDBRANCH  36  37
ENDBRANCH  33  36
ENDBRANCH  31  32
ENDBRANCH  30  31
ENDBRANCH  28  30
ENDBRANCH  25  26
ENDBRANCH  24  25
ENDBRANCH  23  24
ENDBRANCH  22  23
ENDBRANCH  21  22
ENDBRANCH  19  21
ENDBRANCH  16  17
ENDBRANCH  15  16
ENDBRANCH  12  15
ENDBRANCH  10  11
ENDBRANCH   9  10
ENDBRANCH   8   9
ENDBRANCH   7   8
ENDBRANCH   6   7
ENDBRANCH   3   6
TORSDOF 23
ENDMDL
MODEL       47
REMARK 921   NORMALIZED FREE ENERGY PREDICTED BY IDOCK:   -5.15 KCAL/MOL
REMARK 922        TOTAL FREE ENERGY PREDICTED BY IDOCK:  -14.83 KCAL/MOL
REMARK 923 INTER-LIGAND FREE ENERGY PREDICTED BY IDOCK:  -12.79 KCAL/MOL
REMARK 924 INTRA-LIGAND FREE ENERGY PREDICTED BY IDOCK:   -2.04 KCAL/MOL
REMARK 927      BINDING AFFINITY PREDICTED BY RF-SCORE:    0.00 PKD
ROOT
HETATM    1  C   UNL     1     -11.812  12.715  63.736  1.00  0.00    -0.574 C  
HETATM    2  C   UNL     1     -11.624  12.125  65.110  1.00  0.00    -0.317 C  
HETATM    3  N   UNL     1     -10.585  11.247  65.270  1.00  0.00    -0.275 N  
HETATM    4  O   UNL     1     -12.403  12.411  66.020  1.00  0.00    -0.627 OA 
HETATM    5  O   UNL     1      -9.592  11.015  64.304  1.00  0.00    -0.231 OA 
ENDROOT
BRANCH   3   6
HETATM    6  C   UNL     1     -10.283  10.583  66.530  1.00  0.00    -0.231 C  
BRANCH   6   7
HETATM    7  C   UNL     1      -9.804   9.143  66.331  1.00  0.00    -0.350 C  
BRANCH   7   8
HETATM    8  C   UNL     1     -10.731   8.167  67.058  1.00  0.00    -0.247 C  
BRANCH   8   9
HETATM    9  C   UNL     1      -9.955   7.177  67.929  1.00  0.00    -0.186 C  
BRANCH   9  10
HETATM   10  C   UNL     1     -10.847   6.063  68.476  1.00  0.00    -0.286 C  
BRANCH  10  11
HETATM   11  N   UNL     1     -11.577   6.470  69.668  1.00  0.00    -0.629 N  
HETATM   12  C   UNL     1     -11.173   6.070  70.922  1.00  0.00    -0.265 C  
HETATM   13  H   UNL     1     -12.402   7.062  69.571  1.00  0.00     0.000 HD 
HETATM   14  O   UNL     1     -10.172   5.392  71.135  1.00  0.00    -0.201 OA 
BRANCH  12  15
HETATM   15  C   UNL     1     -12.082   6.564  72.027  1.00  0.00    -0.358 C  
BRANCH  15  16
HETATM   16  C   UNL     1     -13.322   7.233  71.440  1.00  0.00    -0.399 C  
BRANCH  16  17
HETATM   17  C   UNL     1     -13.456   8.681  71.870  1.00  0.00    -0.397 C  
HETATM   18  O   UNL     1     -14.273   9.018  72.725  1.00  0.00    -0.572 OA 
HETATM   19  N   UNL     1     -12.642   9.580  71.230  1.00  0.00    -0.329 N  
HETATM   20  O   UNL     1     -11.627   9.232  70.321  1.00  0.00    -0.225 OA 
BRANCH  19  21
HETATM   21  C   UNL     1     -12.687  11.016  71.462  1.00  0.00    -0.415 C  
BRANCH  21  22
HETATM   22  C   UNL     1     -12.536  11.822  70.169  1.00  0.00    -0.182 C  
BRANCH  22  23
HETATM   23  C   UNL     1     -11.794  13.156  70.377  1.00  0.00    -0.259 C  
BRANCH  23  24
HETATM   24  C   UNL     1     -12.534  14.122  71.303  1.00  0.00    -0.446 C  
BRANCH  24  25
HETATM   25  C   UNL     1     -12.994  15.373  70.557  1.00  0.00    -0.332 C  
BRANCH  25  26
HETATM   26  N   UNL     1     -11.885  16.259  70.264  1.00  0.00    -0.386 N  
HETATM   27  H   UNL     1     -11.535  16.873  70.999  1.00  0.00     0.000 HD 
HETATM   28  C   UNL     1     -11.292  16.294  69.024  1.00  0.00    -0.301 C  
HETATM   29  O   UNL     1     -11.635  15.577  68.089  1.00  0.00    -0.353 OA 
BRANCH  28  30
HETATM   30  C   UNL     1     -10.177  17.299  68.890  1.00  0.00    -0.349 C  
BRANCH  30  31
HETATM   31  C   UNL     1     -10.654  18.482  68.062  1.00  0.00    -0.347 C  
BRANCH  31  32
HETATM   32  C   UNL     1      -9.814  18.640  66.812  1.00  0.00    -0.341 C  
HETATM   33  N   UNL     1      -8.549  19.161  66.935  1.00  0.00    -0.289 N  
HETATM   34  O   UNL     1     -10.249  18.226  65.735  1.00  0.00    -0.576 OA 
HETATM   35  O   UNL     1      -8.241  19.991  68.030  1.00  0.00    -0.289 OA 
BRANCH  33  36
HETATM   36  C   UNL     1      -7.688  19.419  65.779  1.00  0.00    -0.151 C  
BRANCH  36  37
HETATM   37  C   UNL     1      -6.332  18.722  65.901  1.00  0.00    -0.260 C  
BRANCH  37  38
HETATM   38  C   UNL     1      -6.461  17.306  66.472  1.00  0.00    -0.272 C  
BRANCH  38  39
HETATM   39  C   UNL     1      -5.264  16.942  67.356  1.00  0.00    -0.159 C  
BRANCH  39  40
HETATM   40  C   UNL     1      -5.639  16.824  68.834  1.00  0.00    -0.133 C  
HETATM   41  N   UNL     1      -6.730  17.726  69.189  1.00  0.00    -0.248 NA 
HETATM   42  H2  UNL     1      -7.541  17.584  68.588  1.00  0.00     0.000 HD 
HETATM   43  H1  UNL     1      -6.980  17.647  70.176  1.00  0.00     0.000 HD 
ENDBRANCH  39  40
ENDBRANCH  38  39
ENDBRANCH  37  38
ENDBRANCH  36  37
ENDBRANCH  33  36
ENDBRANCH  31  32
ENDBRANCH  30  31
ENDBRANCH  28  30
ENDBRANCH  25  26
ENDBRANCH  24  25
ENDBRANCH  23  24
ENDBRANCH  22  23
ENDBRANCH  21  22
ENDBRANCH  19  21
ENDBRANCH  16  17
ENDBRANCH  15  16
ENDBRANCH  12  15
ENDBRANCH  10  11
ENDBRANCH   9  10
ENDBRANCH   8   9
ENDBRANCH   7   8
ENDBRANCH   6   7
ENDBRANCH   3   6
TORSDOF 23
ENDMDL
MODEL       48
REMARK 921   NORMALIZED FREE ENERGY PREDICTED BY IDOCK:   -5.15 KCAL/MOL
REMARK 922        TOTAL FREE ENERGY PREDICTED BY IDOCK:  -14.82 KCAL/MOL
REMARK 923 INTER-LIGAND FREE ENERGY PREDICTED BY IDOCK:  -12.19 KCAL/MOL
REMARK 924 INTRA-LIGAND FREE ENERGY PREDICTED BY IDOCK:   -2.63 KCAL/MOL
REMARK 927      BINDING AFFINITY PREDICTED BY RF-SCORE:    0.00 PKD
ROOT
HETATM    1  C   UNL     1      -9.393   3.764  66.867  1.00  0.00    -0.214 C  
HETATM    2  C   UNL     1     -10.057   5.036  67.326  1.00  0.00    -0.184 C  
HETATM    3  N   UNL     1      -9.780   5.453  68.602  1.00  0.00    -0.130 N  
HETATM    4  O   UNL     1     -10.832   5.636  66.581  1.00  0.00    -0.292 OA 
HETATM    5  O   UNL     1      -8.792   4.883  69.422  1.00  0.00    -0.089 OA 
ENDROOT
BRANCH   3   6
HETATM    6  C   UNL     1     -10.355   6.652  69.196  1.00  0.00    -0.194 C  
BRANCH   6   7
HETATM    7  C   UNL     1     -11.611   6.351  70.016  1.00  0.00    -0.446 C  
BRANCH   7   8
HETATM    8  C   UNL     1     -11.269   6.262  71.505  1.00  0.00    -0.344 C  
BRANCH   8   9
HETATM    9  C   UNL     1     -10.057   7.122  71.869  1.00  0.00    -0.197 C  
BRANCH   9  10
HETATM   10  C   UNL     1     -10.458   8.431  72.549  1.00  0.00    -0.302 C  
BRANCH  10  11
HETATM   11  N   UNL     1     -10.957   9.418  71.603  1.00  0.00    -0.366 N  
HETATM   12  C   UNL     1     -12.286   9.778  71.583  1.00  0.00    -0.408 C  
HETATM   13  H   UNL     1     -10.311   9.851  70.944  1.00  0.00     0.000 HD 
HETATM   14  O   UNL     1     -13.126   9.338  72.364  1.00  0.00    -0.419 OA 
BRANCH  12  15
HETATM   15  C   UNL     1     -12.616  10.788  70.505  1.00  0.00    -0.421 C  
BRANCH  15  16
HETATM   16  C   UNL     1     -11.347  11.226  69.777  1.00  0.00    -0.348 C  
BRANCH  16  17
HETATM   17  C   UNL     1     -11.492  11.156  68.269  1.00  0.00    -0.303 C  
HETATM   18  O   UNL     1     -11.332  10.098  67.663  1.00  0.00    -0.282 OA 
HETATM   19  N   UNL     1     -11.778  12.337  67.634  1.00  0.00    -0.350 N  
HETATM   20  O   UNL     1     -12.067  13.547  68.289  1.00  0.00    -0.354 OA 
BRANCH  19  21
HETATM   21  C   UNL     1     -11.879  12.470  66.188  1.00  0.00    -0.397 C  
BRANCH  21  22
HETATM   22  C   UNL     1     -12.659  13.720  65.770  1.00  0.00    -0.525 C  
BRANCH  22  23
HETATM   23  C   UNL     1     -12.029  14.445  64.565  1.00  0.00    -0.487 C  
BRANCH  23  24
HETATM   24  C   UNL     1     -10.643  15.017  64.861  1.00  0.00    -0.400 C  
BRANCH  24  25
HETATM   25  C   UNL     1     -10.627  15.799  66.173  1.00  0.00    -0.313 C  
BRANCH  25  26
HETATM   26  N   UNL     1     -10.586  17.229  65.943  1.00  0.00    -0.283 N  
HETATM   27  H   UNL     1     -10.457  17.574  64.992  1.00  0.00     0.000 HD 
HETATM   28  C   UNL     1     -10.715  18.133  66.971  1.00  0.00    -0.253 C  
HETATM   29  O   UNL     1     -10.893  17.809  68.140  1.00  0.00    -0.329 OA 
BRANCH  28  30
HETATM   30  C   UNL     1     -10.613  19.578  66.552  1.00  0.00    -0.579 C  
BRANCH  30  31
HETATM   31  C   UNL     1      -9.548  20.275  67.383  1.00  0.00    -0.569 C  
BRANCH  31  32
HETATM   32  C   UNL     1      -8.161  19.831  66.967  1.00  0.00    -0.303 C  
HETATM   33  N   UNL     1      -7.418  19.093  67.856  1.00  0.00    -0.254 N  
HETATM   34  O   UNL     1      -7.768  20.068  65.823  1.00  0.00    -0.333 OA 
HETATM   35  O   UNL     1      -7.677  19.196  69.236  1.00  0.00    -0.256 OA 
BRANCH  33  36
HETATM   36  C   UNL     1      -6.041  18.679  67.576  1.00  0.00    -0.182 C  
BRANCH  36  37
HETATM   37  C   UNL     1      -5.580  17.547  68.496  1.00  0.00    -0.156 C  
BRANCH  37  38
HETATM   38  C   UNL     1      -6.138  16.187  68.062  1.00  0.00    -0.131 C  
BRANCH  38  39
HETATM   39  C   UNL     1      -6.893  15.495  69.201  1.00  0.00    -0.155 C  
BRANCH  39  40
HETATM   40  C   UNL     1      -8.408  15.683  69.103  1.00  0.00    -0.251 C  
HETATM   41  N   UNL     1      -9.115  14.408  69.150  1.00  0.00    -0.392 NA 
HETATM   42  H2  UNL     1      -8.860  13.871  69.979  1.00  0.00     0.000 HD 
HETATM   43  H1  UNL     1     -10.125  14.533  69.085  1.00  0.00     0.000 HD 
ENDBRANCH  39  40
ENDBRANCH  38  39
ENDBRANCH  37  38
ENDBRANCH  36  37
ENDBRANCH  33  36
ENDBRANCH  31  32
ENDBRANCH  30  31
ENDBRANCH  28  30
ENDBRANCH  25  26
ENDBRANCH  24  25
ENDBRANCH  23  24
ENDBRANCH  22  23
ENDBRANCH  21  22
ENDBRANCH  19  21
ENDBRANCH  16  17
ENDBRANCH  15  16
ENDBRANCH  12  15
ENDBRANCH  10  11
ENDBRANCH   9  10
ENDBRANCH   8   9
ENDBRANCH   7   8
ENDBRANCH   6   7
ENDBRANCH   3   6
TORSDOF 23
ENDMDL
MODEL       49
REMARK 921   NORMALIZED FREE ENERGY PREDICTED BY IDOCK:   -5.15 KCAL/MOL
REMARK 922        TOTAL FREE ENERGY PREDICTED BY IDOCK:  -14.82 KCAL/MOL
REMARK 923 INTER-LIGAND FREE ENERGY PREDICTED BY IDOCK:  -11.93 KCAL/MOL
REMARK 924 INTRA-LIGAND FREE ENERGY PREDICTED BY IDOCK:   -2.89 KCAL/MOL
REMARK 927      BINDING AFFINITY PREDICTED BY RF-SCORE:    0.00 PKD
ROOT
HETATM    1  C   UNL     1     -13.175   9.713  72.008  1.00  0.00    -0.546 C  
HETATM    2  C   UNL     1     -12.877  11.018  71.318  1.00  0.00    -0.425 C  
HETATM    3  N   UNL     1     -11.981  10.980  70.282  1.00  0.00    -0.334 N  
HETATM    4  O   UNL     1     -13.402  12.062  71.708  1.00  0.00    -0.406 OA 
HETATM    5  O   UNL     1     -11.480   9.796  69.714  1.00  0.00    -0.201 OA 
ENDROOT
BRANCH   3   6
HETATM    6  C   UNL     1     -11.577  12.158  69.527  1.00  0.00    -0.315 C  
BRANCH   6   7
HETATM    7  C   UNL     1     -11.693  11.950  68.015  1.00  0.00    -0.382 C  
BRANCH   7   8
HETATM    8  C   UNL     1     -12.009  13.273  67.316  1.00  0.00    -0.393 C  
BRANCH   8   9
HETATM    9  C   UNL     1     -12.292  13.083  65.825  1.00  0.00    -0.477 C  
BRANCH   9  10
HETATM   10  C   UNL     1     -11.845  14.285  64.992  1.00  0.00    -0.396 C  
BRANCH  10  11
HETATM   11  N   UNL     1     -10.919  15.147  65.712  1.00  0.00    -0.344 N  
HETATM   12  C   UNL     1     -10.702  16.447  65.316  1.00  0.00    -0.295 C  
HETATM   13  H   UNL     1     -10.423  14.780  66.524  1.00  0.00     0.000 HD 
HETATM   14  O   UNL     1     -11.284  16.983  64.376  1.00  0.00    -1.167 OA 
BRANCH  12  15
HETATM   15  C   UNL     1      -9.678  17.167  66.166  1.00  0.00    -0.263 C  
BRANCH  15  16
HETATM   16  C   UNL     1      -9.970  18.665  66.202  1.00  0.00    -0.355 C  
BRANCH  16  17
HETATM   17  C   UNL     1      -8.734  19.489  66.505  1.00  0.00    -0.356 C  
HETATM   18  O   UNL     1      -7.956  19.821  65.613  1.00  0.00    -0.386 OA 
HETATM   19  N   UNL     1      -8.526  19.805  67.823  1.00  0.00    -0.312 N  
HETATM   20  O   UNL     1      -9.434  19.534  68.863  1.00  0.00    -0.387 OA 
BRANCH  19  21
HETATM   21  C   UNL     1      -7.356  20.524  68.305  1.00  0.00    -0.049 C  
BRANCH  21  22
HETATM   22  C   UNL     1      -6.517  19.691  69.277  1.00  0.00    -0.365 C  
BRANCH  22  23
HETATM   23  C   UNL     1      -5.693  18.597  68.573  1.00  0.00    -0.200 C  
BRANCH  23  24
HETATM   24  C   UNL     1      -5.792  17.232  69.256  1.00  0.00    -0.203 C  
BRANCH  24  25
HETATM   25  C   UNL     1      -7.118  16.543  68.942  1.00  0.00    -0.200 C  
BRANCH  25  26
HETATM   26  N   UNL     1      -6.917  15.293  68.236  1.00  0.00    -0.110 N  
HETATM   27  H   UNL     1      -7.042  15.270  67.224  1.00  0.00     0.000 HD 
HETATM   28  C   UNL     1      -6.563  14.138  68.892  1.00  0.00    -0.099 C  
HETATM   29  O   UNL     1      -6.373  14.078  70.103  1.00  0.00    -0.147 OA 
BRANCH  28  30
HETATM   30  C   UNL     1      -6.431  12.927  68.005  1.00  0.00    -0.108 C  
BRANCH  30  31
HETATM   31  C   UNL     1      -7.813  12.441  67.597  1.00  0.00    -0.163 C  
BRANCH  31  32
HETATM   32  C   UNL     1      -8.045  11.019  68.065  1.00  0.00    -0.121 C  
HETATM   33  N   UNL     1      -8.586  10.120  67.178  1.00  0.00    -0.125 N  
HETATM   34  O   UNL     1      -7.672  10.685  69.191  1.00  0.00    -0.117 OA 
HETATM   35  O   UNL     1      -9.371  10.584  66.106  1.00  0.00    -0.166 OA 
BRANCH  33  36
HETATM   36  C   UNL     1      -8.915   8.744  67.557  1.00  0.00    -0.134 C  
BRANCH  36  37
HETATM   37  C   UNL     1      -9.738   8.031  66.482  1.00  0.00    -0.297 C  
BRANCH  37  38
HETATM   38  C   UNL     1     -10.763   7.065  67.087  1.00  0.00    -0.433 C  
BRANCH  38  39
HETATM   39  C   UNL     1     -10.090   5.989  67.943  1.00  0.00    -0.183 C  
BRANCH  39  40
HETATM   40  C   UNL     1     -10.718   5.864  69.332  1.00  0.00    -0.336 C  
HETATM   41  N   UNL     1     -11.854   6.765  69.494  1.00  0.00    -0.633 NA 
HETATM   42  H2  UNL     1     -12.547   6.626  68.759  1.00  0.00     0.000 HD 
HETATM   43  H1  UNL     1     -12.274   6.682  70.421  1.00  0.00     0.000 HD 
ENDBRANCH  39  40
ENDBRANCH  38  39
ENDBRANCH  37  38
ENDBRANCH  36  37
ENDBRANCH  33  36
ENDBRANCH  31  32
ENDBRANCH  30  31
ENDBRANCH  28  30
ENDBRANCH  25  26
ENDBRANCH  24  25
ENDBRANCH  23  24
ENDBRANCH  22  23
ENDBRANCH  21  22
ENDBRANCH  19  21
ENDBRANCH  16  17
ENDBRANCH  15  16
ENDBRANCH  12  15
ENDBRANCH  10  11
ENDBRANCH   9  10
ENDBRANCH   8   9
ENDBRANCH   7   8
ENDBRANCH   6   7
ENDBRANCH   3   6
TORSDOF 23
ENDMDL
MODEL       50
REMARK 921   NORMALIZED FREE ENERGY PREDICTED BY IDOCK:   -5.15 KCAL/MOL
REMARK 922        TOTAL FREE ENERGY PREDICTED BY IDOCK:  -14.82 KCAL/MOL
REMARK 923 INTER-LIGAND FREE ENERGY PREDICTED BY IDOCK:  -11.88 KCAL/MOL
REMARK 924 INTRA-LIGAND FREE ENERGY PREDICTED BY IDOCK:   -2.95 KCAL/MOL
REMARK 927      BINDING AFFINITY PREDICTED BY RF-SCORE:    0.00 PKD
ROOT
HETATM    1  C   UNL     1      -6.592  19.350  67.607  1.00  0.00    -0.239 C  
HETATM    2  C   UNL     1      -7.673  18.535  66.946  1.00  0.00    -0.227 C  
HETATM    3  N   UNL     1      -8.804  18.295  67.681  1.00  0.00    -0.254 N  
HETATM    4  O   UNL     1      -7.507  18.090  65.809  1.00  0.00    -0.514 OA 
HETATM    5  O   UNL     1      -9.090  18.907  68.912  1.00  0.00    -0.315 OA 
ENDROOT
BRANCH   3   6
HETATM    6  C   UNL     1      -9.929  17.512  67.188  1.00  0.00    -0.314 C  
BRANCH   6   7
HETATM    7  C   UNL     1     -10.048  16.157  67.889  1.00  0.00    -0.244 C  
BRANCH   7   8
HETATM    8  C   UNL     1     -11.403  16.033  68.587  1.00  0.00    -0.383 C  
BRANCH   8   9
HETATM    9  C   UNL     1     -11.269  16.041  70.111  1.00  0.00    -0.376 C  
BRANCH   9  10
HETATM   10  C   UNL     1     -12.281  15.116  70.787  1.00  0.00    -0.340 C  
BRANCH  10  11
HETATM   11  N   UNL     1     -12.077  13.718  70.436  1.00  0.00    -0.345 N  
HETATM   12  C   UNL     1     -12.618  12.706  71.198  1.00  0.00    -0.258 C  
HETATM   13  H   UNL     1     -11.524  13.485  69.612  1.00  0.00     0.000 HD 
HETATM   14  O   UNL     1     -13.328  12.894  72.182  1.00  0.00    -0.512 OA 
BRANCH  12  15
HETATM   15  C   UNL     1     -12.262  11.324  70.693  1.00  0.00    -0.489 C  
BRANCH  15  16
HETATM   16  C   UNL     1     -13.003  10.256  71.493  1.00  0.00    -0.556 C  
BRANCH  16  17
HETATM   17  C   UNL     1     -12.179   8.997  71.680  1.00  0.00    -0.348 C  
HETATM   18  O   UNL     1     -10.969   9.055  71.888  1.00  0.00    -0.352 OA 
HETATM   19  N   UNL     1     -12.855   7.809  71.571  1.00  0.00    -0.334 N  
HETATM   20  O   UNL     1     -14.249   7.693  71.432  1.00  0.00    -0.419 OA 
BRANCH  19  21
HETATM   21  C   UNL     1     -12.212   6.506  71.648  1.00  0.00    -0.300 C  
BRANCH  21  22
HETATM   22  C   UNL     1     -11.498   6.128  70.348  1.00  0.00    -0.342 C  
BRANCH  22  23
HETATM   23  C   UNL     1     -10.105   5.514  70.584  1.00  0.00    -0.288 C  
BRANCH  23  24
HETATM   24  C   UNL     1      -8.991   6.558  70.671  1.00  0.00    -0.148 C  
BRANCH  24  25
HETATM   25  C   UNL     1      -9.152   7.640  69.604  1.00  0.00    -0.147 C  
BRANCH  25  26
HETATM   26  N   UNL     1      -8.233   8.740  69.815  1.00  0.00    -0.113 N  
HETATM   27  H   UNL     1      -8.312   9.295  70.668  1.00  0.00     0.000 HD 
HETATM   28  C   UNL     1      -7.257   9.057  68.900  1.00  0.00    -0.073 C  
HETATM   29  O   UNL     1      -7.076   8.432  67.859  1.00  0.00    -0.079 OA 
BRANCH  28  30
HETATM   30  C   UNL     1      -6.415  10.251  69.268  1.00  0.00    -0.049 C  
BRANCH  30  31
HETATM   31  C   UNL     1      -7.311  11.463  69.471  1.00  0.00     0.077 C  
BRANCH  31  32
HETATM   32  C   UNL     1      -7.699  12.077  68.143  1.00  0.00    -0.135 C  
HETATM   33  N   UNL     1      -9.014  12.015  67.753  1.00  0.00    -0.169 N  
HETATM   34  O   UNL     1      -6.850  12.685  67.487  1.00  0.00    -0.126 OA 
HETATM   35  O   UNL     1      -9.844  10.998  68.262  1.00  0.00    -0.166 OA 
BRANCH  33  36
HETATM   36  C   UNL     1      -9.475  12.514  66.456  1.00  0.00    -0.240 C  
BRANCH  36  37
HETATM   37  C   UNL     1     -10.884  12.026  66.117  1.00  0.00    -0.325 C  
BRANCH  37  38
HETATM   38  C   UNL     1     -11.853  13.187  65.867  1.00  0.00    -0.453 C  
BRANCH  38  39
HETATM   39  C   UNL     1     -11.185  14.322  65.085  1.00  0.00    -0.345 C  
BRANCH  39  40
HETATM   40  C   UNL     1     -12.188  15.369  64.597  1.00  0.00    -0.054 C  
HETATM   41  N   UNL     1     -11.518  16.549  64.059  1.00  0.00    -1.581 NA 
HETATM   42  H2  UNL     1     -10.856  16.298  63.325  1.00  0.00     0.000 HD 
HETATM   43  H1  UNL     1     -12.187  17.247  63.733  1.00  0.00     0.000 HD 
ENDBRANCH  39  40
ENDBRANCH  38  39
ENDBRANCH  37  38
ENDBRANCH  36  37
ENDBRANCH  33  36
ENDBRANCH  31  32
ENDBRANCH  30  31
ENDBRANCH  28  30
ENDBRANCH  25  26
ENDBRANCH  24  25
ENDBRANCH  23  24
ENDBRANCH  22  23
ENDBRANCH  21  22
ENDBRANCH  19  21
ENDBRANCH  16  17
ENDBRANCH  15  16
ENDBRANCH  12  15
ENDBRANCH  10  11
ENDBRANCH   9  10
ENDBRANCH   8   9
ENDBRANCH   7   8
ENDBRANCH   6   7
ENDBRANCH   3   6
TORSDOF 23
ENDMDL
MODEL       51
REMARK 921   NORMALIZED FREE ENERGY PREDICTED BY IDOCK:   -5.14 KCAL/MOL
REMARK 922        TOTAL FREE ENERGY PREDICTED BY IDOCK:  -14.80 KCAL/MOL
REMARK 923 INTER-LIGAND FREE ENERGY PREDICTED BY IDOCK:  -11.47 KCAL/MOL
REMARK 924 INTRA-LIGAND FREE ENERGY PREDICTED BY IDOCK:   -3.33 KCAL/MOL
REMARK 927      BINDING AFFINITY PREDICTED BY RF-SCORE:    0.00 PKD
ROOT
HETATM    1  C   UNL     1     -12.167  13.201  63.354  1.00  0.00    -0.521 C  
HETATM    2  C   UNL     1     -11.853  12.318  64.533  1.00  0.00    -0.369 C  
HETATM    3  N   UNL     1     -10.824  11.426  64.381  1.00  0.00    -0.342 N  
HETATM    4  O   UNL     1     -12.526  12.393  65.562  1.00  0.00    -0.643 OA 
HETATM    5  O   UNL     1      -9.943  11.415  63.287  1.00  0.00    -0.342 OA 
ENDROOT
BRANCH   3   6
HETATM    6  C   UNL     1     -10.410  10.495  65.422  1.00  0.00    -0.222 C  
BRANCH   6   7
HETATM    7  C   UNL     1      -9.122   9.753  65.062  1.00  0.00    -0.280 C  
BRANCH   7   8
HETATM    8  C   UNL     1      -8.110   9.853  66.204  1.00  0.00    -0.119 C  
BRANCH   8   9
HETATM    9  C   UNL     1      -7.920  11.294  66.681  1.00  0.00    -0.159 C  
BRANCH   9  10
HETATM   10  C   UNL     1      -7.969  11.412  68.205  1.00  0.00    -0.133 C  
BRANCH  10  11
HETATM   11  N   UNL     1      -7.960  10.114  68.863  1.00  0.00    -0.102 N  
HETATM   12  C   UNL     1      -7.286   9.922  70.048  1.00  0.00    -0.146 C  
HETATM   13  H   UNL     1      -8.461   9.334  68.439  1.00  0.00     0.000 HD 
HETATM   14  O   UNL     1      -6.689  10.811  70.649  1.00  0.00    -0.310 OA 
BRANCH  12  15
HETATM   15  C   UNL     1      -7.363   8.497  70.554  1.00  0.00    -0.060 C  
BRANCH  15  16
HETATM   16  C   UNL     1      -7.822   7.559  69.441  1.00  0.00    -0.121 C  
BRANCH  16  17
HETATM   17  C   UNL     1      -9.005   6.705  69.856  1.00  0.00    -0.144 C  
HETATM   18  O   UNL     1      -8.844   5.578  70.318  1.00  0.00    -0.126 OA 
HETATM   19  N   UNL     1     -10.246   7.252  69.654  1.00  0.00    -0.205 N  
HETATM   20  O   UNL     1     -10.478   8.570  69.222  1.00  0.00    -0.220 OA 
BRANCH  19  21
HETATM   21  C   UNL     1     -11.491   6.548  69.924  1.00  0.00    -0.403 C  
BRANCH  21  22
HETATM   22  C   UNL     1     -11.830   6.513  71.417  1.00  0.00    -0.384 C  
BRANCH  22  23
HETATM   23  C   UNL     1     -12.935   7.514  71.805  1.00  0.00    -0.364 C  
BRANCH  23  24
HETATM   24  C   UNL     1     -12.432   8.953  71.927  1.00  0.00    -0.445 C  
BRANCH  24  25
HETATM   25  C   UNL     1     -13.286   9.917  71.107  1.00  0.00    -0.347 C  
BRANCH  25  26
HETATM   26  N   UNL     1     -12.538  10.490  70.006  1.00  0.00    -0.526 N  
HETATM   27  H   UNL     1     -12.288   9.896  69.214  1.00  0.00     0.000 HD 
HETATM   28  C   UNL     1     -12.156  11.810  69.997  1.00  0.00    -0.310 C  
HETATM   29  O   UNL     1     -12.430  12.600  70.895  1.00  0.00    -0.369 OA 
BRANCH  28  30
HETATM   30  C   UNL     1     -11.356  12.225  68.789  1.00  0.00    -0.337 C  
BRANCH  30  31
HETATM   31  C   UNL     1     -11.700  13.658  68.417  1.00  0.00    -0.393 C  
BRANCH  31  32
HETATM   32  C   UNL     1     -10.498  14.369  67.833  1.00  0.00    -0.239 C  
HETATM   33  N   UNL     1      -9.635  15.007  68.692  1.00  0.00    -0.212 N  
HETATM   34  O   UNL     1     -10.278  14.291  66.623  1.00  0.00    -0.263 OA 
HETATM   35  O   UNL     1     -10.099  15.444  69.947  1.00  0.00    -0.277 OA 
BRANCH  33  36
HETATM   36  C   UNL     1      -8.486  15.782  68.220  1.00  0.00    -0.164 C  
BRANCH  36  37
HETATM   37  C   UNL     1      -8.613  17.268  68.560  1.00  0.00    -0.270 C  
BRANCH  37  38
HETATM   38  C   UNL     1      -9.380  18.044  67.484  1.00  0.00    -0.257 C  
BRANCH  38  39
HETATM   39  C   UNL     1      -8.461  18.990  66.706  1.00  0.00    -0.307 C  
BRANCH  39  40
HETATM   40  C   UNL     1      -8.451  20.407  67.284  1.00  0.00    -0.331 C  
HETATM   41  N   UNL     1      -7.192  21.093  67.011  1.00  0.00    -0.704 NA 
HETATM   42  H2  UNL     1      -6.980  21.096  66.014  1.00  0.00     0.000 HD 
HETATM   43  H1  UNL     1      -7.185  22.038  67.396  1.00  0.00     0.000 HD 
ENDBRANCH  39  40
ENDBRANCH  38  39
ENDBRANCH  37  38
ENDBRANCH  36  37
ENDBRANCH  33  36
ENDBRANCH  31  32
ENDBRANCH  30  31
ENDBRANCH  28  30
ENDBRANCH  25  26
ENDBRANCH  24  25
ENDBRANCH  23  24
ENDBRANCH  22  23
ENDBRANCH  21  22
ENDBRANCH  19  21
ENDBRANCH  16  17
ENDBRANCH  15  16
ENDBRANCH  12  15
ENDBRANCH  10  11
ENDBRANCH   9  10
ENDBRANCH   8   9
ENDBRANCH   7   8
ENDBRANCH   6   7
ENDBRANCH   3   6
TORSDOF 23
ENDMDL
MODEL       52
REMARK 921   NORMALIZED FREE ENERGY PREDICTED BY IDOCK:   -5.14 KCAL/MOL
REMARK 922        TOTAL FREE ENERGY PREDICTED BY IDOCK:  -14.79 KCAL/MOL
REMARK 923 INTER-LIGAND FREE ENERGY PREDICTED BY IDOCK:  -12.22 KCAL/MOL
REMARK 924 INTRA-LIGAND FREE ENERGY PREDICTED BY IDOCK:   -2.57 KCAL/MOL
REMARK 927      BINDING AFFINITY PREDICTED BY RF-SCORE:    0.00 PKD
ROOT
HETATM    1  C   UNL     1     -12.506  12.145  63.492  1.00  0.00    -0.666 C  
HETATM    2  C   UNL     1     -11.911  12.745  64.739  1.00  0.00    -0.402 C  
HETATM    3  N   UNL     1     -11.920  14.112  64.833  1.00  0.00    -0.395 N  
HETATM    4  O   UNL     1     -11.417  12.019  65.603  1.00  0.00    -0.344 OA 
HETATM    5  O   UNL     1     -12.605  14.960  63.947  1.00  0.00    -0.831 OA 
ENDROOT
BRANCH   3   6
HETATM    6  C   UNL     1     -11.370  14.841  65.968  1.00  0.00    -0.332 C  
BRANCH   6   7
HETATM    7  C   UNL     1      -9.892  15.188  65.776  1.00  0.00    -0.384 C  
BRANCH   7   8
HETATM    8  C   UNL     1      -9.231  15.473  67.126  1.00  0.00    -0.228 C  
BRANCH   8   9
HETATM    9  C   UNL     1     -10.197  16.133  68.112  1.00  0.00    -0.247 C  
BRANCH   9  10
HETATM   10  C   UNL     1      -9.883  15.767  69.564  1.00  0.00    -0.283 C  
BRANCH  10  11
HETATM   11  N   UNL     1     -10.805  14.776  70.098  1.00  0.00    -0.455 N  
HETATM   12  C   UNL     1     -11.685  15.094  71.109  1.00  0.00    -0.353 C  
HETATM   13  H   UNL     1     -10.799  13.830  69.718  1.00  0.00     0.000 HD 
HETATM   14  O   UNL     1     -11.789  16.215  71.598  1.00  0.00    -0.466 OA 
BRANCH  12  15
HETATM   15  C   UNL     1     -12.532  13.921  71.554  1.00  0.00    -0.384 C  
BRANCH  15  16
HETATM   16  C   UNL     1     -12.448  12.785  70.537  1.00  0.00    -0.280 C  
BRANCH  16  17
HETATM   17  C   UNL     1     -12.692  11.427  71.166  1.00  0.00    -0.377 C  
HETATM   18  O   UNL     1     -13.365  11.311  72.188  1.00  0.00    -0.457 OA 
HETATM   19  N   UNL     1     -12.095  10.358  70.548  1.00  0.00    -0.307 N  
HETATM   20  O   UNL     1     -11.402  10.426  69.327  1.00  0.00    -0.237 OA 
BRANCH  19  21
HETATM   21  C   UNL     1     -12.161   8.995  71.053  1.00  0.00    -0.223 C  
BRANCH  21  22
HETATM   22  C   UNL     1     -11.088   8.710  72.107  1.00  0.00    -0.434 C  
BRANCH  22  23
HETATM   23  C   UNL     1     -11.176   7.285  72.684  1.00  0.00    -0.355 C  
BRANCH  23  24
HETATM   24  C   UNL     1     -10.292   7.074  73.914  1.00  0.00    -0.386 C  
BRANCH  24  25
HETATM   25  C   UNL     1     -10.230   5.601  74.315  1.00  0.00    -0.278 C  
BRANCH  25  26
HETATM   26  N   UNL     1     -10.425   4.728  73.175  1.00  0.00    -0.185 N  
HETATM   27  H   UNL     1     -11.329   4.725  72.702  1.00  0.00     0.000 HD 
HETATM   28  C   UNL     1      -9.426   3.905  72.712  1.00  0.00    -0.122 C  
HETATM   29  O   UNL     1      -8.304   3.858  73.205  1.00  0.00    -0.087 OA 
BRANCH  28  30
HETATM   30  C   UNL     1      -9.817   3.042  71.540  1.00  0.00    -0.192 C  
BRANCH  30  31
HETATM   31  C   UNL     1      -9.119   3.541  70.284  1.00  0.00    -0.202 C  
BRANCH  31  32
HETATM   32  C   UNL     1      -9.431   5.002  70.037  1.00  0.00    -0.166 C  
HETATM   33  N   UNL     1      -8.383   5.883  69.919  1.00  0.00    -0.119 N  
HETATM   34  O   UNL     1     -10.601   5.349  69.867  1.00  0.00    -0.307 OA 
HETATM   35  O   UNL     1      -7.146   5.578  70.518  1.00  0.00    -0.058 OA 
BRANCH  33  36
HETATM   36  C   UNL     1      -8.583   7.324  69.752  1.00  0.00    -0.141 C  
BRANCH  36  37
HETATM   37  C   UNL     1      -7.868   7.866  68.513  1.00  0.00    -0.119 C  
BRANCH  37  38
HETATM   38  C   UNL     1      -8.236   7.085  67.247  1.00  0.00    -0.119 C  
BRANCH  38  39
HETATM   39  C   UNL     1      -9.379   7.757  66.481  1.00  0.00    -0.243 C  
BRANCH  39  40
HETATM   40  C   UNL     1     -10.750   7.461  67.091  1.00  0.00    -0.330 C  
HETATM   41  N   UNL     1     -11.189   6.100  66.801  1.00  0.00    -0.731 NA 
HETATM   42  H2  UNL     1     -10.494   5.415  67.097  1.00  0.00     0.000 HD 
HETATM   43  H1  UNL     1     -12.103   5.903  67.209  1.00  0.00     0.000 HD 
ENDBRANCH  39  40
ENDBRANCH  38  39
ENDBRANCH  37  38
ENDBRANCH  36  37
ENDBRANCH  33  36
ENDBRANCH  31  32
ENDBRANCH  30  31
ENDBRANCH  28  30
ENDBRANCH  25  26
ENDBRANCH  24  25
ENDBRANCH  23  24
ENDBRANCH  22  23
ENDBRANCH  21  22
ENDBRANCH  19  21
ENDBRANCH  16  17
ENDBRANCH  15  16
ENDBRANCH  12  15
ENDBRANCH  10  11
ENDBRANCH   9  10
ENDBRANCH   8   9
ENDBRANCH   7   8
ENDBRANCH   6   7
ENDBRANCH   3   6
TORSDOF 23
ENDMDL
MODEL       53
REMARK 921   NORMALIZED FREE ENERGY PREDICTED BY IDOCK:   -5.13 KCAL/MOL
REMARK 922        TOTAL FREE ENERGY PREDICTED BY IDOCK:  -14.78 KCAL/MOL
REMARK 923 INTER-LIGAND FREE ENERGY PREDICTED BY IDOCK:  -11.30 KCAL/MOL
REMARK 924 INTRA-LIGAND FREE ENERGY PREDICTED BY IDOCK:   -3.47 KCAL/MOL
REMARK 927      BINDING AFFINITY PREDICTED BY RF-SCORE:    0.00 PKD
ROOT
HETATM    1  C   UNL     1      -8.366   8.462  71.734  1.00  0.00    -0.212 C  
HETATM    2  C   UNL     1      -8.699   9.276  70.511  1.00  0.00    -0.236 C  
HETATM    3  N   UNL     1      -7.738  10.146  70.067  1.00  0.00    -0.167 N  
HETATM    4  O   UNL     1      -9.802   9.169  69.976  1.00  0.00    -0.174 OA 
HETATM    5  O   UNL     1      -6.421  10.186  70.556  1.00  0.00    -0.115 OA 
ENDROOT
BRANCH   3   6
HETATM    6  C   UNL     1      -7.914  11.012  68.909  1.00  0.00    -0.138 C  
BRANCH   6   7
HETATM    7  C   UNL     1      -7.751  10.260  67.587  1.00  0.00    -0.090 C  
BRANCH   7   8
HETATM    8  C   UNL     1      -9.048  10.316  66.777  1.00  0.00    -0.161 C  
BRANCH   8   9
HETATM    9  C   UNL     1      -9.483   8.933  66.291  1.00  0.00    -0.304 C  
BRANCH   9  10
HETATM   10  C   UNL     1      -8.491   7.839  66.689  1.00  0.00    -0.129 C  
BRANCH  10  11
HETATM   11  N   UNL     1      -9.149   6.675  67.264  1.00  0.00    -0.117 N  
HETATM   12  C   UNL     1      -8.607   6.010  68.340  1.00  0.00    -0.111 C  
HETATM   13  H   UNL     1     -10.026   6.346  66.861  1.00  0.00     0.000 HD 
HETATM   14  O   UNL     1      -7.577   6.357  68.912  1.00  0.00    -0.095 OA 
BRANCH  12  15
HETATM   15  C   UNL     1      -9.417   4.804  68.767  1.00  0.00    -0.209 C  
BRANCH  15  16
HETATM   16  C   UNL     1     -10.015   5.025  70.154  1.00  0.00    -0.328 C  
BRANCH  16  17
HETATM   17  C   UNL     1     -11.198   5.973  70.129  1.00  0.00    -0.342 C  
HETATM   18  O   UNL     1     -11.656   6.391  69.068  1.00  0.00    -0.276 OA 
HETATM   19  N   UNL     1     -11.695   6.351  71.350  1.00  0.00    -0.317 N  
HETATM   20  O   UNL     1     -11.273   5.824  72.583  1.00  0.00    -0.270 OA 
BRANCH  19  21
HETATM   21  C   UNL     1     -12.778   7.309  71.517  1.00  0.00    -0.384 C  
BRANCH  21  22
HETATM   22  C   UNL     1     -12.294   8.647  72.081  1.00  0.00    -0.452 C  
BRANCH  22  23
HETATM   23  C   UNL     1     -13.392   9.727  72.093  1.00  0.00    -0.527 C  
BRANCH  23  24
HETATM   24  C   UNL     1     -12.909  11.087  71.590  1.00  0.00    -0.540 C  
BRANCH  24  25
HETATM   25  C   UNL     1     -12.446  11.016  70.136  1.00  0.00    -0.269 C  
BRANCH  25  26
HETATM   26  N   UNL     1     -11.444  12.021  69.844  1.00  0.00    -0.506 N  
HETATM   27  H   UNL     1     -10.809  12.318  70.585  1.00  0.00     0.000 HD 
HETATM   28  C   UNL     1     -11.323  12.584  68.596  1.00  0.00    -0.288 C  
HETATM   29  O   UNL     1     -12.029  12.272  67.641  1.00  0.00    -0.494 OA 
BRANCH  28  30
HETATM   30  C   UNL     1     -10.249  13.635  68.482  1.00  0.00    -0.234 C  
BRANCH  30  31
HETATM   31  C   UNL     1     -10.354  14.327  67.132  1.00  0.00    -0.262 C  
BRANCH  31  32
HETATM   32  C   UNL     1      -9.971  15.788  67.242  1.00  0.00    -0.238 C  
HETATM   33  N   UNL     1     -10.385  16.648  66.255  1.00  0.00    -0.321 N  
HETATM   34  O   UNL     1      -9.374  16.182  68.246  1.00  0.00    -0.199 OA 
HETATM   35  O   UNL     1     -10.667  16.149  64.969  1.00  0.00    -0.558 OA 
BRANCH  33  36
HETATM   36  C   UNL     1     -10.005  18.062  66.234  1.00  0.00    -0.337 C  
BRANCH  36  37
HETATM   37  C   UNL     1     -10.898  18.913  67.139  1.00  0.00    -0.425 C  
BRANCH  37  38
HETATM   38  C   UNL     1     -10.092  19.664  68.204  1.00  0.00    -0.556 C  
BRANCH  38  39
HETATM   39  C   UNL     1      -8.600  19.702  67.861  1.00  0.00    -0.360 C  
BRANCH  39  40
HETATM   40  C   UNL     1      -7.717  19.240  69.022  1.00  0.00    -0.302 C  
HETATM   41  N   UNL     1      -7.150  17.918  68.777  1.00  0.00    -0.261 NA 
HETATM   42  H2  UNL     1      -6.645  17.888  67.892  1.00  0.00     0.000 HD 
HETATM   43  H1  UNL     1      -6.562  17.609  69.552  1.00  0.00     0.000 HD 
ENDBRANCH  39  40
ENDBRANCH  38  39
ENDBRANCH  37  38
ENDBRANCH  36  37
ENDBRANCH  33  36
ENDBRANCH  31  32
ENDBRANCH  30  31
ENDBRANCH  28  30
ENDBRANCH  25  26
ENDBRANCH  24  25
ENDBRANCH  23  24
ENDBRANCH  22  23
ENDBRANCH  21  22
ENDBRANCH  19  21
ENDBRANCH  16  17
ENDBRANCH  15  16
ENDBRANCH  12  15
ENDBRANCH  10  11
ENDBRANCH   9  10
ENDBRANCH   8   9
ENDBRANCH   7   8
ENDBRANCH   6   7
ENDBRANCH   3   6
TORSDOF 23
ENDMDL
MODEL       54
REMARK 921   NORMALIZED FREE ENERGY PREDICTED BY IDOCK:   -5.13 KCAL/MOL
REMARK 922        TOTAL FREE ENERGY PREDICTED BY IDOCK:  -14.78 KCAL/MOL
REMARK 923 INTER-LIGAND FREE ENERGY PREDICTED BY IDOCK:  -11.93 KCAL/MOL
REMARK 924 INTRA-LIGAND FREE ENERGY PREDICTED BY IDOCK:   -2.84 KCAL/MOL
REMARK 927      BINDING AFFINITY PREDICTED BY RF-SCORE:    0.00 PKD
ROOT
HETATM    1  C   UNL     1      -7.298   7.891  69.937  1.00  0.00    -0.075 C  
HETATM    2  C   UNL     1      -8.300   8.339  70.969  1.00  0.00    -0.124 C  
HETATM    3  N   UNL     1      -8.328   7.641  72.148  1.00  0.00    -0.106 N  
HETATM    4  O   UNL     1      -9.069   9.269  70.725  1.00  0.00    -0.236 OA 
HETATM    5  O   UNL     1      -7.373   6.680  72.520  1.00  0.00    -0.086 OA 
ENDROOT
BRANCH   3   6
HETATM    6  C   UNL     1      -9.249   7.942  73.236  1.00  0.00    -0.282 C  
BRANCH   6   7
HETATM    7  C   UNL     1     -10.588   7.217  73.083  1.00  0.00    -0.400 C  
BRANCH   7   8
HETATM    8  C   UNL     1     -10.591   5.922  73.897  1.00  0.00    -0.248 C  
BRANCH   8   9
HETATM    9  C   UNL     1     -10.876   4.696  73.028  1.00  0.00    -0.321 C  
BRANCH   9  10
HETATM   10  C   UNL     1      -9.603   4.117  72.408  1.00  0.00    -0.139 C  
BRANCH  10  11
HETATM   11  N   UNL     1      -9.317   4.681  71.097  1.00  0.00    -0.138 N  
HETATM   12  C   UNL     1      -9.364   3.904  69.961  1.00  0.00    -0.176 C  
HETATM   13  H   UNL     1      -9.079   5.670  71.019  1.00  0.00     0.000 HD 
HETATM   14  O   UNL     1      -9.680   2.717  69.956  1.00  0.00    -0.083 OA 
BRANCH  12  15
HETATM   15  C   UNL     1      -8.999   4.663  68.703  1.00  0.00    -0.142 C  
BRANCH  15  16
HETATM   16  C   UNL     1     -10.255   5.185  68.011  1.00  0.00    -0.178 C  
BRANCH  16  17
HETATM   17  C   UNL     1     -10.559   6.626  68.375  1.00  0.00    -0.242 C  
HETATM   18  O   UNL     1     -11.119   6.910  69.431  1.00  0.00    -0.244 OA 
HETATM   19  N   UNL     1     -10.203   7.571  67.447  1.00  0.00    -0.222 N  
HETATM   20  O   UNL     1      -9.475   7.306  66.274  1.00  0.00    -0.156 OA 
BRANCH  19  21
HETATM   21  C   UNL     1     -10.485   8.991  67.596  1.00  0.00    -0.260 C  
BRANCH  21  22
HETATM   22  C   UNL     1      -9.601   9.860  66.697  1.00  0.00    -0.235 C  
BRANCH  22  23
HETATM   23  C   UNL     1     -10.401  10.608  65.613  1.00  0.00    -0.285 C  
BRANCH  23  24
HETATM   24  C   UNL     1      -9.725  10.587  64.241  1.00  0.00    -0.391 C  
BRANCH  24  25
HETATM   25  C   UNL     1     -10.126  11.796  63.399  1.00  0.00    -0.446 C  
BRANCH  25  26
HETATM   26  N   UNL     1     -10.380  12.961  64.223  1.00  0.00    -0.498 N  
HETATM   27  H   UNL     1      -9.633  13.318  64.820  1.00  0.00     0.000 HD 
HETATM   28  C   UNL     1     -11.598  13.598  64.224  1.00  0.00    -0.382 C  
HETATM   29  O   UNL     1     -12.544  13.251  63.524  1.00  0.00    -0.728 OA 
BRANCH  28  30
HETATM   30  C   UNL     1     -11.692  14.771  65.166  1.00  0.00    -0.337 C  
BRANCH  30  31
HETATM   31  C   UNL     1     -10.615  14.655  66.233  1.00  0.00    -0.306 C  
BRANCH  31  32
HETATM   32  C   UNL     1     -11.142  15.093  67.583  1.00  0.00    -0.318 C  
HETATM   33  N   UNL     1     -11.565  14.127  68.464  1.00  0.00    -0.296 N  
HETATM   34  O   UNL     1     -11.102  16.286  67.890  1.00  0.00    -0.332 OA 
HETATM   35  O   UNL     1     -11.996  12.879  67.975  1.00  0.00    -0.346 OA 
BRANCH  33  36
HETATM   36  C   UNL     1     -12.157  14.453  69.763  1.00  0.00    -0.334 C  
BRANCH  36  37
HETATM   37  C   UNL     1     -12.219  13.237  70.690  1.00  0.00    -0.417 C  
BRANCH  37  38
HETATM   38  C   UNL     1     -13.164  13.462  71.875  1.00  0.00    -0.522 C  
BRANCH  38  39
HETATM   39  C   UNL     1     -13.219  14.938  72.282  1.00  0.00    -0.468 C  
BRANCH  39  40
HETATM   40  C   UNL     1     -12.442  15.223  73.568  1.00  0.00    -0.548 C  
HETATM   41  N   UNL     1     -13.135  16.187  74.416  1.00  0.00    -0.889 NA 
HETATM   42  H2  UNL     1     -14.088  15.887  74.617  1.00  0.00     0.000 HD 
HETATM   43  H1  UNL     1     -12.616  16.378  75.274  1.00  0.00     0.000 HD 
ENDBRANCH  39  40
ENDBRANCH  38  39
ENDBRANCH  37  38
ENDBRANCH  36  37
ENDBRANCH  33  36
ENDBRANCH  31  32
ENDBRANCH  30  31
ENDBRANCH  28  30
ENDBRANCH  25  26
ENDBRANCH  24  25
ENDBRANCH  23  24
ENDBRANCH  22  23
ENDBRANCH  21  22
ENDBRANCH  19  21
ENDBRANCH  16  17
ENDBRANCH  15  16
ENDBRANCH  12  15
ENDBRANCH  10  11
ENDBRANCH   9  10
ENDBRANCH   8   9
ENDBRANCH   7   8
ENDBRANCH   6   7
ENDBRANCH   3   6
TORSDOF 23
ENDMDL
MODEL       55
REMARK 921   NORMALIZED FREE ENERGY PREDICTED BY IDOCK:   -5.12 KCAL/MOL
REMARK 922        TOTAL FREE ENERGY PREDICTED BY IDOCK:  -14.77 KCAL/MOL
REMARK 923 INTER-LIGAND FREE ENERGY PREDICTED BY IDOCK:  -11.43 KCAL/MOL
REMARK 924 INTRA-LIGAND FREE ENERGY PREDICTED BY IDOCK:   -3.34 KCAL/MOL
REMARK 927      BINDING AFFINITY PREDICTED BY RF-SCORE:    0.00 PKD
ROOT
HETATM    1  C   UNL     1     -11.415   6.326  69.287  1.00  0.00    -0.288 C  
HETATM    2  C   UNL     1     -10.513   6.068  70.466  1.00  0.00    -0.242 C  
HETATM    3  N   UNL     1     -10.921   6.563  71.677  1.00  0.00    -0.240 N  
HETATM    4  O   UNL     1      -9.449   5.467  70.314  1.00  0.00    -0.155 OA 
HETATM    5  O   UNL     1     -12.190   7.117  71.917  1.00  0.00    -0.310 OA 
ENDROOT
BRANCH   3   6
HETATM    6  C   UNL     1     -10.153   6.411  72.905  1.00  0.00    -0.183 C  
BRANCH   6   7
HETATM    7  C   UNL     1      -9.483   7.716  73.339  1.00  0.00    -0.330 C  
BRANCH   7   8
HETATM    8  C   UNL     1      -8.895   8.443  72.129  1.00  0.00    -0.285 C  
BRANCH   8   9
HETATM    9  C   UNL     1      -7.534   7.875  71.721  1.00  0.00    -0.078 C  
BRANCH   9  10
HETATM   10  C   UNL     1      -6.483   8.968  71.529  1.00  0.00    -0.071 C  
BRANCH  10  11
HETATM   11  N   UNL     1      -6.704   9.747  70.320  1.00  0.00    -0.095 N  
HETATM   12  C   UNL     1      -6.365  11.080  70.259  1.00  0.00    -0.120 C  
HETATM   13  H   UNL     1      -7.118   9.296  69.504  1.00  0.00     0.000 HD 
HETATM   14  O   UNL     1      -5.828  11.692  71.177  1.00  0.00    -0.381 OA 
BRANCH  12  15
HETATM   15  C   UNL     1      -6.709  11.722  68.932  1.00  0.00    -0.094 C  
BRANCH  15  16
HETATM   16  C   UNL     1      -7.031  10.656  67.888  1.00  0.00    -0.077 C  
BRANCH  16  17
HETATM   17  C   UNL     1      -8.450  10.768  67.366  1.00  0.00    -0.119 C  
HETATM   18  O   UNL     1      -8.781  11.686  66.617  1.00  0.00    -0.180 OA 
HETATM   19  N   UNL     1      -9.333   9.814  67.802  1.00  0.00    -0.134 N  
HETATM   20  O   UNL     1      -8.981   8.694  68.575  1.00  0.00    -0.138 OA 
BRANCH  19  21
HETATM   21  C   UNL     1     -10.748   9.810  67.461  1.00  0.00    -0.264 C  
BRANCH  21  22
HETATM   22  C   UNL     1     -11.568  10.740  68.359  1.00  0.00    -0.311 C  
BRANCH  22  23
HETATM   23  C   UNL     1     -11.111  10.713  69.830  1.00  0.00    -0.358 C  
BRANCH  23  24
HETATM   24  C   UNL     1     -12.103  10.012  70.759  1.00  0.00    -0.418 C  
BRANCH  24  25
HETATM   25  C   UNL     1     -12.955  11.017  71.530  1.00  0.00    -0.448 C  
BRANCH  25  26
HETATM   26  N   UNL     1     -12.424  12.361  71.424  1.00  0.00    -0.188 N  
HETATM   27  H   UNL     1     -11.564  12.514  70.898  1.00  0.00     0.000 HD 
HETATM   28  C   UNL     1     -13.047  13.436  72.013  1.00  0.00    -0.377 C  
HETATM   29  O   UNL     1     -14.095  13.348  72.647  1.00  0.00    -0.767 OA 
BRANCH  28  30
HETATM   30  C   UNL     1     -12.337  14.752  71.829  1.00  0.00    -0.414 C  
BRANCH  30  31
HETATM   31  C   UNL     1     -12.782  15.393  70.524  1.00  0.00    -0.455 C  
BRANCH  31  32
HETATM   32  C   UNL     1     -11.599  15.644  69.613  1.00  0.00    -0.356 C  
HETATM   33  N   UNL     1     -11.570  15.016  68.391  1.00  0.00    -0.323 N  
HETATM   34  O   UNL     1     -10.739  16.461  69.950  1.00  0.00    -0.330 OA 
HETATM   35  O   UNL     1     -12.286  13.818  68.207  1.00  0.00    -0.335 OA 
BRANCH  33  36
HETATM   36  C   UNL     1     -10.437  15.138  67.472  1.00  0.00    -0.258 C  
BRANCH  36  37
HETATM   37  C   UNL     1     -10.645  16.250  66.442  1.00  0.00    -0.253 C  
BRANCH  37  38
HETATM   38  C   UNL     1     -10.776  15.700  65.018  1.00  0.00    -0.458 C  
BRANCH  38  39
HETATM   39  C   UNL     1     -10.716  14.170  64.994  1.00  0.00    -0.429 C  
BRANCH  39  40
HETATM   40  C   UNL     1     -11.893  13.546  64.244  1.00  0.00    -0.428 C  
HETATM   41  N   UNL     1     -12.784  12.820  65.144  1.00  0.00    -0.740 NA 
HETATM   42  H2  UNL     1     -13.103  13.413  65.909  1.00  0.00     0.000 HD 
HETATM   43  H1  UNL     1     -13.570  12.403  64.643  1.00  0.00     0.000 HD 
ENDBRANCH  39  40
ENDBRANCH  38  39
ENDBRANCH  37  38
ENDBRANCH  36  37
ENDBRANCH  33  36
ENDBRANCH  31  32
ENDBRANCH  30  31
ENDBRANCH  28  30
ENDBRANCH  25  26
ENDBRANCH  24  25
ENDBRANCH  23  24
ENDBRANCH  22  23
ENDBRANCH  21  22
ENDBRANCH  19  21
ENDBRANCH  16  17
ENDBRANCH  15  16
ENDBRANCH  12  15
ENDBRANCH  10  11
ENDBRANCH   9  10
ENDBRANCH   8   9
ENDBRANCH   7   8
ENDBRANCH   6   7
ENDBRANCH   3   6
TORSDOF 23
ENDMDL
MODEL       56
REMARK 921   NORMALIZED FREE ENERGY PREDICTED BY IDOCK:   -5.12 KCAL/MOL
REMARK 922        TOTAL FREE ENERGY PREDICTED BY IDOCK:  -14.75 KCAL/MOL
REMARK 923 INTER-LIGAND FREE ENERGY PREDICTED BY IDOCK:  -11.72 KCAL/MOL
REMARK 924 INTRA-LIGAND FREE ENERGY PREDICTED BY IDOCK:   -3.03 KCAL/MOL
REMARK 927      BINDING AFFINITY PREDICTED BY RF-SCORE:    0.00 PKD
ROOT
HETATM    1  C   UNL     1      -7.545   5.401  72.325  1.00  0.00    -0.100 C  
HETATM    2  C   UNL     1      -8.939   5.080  71.853  1.00  0.00    -0.133 C  
HETATM    3  N   UNL     1      -9.827   6.122  71.795  1.00  0.00    -0.164 N  
HETATM    4  O   UNL     1      -9.247   3.922  71.570  1.00  0.00    -0.111 OA 
HETATM    5  O   UNL     1      -9.475   7.471  71.963  1.00  0.00    -0.138 OA 
ENDROOT
BRANCH   3   6
HETATM    6  C   UNL     1     -11.214   5.970  71.375  1.00  0.00    -0.262 C  
BRANCH   6   7
HETATM    7  C   UNL     1     -11.486   6.621  70.017  1.00  0.00    -0.434 C  
BRANCH   7   8
HETATM    8  C   UNL     1     -10.983   5.725  68.884  1.00  0.00    -0.250 C  
BRANCH   8   9
HETATM    9  C   UNL     1     -10.958   6.455  67.540  1.00  0.00    -0.454 C  
BRANCH   9  10
HETATM   10  C   UNL     1     -10.654   7.945  67.695  1.00  0.00    -0.206 C  
BRANCH  10  11
HETATM   11  N   UNL     1     -10.203   8.553  66.452  1.00  0.00    -0.406 N  
HETATM   12  C   UNL     1      -8.864   8.633  66.143  1.00  0.00    -0.171 C  
HETATM   13  H   UNL     1     -10.892   8.926  65.799  1.00  0.00     0.000 HD 
HETATM   14  O   UNL     1      -7.970   8.175  66.850  1.00  0.00    -0.101 OA 
BRANCH  12  15
HETATM   15  C   UNL     1      -8.596   9.332  64.827  1.00  0.00    -0.207 C  
BRANCH  15  16
HETATM   16  C   UNL     1      -8.929  10.818  64.934  1.00  0.00    -0.201 C  
BRANCH  16  17
HETATM   17  C   UNL     1     -10.039  11.231  63.988  1.00  0.00    -0.329 C  
HETATM   18  O   UNL     1      -9.858  11.269  62.773  1.00  0.00    -0.292 OA 
HETATM   19  N   UNL     1     -11.229  11.585  64.570  1.00  0.00    -0.275 N  
HETATM   20  O   UNL     1     -11.516  11.463  65.941  1.00  0.00    -0.188 OA 
BRANCH  19  21
HETATM   21  C   UNL     1     -12.377  12.076  63.822  1.00  0.00    -0.496 C  
BRANCH  21  22
HETATM   22  C   UNL     1     -12.249  13.558  63.461  1.00  0.00    -0.410 C  
BRANCH  22  23
HETATM   23  C   UNL     1     -12.221  14.477  64.697  1.00  0.00    -0.474 C  
BRANCH  23  24
HETATM   24  C   UNL     1     -10.980  15.369  64.759  1.00  0.00    -0.411 C  
BRANCH  24  25
HETATM   25  C   UNL     1     -10.010  14.906  65.844  1.00  0.00    -0.331 C  
BRANCH  25  26
HETATM   26  N   UNL     1     -10.412  15.373  67.156  1.00  0.00    -0.284 N  
HETATM   27  H   UNL     1     -11.033  14.793  67.720  1.00  0.00     0.000 HD 
HETATM   28  C   UNL     1      -9.980  16.577  67.661  1.00  0.00    -0.254 C  
HETATM   29  O   UNL     1      -9.218  17.329  67.062  1.00  0.00    -0.232 OA 
BRANCH  28  30
HETATM   30  C   UNL     1     -10.525  16.917  69.025  1.00  0.00    -0.341 C  
BRANCH  30  31
HETATM   31  C   UNL     1     -10.323  15.737  69.963  1.00  0.00    -0.286 C  
BRANCH  31  32
HETATM   32  C   UNL     1     -11.542  15.525  70.836  1.00  0.00    -0.375 C  
HETATM   33  N   UNL     1     -12.402  14.501  70.520  1.00  0.00    -0.316 N  
HETATM   34  O   UNL     1     -11.690  16.216  71.846  1.00  0.00    -0.475 OA 
HETATM   35  O   UNL     1     -12.464  14.027  69.196  1.00  0.00    -0.238 OA 
BRANCH  33  36
HETATM   36  C   UNL     1     -13.644  14.262  71.258  1.00  0.00    -0.288 C  
BRANCH  36  37
HETATM   37  C   UNL     1     -13.432  13.339  72.460  1.00  0.00    -0.620 C  
BRANCH  37  38
HETATM   38  C   UNL     1     -13.515  11.859  72.073  1.00  0.00    -0.336 C  
BRANCH  38  39
HETATM   39  C   UNL     1     -12.309  11.426  71.234  1.00  0.00    -0.344 C  
BRANCH  39  40
HETATM   40  C   UNL     1     -12.675  10.393  70.167  1.00  0.00    -0.083 C  
HETATM   41  N   UNL     1     -12.434  10.898  68.819  1.00  0.00    -0.706 NA 
HETATM   42  H2  UNL     1     -11.472  11.220  68.710  1.00  0.00     0.000 HD 
HETATM   43  H1  UNL     1     -12.678  10.209  68.108  1.00  0.00     0.000 HD 
ENDBRANCH  39  40
ENDBRANCH  38  39
ENDBRANCH  37  38
ENDBRANCH  36  37
ENDBRANCH  33  36
ENDBRANCH  31  32
ENDBRANCH  30  31
ENDBRANCH  28  30
ENDBRANCH  25  26
ENDBRANCH  24  25
ENDBRANCH  23  24
ENDBRANCH  22  23
ENDBRANCH  21  22
ENDBRANCH  19  21
ENDBRANCH  16  17
ENDBRANCH  15  16
ENDBRANCH  12  15
ENDBRANCH  10  11
ENDBRANCH   9  10
ENDBRANCH   8   9
ENDBRANCH   7   8
ENDBRANCH   6   7
ENDBRANCH   3   6
TORSDOF 23
ENDMDL
MODEL       57
REMARK 921   NORMALIZED FREE ENERGY PREDICTED BY IDOCK:   -5.10 KCAL/MOL
REMARK 922        TOTAL FREE ENERGY PREDICTED BY IDOCK:  -14.71 KCAL/MOL
REMARK 923 INTER-LIGAND FREE ENERGY PREDICTED BY IDOCK:  -11.39 KCAL/MOL
REMARK 924 INTRA-LIGAND FREE ENERGY PREDICTED BY IDOCK:   -3.32 KCAL/MOL
REMARK 927      BINDING AFFINITY PREDICTED BY RF-SCORE:    0.00 PKD
ROOT
HETATM    1  C   UNL     1      -8.068  20.385  67.260  1.00  0.00    -0.384 C  
HETATM    2  C   UNL     1      -9.037  19.237  67.361  1.00  0.00    -0.295 C  
HETATM    3  N   UNL     1      -8.875  18.210  66.468  1.00  0.00    -0.278 N  
HETATM    4  O   UNL     1      -9.943  19.261  68.194  1.00  0.00    -0.344 OA 
HETATM    5  O   UNL     1      -7.771  18.076  65.610  1.00  0.00    -0.539 OA 
ENDROOT
BRANCH   3   6
HETATM    6  C   UNL     1      -9.739  17.038  66.428  1.00  0.00    -0.293 C  
BRANCH   6   7
HETATM    7  C   UNL     1      -8.951  15.737  66.264  1.00  0.00    -0.381 C  
BRANCH   7   8
HETATM    8  C   UNL     1      -9.878  14.529  66.408  1.00  0.00    -0.306 C  
BRANCH   8   9
HETATM    9  C   UNL     1     -11.283  14.932  66.861  1.00  0.00    -0.343 C  
BRANCH   9  10
HETATM   10  C   UNL     1     -12.376  14.207  66.075  1.00  0.00    -0.445 C  
BRANCH  10  11
HETATM   11  N   UNL     1     -11.879  13.019  65.398  1.00  0.00    -0.364 N  
HETATM   12  C   UNL     1     -12.077  12.832  64.049  1.00  0.00    -0.457 C  
HETATM   13  H   UNL     1     -11.374  12.312  65.933  1.00  0.00     0.000 HD 
HETATM   14  O   UNL     1     -12.638  13.646  63.320  1.00  0.00    -0.816 OA 
BRANCH  12  15
HETATM   15  C   UNL     1     -11.520  11.520  63.539  1.00  0.00    -0.334 C  
BRANCH  15  16
HETATM   16  C   UNL     1     -10.009  11.462  63.751  1.00  0.00    -0.381 C  
BRANCH  16  17
HETATM   17  C   UNL     1      -9.627  10.652  64.974  1.00  0.00    -0.265 C  
HETATM   18  O   UNL     1      -9.919  11.032  66.106  1.00  0.00    -0.215 OA 
HETATM   19  N   UNL     1      -8.918   9.502  64.740  1.00  0.00    -0.214 N  
HETATM   20  O   UNL     1      -8.647   8.975  63.465  1.00  0.00    -0.194 OA 
BRANCH  19  21
HETATM   21  C   UNL     1      -8.406   8.642  65.797  1.00  0.00    -0.144 C  
BRANCH  21  22
HETATM   22  C   UNL     1      -9.469   7.680  66.334  1.00  0.00    -0.224 C  
BRANCH  22  23
HETATM   23  C   UNL     1      -9.104   6.199  66.116  1.00  0.00    -0.158 C  
BRANCH  23  24
HETATM   24  C   UNL     1      -8.706   5.479  67.405  1.00  0.00    -0.107 C  
BRANCH  24  25
HETATM   25  C   UNL     1      -9.859   4.647  67.962  1.00  0.00    -0.113 C  
BRANCH  25  26
HETATM   26  N   UNL     1      -9.948   4.755  69.405  1.00  0.00    -0.212 N  
HETATM   27  H   UNL     1      -9.317   4.200  69.983  1.00  0.00     0.000 HD 
HETATM   28  C   UNL     1     -10.859   5.584  70.015  1.00  0.00    -0.231 C  
HETATM   29  O   UNL     1     -11.641   6.302  69.400  1.00  0.00    -0.403 OA 
BRANCH  28  30
HETATM   30  C   UNL     1     -10.833   5.544  71.522  1.00  0.00    -0.263 C  
BRANCH  30  31
HETATM   31  C   UNL     1      -9.485   6.039  72.022  1.00  0.00    -0.161 C  
BRANCH  31  32
HETATM   32  C   UNL     1      -9.381   7.544  71.897  1.00  0.00    -0.143 C  
HETATM   33  N   UNL     1      -8.774   8.068  70.781  1.00  0.00    -0.135 N  
HETATM   34  O   UNL     1      -9.911   8.259  72.750  1.00  0.00    -0.283 OA 
HETATM   35  O   UNL     1      -7.837   7.294  70.070  1.00  0.00    -0.107 OA 
BRANCH  33  36
HETATM   36  C   UNL     1      -8.561   9.506  70.603  1.00  0.00    -0.124 C  
BRANCH  36  37
HETATM   37  C   UNL     1      -9.212  10.031  69.322  1.00  0.00    -0.212 C  
BRANCH  37  38
HETATM   38  C   UNL     1     -10.715   9.739  69.277  1.00  0.00    -0.246 C  
BRANCH  38  39
HETATM   39  C   UNL     1     -11.515  10.763  70.087  1.00  0.00    -0.415 C  
BRANCH  39  40
HETATM   40  C   UNL     1     -12.184  10.147  71.317  1.00  0.00    -0.398 C  
HETATM   41  N   UNL     1     -12.537   8.748  71.097  1.00  0.00    -0.466 NA 
HETATM   42  H2  UNL     1     -11.728   8.203  70.801  1.00  0.00     0.000 HD 
HETATM   43  H1  UNL     1     -12.983   8.337  71.917  1.00  0.00     0.000 HD 
ENDBRANCH  39  40
ENDBRANCH  38  39
ENDBRANCH  37  38
ENDBRANCH  36  37
ENDBRANCH  33  36
ENDBRANCH  31  32
ENDBRANCH  30  31
ENDBRANCH  28  30
ENDBRANCH  25  26
ENDBRANCH  24  25
ENDBRANCH  23  24
ENDBRANCH  22  23
ENDBRANCH  21  22
ENDBRANCH  19  21
ENDBRANCH  16  17
ENDBRANCH  15  16
ENDBRANCH  12  15
ENDBRANCH  10  11
ENDBRANCH   9  10
ENDBRANCH   8   9
ENDBRANCH   7   8
ENDBRANCH   6   7
ENDBRANCH   3   6
TORSDOF 23
ENDMDL
MODEL       58
REMARK 921   NORMALIZED FREE ENERGY PREDICTED BY IDOCK:   -5.10 KCAL/MOL
REMARK 922        TOTAL FREE ENERGY PREDICTED BY IDOCK:  -14.71 KCAL/MOL
REMARK 923 INTER-LIGAND FREE ENERGY PREDICTED BY IDOCK:  -12.29 KCAL/MOL
REMARK 924 INTRA-LIGAND FREE ENERGY PREDICTED BY IDOCK:   -2.42 KCAL/MOL
REMARK 927      BINDING AFFINITY PREDICTED BY RF-SCORE:    0.00 PKD
ROOT
HETATM    1  C   UNL     1     -13.386  14.543  72.590  1.00  0.00    -0.588 C  
HETATM    2  C   UNL     1     -12.428  15.564  72.034  1.00  0.00    -0.398 C  
HETATM    3  N   UNL     1     -12.021  15.389  70.738  1.00  0.00    -0.324 N  
HETATM    4  O   UNL     1     -12.022  16.485  72.744  1.00  0.00    -0.533 OA 
HETATM    5  O   UNL     1     -12.575  14.446  69.856  1.00  0.00    -0.303 OA 
ENDROOT
BRANCH   3   6
HETATM    6  C   UNL     1     -11.088  16.281  70.063  1.00  0.00    -0.348 C  
BRANCH   6   7
HETATM    7  C   UNL     1     -10.833  15.869  68.612  1.00  0.00    -0.291 C  
BRANCH   7   8
HETATM    8  C   UNL     1     -10.763  17.103  67.711  1.00  0.00    -0.329 C  
BRANCH   8   9
HETATM    9  C   UNL     1     -10.271  16.761  66.303  1.00  0.00    -0.341 C  
BRANCH   9  10
HETATM   10  C   UNL     1      -9.545  15.416  66.254  1.00  0.00    -0.313 C  
BRANCH  10  11
HETATM   11  N   UNL     1      -9.937  14.615  65.104  1.00  0.00    -0.485 N  
HETATM   12  C   UNL     1     -11.147  13.957  65.073  1.00  0.00    -0.353 C  
HETATM   13  H   UNL     1      -9.305  14.540  64.307  1.00  0.00     0.000 HD 
HETATM   14  O   UNL     1     -11.985  14.023  65.967  1.00  0.00    -0.376 OA 
BRANCH  12  15
HETATM   15  C   UNL     1     -11.354  13.148  63.810  1.00  0.00    -0.370 C  
BRANCH  15  16
HETATM   16  C   UNL     1     -11.263  11.654  64.112  1.00  0.00    -0.421 C  
BRANCH  16  17
HETATM   17  C   UNL     1      -9.896  11.251  64.630  1.00  0.00    -0.268 C  
HETATM   18  O   UNL     1      -9.470  11.679  65.701  1.00  0.00    -0.226 OA 
HETATM   19  N   UNL     1      -9.165  10.417  63.823  1.00  0.00    -0.245 N  
HETATM   20  O   UNL     1      -9.646   9.825  62.642  1.00  0.00    -0.153 OA 
BRANCH  19  21
HETATM   21  C   UNL     1      -7.808   9.989  64.126  1.00  0.00    -0.144 C  
BRANCH  21  22
HETATM   22  C   UNL     1      -7.718   9.221  65.448  1.00  0.00    -0.099 C  
BRANCH  22  23
HETATM   23  C   UNL     1      -8.526   7.909  65.436  1.00  0.00    -0.134 C  
BRANCH  23  24
HETATM   24  C   UNL     1      -9.590   7.845  66.532  1.00  0.00    -0.281 C  
BRANCH  24  25
HETATM   25  C   UNL     1      -9.379   8.933  67.583  1.00  0.00    -0.136 C  
BRANCH  25  26
HETATM   26  N   UNL     1     -10.639   9.434  68.095  1.00  0.00    -0.300 N  
HETATM   27  H   UNL     1     -11.483   8.874  67.969  1.00  0.00     0.000 HD 
HETATM   28  C   UNL     1     -10.730  10.642  68.744  1.00  0.00    -0.215 C  
HETATM   29  O   UNL     1      -9.765  11.371  68.957  1.00  0.00    -0.138 OA 
BRANCH  28  30
HETATM   30  C   UNL     1     -12.123  11.019  69.177  1.00  0.00    -0.333 C  
BRANCH  30  31
HETATM   31  C   UNL     1     -12.169  11.147  70.692  1.00  0.00    -0.492 C  
BRANCH  31  32
HETATM   32  C   UNL     1     -12.497   9.817  71.337  1.00  0.00    -0.387 C  
HETATM   33  N   UNL     1     -11.516   9.179  72.056  1.00  0.00    -0.344 N  
HETATM   34  O   UNL     1     -13.649   9.382  71.271  1.00  0.00    -0.355 OA 
HETATM   35  O   UNL     1     -10.162   9.445  71.775  1.00  0.00    -0.228 OA 
BRANCH  33  36
HETATM   36  C   UNL     1     -11.713   7.857  72.655  1.00  0.00    -0.341 C  
BRANCH  36  37
HETATM   37  C   UNL     1     -10.393   7.217  73.087  1.00  0.00    -0.336 C  
BRANCH  37  38
HETATM   38  C   UNL     1      -9.766   6.376  71.970  1.00  0.00    -0.160 C  
BRANCH  38  39
HETATM   39  C   UNL     1     -10.815   5.530  71.243  1.00  0.00    -0.250 C  
BRANCH  39  40
HETATM   40  C   UNL     1     -10.800   5.748  69.729  1.00  0.00    -0.349 C  
HETATM   41  N   UNL     1     -11.749   6.779  69.321  1.00  0.00    -0.605 NA 
HETATM   42  H2  UNL     1     -11.588   7.651  69.824  1.00  0.00     0.000 HD 
HETATM   43  H1  UNL     1     -11.739   6.924  68.311  1.00  0.00     0.000 HD 
ENDBRANCH  39  40
ENDBRANCH  38  39
ENDBRANCH  37  38
ENDBRANCH  36  37
ENDBRANCH  33  36
ENDBRANCH  31  32
ENDBRANCH  30  31
ENDBRANCH  28  30
ENDBRANCH  25  26
ENDBRANCH  24  25
ENDBRANCH  23  24
ENDBRANCH  22  23
ENDBRANCH  21  22
ENDBRANCH  19  21
ENDBRANCH  16  17
ENDBRANCH  15  16
ENDBRANCH  12  15
ENDBRANCH  10  11
ENDBRANCH   9  10
ENDBRANCH   8   9
ENDBRANCH   7   8
ENDBRANCH   6   7
ENDBRANCH   3   6
TORSDOF 23
ENDMDL
MODEL       59
REMARK 921   NORMALIZED FREE ENERGY PREDICTED BY IDOCK:   -5.09 KCAL/MOL
REMARK 922        TOTAL FREE ENERGY PREDICTED BY IDOCK:  -14.70 KCAL/MOL
REMARK 923 INTER-LIGAND FREE ENERGY PREDICTED BY IDOCK:  -11.78 KCAL/MOL
REMARK 924 INTRA-LIGAND FREE ENERGY PREDICTED BY IDOCK:   -2.92 KCAL/MOL
REMARK 927      BINDING AFFINITY PREDICTED BY RF-SCORE:    0.00 PKD
ROOT
HETATM    1  C   UNL     1      -6.310   6.516  68.261  1.00  0.00    -0.037 C  
HETATM    2  C   UNL     1      -7.001   7.580  67.449  1.00  0.00    -0.083 C  
HETATM    3  N   UNL     1      -7.942   8.338  68.094  1.00  0.00    -0.121 N  
HETATM    4  O   UNL     1      -6.735   7.720  66.254  1.00  0.00    -0.052 OA 
HETATM    5  O   UNL     1      -8.162   8.311  69.482  1.00  0.00    -0.115 OA 
ENDROOT
BRANCH   3   6
HETATM    6  C   UNL     1      -8.706   9.394  67.444  1.00  0.00    -0.125 C  
BRANCH   6   7
HETATM    7  C   UNL     1      -9.838   8.844  66.574  1.00  0.00    -0.344 C  
BRANCH   7   8
HETATM    8  C   UNL     1     -10.714   7.884  67.381  1.00  0.00    -0.278 C  
BRANCH   8   9
HETATM    9  C   UNL     1     -10.834   6.513  66.711  1.00  0.00    -0.345 C  
BRANCH   9  10
HETATM   10  C   UNL     1     -10.389   5.377  67.633  1.00  0.00    -0.177 C  
BRANCH  10  11
HETATM   11  N   UNL     1      -9.993   5.852  68.950  1.00  0.00    -0.146 N  
HETATM   12  C   UNL     1      -9.726   4.971  69.974  1.00  0.00    -0.208 C  
HETATM   13  H   UNL     1      -9.911   6.855  69.116  1.00  0.00     0.000 HD 
HETATM   14  O   UNL     1      -9.761   3.750  69.854  1.00  0.00    -0.196 OA 
BRANCH  12  15
HETATM   15  C   UNL     1      -9.368   5.659  71.274  1.00  0.00    -0.171 C  
BRANCH  15  16
HETATM   16  C   UNL     1     -10.618   5.885  72.121  1.00  0.00    -0.264 C  
BRANCH  16  17
HETATM   17  C   UNL     1     -11.453   7.048  71.620  1.00  0.00    -0.266 C  
HETATM   18  O   UNL     1     -12.450   6.861  70.925  1.00  0.00    -0.378 OA 
HETATM   19  N   UNL     1     -11.012   8.300  71.961  1.00  0.00    -0.282 N  
HETATM   20  O   UNL     1      -9.939   8.560  72.832  1.00  0.00    -0.215 OA 
BRANCH  19  21
HETATM   21  C   UNL     1     -11.646   9.529  71.507  1.00  0.00    -0.395 C  
BRANCH  21  22
HETATM   22  C   UNL     1     -11.079  10.022  70.173  1.00  0.00    -0.371 C  
BRANCH  22  23
HETATM   23  C   UNL     1     -12.073  10.893  69.383  1.00  0.00    -0.362 C  
BRANCH  23  24
HETATM   24  C   UNL     1     -11.392  11.944  68.506  1.00  0.00    -0.329 C  
BRANCH  24  25
HETATM   25  C   UNL     1     -11.731  11.749  67.030  1.00  0.00    -0.167 C  
BRANCH  25  26
HETATM   26  N   UNL     1     -11.669  12.998  66.297  1.00  0.00    -0.367 N  
HETATM   27  H   UNL     1     -11.055  13.740  66.634  1.00  0.00     0.000 HD 
HETATM   28  C   UNL     1     -12.414  13.210  65.161  1.00  0.00    -0.483 C  
HETATM   29  O   UNL     1     -13.162  12.368  64.674  1.00  0.00    -0.822 OA 
BRANCH  28  30
HETATM   30  C   UNL     1     -12.250  14.578  64.550  1.00  0.00    -0.483 C  
BRANCH  30  31
HETATM   31  C   UNL     1     -10.806  15.031  64.693  1.00  0.00    -0.290 C  
BRANCH  31  32
HETATM   32  C   UNL     1     -10.731  16.427  65.275  1.00  0.00    -0.295 C  
HETATM   33  N   UNL     1     -10.209  16.582  66.536  1.00  0.00    -0.291 N  
HETATM   34  O   UNL     1     -11.062  17.390  64.580  1.00  0.00    -1.029 OA 
HETATM   35  O   UNL     1     -10.242  15.504  67.442  1.00  0.00    -0.248 OA 
BRANCH  33  36
HETATM   36  C   UNL     1     -10.161  17.880  67.213  1.00  0.00    -0.358 C  
BRANCH  36  37
HETATM   37  C   UNL     1      -8.768  18.194  67.762  1.00  0.00    -0.259 C  
BRANCH  37  38
HETATM   38  C   UNL     1      -8.720  19.552  68.471  1.00  0.00    -0.388 C  
BRANCH  38  39
HETATM   39  C   UNL     1      -7.301  20.128  68.492  1.00  0.00    -0.198 C  
BRANCH  39  40
HETATM   40  C   UNL     1      -6.432  19.511  69.589  1.00  0.00    -0.315 C  
HETATM   41  N   UNL     1      -5.859  20.531  70.462  1.00  0.00    -0.522 NA 
HETATM   42  H2  UNL     1      -6.582  21.133  70.855  1.00  0.00     0.000 HD 
HETATM   43  H1  UNL     1      -5.279  20.120  71.194  1.00  0.00     0.000 HD 
ENDBRANCH  39  40
ENDBRANCH  38  39
ENDBRANCH  37  38
ENDBRANCH  36  37
ENDBRANCH  33  36
ENDBRANCH  31  32
ENDBRANCH  30  31
ENDBRANCH  28  30
ENDBRANCH  25  26
ENDBRANCH  24  25
ENDBRANCH  23  24
ENDBRANCH  22  23
ENDBRANCH  21  22
ENDBRANCH  19  21
ENDBRANCH  16  17
ENDBRANCH  15  16
ENDBRANCH  12  15
ENDBRANCH  10  11
ENDBRANCH   9  10
ENDBRANCH   8   9
ENDBRANCH   7   8
ENDBRANCH   6   7
ENDBRANCH   3   6
TORSDOF 23
ENDMDL
MODEL       60
REMARK 921   NORMALIZED FREE ENERGY PREDICTED BY IDOCK:   -5.08 KCAL/MOL
REMARK 922        TOTAL FREE ENERGY PREDICTED BY IDOCK:  -14.66 KCAL/MOL
REMARK 923 INTER-LIGAND FREE ENERGY PREDICTED BY IDOCK:  -11.25 KCAL/MOL
REMARK 924 INTRA-LIGAND FREE ENERGY PREDICTED BY IDOCK:   -3.41 KCAL/MOL
REMARK 927      BINDING AFFINITY PREDICTED BY RF-SCORE:    0.00 PKD
ROOT
HETATM    1  C   UNL     1      -5.634   8.137  68.548  1.00  0.00    -0.033 C  
HETATM    2  C   UNL     1      -6.613   7.760  67.467  1.00  0.00    -0.063 C  
HETATM    3  N   UNL     1      -6.573   8.496  66.312  1.00  0.00    -0.061 N  
HETATM    4  O   UNL     1      -7.423   6.850  67.652  1.00  0.00    -0.093 OA 
HETATM    5  O   UNL     1      -5.572   9.434  66.008  1.00  0.00    -0.043 OA 
ENDROOT
BRANCH   3   6
HETATM    6  C   UNL     1      -7.464   8.265  65.183  1.00  0.00    -0.085 C  
BRANCH   6   7
HETATM    7  C   UNL     1      -6.988   8.970  63.912  1.00  0.00    -0.088 C  
BRANCH   7   8
HETATM    8  C   UNL     1      -8.176   9.297  63.005  1.00  0.00    -0.177 C  
BRANCH   8   9
HETATM    9  C   UNL     1      -9.306   9.993  63.766  1.00  0.00    -0.307 C  
BRANCH   9  10
HETATM   10  C   UNL     1      -9.844  11.212  63.016  1.00  0.00    -0.337 C  
BRANCH  10  11
HETATM   11  N   UNL     1     -10.541  12.141  63.894  1.00  0.00    -0.375 N  
HETATM   12  C   UNL     1     -11.913  12.253  63.868  1.00  0.00    -0.491 C  
HETATM   13  H   UNL     1     -10.003  12.719  64.539  1.00  0.00     0.000 HD 
HETATM   14  O   UNL     1     -12.642  11.570  63.154  1.00  0.00    -0.336 OA 
BRANCH  12  15
HETATM   15  C   UNL     1     -12.445  13.298  64.825  1.00  0.00    -0.439 C  
BRANCH  15  16
HETATM   16  C   UNL     1     -11.927  14.683  64.445  1.00  0.00    -0.454 C  
BRANCH  16  17
HETATM   17  C   UNL     1     -10.721  15.095  65.267  1.00  0.00    -0.404 C  
HETATM   18  O   UNL     1     -10.016  14.257  65.826  1.00  0.00    -0.313 OA 
HETATM   19  N   UNL     1     -10.493  16.443  65.372  1.00  0.00    -0.352 N  
HETATM   20  O   UNL     1     -11.209  17.432  64.674  1.00  0.00    -0.992 OA 
BRANCH  19  21
HETATM   21  C   UNL     1      -9.428  17.020  66.179  1.00  0.00    -0.225 C  
BRANCH  21  22
HETATM   22  C   UNL     1      -9.919  17.479  67.554  1.00  0.00    -0.315 C  
BRANCH  22  23
HETATM   23  C   UNL     1      -9.097  16.886  68.714  1.00  0.00    -0.254 C  
BRANCH  23  24
HETATM   24  C   UNL     1      -9.473  15.441  69.045  1.00  0.00    -0.236 C  
BRANCH  24  25
HETATM   25  C   UNL     1      -8.362  14.469  68.653  1.00  0.00    -0.164 C  
BRANCH  25  26
HETATM   26  N   UNL     1      -8.857  13.112  68.534  1.00  0.00    -0.346 N  
HETATM   27  H   UNL     1      -9.762  12.877  68.942  1.00  0.00     0.000 HD 
HETATM   28  C   UNL     1      -8.140  12.133  67.888  1.00  0.00    -0.153 C  
HETATM   29  O   UNL     1      -7.054  12.330  67.351  1.00  0.00    -0.129 OA 
BRANCH  28  30
HETATM   30  C   UNL     1      -8.792  10.773  67.890  1.00  0.00    -0.132 C  
BRANCH  30  31
HETATM   31  C   UNL     1     -10.287  10.924  67.661  1.00  0.00    -0.232 C  
BRANCH  31  32
HETATM   32  C   UNL     1     -11.067  10.515  68.893  1.00  0.00    -0.261 C  
HETATM   33  N   UNL     1     -12.026  11.372  69.375  1.00  0.00    -0.336 N  
HETATM   34  O   UNL     1     -10.882   9.398  69.381  1.00  0.00    -0.228 OA 
HETATM   35  O   UNL     1     -11.933  12.749  69.097  1.00  0.00    -0.291 OA 
BRANCH  33  36
HETATM   36  C   UNL     1     -12.781  11.099  70.599  1.00  0.00    -0.263 C  
BRANCH  36  37
HETATM   37  C   UNL     1     -12.496  12.129  71.694  1.00  0.00    -0.056 C  
BRANCH  37  38
HETATM   38  C   UNL     1     -13.751  12.917  72.086  1.00  0.00    -0.505 C  
BRANCH  38  39
HETATM   39  C   UNL     1     -13.397  14.261  72.728  1.00  0.00    -0.621 C  
BRANCH  39  40
HETATM   40  C   UNL     1     -13.384  15.410  71.717  1.00  0.00    -0.476 C  
HETATM   41  N   UNL     1     -13.444  14.922  70.343  1.00  0.00    -0.584 NA 
HETATM   42  H2  UNL     1     -14.248  14.311  70.201  1.00  0.00     0.000 HD 
HETATM   43  H1  UNL     1     -13.435  15.688  69.669  1.00  0.00     0.000 HD 
ENDBRANCH  39  40
ENDBRANCH  38  39
ENDBRANCH  37  38
ENDBRANCH  36  37
ENDBRANCH  33  36
ENDBRANCH  31  32
ENDBRANCH  30  31
ENDBRANCH  28  30
ENDBRANCH  25  26
ENDBRANCH  24  25
ENDBRANCH  23  24
ENDBRANCH  22  23
ENDBRANCH  21  22
ENDBRANCH  19  21
ENDBRANCH  16  17
ENDBRANCH  15  16
ENDBRANCH  12  15
ENDBRANCH  10  11
ENDBRANCH   9  10
ENDBRANCH   8   9
ENDBRANCH   7   8
ENDBRANCH   6   7
ENDBRANCH   3   6
TORSDOF 23
ENDMDL
MODEL       61
REMARK 921   NORMALIZED FREE ENERGY PREDICTED BY IDOCK:   -5.08 KCAL/MOL
REMARK 922        TOTAL FREE ENERGY PREDICTED BY IDOCK:  -14.66 KCAL/MOL
REMARK 923 INTER-LIGAND FREE ENERGY PREDICTED BY IDOCK:  -11.36 KCAL/MOL
REMARK 924 INTRA-LIGAND FREE ENERGY PREDICTED BY IDOCK:   -3.30 KCAL/MOL
REMARK 927      BINDING AFFINITY PREDICTED BY RF-SCORE:    0.00 PKD
ROOT
HETATM    1  C   UNL     1      -7.111   8.758  70.696  1.00  0.00    -0.063 C  
HETATM    2  C   UNL     1      -7.723   8.435  69.358  1.00  0.00    -0.097 C  
HETATM    3  N   UNL     1      -7.537   9.350  68.355  1.00  0.00    -0.082 N  
HETATM    4  O   UNL     1      -8.382   7.405  69.209  1.00  0.00    -0.129 OA 
HETATM    5  O   UNL     1      -6.672  10.454  68.443  1.00  0.00    -0.059 OA 
ENDROOT
BRANCH   3   6
HETATM    6  C   UNL     1      -8.079   9.190  67.013  1.00  0.00    -0.109 C  
BRANCH   6   7
HETATM    7  C   UNL     1      -7.510  10.213  66.028  1.00  0.00    -0.118 C  
BRANCH   7   8
HETATM    8  C   UNL     1      -8.270  10.158  64.702  1.00  0.00    -0.165 C  
BRANCH   8   9
HETATM    9  C   UNL     1      -9.784  10.088  64.908  1.00  0.00    -0.377 C  
BRANCH   9  10
HETATM   10  C   UNL     1     -10.544  10.993  63.938  1.00  0.00    -0.312 C  
BRANCH  10  11
HETATM   11  N   UNL     1     -11.041  12.202  64.578  1.00  0.00    -0.311 N  
HETATM   12  C   UNL     1     -12.355  12.590  64.445  1.00  0.00    -0.455 C  
HETATM   13  H   UNL     1     -10.404  12.771  65.135  1.00  0.00     0.000 HD 
HETATM   14  O   UNL     1     -13.200  11.947  63.828  1.00  0.00    -0.655 OA 
BRANCH  12  15
HETATM   15  C   UNL     1     -12.668  13.891  65.151  1.00  0.00    -0.434 C  
BRANCH  15  16
HETATM   16  C   UNL     1     -11.923  15.050  64.493  1.00  0.00    -0.379 C  
BRANCH  16  17
HETATM   17  C   UNL     1     -10.740  15.520  65.317  1.00  0.00    -0.422 C  
HETATM   18  O   UNL     1     -10.020  14.719  65.909  1.00  0.00    -0.291 OA 
HETATM   19  N   UNL     1     -10.550  16.876  65.383  1.00  0.00    -0.254 N  
HETATM   20  O   UNL     1     -11.284  17.823  64.646  1.00  0.00    -0.764 OA 
BRANCH  19  21
HETATM   21  C   UNL     1      -9.512  17.506  66.185  1.00  0.00    -0.160 C  
BRANCH  21  22
HETATM   22  C   UNL     1     -10.075  18.543  67.161  1.00  0.00    -0.378 C  
BRANCH  22  23
HETATM   23  C   UNL     1      -9.934  18.120  68.635  1.00  0.00    -0.409 C  
BRANCH  23  24
HETATM   24  C   UNL     1     -10.748  16.875  68.987  1.00  0.00    -0.308 C  
BRANCH  24  25
HETATM   25  C   UNL     1      -9.853  15.742  69.486  1.00  0.00    -0.283 C  
BRANCH  25  26
HETATM   26  N   UNL     1     -10.209  14.474  68.881  1.00  0.00    -0.234 N  
HETATM   27  H   UNL     1     -11.191  14.277  68.684  1.00  0.00     0.000 HD 
HETATM   28  C   UNL     1      -9.262  13.529  68.567  1.00  0.00    -0.101 C  
HETATM   29  O   UNL     1      -8.059  13.688  68.750  1.00  0.00    -0.106 OA 
BRANCH  28  30
HETATM   30  C   UNL     1      -9.815  12.257  67.977  1.00  0.00    -0.204 C  
BRANCH  30  31
HETATM   31  C   UNL     1     -11.322  12.215  68.180  1.00  0.00    -0.349 C  
BRANCH  31  32
HETATM   32  C   UNL     1     -11.666  11.756  69.581  1.00  0.00    -0.344 C  
HETATM   33  N   UNL     1     -11.275  10.498  69.971  1.00  0.00    -0.295 N  
HETATM   34  O   UNL     1     -12.210  12.543  70.358  1.00  0.00    -0.348 OA 
HETATM   35  O   UNL     1     -11.060   9.502  68.999  1.00  0.00    -0.152 OA 
BRANCH  33  36
HETATM   36  C   UNL     1     -11.623   9.937  71.278  1.00  0.00    -0.379 C  
BRANCH  36  37
HETATM   37  C   UNL     1     -10.523   9.026  71.827  1.00  0.00    -0.418 C  
BRANCH  37  38
HETATM   38  C   UNL     1     -11.093   7.849  72.625  1.00  0.00    -0.447 C  
BRANCH  38  39
HETATM   39  C   UNL     1     -10.790   6.508  71.948  1.00  0.00    -0.273 C  
BRANCH  39  40
HETATM   40  C   UNL     1     -11.532   6.338  70.622  1.00  0.00    -0.329 C  
HETATM   41  N   UNL     1     -12.902   6.837  70.701  1.00  0.00    -0.369 NA 
HETATM   42  H2  UNL     1     -12.926   7.805  71.019  1.00  0.00     0.000 HD 
HETATM   43  H1  UNL     1     -13.397   6.723  69.816  1.00  0.00     0.000 HD 
ENDBRANCH  39  40
ENDBRANCH  38  39
ENDBRANCH  37  38
ENDBRANCH  36  37
ENDBRANCH  33  36
ENDBRANCH  31  32
ENDBRANCH  30  31
ENDBRANCH  28  30
ENDBRANCH  25  26
ENDBRANCH  24  25
ENDBRANCH  23  24
ENDBRANCH  22  23
ENDBRANCH  21  22
ENDBRANCH  19  21
ENDBRANCH  16  17
ENDBRANCH  15  16
ENDBRANCH  12  15
ENDBRANCH  10  11
ENDBRANCH   9  10
ENDBRANCH   8   9
ENDBRANCH   7   8
ENDBRANCH   6   7
ENDBRANCH   3   6
TORSDOF 23
ENDMDL
MODEL       62
REMARK 921   NORMALIZED FREE ENERGY PREDICTED BY IDOCK:   -5.07 KCAL/MOL
REMARK 922        TOTAL FREE ENERGY PREDICTED BY IDOCK:  -14.63 KCAL/MOL
REMARK 923 INTER-LIGAND FREE ENERGY PREDICTED BY IDOCK:  -11.40 KCAL/MOL
REMARK 924 INTRA-LIGAND FREE ENERGY PREDICTED BY IDOCK:   -3.24 KCAL/MOL
REMARK 927      BINDING AFFINITY PREDICTED BY RF-SCORE:    0.00 PKD
ROOT
HETATM    1  C   UNL     1     -11.582  11.690  68.367  1.00  0.00    -0.376 C  
HETATM    2  C   UNL     1     -11.908  11.396  69.808  1.00  0.00    -0.364 C  
HETATM    3  N   UNL     1     -11.699  10.113  70.240  1.00  0.00    -0.277 N  
HETATM    4  O   UNL     1     -12.371  12.278  70.532  1.00  0.00    -0.329 OA 
HETATM    5  O   UNL     1     -11.036   9.125  69.492  1.00  0.00    -0.213 OA 
ENDROOT
BRANCH   3   6
HETATM    6  C   UNL     1     -11.980   9.669  71.598  1.00  0.00    -0.394 C  
BRANCH   6   7
HETATM    7  C   UNL     1     -12.922   8.463  71.635  1.00  0.00    -0.355 C  
BRANCH   7   8
HETATM    8  C   UNL     1     -12.133   7.176  71.882  1.00  0.00    -0.357 C  
BRANCH   8   9
HETATM    9  C   UNL     1     -10.860   7.428  72.692  1.00  0.00    -0.349 C  
BRANCH   9  10
HETATM   10  C   UNL     1      -9.628   6.787  72.052  1.00  0.00    -0.147 C  
BRANCH  10  11
HETATM   11  N   UNL     1      -9.873   6.359  70.683  1.00  0.00    -0.183 N  
HETATM   12  C   UNL     1      -9.883   5.024  70.344  1.00  0.00    -0.230 C  
HETATM   13  H   UNL     1     -10.041   7.060  69.961  1.00  0.00     0.000 HD 
HETATM   14  O   UNL     1      -9.730   4.112  71.152  1.00  0.00    -0.167 OA 
BRANCH  12  15
HETATM   15  C   UNL     1     -10.116   4.784  68.868  1.00  0.00    -0.149 C  
BRANCH  15  16
HETATM   16  C   UNL     1      -8.812   4.934  68.089  1.00  0.00    -0.113 C  
BRANCH  16  17
HETATM   17  C   UNL     1      -8.959   5.841  66.883  1.00  0.00    -0.114 C  
HETATM   18  O   UNL     1      -9.273   5.391  65.783  1.00  0.00    -0.158 OA 
HETATM   19  N   UNL     1      -8.690   7.169  67.090  1.00  0.00    -0.120 N  
HETATM   20  O   UNL     1      -8.424   7.746  68.344  1.00  0.00    -0.124 OA 
BRANCH  19  21
HETATM   21  C   UNL     1      -8.709   8.169  66.032  1.00  0.00    -0.156 C  
BRANCH  21  22
HETATM   22  C   UNL     1     -10.005   8.984  66.021  1.00  0.00    -0.246 C  
BRANCH  22  23
HETATM   23  C   UNL     1      -9.843  10.360  65.348  1.00  0.00    -0.347 C  
BRANCH  23  24
HETATM   24  C   UNL     1      -9.454  10.269  63.872  1.00  0.00    -0.356 C  
BRANCH  24  25
HETATM   25  C   UNL     1     -10.154  11.342  63.040  1.00  0.00    -0.285 C  
BRANCH  25  26
HETATM   26  N   UNL     1     -10.765  12.354  63.877  1.00  0.00    -0.390 N  
HETATM   27  H   UNL     1     -10.167  12.959  64.440  1.00  0.00     0.000 HD 
HETATM   28  C   UNL     1     -12.129  12.522  63.934  1.00  0.00    -0.498 C  
HETATM   29  O   UNL     1     -12.922  11.854  63.277  1.00  0.00    -0.707 OA 
BRANCH  28  30
HETATM   30  C   UNL     1     -12.589  13.598  64.883  1.00  0.00    -0.380 C  
BRANCH  30  31
HETATM   31  C   UNL     1     -11.943  14.921  64.505  1.00  0.00    -0.420 C  
BRANCH  31  32
HETATM   32  C   UNL     1     -11.012  15.400  65.599  1.00  0.00    -0.326 C  
HETATM   33  N   UNL     1     -10.851  16.753  65.775  1.00  0.00    -0.164 N  
HETATM   34  O   UNL     1     -10.490  14.576  66.352  1.00  0.00    -0.284 OA 
HETATM   35  O   UNL     1     -11.088  17.629  64.698  1.00  0.00    -0.906 OA 
BRANCH  33  36
HETATM   36  C   UNL     1      -9.920  17.314  66.757  1.00  0.00    -0.301 C  
BRANCH  36  37
HETATM   37  C   UNL     1      -8.473  17.285  66.261  1.00  0.00    -0.278 C  
BRANCH  37  38
HETATM   38  C   UNL     1      -7.476  17.065  67.403  1.00  0.00    -0.184 C  
BRANCH  38  39
HETATM   39  C   UNL     1      -7.031  15.602  67.493  1.00  0.00    -0.218 C  
BRANCH  39  40
HETATM   40  C   UNL     1      -7.409  14.954  68.826  1.00  0.00    -0.127 C  
HETATM   41  N   UNL     1      -8.853  14.790  68.958  1.00  0.00    -0.304 NA 
HETATM   42  H2  UNL     1      -9.242  14.273  68.169  1.00  0.00     0.000 HD 
HETATM   43  H1  UNL     1      -9.105  14.357  69.847  1.00  0.00     0.000 HD 
ENDBRANCH  39  40
ENDBRANCH  38  39
ENDBRANCH  37  38
ENDBRANCH  36  37
ENDBRANCH  33  36
ENDBRANCH  31  32
ENDBRANCH  30  31
ENDBRANCH  28  30
ENDBRANCH  25  26
ENDBRANCH  24  25
ENDBRANCH  23  24
ENDBRANCH  22  23
ENDBRANCH  21  22
ENDBRANCH  19  21
ENDBRANCH  16  17
ENDBRANCH  15  16
ENDBRANCH  12  15
ENDBRANCH  10  11
ENDBRANCH   9  10
ENDBRANCH   8   9
ENDBRANCH   7   8
ENDBRANCH   6   7
ENDBRANCH   3   6
TORSDOF 23
ENDMDL
MODEL       63
REMARK 921   NORMALIZED FREE ENERGY PREDICTED BY IDOCK:   -5.07 KCAL/MOL
REMARK 922        TOTAL FREE ENERGY PREDICTED BY IDOCK:  -14.63 KCAL/MOL
REMARK 923 INTER-LIGAND FREE ENERGY PREDICTED BY IDOCK:  -11.40 KCAL/MOL
REMARK 924 INTRA-LIGAND FREE ENERGY PREDICTED BY IDOCK:   -3.22 KCAL/MOL
REMARK 927      BINDING AFFINITY PREDICTED BY RF-SCORE:    0.00 PKD
ROOT
HETATM    1  C   UNL     1      -9.006   3.397  65.159  1.00  0.00    -0.138 C  
HETATM    2  C   UNL     1     -10.071   4.426  65.437  1.00  0.00    -0.223 C  
HETATM    3  N   UNL     1      -9.822   5.315  66.449  1.00  0.00    -0.171 N  
HETATM    4  O   UNL     1     -11.120   4.423  64.792  1.00  0.00    -0.204 OA 
HETATM    5  O   UNL     1      -8.584   5.445  67.100  1.00  0.00    -0.110 OA 
ENDROOT
BRANCH   3   6
HETATM    6  C   UNL     1     -10.758   6.357  66.849  1.00  0.00    -0.338 C  
BRANCH   6   7
HETATM    7  C   UNL     1     -10.115   7.745  66.863  1.00  0.00    -0.356 C  
BRANCH   7   8
HETATM    8  C   UNL     1     -10.894   8.686  67.783  1.00  0.00    -0.075 C  
BRANCH   8   9
HETATM    9  C   UNL     1      -9.968   9.539  68.652  1.00  0.00    -0.181 C  
BRANCH   9  10
HETATM   10  C   UNL     1     -10.733  10.321  69.721  1.00  0.00    -0.285 C  
BRANCH  10  11
HETATM   11  N   UNL     1     -10.587  11.761  69.566  1.00  0.00    -0.437 N  
HETATM   12  C   UNL     1     -11.337  12.458  68.646  1.00  0.00    -0.288 C  
HETATM   13  H   UNL     1      -9.917  12.262  70.149  1.00  0.00     0.000 HD 
HETATM   14  O   UNL     1     -12.193  11.945  67.930  1.00  0.00    -0.508 OA 
BRANCH  12  15
HETATM   15  C   UNL     1     -11.014  13.937  68.609  1.00  0.00    -0.281 C  
BRANCH  15  16
HETATM   16  C   UNL     1     -11.840  14.638  67.533  1.00  0.00    -0.375 C  
BRANCH  16  17
HETATM   17  C   UNL     1     -11.316  14.369  66.135  1.00  0.00    -0.350 C  
HETATM   18  O   UNL     1     -10.113  14.428  65.885  1.00  0.00    -0.296 OA 
HETATM   19  N   UNL     1     -12.258  14.094  65.179  1.00  0.00    -0.414 N  
HETATM   20  O   UNL     1     -13.630  13.919  65.435  1.00  0.00    -0.571 OA 
BRANCH  19  21
HETATM   21  C   UNL     1     -11.943  13.885  63.773  1.00  0.00    -0.265 C  
BRANCH  21  22
HETATM   22  C   UNL     1     -11.932  12.402  63.391  1.00  0.00    -0.595 C  
BRANCH  22  23
HETATM   23  C   UNL     1     -10.532  11.767  63.490  1.00  0.00    -0.500 C  
BRANCH  23  24
HETATM   24  C   UNL     1     -10.350  10.898  64.736  1.00  0.00    -0.391 C  
BRANCH  24  25
HETATM   25  C   UNL     1      -8.910  10.942  65.245  1.00  0.00    -0.167 C  
BRANCH  25  26
HETATM   26  N   UNL     1      -8.722  11.993  66.225  1.00  0.00    -0.384 N  
HETATM   27  H   UNL     1      -9.335  12.808  66.201  1.00  0.00     0.000 HD 
HETATM   28  C   UNL     1      -7.741  11.922  67.185  1.00  0.00    -0.163 C  
HETATM   29  O   UNL     1      -6.973  10.972  67.300  1.00  0.00    -0.084 OA 
BRANCH  28  30
HETATM   30  C   UNL     1      -7.669  13.119  68.098  1.00  0.00    -0.143 C  
BRANCH  30  31
HETATM   31  C   UNL     1      -6.808  14.197  67.458  1.00  0.00    -0.151 C  
BRANCH  31  32
HETATM   32  C   UNL     1      -7.240  15.575  67.913  1.00  0.00    -0.141 C  
HETATM   33  N   UNL     1      -6.642  16.670  67.339  1.00  0.00    -0.152 N  
HETATM   34  O   UNL     1      -8.167  15.682  68.719  1.00  0.00    -0.156 OA 
HETATM   35  O   UNL     1      -5.356  16.548  66.779  1.00  0.00    -0.337 OA 
BRANCH  33  36
HETATM   36  C   UNL     1      -6.939  18.041  67.762  1.00  0.00    -0.208 C  
BRANCH  36  37
HETATM   37  C   UNL     1      -7.632  18.847  66.662  1.00  0.00    -0.252 C  
BRANCH  37  38
HETATM   38  C   UNL     1      -8.347  20.084  67.217  1.00  0.00    -0.381 C  
BRANCH  38  39
HETATM   39  C   UNL     1      -9.778  20.197  66.684  1.00  0.00    -0.568 C  
BRANCH  39  40
HETATM   40  C   UNL     1     -10.598  18.929  66.929  1.00  0.00    -0.421 C  
HETATM   41  N   UNL     1     -10.806  18.173  65.698  1.00  0.00    -0.343 NA 
HETATM   42  H2  UNL     1      -9.920  17.961  65.238  1.00  0.00     0.000 HD 
HETATM   43  H1  UNL     1     -11.353  17.328  65.861  1.00  0.00     0.000 HD 
ENDBRANCH  39  40
ENDBRANCH  38  39
ENDBRANCH  37  38
ENDBRANCH  36  37
ENDBRANCH  33  36
ENDBRANCH  31  32
ENDBRANCH  30  31
ENDBRANCH  28  30
ENDBRANCH  25  26
ENDBRANCH  24  25
ENDBRANCH  23  24
ENDBRANCH  22  23
ENDBRANCH  21  22
ENDBRANCH  19  21
ENDBRANCH  16  17
ENDBRANCH  15  16
ENDBRANCH  12  15
ENDBRANCH  10  11
ENDBRANCH   9  10
ENDBRANCH   8   9
ENDBRANCH   7   8
ENDBRANCH   6   7
ENDBRANCH   3   6
TORSDOF 23
ENDMDL
MODEL       64
REMARK 921   NORMALIZED FREE ENERGY PREDICTED BY IDOCK:   -5.06 KCAL/MOL
REMARK 922        TOTAL FREE ENERGY PREDICTED BY IDOCK:  -14.63 KCAL/MOL
REMARK 923 INTER-LIGAND FREE ENERGY PREDICTED BY IDOCK:  -10.93 KCAL/MOL
REMARK 924 INTRA-LIGAND FREE ENERGY PREDICTED BY IDOCK:   -3.70 KCAL/MOL
REMARK 927      BINDING AFFINITY PREDICTED BY RF-SCORE:    0.00 PKD
ROOT
HETATM    1  C   UNL     1     -13.230   6.962  71.464  1.00  0.00    -0.322 C  
HETATM    2  C   UNL     1     -11.927   7.064  70.714  1.00  0.00    -0.345 C  
HETATM    3  N   UNL     1     -11.191   8.204  70.905  1.00  0.00    -0.263 N  
HETATM    4  O   UNL     1     -11.580   6.165  69.947  1.00  0.00    -0.404 OA 
HETATM    5  O   UNL     1     -11.477   9.175  71.880  1.00  0.00    -0.360 OA 
ENDROOT
BRANCH   3   6
HETATM    6  C   UNL     1      -9.920   8.458  70.241  1.00  0.00    -0.186 C  
BRANCH   6   7
HETATM    7  C   UNL     1      -8.828   8.896  71.219  1.00  0.00    -0.298 C  
BRANCH   7   8
HETATM    8  C   UNL     1      -7.508   9.123  70.480  1.00  0.00    -0.119 C  
BRANCH   8   9
HETATM    9  C   UNL     1      -7.403  10.540  69.913  1.00  0.00    -0.116 C  
BRANCH   9  10
HETATM   10  C   UNL     1      -6.056  11.192  70.227  1.00  0.00    -0.144 C  
BRANCH  10  11
HETATM   11  N   UNL     1      -6.145  12.643  70.305  1.00  0.00    -0.329 N  
HETATM   12  C   UNL     1      -5.847  13.434  69.218  1.00  0.00    -0.087 C  
HETATM   13  H   UNL     1      -6.433  13.080  71.180  1.00  0.00     0.000 HD 
HETATM   14  O   UNL     1      -5.531  12.993  68.117  1.00  0.00    -0.075 OA 
BRANCH  12  15
HETATM   15  C   UNL     1      -5.962  14.915  69.509  1.00  0.00    -0.107 C  
BRANCH  15  16
HETATM   16  C   UNL     1      -7.387  15.401  69.253  1.00  0.00    -0.197 C  
BRANCH  16  17
HETATM   17  C   UNL     1      -7.567  15.950  67.851  1.00  0.00    -0.133 C  
HETATM   18  O   UNL     1      -7.923  15.224  66.925  1.00  0.00    -0.215 OA 
HETATM   19  N   UNL     1      -7.280  17.280  67.681  1.00  0.00    -0.159 N  
HETATM   20  O   UNL     1      -6.967  18.170  68.723  1.00  0.00    -0.253 OA 
BRANCH  19  21
HETATM   21  C   UNL     1      -7.327  17.956  66.392  1.00  0.00    -0.265 C  
BRANCH  21  22
HETATM   22  C   UNL     1      -8.352  19.093  66.365  1.00  0.00    -0.326 C  
BRANCH  22  23
HETATM   23  C   UNL     1      -9.785  18.602  66.083  1.00  0.00    -0.256 C  
BRANCH  23  24
HETATM   24  C   UNL     1     -10.763  18.905  67.219  1.00  0.00    -0.523 C  
BRANCH  24  25
HETATM   25  C   UNL     1     -10.655  17.874  68.341  1.00  0.00    -0.265 C  
BRANCH  25  26
HETATM   26  N   UNL     1     -10.804  16.522  67.841  1.00  0.00    -0.344 N  
HETATM   27  H   UNL     1     -10.656  16.342  66.848  1.00  0.00     0.000 HD 
HETATM   28  C   UNL     1     -11.140  15.476  68.667  1.00  0.00    -0.297 C  
HETATM   29  O   UNL     1     -11.317  15.597  69.876  1.00  0.00    -0.281 OA 
BRANCH  28  30
HETATM   30  C   UNL     1     -11.284  14.147  67.971  1.00  0.00    -0.302 C  
BRANCH  30  31
HETATM   31  C   UNL     1     -12.262  14.283  66.814  1.00  0.00    -0.384 C  
BRANCH  31  32
HETATM   32  C   UNL     1     -11.570  14.034  65.490  1.00  0.00    -0.332 C  
HETATM   33  N   UNL     1     -12.228  13.295  64.537  1.00  0.00    -0.398 N  
HETATM   34  O   UNL     1     -10.479  14.564  65.269  1.00  0.00    -0.337 OA 
HETATM   35  O   UNL     1     -13.220  12.377  64.930  1.00  0.00    -0.714 OA 
BRANCH  33  36
HETATM   36  C   UNL     1     -11.614  12.939  63.255  1.00  0.00    -0.265 C  
BRANCH  36  37
HETATM   37  C   UNL     1     -11.189  11.471  63.207  1.00  0.00    -0.239 C  
BRANCH  37  38
HETATM   38  C   UNL     1      -9.856  11.232  63.924  1.00  0.00    -0.341 C  
BRANCH  38  39
HETATM   39  C   UNL     1     -10.045  10.435  65.218  1.00  0.00    -0.370 C  
BRANCH  39  40
HETATM   40  C   UNL     1      -9.214  10.988  66.377  1.00  0.00    -0.175 C  
HETATM   41  N   UNL     1      -8.688  12.317  66.079  1.00  0.00    -0.400 NA 
HETATM   42  H2  UNL     1      -9.434  12.961  65.815  1.00  0.00     0.000 HD 
HETATM   43  H1  UNL     1      -8.134  12.686  66.852  1.00  0.00     0.000 HD 
ENDBRANCH  39  40
ENDBRANCH  38  39
ENDBRANCH  37  38
ENDBRANCH  36  37
ENDBRANCH  33  36
ENDBRANCH  31  32
ENDBRANCH  30  31
ENDBRANCH  28  30
ENDBRANCH  25  26
ENDBRANCH  24  25
ENDBRANCH  23  24
ENDBRANCH  22  23
ENDBRANCH  21  22
ENDBRANCH  19  21
ENDBRANCH  16  17
ENDBRANCH  15  16
ENDBRANCH  12  15
ENDBRANCH  10  11
ENDBRANCH   9  10
ENDBRANCH   8   9
ENDBRANCH   7   8
ENDBRANCH   6   7
ENDBRANCH   3   6
TORSDOF 23
ENDMDL
MODEL       65
REMARK 921   NORMALIZED FREE ENERGY PREDICTED BY IDOCK:   -5.05 KCAL/MOL
REMARK 922        TOTAL FREE ENERGY PREDICTED BY IDOCK:  -14.61 KCAL/MOL
REMARK 923 INTER-LIGAND FREE ENERGY PREDICTED BY IDOCK:  -11.66 KCAL/MOL
REMARK 924 INTRA-LIGAND FREE ENERGY PREDICTED BY IDOCK:   -2.95 KCAL/MOL
REMARK 927      BINDING AFFINITY PREDICTED BY RF-SCORE:    0.00 PKD
ROOT
HETATM    1  C   UNL     1      -6.931   4.971  72.680  1.00  0.00    -0.080 C  
HETATM    2  C   UNL     1      -8.143   4.350  72.036  1.00  0.00    -0.099 C  
HETATM    3  N   UNL     1      -8.682   5.013  70.965  1.00  0.00    -0.125 N  
HETATM    4  O   UNL     1      -8.625   3.312  72.492  1.00  0.00    -0.082 OA 
HETATM    5  O   UNL     1      -8.076   6.108  70.328  1.00  0.00    -0.108 OA 
ENDROOT
BRANCH   3   6
HETATM    6  C   UNL     1      -9.861   4.549  70.247  1.00  0.00    -0.229 C  
BRANCH   6   7
HETATM    7  C   UNL     1     -10.499   5.652  69.400  1.00  0.00    -0.367 C  
BRANCH   7   8
HETATM    8  C   UNL     1     -10.337   5.344  67.910  1.00  0.00    -0.222 C  
BRANCH   8   9
HETATM    9  C   UNL     1     -11.007   6.399  67.028  1.00  0.00    -0.463 C  
BRANCH   9  10
HETATM   10  C   UNL     1     -10.524   7.814  67.348  1.00  0.00    -0.292 C  
BRANCH  10  11
HETATM   11  N   UNL     1     -10.068   8.527  66.163  1.00  0.00    -0.448 N  
HETATM   12  C   UNL     1      -8.751   8.478  65.766  1.00  0.00    -0.179 C  
HETATM   13  H   UNL     1     -10.737   9.071  65.619  1.00  0.00     0.000 HD 
HETATM   14  O   UNL     1      -7.887   7.818  66.336  1.00  0.00    -0.090 OA 
BRANCH  12  15
HETATM   15  C   UNL     1      -8.468   9.314  64.536  1.00  0.00    -0.195 C  
BRANCH  15  16
HETATM   16  C   UNL     1      -8.645  10.798  64.846  1.00  0.00    -0.097 C  
BRANCH  16  17
HETATM   17  C   UNL     1      -9.836  11.401  64.126  1.00  0.00    -0.268 C  
HETATM   18  O   UNL     1      -9.803  11.623  62.917  1.00  0.00    -0.367 OA 
HETATM   19  N   UNL     1     -10.921  11.708  64.906  1.00  0.00    -0.300 N  
HETATM   20  O   UNL     1     -11.044  11.383  66.268  1.00  0.00    -0.289 OA 
BRANCH  19  21
HETATM   21  C   UNL     1     -12.120  12.358  64.398  1.00  0.00    -0.426 C  
BRANCH  21  22
HETATM   22  C   UNL     1     -11.997  13.884  64.386  1.00  0.00    -0.480 C  
BRANCH  22  23
HETATM   23  C   UNL     1     -11.868  14.487  65.798  1.00  0.00    -0.327 C  
BRANCH  23  24
HETATM   24  C   UNL     1     -10.479  15.057  66.086  1.00  0.00    -0.313 C  
BRANCH  24  25
HETATM   25  C   UNL     1     -10.059  14.807  67.533  1.00  0.00    -0.224 C  
BRANCH  25  26
HETATM   26  N   UNL     1     -11.207  14.632  68.401  1.00  0.00    -0.262 N  
HETATM   27  H   UNL     1     -11.793  13.805  68.286  1.00  0.00     0.000 HD 
HETATM   28  C   UNL     1     -11.527  15.549  69.373  1.00  0.00    -0.337 C  
HETATM   29  O   UNL     1     -10.868  16.560  69.595  1.00  0.00    -0.328 OA 
BRANCH  28  30
HETATM   30  C   UNL     1     -12.772  15.222  70.158  1.00  0.00    -0.278 C  
BRANCH  30  31
HETATM   31  C   UNL     1     -12.386  14.704  71.534  1.00  0.00    -0.415 C  
BRANCH  31  32
HETATM   32  C   UNL     1     -13.173  13.459  71.884  1.00  0.00    -0.431 C  
HETATM   33  N   UNL     1     -12.668  12.238  71.505  1.00  0.00    -0.293 N  
HETATM   34  O   UNL     1     -14.196  13.561  72.565  1.00  0.00    -0.734 OA 
HETATM   35  O   UNL     1     -11.784  12.159  70.413  1.00  0.00    -0.255 OA 
BRANCH  33  36
HETATM   36  C   UNL     1     -13.390  10.984  71.733  1.00  0.00    -0.296 C  
BRANCH  36  37
HETATM   37  C   UNL     1     -12.759   9.811  70.980  1.00  0.00    -0.392 C  
BRANCH  37  38
HETATM   38  C   UNL     1     -12.681   8.547  71.842  1.00  0.00    -0.401 C  
BRANCH  38  39
HETATM   39  C   UNL     1     -11.257   8.293  72.347  1.00  0.00    -0.451 C  
BRANCH  39  40
HETATM   40  C   UNL     1     -10.206   9.078  71.560  1.00  0.00    -0.344 C  
HETATM   41  N   UNL     1      -8.852   8.759  72.000  1.00  0.00    -0.370 NA 
HETATM   42  H2  UNL     1      -8.675   7.755  71.958  1.00  0.00     0.000 HD 
HETATM   43  H1  UNL     1      -8.151   9.282  71.475  1.00  0.00     0.000 HD 
ENDBRANCH  39  40
ENDBRANCH  38  39
ENDBRANCH  37  38
ENDBRANCH  36  37
ENDBRANCH  33  36
ENDBRANCH  31  32
ENDBRANCH  30  31
ENDBRANCH  28  30
ENDBRANCH  25  26
ENDBRANCH  24  25
ENDBRANCH  23  24
ENDBRANCH  22  23
ENDBRANCH  21  22
ENDBRANCH  19  21
ENDBRANCH  16  17
ENDBRANCH  15  16
ENDBRANCH  12  15
ENDBRANCH  10  11
ENDBRANCH   9  10
ENDBRANCH   8   9
ENDBRANCH   7   8
ENDBRANCH   6   7
ENDBRANCH   3   6
TORSDOF 23
ENDMDL
MODEL       66
REMARK 921   NORMALIZED FREE ENERGY PREDICTED BY IDOCK:   -5.05 KCAL/MOL
REMARK 922        TOTAL FREE ENERGY PREDICTED BY IDOCK:  -14.59 KCAL/MOL
REMARK 923 INTER-LIGAND FREE ENERGY PREDICTED BY IDOCK:  -11.69 KCAL/MOL
REMARK 924 INTRA-LIGAND FREE ENERGY PREDICTED BY IDOCK:   -2.90 KCAL/MOL
REMARK 927      BINDING AFFINITY PREDICTED BY RF-SCORE:    0.00 PKD
ROOT
HETATM    1  C   UNL     1     -10.188  16.641  66.011  1.00  0.00    -0.366 C  
HETATM    2  C   UNL     1     -10.922  15.885  64.934  1.00  0.00    -0.411 C  
HETATM    3  N   UNL     1     -10.970  14.522  65.059  1.00  0.00    -0.374 N  
HETATM    4  O   UNL     1     -11.418  16.487  63.981  1.00  0.00    -1.137 OA 
HETATM    5  O   UNL     1     -10.551  13.817  66.200  1.00  0.00    -0.284 OA 
ENDROOT
BRANCH   3   6
HETATM    6  C   UNL     1     -11.627  13.651  64.094  1.00  0.00    -0.352 C  
BRANCH   6   7
HETATM    7  C   UNL     1     -11.535  12.174  64.483  1.00  0.00    -0.397 C  
BRANCH   7   8
HETATM    8  C   UNL     1     -10.627  11.420  63.510  1.00  0.00    -0.468 C  
BRANCH   8   9
HETATM    9  C   UNL     1      -9.644  10.499  64.236  1.00  0.00    -0.364 C  
BRANCH   9  10
HETATM   10  C   UNL     1     -10.119  10.139  65.644  1.00  0.00    -0.254 C  
BRANCH  10  11
HETATM   11  N   UNL     1      -9.110   9.415  66.403  1.00  0.00    -0.153 N  
HETATM   12  C   UNL     1      -9.310   9.092  67.726  1.00  0.00    -0.136 C  
HETATM   13  H   UNL     1      -8.241   9.141  65.945  1.00  0.00     0.000 HD 
HETATM   14  O   UNL     1     -10.339   9.346  68.345  1.00  0.00    -0.191 OA 
BRANCH  12  15
HETATM   15  C   UNL     1      -8.132   8.374  68.350  1.00  0.00    -0.123 C  
BRANCH  15  16
HETATM   16  C   UNL     1      -8.077   8.642  69.852  1.00  0.00    -0.111 C  
BRANCH  16  17
HETATM   17  C   UNL     1      -7.223   7.628  70.589  1.00  0.00    -0.062 C  
HETATM   18  O   UNL     1      -6.465   6.874  69.982  1.00  0.00    -0.038 OA 
HETATM   19  N   UNL     1      -7.376   7.586  71.951  1.00  0.00    -0.070 N  
HETATM   20  O   UNL     1      -8.152   8.490  72.697  1.00  0.00    -0.310 OA 
BRANCH  19  21
HETATM   21  C   UNL     1      -6.694   6.628  72.809  1.00  0.00    -0.067 C  
BRANCH  21  22
HETATM   22  C   UNL     1      -7.651   5.918  73.770  1.00  0.00    -0.096 C  
BRANCH  22  23
HETATM   23  C   UNL     1      -8.653   4.998  73.048  1.00  0.00    -0.114 C  
BRANCH  23  24
HETATM   24  C   UNL     1      -7.990   4.039  72.058  1.00  0.00    -0.084 C  
BRANCH  24  25
HETATM   25  C   UNL     1      -8.669   4.085  70.691  1.00  0.00    -0.076 C  
BRANCH  25  26
HETATM   26  N   UNL     1      -9.747   5.053  70.662  1.00  0.00    -0.183 N  
HETATM   27  H   UNL     1     -10.074   5.458  71.540  1.00  0.00     0.000 HD 
HETATM   28  C   UNL     1     -10.342   5.441  69.485  1.00  0.00    -0.280 C  
HETATM   29  O   UNL     1     -10.000   5.023  68.383  1.00  0.00    -0.160 OA 
BRANCH  28  30
HETATM   30  C   UNL     1     -11.468   6.430  69.647  1.00  0.00    -0.446 C  
BRANCH  30  31
HETATM   31  C   UNL     1     -11.392   7.067  71.025  1.00  0.00    -0.325 C  
BRANCH  31  32
HETATM   32  C   UNL     1     -12.547   8.022  71.244  1.00  0.00    -0.239 C  
HETATM   33  N   UNL     1     -12.310   9.371  71.131  1.00  0.00    -0.312 N  
HETATM   34  O   UNL     1     -13.678   7.570  71.434  1.00  0.00    -0.370 OA 
HETATM   35  O   UNL     1     -11.010   9.870  71.340  1.00  0.00    -0.287 OA 
BRANCH  33  36
HETATM   36  C   UNL     1     -13.343  10.375  71.395  1.00  0.00    -0.280 C  
BRANCH  36  37
HETATM   37  C   UNL     1     -12.791  11.800  71.331  1.00  0.00    -0.440 C  
BRANCH  37  38
HETATM   38  C   UNL     1     -13.514  12.743  72.299  1.00  0.00    -0.591 C  
BRANCH  38  39
HETATM   39  C   UNL     1     -12.803  14.095  72.409  1.00  0.00    -0.424 C  
BRANCH  39  40
HETATM   40  C   UNL     1     -13.685  15.262  71.964  1.00  0.00    -0.492 C  
HETATM   41  N   UNL     1     -13.500  15.573  70.551  1.00  0.00    -0.820 NA 
HETATM   42  H2  UNL     1     -13.649  14.750  69.967  1.00  0.00     0.000 HD 
HETATM   43  H1  UNL     1     -14.089  16.352  70.254  1.00  0.00     0.000 HD 
ENDBRANCH  39  40
ENDBRANCH  38  39
ENDBRANCH  37  38
ENDBRANCH  36  37
ENDBRANCH  33  36
ENDBRANCH  31  32
ENDBRANCH  30  31
ENDBRANCH  28  30
ENDBRANCH  25  26
ENDBRANCH  24  25
ENDBRANCH  23  24
ENDBRANCH  22  23
ENDBRANCH  21  22
ENDBRANCH  19  21
ENDBRANCH  16  17
ENDBRANCH  15  16
ENDBRANCH  12  15
ENDBRANCH  10  11
ENDBRANCH   9  10
ENDBRANCH   8   9
ENDBRANCH   7   8
ENDBRANCH   6   7
ENDBRANCH   3   6
TORSDOF 23
ENDMDL
MODEL       67
REMARK 921   NORMALIZED FREE ENERGY PREDICTED BY IDOCK:   -5.04 KCAL/MOL
REMARK 922        TOTAL FREE ENERGY PREDICTED BY IDOCK:  -14.58 KCAL/MOL
REMARK 923 INTER-LIGAND FREE ENERGY PREDICTED BY IDOCK:  -12.30 KCAL/MOL
REMARK 924 INTRA-LIGAND FREE ENERGY PREDICTED BY IDOCK:   -2.28 KCAL/MOL
REMARK 927      BINDING AFFINITY PREDICTED BY RF-SCORE:    0.00 PKD
ROOT
HETATM    1  C   UNL     1     -13.495   9.696  72.271  1.00  0.00    -0.488 C  
HETATM    2  C   UNL     1     -13.198   8.308  71.767  1.00  0.00    -0.347 C  
HETATM    3  N   UNL     1     -11.877   7.961  71.651  1.00  0.00    -0.276 N  
HETATM    4  O   UNL     1     -14.117   7.553  71.449  1.00  0.00    -0.415 OA 
HETATM    5  O   UNL     1     -10.812   8.734  72.142  1.00  0.00    -0.354 OA 
ENDROOT
BRANCH   3   6
HETATM    6  C   UNL     1     -11.429   6.664  71.164  1.00  0.00    -0.320 C  
BRANCH   6   7
HETATM    7  C   UNL     1     -10.400   6.787  70.039  1.00  0.00    -0.225 C  
BRANCH   7   8
HETATM    8  C   UNL     1     -10.941   6.167  68.749  1.00  0.00    -0.421 C  
BRANCH   8   9
HETATM    9  C   UNL     1      -9.944   5.196  68.115  1.00  0.00    -0.203 C  
BRANCH   9  10
HETATM   10  C   UNL     1     -10.277   4.895  66.653  1.00  0.00    -0.255 C  
BRANCH  10  11
HETATM   11  N   UNL     1      -9.722   5.885  65.742  1.00  0.00    -0.370 N  
HETATM   12  C   UNL     1      -8.473   5.719  65.185  1.00  0.00    -0.138 C  
HETATM   13  H   UNL     1     -10.267   6.715  65.511  1.00  0.00     0.000 HD 
HETATM   14  O   UNL     1      -7.765   4.734  65.374  1.00  0.00    -0.084 OA 
BRANCH  12  15
HETATM   15  C   UNL     1      -8.058   6.872  64.296  1.00  0.00    -0.040 C  
BRANCH  15  16
HETATM   16  C   UNL     1      -7.165   7.843  65.063  1.00  0.00    -0.062 C  
BRANCH  16  17
HETATM   17  C   UNL     1      -7.959   8.783  65.950  1.00  0.00    -0.104 C  
HETATM   18  O   UNL     1      -8.200   8.500  67.122  1.00  0.00    -0.106 OA 
HETATM   19  N   UNL     1      -8.411   9.935  65.358  1.00  0.00    -0.139 N  
HETATM   20  O   UNL     1      -8.079  10.348  64.056  1.00  0.00    -0.152 OA 
BRANCH  19  21
HETATM   21  C   UNL     1      -9.248  10.913  66.035  1.00  0.00    -0.188 C  
BRANCH  21  22
HETATM   22  C   UNL     1     -10.737  10.564  65.955  1.00  0.00    -0.086 C  
BRANCH  22  23
HETATM   23  C   UNL     1     -11.617  11.770  65.575  1.00  0.00    -0.192 C  
BRANCH  23  24
HETATM   24  C   UNL     1     -11.487  12.174  64.106  1.00  0.00    -0.460 C  
BRANCH  24  25
HETATM   25  C   UNL     1     -11.679  13.677  63.919  1.00  0.00    -0.320 C  
BRANCH  25  26
HETATM   26  N   UNL     1     -10.707  14.439  64.678  1.00  0.00    -0.585 N  
HETATM   27  H   UNL     1      -9.944  13.946  65.141  1.00  0.00     0.000 HD 
HETATM   28  C   UNL     1     -10.786  15.807  64.791  1.00  0.00    -0.344 C  
HETATM   29  O   UNL     1     -11.657  16.482  64.252  1.00  0.00    -0.923 OA 
BRANCH  28  30
HETATM   30  C   UNL     1      -9.712  16.429  65.646  1.00  0.00    -0.165 C  
BRANCH  30  31
HETATM   31  C   UNL     1      -9.414  15.522  66.830  1.00  0.00    -0.244 C  
BRANCH  31  32
HETATM   32  C   UNL     1     -10.203  15.949  68.050  1.00  0.00    -0.238 C  
HETATM   33  N   UNL     1     -11.232  15.145  68.478  1.00  0.00    -0.277 N  
HETATM   34  O   UNL     1      -9.856  16.955  68.672  1.00  0.00    -0.246 OA 
HETATM   35  O   UNL     1     -11.869  14.284  67.565  1.00  0.00    -0.370 OA 
BRANCH  33  36
HETATM   36  C   UNL     1     -12.098  15.508  69.602  1.00  0.00    -0.328 C  
BRANCH  36  37
HETATM   37  C   UNL     1     -12.658  14.278  70.319  1.00  0.00    -0.378 C  
BRANCH  37  38
HETATM   38  C   UNL     1     -13.760  14.646  71.319  1.00  0.00    -0.439 C  
BRANCH  38  39
HETATM   39  C   UNL     1     -13.514  14.008  72.690  1.00  0.00    -0.650 C  
BRANCH  39  40
HETATM   40  C   UNL     1     -12.741  14.927  73.637  1.00  0.00    -0.464 C  
HETATM   41  N   UNL     1     -13.382  16.232  73.766  1.00  0.00    -0.901 NA 
HETATM   42  H2  UNL     1     -14.357  16.140  74.051  1.00  0.00     0.000 HD 
HETATM   43  H1  UNL     1     -12.866  16.845  74.398  1.00  0.00     0.000 HD 
ENDBRANCH  39  40
ENDBRANCH  38  39
ENDBRANCH  37  38
ENDBRANCH  36  37
ENDBRANCH  33  36
ENDBRANCH  31  32
ENDBRANCH  30  31
ENDBRANCH  28  30
ENDBRANCH  25  26
ENDBRANCH  24  25
ENDBRANCH  23  24
ENDBRANCH  22  23
ENDBRANCH  21  22
ENDBRANCH  19  21
ENDBRANCH  16  17
ENDBRANCH  15  16
ENDBRANCH  12  15
ENDBRANCH  10  11
ENDBRANCH   9  10
ENDBRANCH   8   9
ENDBRANCH   7   8
ENDBRANCH   6   7
ENDBRANCH   3   6
TORSDOF 23
ENDMDL
MODEL       68
REMARK 921   NORMALIZED FREE ENERGY PREDICTED BY IDOCK:   -5.02 KCAL/MOL
REMARK 922        TOTAL FREE ENERGY PREDICTED BY IDOCK:  -14.53 KCAL/MOL
REMARK 923 INTER-LIGAND FREE ENERGY PREDICTED BY IDOCK:  -10.86 KCAL/MOL
REMARK 924 INTRA-LIGAND FREE ENERGY PREDICTED BY IDOCK:   -3.67 KCAL/MOL
REMARK 927      BINDING AFFINITY PREDICTED BY RF-SCORE:    0.00 PKD
ROOT
HETATM    1  C   UNL     1      -8.147   4.195  67.177  1.00  0.00    -0.100 C  
HETATM    2  C   UNL     1      -9.091   5.337  66.905  1.00  0.00    -0.113 C  
HETATM    3  N   UNL     1      -9.092   6.367  67.809  1.00  0.00    -0.113 N  
HETATM    4  O   UNL     1      -9.840   5.305  65.928  1.00  0.00    -0.152 OA 
HETATM    5  O   UNL     1      -8.153   6.510  68.845  1.00  0.00    -0.113 OA 
ENDROOT
BRANCH   3   6
HETATM    6  C   UNL     1      -9.957   7.533  67.695  1.00  0.00    -0.171 C  
BRANCH   6   7
HETATM    7  C   UNL     1      -9.174   8.847  67.741  1.00  0.00    -0.153 C  
BRANCH   7   8
HETATM    8  C   UNL     1      -9.895   9.927  66.933  1.00  0.00    -0.252 C  
BRANCH   8   9
HETATM    9  C   UNL     1      -9.704  11.320  67.536  1.00  0.00    -0.192 C  
BRANCH   9  10
HETATM   10  C   UNL     1      -8.303  11.877  67.281  1.00  0.00    -0.169 C  
BRANCH  10  11
HETATM   11  N   UNL     1      -8.329  13.255  66.814  1.00  0.00    -0.419 N  
HETATM   12  C   UNL     1      -7.661  14.249  67.494  1.00  0.00    -0.191 C  
HETATM   13  H   UNL     1      -8.850  13.488  65.969  1.00  0.00     0.000 HD 
HETATM   14  O   UNL     1      -6.978  14.055  68.495  1.00  0.00    -0.088 OA 
BRANCH  12  15
HETATM   15  C   UNL     1      -7.840  15.619  66.874  1.00  0.00    -0.258 C  
BRANCH  15  16
HETATM   16  C   UNL     1      -6.607  16.483  67.124  1.00  0.00    -0.229 C  
BRANCH  16  17
HETATM   17  C   UNL     1      -6.959  17.838  67.707  1.00  0.00    -0.187 C  
HETATM   18  O   UNL     1      -7.040  18.006  68.922  1.00  0.00    -0.263 OA 
HETATM   19  N   UNL     1      -7.208  18.839  66.803  1.00  0.00    -0.209 N  
HETATM   20  O   UNL     1      -7.032  18.723  65.413  1.00  0.00    -0.481 OA 
BRANCH  19  21
HETATM   21  C   UNL     1      -7.631  20.179  67.181  1.00  0.00    -0.299 C  
BRANCH  21  22
HETATM   22  C   UNL     1      -9.118  20.422  66.910  1.00  0.00    -0.412 C  
BRANCH  22  23
HETATM   23  C   UNL     1     -10.032  19.817  67.992  1.00  0.00    -0.553 C  
BRANCH  23  24
HETATM   24  C   UNL     1     -10.831  18.609  67.501  1.00  0.00    -0.373 C  
BRANCH  24  25
HETATM   25  C   UNL     1     -10.578  17.378  68.369  1.00  0.00    -0.355 C  
BRANCH  25  26
HETATM   26  N   UNL     1     -11.148  16.182  67.782  1.00  0.00    -0.297 N  
HETATM   27  H   UNL     1     -11.501  16.220  66.826  1.00  0.00     0.000 HD 
HETATM   28  C   UNL     1     -11.227  14.999  68.478  1.00  0.00    -0.287 C  
HETATM   29  O   UNL     1     -10.810  14.858  69.623  1.00  0.00    -0.255 OA 
BRANCH  28  30
HETATM   30  C   UNL     1     -11.880  13.870  67.723  1.00  0.00    -0.415 C  
BRANCH  30  31
HETATM   31  C   UNL     1     -12.416  14.386  66.397  1.00  0.00    -0.196 C  
BRANCH  31  32
HETATM   32  C   UNL     1     -11.594  13.858  65.240  1.00  0.00    -0.327 C  
HETATM   33  N   UNL     1     -12.198  13.015  64.339  1.00  0.00    -0.398 N  
HETATM   34  O   UNL     1     -10.437  14.258  65.088  1.00  0.00    -0.360 OA 
HETATM   35  O   UNL     1     -13.316  12.257  64.737  1.00  0.00    -0.631 OA 
BRANCH  33  36
HETATM   36  C   UNL     1     -11.469  12.395  63.231  1.00  0.00    -0.351 C  
BRANCH  36  37
HETATM   37  C   UNL     1     -10.754  11.111  63.656  1.00  0.00    -0.381 C  
BRANCH  37  38
HETATM   38  C   UNL     1      -9.360  10.992  63.030  1.00  0.00    -0.363 C  
BRANCH  38  39
HETATM   39  C   UNL     1      -9.003   9.536  62.719  1.00  0.00    -0.243 C  
BRANCH  39  40
HETATM   40  C   UNL     1      -8.045   8.932  63.748  1.00  0.00    -0.163 C  
HETATM   41  N   UNL     1      -8.567   7.691  64.310  1.00  0.00    -0.348 NA 
HETATM   42  H2  UNL     1      -8.797   7.020  63.578  1.00  0.00     0.000 HD 
HETATM   43  H1  UNL     1      -7.928   7.289  64.996  1.00  0.00     0.000 HD 
ENDBRANCH  39  40
ENDBRANCH  38  39
ENDBRANCH  37  38
ENDBRANCH  36  37
ENDBRANCH  33  36
ENDBRANCH  31  32
ENDBRANCH  30  31
ENDBRANCH  28  30
ENDBRANCH  25  26
ENDBRANCH  24  25
ENDBRANCH  23  24
ENDBRANCH  22  23
ENDBRANCH  21  22
ENDBRANCH  19  21
ENDBRANCH  16  17
ENDBRANCH  15  16
ENDBRANCH  12  15
ENDBRANCH  10  11
ENDBRANCH   9  10
ENDBRANCH   8   9
ENDBRANCH   7   8
ENDBRANCH   6   7
ENDBRANCH   3   6
TORSDOF 23
ENDMDL
MODEL       69
REMARK 921   NORMALIZED FREE ENERGY PREDICTED BY IDOCK:   -5.02 KCAL/MOL
REMARK 922        TOTAL FREE ENERGY PREDICTED BY IDOCK:  -14.52 KCAL/MOL
REMARK 923 INTER-LIGAND FREE ENERGY PREDICTED BY IDOCK:  -12.48 KCAL/MOL
REMARK 924 INTRA-LIGAND FREE ENERGY PREDICTED BY IDOCK:   -2.04 KCAL/MOL
REMARK 927      BINDING AFFINITY PREDICTED BY RF-SCORE:    0.00 PKD
ROOT
HETATM    1  C   UNL     1     -12.428  12.192  63.379  1.00  0.00    -0.625 C  
HETATM    2  C   UNL     1     -11.822  11.907  64.728  1.00  0.00    -0.186 C  
HETATM    3  N   UNL     1     -10.724  11.088  64.754  1.00  0.00    -0.280 N  
HETATM    4  O   UNL     1     -12.331  12.375  65.748  1.00  0.00    -0.644 OA 
HETATM    5  O   UNL     1     -10.030  10.662  63.609  1.00  0.00    -0.319 OA 
ENDROOT
BRANCH   3   6
HETATM    6  C   UNL     1     -10.036  10.707  65.980  1.00  0.00    -0.250 C  
BRANCH   6   7
HETATM    7  C   UNL     1      -9.789   9.200  66.065  1.00  0.00    -0.342 C  
BRANCH   7   8
HETATM    8  C   UNL     1     -10.594   8.591  67.215  1.00  0.00    -0.315 C  
BRANCH   8   9
HETATM    9  C   UNL     1      -9.965   7.297  67.736  1.00  0.00    -0.205 C  
BRANCH   9  10
HETATM   10  C   UNL     1     -11.015   6.286  68.198  1.00  0.00    -0.323 C  
BRANCH  10  11
HETATM   11  N   UNL     1     -11.662   6.684  69.439  1.00  0.00    -0.648 N  
HETATM   12  C   UNL     1     -11.233   6.196  70.653  1.00  0.00    -0.319 C  
HETATM   13  H   UNL     1     -12.445   7.336  69.409  1.00  0.00     0.000 HD 
HETATM   14  O   UNL     1     -10.275   5.440  70.788  1.00  0.00    -0.213 OA 
BRANCH  12  15
HETATM   15  C   UNL     1     -12.056   6.696  71.822  1.00  0.00    -0.400 C  
BRANCH  15  16
HETATM   16  C   UNL     1     -13.303   7.423  71.325  1.00  0.00    -0.338 C  
BRANCH  16  17
HETATM   17  C   UNL     1     -13.415   8.828  71.885  1.00  0.00    -0.404 C  
HETATM   18  O   UNL     1     -14.264   9.111  72.728  1.00  0.00    -0.552 OA 
HETATM   19  N   UNL     1     -12.543   9.754  71.373  1.00  0.00    -0.357 N  
HETATM   20  O   UNL     1     -11.494   9.459  70.485  1.00  0.00    -0.263 OA 
BRANCH  19  21
HETATM   21  C   UNL     1     -12.557  11.162  71.740  1.00  0.00    -0.177 C  
BRANCH  21  22
HETATM   22  C   UNL     1     -13.003  12.063  70.585  1.00  0.00     0.106 C  
BRANCH  22  23
HETATM   23  C   UNL     1     -11.824  12.737  69.857  1.00  0.00    -0.371 C  
BRANCH  23  24
HETATM   24  C   UNL     1     -11.911  14.263  69.850  1.00  0.00    -0.397 C  
BRANCH  24  25
HETATM   25  C   UNL     1     -12.023  14.812  68.429  1.00  0.00    -0.235 C  
BRANCH  25  26
HETATM   26  N   UNL     1     -11.048  15.854  68.179  1.00  0.00    -0.331 N  
HETATM   27  H   UNL     1     -10.862  16.543  68.909  1.00  0.00     0.000 HD 
HETATM   28  C   UNL     1     -10.368  15.942  66.988  1.00  0.00    -0.297 C  
HETATM   29  O   UNL     1     -10.514  15.146  66.065  1.00  0.00    -0.290 OA 
BRANCH  28  30
HETATM   30  C   UNL     1      -9.418  17.108  66.891  1.00  0.00    -0.267 C  
BRANCH  30  31
HETATM   31  C   UNL     1      -8.533  17.149  68.127  1.00  0.00    -0.227 C  
BRANCH  31  32
HETATM   32  C   UNL     1      -8.278  18.576  68.563  1.00  0.00    -0.335 C  
HETATM   33  N   UNL     1      -7.040  18.895  69.064  1.00  0.00    -0.315 N  
HETATM   34  O   UNL     1      -9.151  19.428  68.383  1.00  0.00    -0.336 OA 
HETATM   35  O   UNL     1      -6.243  17.890  69.644  1.00  0.00    -0.245 OA 
BRANCH  33  36
HETATM   36  C   UNL     1      -6.719  20.228  69.579  1.00  0.00    -0.131 C  
BRANCH  36  37
HETATM   37  C   UNL     1      -5.463  20.811  68.928  1.00  0.00    -0.385 C  
BRANCH  37  38
HETATM   38  C   UNL     1      -5.142  20.139  67.589  1.00  0.00    -0.188 C  
BRANCH  38  39
HETATM   39  C   UNL     1      -5.573  21.007  66.403  1.00  0.00    -0.271 C  
BRANCH  39  40
HETATM   40  C   UNL     1      -6.544  20.284  65.468  1.00  0.00    -0.265 C  
HETATM   41  N   UNL     1      -7.925  20.405  65.923  1.00  0.00    -0.540 NA 
HETATM   42  H2  UNL     1      -8.190  21.382  66.051  1.00  0.00     0.000 HD 
HETATM   43  H1  UNL     1      -8.572  19.923  65.299  1.00  0.00     0.000 HD 
ENDBRANCH  39  40
ENDBRANCH  38  39
ENDBRANCH  37  38
ENDBRANCH  36  37
ENDBRANCH  33  36
ENDBRANCH  31  32
ENDBRANCH  30  31
ENDBRANCH  28  30
ENDBRANCH  25  26
ENDBRANCH  24  25
ENDBRANCH  23  24
ENDBRANCH  22  23
ENDBRANCH  21  22
ENDBRANCH  19  21
ENDBRANCH  16  17
ENDBRANCH  15  16
ENDBRANCH  12  15
ENDBRANCH  10  11
ENDBRANCH   9  10
ENDBRANCH   8   9
ENDBRANCH   7   8
ENDBRANCH   6   7
ENDBRANCH   3   6
TORSDOF 23
ENDMDL
MODEL       70
REMARK 921   NORMALIZED FREE ENERGY PREDICTED BY IDOCK:   -5.01 KCAL/MOL
REMARK 922        TOTAL FREE ENERGY PREDICTED BY IDOCK:  -14.51 KCAL/MOL
REMARK 923 INTER-LIGAND FREE ENERGY PREDICTED BY IDOCK:  -12.29 KCAL/MOL
REMARK 924 INTRA-LIGAND FREE ENERGY PREDICTED BY IDOCK:   -2.22 KCAL/MOL
REMARK 927      BINDING AFFINITY PREDICTED BY RF-SCORE:    0.00 PKD
ROOT
HETATM    1  C   UNL     1      -8.701   4.451  73.345  1.00  0.00    -0.099 C  
HETATM    2  C   UNL     1      -9.935   5.314  73.314  1.00  0.00    -0.165 C  
HETATM    3  N   UNL     1     -10.598   5.403  72.118  1.00  0.00    -0.222 N  
HETATM    4  O   UNL     1     -10.291   5.925  74.322  1.00  0.00    -0.272 OA 
HETATM    5  O   UNL     1     -10.313   4.607  70.996  1.00  0.00    -0.176 OA 
ENDROOT
BRANCH   3   6
HETATM    6  C   UNL     1     -11.796   6.208  71.924  1.00  0.00    -0.257 C  
BRANCH   6   7
HETATM    7  C   UNL     1     -11.571   7.361  70.944  1.00  0.00    -0.318 C  
BRANCH   7   8
HETATM    8  C   UNL     1     -10.912   8.545  71.654  1.00  0.00    -0.362 C  
BRANCH   8   9
HETATM    9  C   UNL     1     -11.575   9.875  71.291  1.00  0.00    -0.456 C  
BRANCH   9  10
HETATM   10  C   UNL     1     -13.037   9.935  71.737  1.00  0.00    -0.452 C  
BRANCH  10  11
HETATM   11  N   UNL     1     -13.373  11.201  72.371  1.00  0.00    -0.455 N  
HETATM   12  C   UNL     1     -13.065  12.402  71.771  1.00  0.00    -0.342 C  
HETATM   13  H   UNL     1     -13.845  11.199  73.275  1.00  0.00     0.000 HD 
HETATM   14  O   UNL     1     -12.534  12.500  70.669  1.00  0.00    -0.319 OA 
BRANCH  12  15
HETATM   15  C   UNL     1     -13.460  13.603  72.603  1.00  0.00    -0.608 C  
BRANCH  15  16
HETATM   16  C   UNL     1     -12.457  14.738  72.412  1.00  0.00    -0.410 C  
BRANCH  16  17
HETATM   17  C   UNL     1     -12.662  15.477  71.104  1.00  0.00    -0.463 C  
HETATM   18  O   UNL     1     -13.781  15.838  70.746  1.00  0.00    -0.423 OA 
HETATM   19  N   UNL     1     -11.539  15.684  70.344  1.00  0.00    -0.317 N  
HETATM   20  O   UNL     1     -10.229  15.380  70.754  1.00  0.00    -0.026 OA 
BRANCH  19  21
HETATM   21  C   UNL     1     -11.560  16.309  69.030  1.00  0.00    -0.231 C  
BRANCH  21  22
HETATM   22  C   UNL     1     -11.452  15.287  67.895  1.00  0.00    -0.325 C  
BRANCH  22  23
HETATM   23  C   UNL     1     -10.097  15.344  67.164  1.00  0.00    -0.245 C  
BRANCH  23  24
HETATM   24  C   UNL     1     -10.067  16.362  66.024  1.00  0.00    -0.373 C  
BRANCH  24  25
HETATM   25  C   UNL     1     -11.135  16.061  64.974  1.00  0.00    -0.336 C  
BRANCH  25  26
HETATM   26  N   UNL     1     -11.066  14.687  64.519  1.00  0.00    -0.610 N  
HETATM   27  H   UNL     1     -10.180  14.327  64.163  1.00  0.00     0.000 HD 
HETATM   28  C   UNL     1     -12.160  13.855  64.554  1.00  0.00    -0.443 C  
HETATM   29  O   UNL     1     -13.257  14.197  64.984  1.00  0.00    -0.691 OA 
BRANCH  28  30
HETATM   30  C   UNL     1     -11.913  12.471  64.010  1.00  0.00    -0.536 C  
BRANCH  30  31
HETATM   31  C   UNL     1     -10.613  11.925  64.577  1.00  0.00    -0.358 C  
BRANCH  31  32
HETATM   32  C   UNL     1     -10.835  11.309  65.942  1.00  0.00    -0.202 C  
HETATM   33  N   UNL     1     -10.006  10.289  66.342  1.00  0.00    -0.219 N  
HETATM   34  O   UNL     1     -11.692  11.786  66.689  1.00  0.00    -0.548 OA 
HETATM   35  O   UNL     1      -9.356   9.499  65.374  1.00  0.00    -0.229 OA 
BRANCH  33  36
HETATM   36  C   UNL     1     -10.185   9.581  67.611  1.00  0.00    -0.220 C  
BRANCH  36  37
HETATM   37  C   UNL     1      -9.517   8.205  67.604  1.00  0.00    -0.172 C  
BRANCH  37  38
HETATM   38  C   UNL     1      -8.518   8.042  68.754  1.00  0.00    -0.127 C  
BRANCH  38  39
HETATM   39  C   UNL     1      -8.219   6.567  69.039  1.00  0.00    -0.116 C  
BRANCH  39  40
HETATM   40  C   UNL     1      -7.318   6.375  70.260  1.00  0.00    -0.089 C  
HETATM   41  N   UNL     1      -7.531   7.417  71.259  1.00  0.00    -0.080 NA 
HETATM   42  H2  UNL     1      -8.513   7.479  71.527  1.00  0.00     0.000 HD 
HETATM   43  H1  UNL     1      -6.930   7.289  72.073  1.00  0.00     0.000 HD 
ENDBRANCH  39  40
ENDBRANCH  38  39
ENDBRANCH  37  38
ENDBRANCH  36  37
ENDBRANCH  33  36
ENDBRANCH  31  32
ENDBRANCH  30  31
ENDBRANCH  28  30
ENDBRANCH  25  26
ENDBRANCH  24  25
ENDBRANCH  23  24
ENDBRANCH  22  23
ENDBRANCH  21  22
ENDBRANCH  19  21
ENDBRANCH  16  17
ENDBRANCH  15  16
ENDBRANCH  12  15
ENDBRANCH  10  11
ENDBRANCH   9  10
ENDBRANCH   8   9
ENDBRANCH   7   8
ENDBRANCH   6   7
ENDBRANCH   3   6
TORSDOF 23
ENDMDL
MODEL       71
REMARK 921   NORMALIZED FREE ENERGY PREDICTED BY IDOCK:   -5.01 KCAL/MOL
REMARK 922        TOTAL FREE ENERGY PREDICTED BY IDOCK:  -14.50 KCAL/MOL
REMARK 923 INTER-LIGAND FREE ENERGY PREDICTED BY IDOCK:  -11.54 KCAL/MOL
REMARK 924 INTRA-LIGAND FREE ENERGY PREDICTED BY IDOCK:   -2.96 KCAL/MOL
REMARK 927      BINDING AFFINITY PREDICTED BY RF-SCORE:    0.00 PKD
ROOT
HETATM    1  C   UNL     1      -7.537  12.262  67.213  1.00  0.00    -0.152 C  
HETATM    2  C   UNL     1      -8.206  13.428  67.892  1.00  0.00    -0.162 C  
HETATM    3  N   UNL     1      -7.398  14.461  68.287  1.00  0.00    -0.111 N  
HETATM    4  O   UNL     1      -9.420  13.412  68.100  1.00  0.00    -0.208 OA 
HETATM    5  O   UNL     1      -6.043  14.583  67.936  1.00  0.00    -0.141 OA 
ENDROOT
BRANCH   3   6
HETATM    6  C   UNL     1      -7.891  15.650  68.970  1.00  0.00    -0.204 C  
BRANCH   6   7
HETATM    7  C   UNL     1      -7.973  16.863  68.042  1.00  0.00    -0.185 C  
BRANCH   7   8
HETATM    8  C   UNL     1      -9.354  16.946  67.390  1.00  0.00    -0.235 C  
BRANCH   8   9
HETATM    9  C   UNL     1      -9.406  16.203  66.054  1.00  0.00    -0.368 C  
BRANCH   9  10
HETATM   10  C   UNL     1     -10.840  15.936  65.595  1.00  0.00    -0.284 C  
BRANCH  10  11
HETATM   11  N   UNL     1     -10.932  14.794  64.697  1.00  0.00    -0.596 N  
HETATM   12  C   UNL     1     -12.094  14.064  64.589  1.00  0.00    -0.440 C  
HETATM   13  H   UNL     1     -10.121  14.531  64.137  1.00  0.00     0.000 HD 
HETATM   14  O   UNL     1     -13.129  14.332  65.193  1.00  0.00    -0.704 OA 
BRANCH  12  15
HETATM   15  C   UNL     1     -11.979  12.895  63.635  1.00  0.00    -0.613 C  
BRANCH  15  16
HETATM   16  C   UNL     1     -11.432  11.667  64.357  1.00  0.00    -0.302 C  
BRANCH  16  17
HETATM   17  C   UNL     1     -10.155  11.145  63.726  1.00  0.00    -0.361 C  
HETATM   18  O   UNL     1      -9.692  11.660  62.710  1.00  0.00    -0.321 OA 
HETATM   19  N   UNL     1      -9.580  10.058  64.333  1.00  0.00    -0.296 N  
HETATM   20  O   UNL     1     -10.015   9.498  65.547  1.00  0.00    -0.304 OA 
BRANCH  19  21
HETATM   21  C   UNL     1      -8.397   9.383  63.823  1.00  0.00    -0.183 C  
BRANCH  21  22
HETATM   22  C   UNL     1      -7.098  10.018  64.326  1.00  0.00    -0.130 C  
BRANCH  22  23
HETATM   23  C   UNL     1      -6.209   9.032  65.107  1.00  0.00    -0.060 C  
BRANCH  23  24
HETATM   24  C   UNL     1      -6.865   7.666  65.320  1.00  0.00    -0.048 C  
BRANCH  24  25
HETATM   25  C   UNL     1      -6.775   7.223  66.779  1.00  0.00    -0.061 C  
BRANCH  25  26
HETATM   26  N   UNL     1      -7.348   8.208  67.674  1.00  0.00    -0.091 N  
HETATM   27  H   UNL     1      -6.812   9.046  67.896  1.00  0.00     0.000 HD 
HETATM   28  C   UNL     1      -8.594   8.043  68.231  1.00  0.00    -0.130 C  
HETATM   29  O   UNL     1      -9.316   7.077  68.004  1.00  0.00    -0.129 OA 
BRANCH  28  30
HETATM   30  C   UNL     1      -9.015   9.150  69.164  1.00  0.00    -0.144 C  
BRANCH  30  31
HETATM   31  C   UNL     1     -10.498   9.433  68.982  1.00  0.00    -0.233 C  
BRANCH  31  32
HETATM   32  C   UNL     1     -11.119   9.915  70.276  1.00  0.00    -0.308 C  
HETATM   33  N   UNL     1     -12.129  10.844  70.211  1.00  0.00    -0.324 N  
HETATM   34  O   UNL     1     -10.764   9.407  71.342  1.00  0.00    -0.332 OA 
HETATM   35  O   UNL     1     -12.221  11.695  69.093  1.00  0.00    -0.275 OA 
BRANCH  33  36
HETATM   36  C   UNL     1     -12.742  11.424  71.407  1.00  0.00    -0.384 C  
BRANCH  36  37
HETATM   37  C   UNL     1     -13.008  12.923  71.251  1.00  0.00    -0.317 C  
BRANCH  37  38
HETATM   38  C   UNL     1     -13.499  13.561  72.554  1.00  0.00    -0.660 C  
BRANCH  38  39
HETATM   39  C   UNL     1     -13.937  15.013  72.343  1.00  0.00    -0.593 C  
BRANCH  39  40
HETATM   40  C   UNL     1     -13.138  15.999  73.197  1.00  0.00    -0.533 C  
HETATM   41  N   UNL     1     -12.186  15.314  74.065  1.00  0.00    -0.619 NA 
HETATM   42  H2  UNL     1     -11.570  14.701  73.530  1.00  0.00     0.000 HD 
HETATM   43  H1  UNL     1     -11.653  15.972  74.634  1.00  0.00     0.000 HD 
ENDBRANCH  39  40
ENDBRANCH  38  39
ENDBRANCH  37  38
ENDBRANCH  36  37
ENDBRANCH  33  36
ENDBRANCH  31  32
ENDBRANCH  30  31
ENDBRANCH  28  30
ENDBRANCH  25  26
ENDBRANCH  24  25
ENDBRANCH  23  24
ENDBRANCH  22  23
ENDBRANCH  21  22
ENDBRANCH  19  21
ENDBRANCH  16  17
ENDBRANCH  15  16
ENDBRANCH  12  15
ENDBRANCH  10  11
ENDBRANCH   9  10
ENDBRANCH   8   9
ENDBRANCH   7   8
ENDBRANCH   6   7
ENDBRANCH   3   6
TORSDOF 23
ENDMDL
MODEL       72
REMARK 921   NORMALIZED FREE ENERGY PREDICTED BY IDOCK:   -5.01 KCAL/MOL
REMARK 922        TOTAL FREE ENERGY PREDICTED BY IDOCK:  -14.50 KCAL/MOL
REMARK 923 INTER-LIGAND FREE ENERGY PREDICTED BY IDOCK:  -10.94 KCAL/MOL
REMARK 924 INTRA-LIGAND FREE ENERGY PREDICTED BY IDOCK:   -3.56 KCAL/MOL
REMARK 927      BINDING AFFINITY PREDICTED BY RF-SCORE:    0.00 PKD
ROOT
HETATM    1  C   UNL     1     -10.470  18.836  68.054  1.00  0.00    -0.410 C  
HETATM    2  C   UNL     1     -10.146  18.095  66.783  1.00  0.00    -0.362 C  
HETATM    3  N   UNL     1     -10.376  16.744  66.780  1.00  0.00    -0.300 N  
HETATM    4  O   UNL     1      -9.668  18.693  65.819  1.00  0.00    -0.457 OA 
HETATM    5  O   UNL     1     -11.057  16.056  67.798  1.00  0.00    -0.327 OA 
ENDROOT
BRANCH   3   6
HETATM    6  C   UNL     1     -10.099  15.886  65.635  1.00  0.00    -0.358 C  
BRANCH   6   7
HETATM    7  C   UNL     1     -11.247  15.875  64.624  1.00  0.00    -0.361 C  
BRANCH   7   8
HETATM    8  C   UNL     1     -11.723  14.444  64.371  1.00  0.00    -0.390 C  
BRANCH   8   9
HETATM    9  C   UNL     1     -12.616  13.926  65.501  1.00  0.00    -0.560 C  
BRANCH   9  10
HETATM   10  C   UNL     1     -11.902  12.898  66.379  1.00  0.00    -0.415 C  
BRANCH  10  11
HETATM   11  N   UNL     1     -11.457  11.736  65.624  1.00  0.00    -0.249 N  
HETATM   12  C   UNL     1     -10.117  11.471  65.447  1.00  0.00    -0.260 C  
HETATM   13  H   UNL     1     -12.150  11.106  65.219  1.00  0.00     0.000 HD 
HETATM   14  O   UNL     1      -9.216  12.150  65.931  1.00  0.00    -0.182 OA 
BRANCH  12  15
HETATM   15  C   UNL     1      -9.857  10.242  64.603  1.00  0.00    -0.396 C  
BRANCH  15  16
HETATM   16  C   UNL     1      -8.489   9.649  64.930  1.00  0.00    -0.161 C  
BRANCH  16  17
HETATM   17  C   UNL     1      -8.572   8.528  65.948  1.00  0.00    -0.163 C  
HETATM   18  O   UNL     1      -9.648   8.004  66.230  1.00  0.00    -0.206 OA 
HETATM   19  N   UNL     1      -7.393   8.166  66.546  1.00  0.00    -0.080 N  
HETATM   20  O   UNL     1      -6.128   8.663  66.186  1.00  0.00    -0.047 OA 
BRANCH  19  21
HETATM   21  C   UNL     1      -7.297   7.163  67.596  1.00  0.00    -0.093 C  
BRANCH  21  22
HETATM   22  C   UNL     1      -6.599   5.885  67.123  1.00  0.00    -0.056 C  
BRANCH  22  23
HETATM   23  C   UNL     1      -7.472   4.627  67.290  1.00  0.00    -0.085 C  
BRANCH  23  24
HETATM   24  C   UNL     1      -8.757   4.668  66.462  1.00  0.00    -0.111 C  
BRANCH  24  25
HETATM   25  C   UNL     1      -9.993   4.459  67.334  1.00  0.00    -0.094 C  
BRANCH  25  26
HETATM   26  N   UNL     1      -9.748   4.844  68.710  1.00  0.00    -0.156 N  
HETATM   27  H   UNL     1      -9.008   4.374  69.231  1.00  0.00     0.000 HD 
HETATM   28  C   UNL     1     -10.486   5.823  69.332  1.00  0.00    -0.290 C  
HETATM   29  O   UNL     1     -11.382   6.452  68.777  1.00  0.00    -0.327 OA 
BRANCH  28  30
HETATM   30  C   UNL     1     -10.117   6.067  70.773  1.00  0.00    -0.248 C  
BRANCH  30  31
HETATM   31  C   UNL     1     -11.368   6.017  71.636  1.00  0.00    -0.313 C  
BRANCH  31  32
HETATM   32  C   UNL     1     -11.761   7.404  72.099  1.00  0.00    -0.290 C  
HETATM   33  N   UNL     1     -13.071   7.794  71.956  1.00  0.00    -0.251 N  
HETATM   34  O   UNL     1     -10.924   8.113  72.662  1.00  0.00    -0.351 OA 
HETATM   35  O   UNL     1     -13.875   7.188  70.972  1.00  0.00    -0.214 OA 
BRANCH  33  36
HETATM   36  C   UNL     1     -13.533   9.138  72.306  1.00  0.00    -0.486 C  
BRANCH  36  37
HETATM   37  C   UNL     1     -13.560  10.073  71.095  1.00  0.00    -0.198 C  
BRANCH  37  38
HETATM   38  C   UNL     1     -12.480  11.157  71.179  1.00  0.00    -0.498 C  
BRANCH  38  39
HETATM   39  C   UNL     1     -11.693  11.273  69.870  1.00  0.00    -0.430 C  
BRANCH  39  40
HETATM   40  C   UNL     1     -10.937   9.989  69.523  1.00  0.00    -0.253 C  
HETATM   41  N   UNL     1     -11.244   9.530  68.172  1.00  0.00    -0.509 NA 
HETATM   42  H2  UNL     1     -11.071  10.262  67.483  1.00  0.00     0.000 HD 
HETATM   43  H1  UNL     1     -10.740   8.674  67.940  1.00  0.00     0.000 HD 
ENDBRANCH  39  40
ENDBRANCH  38  39
ENDBRANCH  37  38
ENDBRANCH  36  37
ENDBRANCH  33  36
ENDBRANCH  31  32
ENDBRANCH  30  31
ENDBRANCH  28  30
ENDBRANCH  25  26
ENDBRANCH  24  25
ENDBRANCH  23  24
ENDBRANCH  22  23
ENDBRANCH  21  22
ENDBRANCH  19  21
ENDBRANCH  16  17
ENDBRANCH  15  16
ENDBRANCH  12  15
ENDBRANCH  10  11
ENDBRANCH   9  10
ENDBRANCH   8   9
ENDBRANCH   7   8
ENDBRANCH   6   7
ENDBRANCH   3   6
TORSDOF 23
ENDMDL
MODEL       73
REMARK 921   NORMALIZED FREE ENERGY PREDICTED BY IDOCK:   -5.01 KCAL/MOL
REMARK 922        TOTAL FREE ENERGY PREDICTED BY IDOCK:  -14.50 KCAL/MOL
REMARK 923 INTER-LIGAND FREE ENERGY PREDICTED BY IDOCK:  -11.68 KCAL/MOL
REMARK 924 INTRA-LIGAND FREE ENERGY PREDICTED BY IDOCK:   -2.81 KCAL/MOL
REMARK 927      BINDING AFFINITY PREDICTED BY RF-SCORE:    0.00 PKD
ROOT
HETATM    1  C   UNL     1      -7.126   9.562  68.924  1.00  0.00    -0.067 C  
HETATM    2  C   UNL     1      -8.521  10.039  68.619  1.00  0.00    -0.118 C  
HETATM    3  N   UNL     1      -8.637  11.258  68.003  1.00  0.00    -0.134 N  
HETATM    4  O   UNL     1      -9.496   9.362  68.948  1.00  0.00    -0.150 OA 
HETATM    5  O   UNL     1      -7.555  11.984  67.479  1.00  0.00    -0.127 OA 
ENDROOT
BRANCH   3   6
HETATM    6  C   UNL     1      -9.916  11.863  67.657  1.00  0.00    -0.189 C  
BRANCH   6   7
HETATM    7  C   UNL     1     -10.091  12.033  66.146  1.00  0.00    -0.252 C  
BRANCH   7   8
HETATM    8  C   UNL     1     -10.443  10.694  65.495  1.00  0.00    -0.246 C  
BRANCH   8   9
HETATM    9  C   UNL     1      -9.287  10.139  64.660  1.00  0.00    -0.334 C  
BRANCH   9  10
HETATM   10  C   UNL     1      -8.859   8.745  65.117  1.00  0.00    -0.133 C  
BRANCH  10  11
HETATM   11  N   UNL     1      -9.782   8.169  66.083  1.00  0.00    -0.446 N  
HETATM   12  C   UNL     1      -9.749   6.826  66.387  1.00  0.00    -0.064 C  
HETATM   13  H   UNL     1     -10.465   8.770  66.543  1.00  0.00     0.000 HD 
HETATM   14  O   UNL     1      -8.937   6.036  65.914  1.00  0.00    -0.156 OA 
BRANCH  12  15
HETATM   15  C   UNL     1     -10.812   6.413  67.384  1.00  0.00    -0.457 C  
BRANCH  15  16
HETATM   16  C   UNL     1     -10.168   5.858  68.652  1.00  0.00    -0.243 C  
BRANCH  16  17
HETATM   17  C   UNL     1     -10.846   6.361  69.912  1.00  0.00    -0.310 C  
HETATM   18  O   UNL     1     -12.071   6.374  70.013  1.00  0.00    -0.228 OA 
HETATM   19  N   UNL     1     -10.017   6.822  70.902  1.00  0.00    -0.186 N  
HETATM   20  O   UNL     1      -8.614   6.736  70.873  1.00  0.00    -0.135 OA 
BRANCH  19  21
HETATM   21  C   UNL     1     -10.494   7.407  72.145  1.00  0.00    -0.209 C  
BRANCH  21  22
HETATM   22  C   UNL     1     -10.982   8.848  71.965  1.00  0.00    -0.412 C  
BRANCH  22  23
HETATM   23  C   UNL     1     -12.503   8.995  72.158  1.00  0.00    -0.450 C  
BRANCH  23  24
HETATM   24  C   UNL     1     -12.995  10.435  72.006  1.00  0.00    -0.499 C  
BRANCH  24  25
HETATM   25  C   UNL     1     -12.680  10.992  70.619  1.00  0.00    -0.288 C  
BRANCH  25  26
HETATM   26  N   UNL     1     -12.140  12.335  70.691  1.00  0.00    -0.484 N  
HETATM   27  H   UNL     1     -11.331  12.575  70.119  1.00  0.00     0.000 HD 
HETATM   28  C   UNL     1     -12.688  13.294  71.510  1.00  0.00    -0.281 C  
HETATM   29  O   UNL     1     -13.673  13.100  72.216  1.00  0.00    -0.550 OA 
BRANCH  28  30
HETATM   30  C   UNL     1     -11.977  14.623  71.483  1.00  0.00    -0.400 C  
BRANCH  30  31
HETATM   31  C   UNL     1     -12.534  15.476  70.354  1.00  0.00    -0.443 C  
BRANCH  31  32
HETATM   32  C   UNL     1     -11.847  15.154  69.043  1.00  0.00    -0.304 C  
HETATM   33  N   UNL     1     -10.721  15.864  68.704  1.00  0.00    -0.260 N  
HETATM   34  O   UNL     1     -12.262  14.217  68.358  1.00  0.00    -0.299 OA 
HETATM   35  O   UNL     1     -10.520  17.150  69.241  1.00  0.00    -0.337 OA 
BRANCH  33  36
HETATM   36  C   UNL     1     -10.028  15.677  67.427  1.00  0.00    -0.232 C  
BRANCH  36  37
HETATM   37  C   UNL     1     -10.016  16.954  66.585  1.00  0.00    -0.302 C  
BRANCH  37  38
HETATM   38  C   UNL     1     -10.813  16.796  65.286  1.00  0.00    -0.148 C  
BRANCH  38  39
HETATM   39  C   UNL     1     -11.004  15.322  64.916  1.00  0.00    -0.445 C  
BRANCH  39  40
HETATM   40  C   UNL     1     -12.386  15.039  64.325  1.00  0.00    -0.226 C  
HETATM   41  N   UNL     1     -12.368  13.882  63.436  1.00  0.00    -1.139 NA 
HETATM   42  H2  UNL     1     -11.988  13.059  63.905  1.00  0.00     0.000 HD 
HETATM   43  H1  UNL     1     -13.289  13.692  63.042  1.00  0.00     0.000 HD 
ENDBRANCH  39  40
ENDBRANCH  38  39
ENDBRANCH  37  38
ENDBRANCH  36  37
ENDBRANCH  33  36
ENDBRANCH  31  32
ENDBRANCH  30  31
ENDBRANCH  28  30
ENDBRANCH  25  26
ENDBRANCH  24  25
ENDBRANCH  23  24
ENDBRANCH  22  23
ENDBRANCH  21  22
ENDBRANCH  19  21
ENDBRANCH  16  17
ENDBRANCH  15  16
ENDBRANCH  12  15
ENDBRANCH  10  11
ENDBRANCH   9  10
ENDBRANCH   8   9
ENDBRANCH   7   8
ENDBRANCH   6   7
ENDBRANCH   3   6
TORSDOF 23
ENDMDL
MODEL       74
REMARK 921   NORMALIZED FREE ENERGY PREDICTED BY IDOCK:   -5.01 KCAL/MOL
REMARK 922        TOTAL FREE ENERGY PREDICTED BY IDOCK:  -14.49 KCAL/MOL
REMARK 923 INTER-LIGAND FREE ENERGY PREDICTED BY IDOCK:  -11.26 KCAL/MOL
REMARK 924 INTRA-LIGAND FREE ENERGY PREDICTED BY IDOCK:   -3.24 KCAL/MOL
REMARK 927      BINDING AFFINITY PREDICTED BY RF-SCORE:    0.00 PKD
ROOT
HETATM    1  C   UNL     1      -9.052   7.150  74.323  1.00  0.00    -0.251 C  
HETATM    2  C   UNL     1      -9.014   8.089  73.145  1.00  0.00    -0.267 C  
HETATM    3  N   UNL     1     -10.189   8.281  72.469  1.00  0.00    -0.310 N  
HETATM    4  O   UNL     1      -7.955   8.620  72.809  1.00  0.00    -0.370 OA 
HETATM    5  O   UNL     1     -11.440   7.815  72.909  1.00  0.00    -0.378 OA 
ENDROOT
BRANCH   3   6
HETATM    6  C   UNL     1     -10.312   9.144  71.302  1.00  0.00    -0.334 C  
BRANCH   6   7
HETATM    7  C   UNL     1     -11.770   9.404  70.919  1.00  0.00    -0.378 C  
BRANCH   7   8
HETATM    8  C   UNL     1     -12.008  10.900  70.704  1.00  0.00    -0.467 C  
BRANCH   8   9
HETATM    9  C   UNL     1     -12.991  11.479  71.723  1.00  0.00    -0.500 C  
BRANCH   9  10
HETATM   10  C   UNL     1     -13.040  13.007  71.677  1.00  0.00    -0.347 C  
BRANCH  10  11
HETATM   11  N   UNL     1     -12.033  13.569  70.790  1.00  0.00    -0.516 N  
HETATM   12  C   UNL     1     -12.154  14.849  70.297  1.00  0.00    -0.325 C  
HETATM   13  H   UNL     1     -11.224  13.005  70.529  1.00  0.00     0.000 HD 
HETATM   14  O   UNL     1     -13.071  15.611  70.588  1.00  0.00    -0.465 OA 
BRANCH  12  15
HETATM   15  C   UNL     1     -11.028  15.237  69.362  1.00  0.00    -0.271 C  
BRANCH  15  16
HETATM   16  C   UNL     1     -10.598  14.040  68.517  1.00  0.00    -0.260 C  
BRANCH  16  17
HETATM   17  C   UNL     1     -11.688  13.583  67.566  1.00  0.00    -0.367 C  
HETATM   18  O   UNL     1     -12.376  12.595  67.815  1.00  0.00    -0.250 OA 
HETATM   19  N   UNL     1     -11.830  14.313  66.414  1.00  0.00    -0.399 N  
HETATM   20  O   UNL     1     -11.138  15.503  66.131  1.00  0.00    -0.286 OA 
BRANCH  19  21
HETATM   21  C   UNL     1     -12.773  13.975  65.358  1.00  0.00    -0.471 C  
BRANCH  21  22
HETATM   22  C   UNL     1     -12.074  13.631  64.039  1.00  0.00    -0.474 C  
BRANCH  22  23
HETATM   23  C   UNL     1     -12.275  12.162  63.619  1.00  0.00    -0.663 C  
BRANCH  23  24
HETATM   24  C   UNL     1     -10.978  11.352  63.615  1.00  0.00    -0.443 C  
BRANCH  24  25
HETATM   25  C   UNL     1     -10.260  11.435  64.961  1.00  0.00    -0.281 C  
BRANCH  25  26
HETATM   26  N   UNL     1     -10.167  10.137  65.598  1.00  0.00    -0.256 N  
HETATM   27  H   UNL     1     -10.918   9.835  66.219  1.00  0.00     0.000 HD 
HETATM   28  C   UNL     1      -9.095   9.302  65.390  1.00  0.00    -0.222 C  
HETATM   29  O   UNL     1      -8.158   9.574  64.646  1.00  0.00    -0.121 OA 
BRANCH  28  30
HETATM   30  C   UNL     1      -9.149   8.008  66.160  1.00  0.00    -0.224 C  
BRANCH  30  31
HETATM   31  C   UNL     1      -9.038   8.296  67.649  1.00  0.00    -0.139 C  
BRANCH  31  32
HETATM   32  C   UNL     1      -7.846   9.183  67.941  1.00  0.00    -0.100 C  
HETATM   33  N   UNL     1      -8.070  10.410  68.516  1.00  0.00    -0.111 N  
HETATM   34  O   UNL     1      -6.709   8.755  67.733  1.00  0.00    -0.064 OA 
HETATM   35  O   UNL     1      -9.319  11.038  68.354  1.00  0.00    -0.164 OA 
BRANCH  33  36
HETATM   36  C   UNL     1      -6.991  11.368  68.770  1.00  0.00    -0.097 C  
BRANCH  36  37
HETATM   37  C   UNL     1      -6.676  12.220  67.539  1.00  0.00    -0.138 C  
BRANCH  37  38
HETATM   38  C   UNL     1      -7.098  13.682  67.726  1.00  0.00    -0.167 C  
BRANCH  38  39
HETATM   39  C   UNL     1      -6.674  14.222  69.095  1.00  0.00    -0.118 C  
BRANCH  39  40
HETATM   40  C   UNL     1      -5.847  15.504  68.991  1.00  0.00    -0.104 C  
HETATM   41  N   UNL     1      -5.465  16.010  70.305  1.00  0.00    -0.159 NA 
HETATM   42  H2  UNL     1      -4.981  15.297  70.851  1.00  0.00     0.000 HD 
HETATM   43  H1  UNL     1      -4.913  16.865  70.236  1.00  0.00     0.000 HD 
ENDBRANCH  39  40
ENDBRANCH  38  39
ENDBRANCH  37  38
ENDBRANCH  36  37
ENDBRANCH  33  36
ENDBRANCH  31  32
ENDBRANCH  30  31
ENDBRANCH  28  30
ENDBRANCH  25  26
ENDBRANCH  24  25
ENDBRANCH  23  24
ENDBRANCH  22  23
ENDBRANCH  21  22
ENDBRANCH  19  21
ENDBRANCH  16  17
ENDBRANCH  15  16
ENDBRANCH  12  15
ENDBRANCH  10  11
ENDBRANCH   9  10
ENDBRANCH   8   9
ENDBRANCH   7   8
ENDBRANCH   6   7
ENDBRANCH   3   6
TORSDOF 23
ENDMDL
MODEL       75
REMARK 921   NORMALIZED FREE ENERGY PREDICTED BY IDOCK:   -5.01 KCAL/MOL
REMARK 922        TOTAL FREE ENERGY PREDICTED BY IDOCK:  -14.49 KCAL/MOL
REMARK 923 INTER-LIGAND FREE ENERGY PREDICTED BY IDOCK:  -11.13 KCAL/MOL
REMARK 924 INTRA-LIGAND FREE ENERGY PREDICTED BY IDOCK:   -3.36 KCAL/MOL
REMARK 927      BINDING AFFINITY PREDICTED BY RF-SCORE:    0.00 PKD
ROOT
HETATM    1  C   UNL     1      -8.325   7.536  74.144  1.00  0.00    -0.243 C  
HETATM    2  C   UNL     1      -9.296   6.500  73.643  1.00  0.00    -0.139 C  
HETATM    3  N   UNL     1      -8.862   5.684  72.631  1.00  0.00    -0.123 N  
HETATM    4  O   UNL     1     -10.431   6.432  74.116  1.00  0.00    -0.320 OA 
HETATM    5  O   UNL     1      -7.534   5.630  72.174  1.00  0.00    -0.095 OA 
ENDROOT
BRANCH   3   6
HETATM    6  C   UNL     1      -9.686   4.645  72.030  1.00  0.00    -0.168 C  
BRANCH   6   7
HETATM    7  C   UNL     1      -9.850   4.831  70.520  1.00  0.00    -0.301 C  
BRANCH   7   8
HETATM    8  C   UNL     1     -10.138   6.297  70.191  1.00  0.00    -0.222 C  
BRANCH   8   9
HETATM    9  C   UNL     1     -11.634   6.564  70.015  1.00  0.00    -0.455 C  
BRANCH   9  10
HETATM   10  C   UNL     1     -12.289   7.066  71.302  1.00  0.00    -0.383 C  
BRANCH  10  11
HETATM   11  N   UNL     1     -12.964   8.343  71.121  1.00  0.00    -0.502 N  
HETATM   12  C   UNL     1     -12.281   9.533  71.240  1.00  0.00    -0.348 C  
HETATM   13  H   UNL     1     -13.960   8.356  70.902  1.00  0.00     0.000 HD 
HETATM   14  O   UNL     1     -11.076   9.611  71.462  1.00  0.00    -0.370 OA 
BRANCH  12  15
HETATM   15  C   UNL     1     -13.163  10.749  71.055  1.00  0.00    -0.211 C  
BRANCH  15  16
HETATM   16  C   UNL     1     -12.571  11.954  71.782  1.00  0.00    -0.158 C  
BRANCH  16  17
HETATM   17  C   UNL     1     -12.719  13.237  70.987  1.00  0.00    -0.293 C  
HETATM   18  O   UNL     1     -13.524  14.104  71.323  1.00  0.00    -0.333 OA 
HETATM   19  N   UNL     1     -11.931  13.351  69.871  1.00  0.00    -0.334 N  
HETATM   20  O   UNL     1     -10.929  12.437  69.503  1.00  0.00    -0.089 OA 
BRANCH  19  21
HETATM   21  C   UNL     1     -11.994  14.479  68.953  1.00  0.00    -0.290 C  
BRANCH  21  22
HETATM   22  C   UNL     1     -11.845  14.051  67.490  1.00  0.00    -0.442 C  
BRANCH  22  23
HETATM   23  C   UNL     1     -10.583  14.628  66.821  1.00  0.00    -0.288 C  
BRANCH  23  24
HETATM   24  C   UNL     1     -10.894  15.555  65.645  1.00  0.00    -0.354 C  
BRANCH  24  25
HETATM   25  C   UNL     1     -11.881  14.915  64.671  1.00  0.00    -0.407 C  
BRANCH  25  26
HETATM   26  N   UNL     1     -11.349  13.699  64.091  1.00  0.00    -0.564 N  
HETATM   27  H   UNL     1     -10.422  13.717  63.666  1.00  0.00     0.000 HD 
HETATM   28  C   UNL     1     -12.058  12.521  64.098  1.00  0.00    -0.447 C  
HETATM   29  O   UNL     1     -13.169  12.402  64.604  1.00  0.00    -0.822 OA 
BRANCH  28  30
HETATM   30  C   UNL     1     -11.364  11.367  63.420  1.00  0.00    -0.190 C  
BRANCH  30  31
HETATM   31  C   UNL     1      -9.902  11.716  63.190  1.00  0.00    -0.407 C  
BRANCH  31  32
HETATM   32  C   UNL     1      -9.010  10.530  63.490  1.00  0.00    -0.221 C  
HETATM   33  N   UNL     1      -8.602  10.331  64.787  1.00  0.00    -0.176 N  
HETATM   34  O   UNL     1      -8.740   9.733  62.589  1.00  0.00    -0.183 OA 
HETATM   35  O   UNL     1      -8.549  11.421  65.676  1.00  0.00    -0.097 OA 
BRANCH  33  36
HETATM   36  C   UNL     1      -7.681   9.257  65.165  1.00  0.00    -0.108 C  
BRANCH  36  37
HETATM   37  C   UNL     1      -8.416   7.956  65.496  1.00  0.00    -0.153 C  
BRANCH  37  38
HETATM   38  C   UNL     1      -8.986   7.961  66.918  1.00  0.00    -0.157 C  
BRANCH  38  39
HETATM   39  C   UNL     1     -10.467   8.351  66.932  1.00  0.00    -0.359 C  
BRANCH  39  40
HETATM   40  C   UNL     1     -10.771   9.473  67.926  1.00  0.00    -0.228 C  
HETATM   41  N   UNL     1      -9.585   9.861  68.682  1.00  0.00    -0.152 NA 
HETATM   42  H2  UNL     1      -8.815  10.112  68.062  1.00  0.00     0.000 HD 
HETATM   43  H1  UNL     1      -9.788  10.610  69.345  1.00  0.00     0.000 HD 
ENDBRANCH  39  40
ENDBRANCH  38  39
ENDBRANCH  37  38
ENDBRANCH  36  37
ENDBRANCH  33  36
ENDBRANCH  31  32
ENDBRANCH  30  31
ENDBRANCH  28  30
ENDBRANCH  25  26
ENDBRANCH  24  25
ENDBRANCH  23  24
ENDBRANCH  22  23
ENDBRANCH  21  22
ENDBRANCH  19  21
ENDBRANCH  16  17
ENDBRANCH  15  16
ENDBRANCH  12  15
ENDBRANCH  10  11
ENDBRANCH   9  10
ENDBRANCH   8   9
ENDBRANCH   7   8
ENDBRANCH   6   7
ENDBRANCH   3   6
TORSDOF 23
ENDMDL
MODEL       76
REMARK 921   NORMALIZED FREE ENERGY PREDICTED BY IDOCK:   -4.99 KCAL/MOL
REMARK 922        TOTAL FREE ENERGY PREDICTED BY IDOCK:  -14.46 KCAL/MOL
REMARK 923 INTER-LIGAND FREE ENERGY PREDICTED BY IDOCK:  -11.50 KCAL/MOL
REMARK 924 INTRA-LIGAND FREE ENERGY PREDICTED BY IDOCK:   -2.96 KCAL/MOL
REMARK 927      BINDING AFFINITY PREDICTED BY RF-SCORE:    0.00 PKD
ROOT
HETATM    1  C   UNL     1      -5.994  17.132  67.327  1.00  0.00    -0.181 C  
HETATM    2  C   UNL     1      -6.688  18.275  66.633  1.00  0.00    -0.197 C  
HETATM    3  N   UNL     1      -7.075  19.330  67.416  1.00  0.00    -0.205 N  
HETATM    4  O   UNL     1      -6.912  18.222  65.423  1.00  0.00    -0.523 OA 
HETATM    5  O   UNL     1      -6.705  19.494  68.761  1.00  0.00    -0.278 OA 
ENDROOT
BRANCH   3   6
HETATM    6  C   UNL     1      -7.769  20.501  66.897  1.00  0.00    -0.271 C  
BRANCH   6   7
HETATM    7  C   UNL     1      -9.208  20.189  66.481  1.00  0.00    -0.440 C  
BRANCH   7   8
HETATM    8  C   UNL     1     -10.060  19.859  67.708  1.00  0.00    -0.565 C  
BRANCH   8   9
HETATM    9  C   UNL     1     -10.787  18.521  67.560  1.00  0.00    -0.337 C  
BRANCH   9  10
HETATM   10  C   UNL     1     -10.349  17.503  68.613  1.00  0.00    -0.369 C  
BRANCH  10  11
HETATM   11  N   UNL     1     -10.794  16.153  68.301  1.00  0.00    -0.312 N  
HETATM   12  C   UNL     1     -11.582  15.442  69.179  1.00  0.00    -0.339 C  
HETATM   13  H   UNL     1     -10.518  15.727  67.417  1.00  0.00     0.000 HD 
HETATM   14  O   UNL     1     -11.994  15.889  70.245  1.00  0.00    -0.353 OA 
BRANCH  12  15
HETATM   15  C   UNL     1     -11.908  14.046  68.692  1.00  0.00    -0.396 C  
BRANCH  15  16
HETATM   16  C   UNL     1     -10.637  13.322  68.255  1.00  0.00    -0.262 C  
BRANCH  16  17
HETATM   17  C   UNL     1     -10.481  13.287  66.746  1.00  0.00    -0.270 C  
HETATM   18  O   UNL     1      -9.781  14.110  66.160  1.00  0.00    -0.294 OA 
HETATM   19  N   UNL     1     -11.187  12.313  66.088  1.00  0.00    -0.312 N  
HETATM   20  O   UNL     1     -11.919  11.292  66.720  1.00  0.00    -0.262 OA 
BRANCH  19  21
HETATM   21  C   UNL     1     -11.214  12.178  64.640  1.00  0.00    -0.323 C  
BRANCH  21  22
HETATM   22  C   UNL     1     -10.495  10.915  64.157  1.00  0.00    -0.397 C  
BRANCH  22  23
HETATM   23  C   UNL     1      -9.086  10.758  64.760  1.00  0.00    -0.222 C  
BRANCH  23  24
HETATM   24  C   UNL     1      -8.764   9.323  65.178  1.00  0.00    -0.216 C  
BRANCH  24  25
HETATM   25  C   UNL     1      -9.664   8.855  66.320  1.00  0.00    -0.275 C  
BRANCH  25  26
HETATM   26  N   UNL     1      -8.891   8.365  67.443  1.00  0.00    -0.134 N  
HETATM   27  H   UNL     1      -8.615   7.383  67.464  1.00  0.00     0.000 HD 
HETATM   28  C   UNL     1      -8.520   9.186  68.482  1.00  0.00    -0.128 C  
HETATM   29  O   UNL     1      -8.791  10.382  68.530  1.00  0.00    -0.130 OA 
BRANCH  28  30
HETATM   30  C   UNL     1      -7.750   8.500  69.580  1.00  0.00    -0.093 C  
BRANCH  30  31
HETATM   31  C   UNL     1      -8.598   7.389  70.180  1.00  0.00    -0.139 C  
BRANCH  31  32
HETATM   32  C   UNL     1      -9.536   7.934  71.236  1.00  0.00    -0.157 C  
HETATM   33  N   UNL     1     -10.736   7.297  71.437  1.00  0.00    -0.227 N  
HETATM   34  O   UNL     1      -9.169   8.878  71.940  1.00  0.00    -0.310 OA 
HETATM   35  O   UNL     1     -11.305   6.540  70.395  1.00  0.00    -0.327 OA 
BRANCH  33  36
HETATM   36  C   UNL     1     -11.740   7.790  72.382  1.00  0.00    -0.341 C  
BRANCH  36  37
HETATM   37  C   UNL     1     -13.018   8.250  71.679  1.00  0.00    -0.357 C  
BRANCH  37  38
HETATM   38  C   UNL     1     -13.533   9.583  72.231  1.00  0.00    -0.521 C  
BRANCH  38  39
HETATM   39  C   UNL     1     -12.813  10.775  71.595  1.00  0.00    -0.562 C  
BRANCH  39  40
HETATM   40  C   UNL     1     -12.909  10.775  70.069  1.00  0.00    -0.012 C  
HETATM   41  N   UNL     1     -11.670  10.318  69.449  1.00  0.00    -0.464 NA 
HETATM   42  H2  UNL     1     -11.392   9.403  69.804  1.00  0.00     0.000 HD 
HETATM   43  H1  UNL     1     -11.734  10.318  68.430  1.00  0.00     0.000 HD 
ENDBRANCH  39  40
ENDBRANCH  38  39
ENDBRANCH  37  38
ENDBRANCH  36  37
ENDBRANCH  33  36
ENDBRANCH  31  32
ENDBRANCH  30  31
ENDBRANCH  28  30
ENDBRANCH  25  26
ENDBRANCH  24  25
ENDBRANCH  23  24
ENDBRANCH  22  23
ENDBRANCH  21  22
ENDBRANCH  19  21
ENDBRANCH  16  17
ENDBRANCH  15  16
ENDBRANCH  12  15
ENDBRANCH  10  11
ENDBRANCH   9  10
ENDBRANCH   8   9
ENDBRANCH   7   8
ENDBRANCH   6   7
ENDBRANCH   3   6
TORSDOF 23
ENDMDL
MODEL       77
REMARK 921   NORMALIZED FREE ENERGY PREDICTED BY IDOCK:   -4.99 KCAL/MOL
REMARK 922        TOTAL FREE ENERGY PREDICTED BY IDOCK:  -14.45 KCAL/MOL
REMARK 923 INTER-LIGAND FREE ENERGY PREDICTED BY IDOCK:  -11.37 KCAL/MOL
REMARK 924 INTRA-LIGAND FREE ENERGY PREDICTED BY IDOCK:   -3.08 KCAL/MOL
REMARK 927      BINDING AFFINITY PREDICTED BY RF-SCORE:    0.00 PKD
ROOT
HETATM    1  C   UNL     1     -12.140  13.647  63.545  1.00  0.00    -0.341 C  
HETATM    2  C   UNL     1     -12.276  14.042  64.992  1.00  0.00    -0.433 C  
HETATM    3  N   UNL     1     -11.215  14.700  65.556  1.00  0.00    -0.333 N  
HETATM    4  O   UNL     1     -13.291  13.746  65.624  1.00  0.00    -0.561 OA 
HETATM    5  O   UNL     1     -10.112  15.186  64.833  1.00  0.00    -0.300 OA 
ENDROOT
BRANCH   3   6
HETATM    6  C   UNL     1     -11.187  15.134  66.946  1.00  0.00    -0.292 C  
BRANCH   6   7
HETATM    7  C   UNL     1      -9.941  14.643  67.685  1.00  0.00    -0.227 C  
BRANCH   7   8
HETATM    8  C   UNL     1      -9.727  13.149  67.439  1.00  0.00    -0.220 C  
BRANCH   8   9
HETATM    9  C   UNL     1     -10.443  12.286  68.480  1.00  0.00    -0.248 C  
BRANCH   9  10
HETATM   10  C   UNL     1     -11.522  11.400  67.856  1.00  0.00    -0.291 C  
BRANCH  10  11
HETATM   11  N   UNL     1     -11.211   9.983  67.968  1.00  0.00    -0.508 N  
HETATM   12  C   UNL     1     -10.574   9.311  66.949  1.00  0.00    -0.169 C  
HETATM   13  H   UNL     1     -11.470   9.479  68.816  1.00  0.00     0.000 HD 
HETATM   14  O   UNL     1     -10.192   9.845  65.911  1.00  0.00    -0.261 OA 
BRANCH  12  15
HETATM   15  C   UNL     1     -10.375   7.839  67.238  1.00  0.00    -0.371 C  
BRANCH  15  16
HETATM   16  C   UNL     1      -9.217   7.284  66.412  1.00  0.00    -0.201 C  
BRANCH  16  17
HETATM   17  C   UNL     1      -8.650   6.005  66.998  1.00  0.00    -0.107 C  
HETATM   18  O   UNL     1      -8.018   6.014  68.052  1.00  0.00    -0.107 OA 
HETATM   19  N   UNL     1      -8.856   4.863  66.268  1.00  0.00    -0.114 N  
HETATM   20  O   UNL     1      -9.653   4.785  65.113  1.00  0.00    -0.154 OA 
BRANCH  19  21
HETATM   21  C   UNL     1      -8.321   3.561  66.641  1.00  0.00    -0.101 C  
BRANCH  21  22
HETATM   22  C   UNL     1      -9.281   2.767  67.531  1.00  0.00    -0.227 C  
BRANCH  22  23
HETATM   23  C   UNL     1      -8.603   2.210  68.797  1.00  0.00    -0.104 C  
BRANCH  23  24
HETATM   24  C   UNL     1      -9.327   2.594  70.089  1.00  0.00    -0.193 C  
BRANCH  24  25
HETATM   25  C   UNL     1      -8.913   3.982  70.572  1.00  0.00    -0.097 C  
BRANCH  25  26
HETATM   26  N   UNL     1      -9.966   4.956  70.367  1.00  0.00    -0.230 N  
HETATM   27  H   UNL     1     -10.181   5.261  69.418  1.00  0.00     0.000 HD 
HETATM   28  C   UNL     1     -10.684   5.480  71.416  1.00  0.00    -0.221 C  
HETATM   29  O   UNL     1     -10.507   5.156  72.587  1.00  0.00    -0.194 OA 
BRANCH  28  30
HETATM   30  C   UNL     1     -11.717   6.504  71.021  1.00  0.00    -0.402 C  
BRANCH  30  31
HETATM   31  C   UNL     1     -11.821   7.567  72.103  1.00  0.00    -0.338 C  
BRANCH  31  32
HETATM   32  C   UNL     1     -11.759   8.956  71.505  1.00  0.00    -0.324 C  
HETATM   33  N   UNL     1     -12.685   9.886  71.913  1.00  0.00    -0.408 N  
HETATM   34  O   UNL     1     -10.839   9.242  70.736  1.00  0.00    -0.238 OA 
HETATM   35  O   UNL     1     -13.924   9.456  72.424  1.00  0.00    -0.426 OA 
BRANCH  33  36
HETATM   36  C   UNL     1     -12.752  11.232  71.341  1.00  0.00    -0.396 C  
BRANCH  36  37
HETATM   37  C   UNL     1     -13.653  12.161  72.157  1.00  0.00    -0.285 C  
BRANCH  37  38
HETATM   38  C   UNL     1     -13.119  13.597  72.192  1.00  0.00    -0.489 C  
BRANCH  38  39
HETATM   39  C   UNL     1     -12.643  14.058  70.811  1.00  0.00    -0.431 C  
BRANCH  39  40
HETATM   40  C   UNL     1     -12.798  15.566  70.608  1.00  0.00    -0.413 C  
HETATM   41  N   UNL     1     -12.180  16.324  71.690  1.00  0.00    -0.614 NA 
HETATM   42  H2  UNL     1     -11.201  16.064  71.814  1.00  0.00     0.000 HD 
HETATM   43  H1  UNL     1     -12.283  17.330  71.555  1.00  0.00     0.000 HD 
ENDBRANCH  39  40
ENDBRANCH  38  39
ENDBRANCH  37  38
ENDBRANCH  36  37
ENDBRANCH  33  36
ENDBRANCH  31  32
ENDBRANCH  30  31
ENDBRANCH  28  30
ENDBRANCH  25  26
ENDBRANCH  24  25
ENDBRANCH  23  24
ENDBRANCH  22  23
ENDBRANCH  21  22
ENDBRANCH  19  21
ENDBRANCH  16  17
ENDBRANCH  15  16
ENDBRANCH  12  15
ENDBRANCH  10  11
ENDBRANCH   9  10
ENDBRANCH   8   9
ENDBRANCH   7   8
ENDBRANCH   6   7
ENDBRANCH   3   6
TORSDOF 23
ENDMDL
MODEL       78
REMARK 921   NORMALIZED FREE ENERGY PREDICTED BY IDOCK:   -4.99 KCAL/MOL
REMARK 922        TOTAL FREE ENERGY PREDICTED BY IDOCK:  -14.44 KCAL/MOL
REMARK 923 INTER-LIGAND FREE ENERGY PREDICTED BY IDOCK:  -12.33 KCAL/MOL
REMARK 924 INTRA-LIGAND FREE ENERGY PREDICTED BY IDOCK:   -2.12 KCAL/MOL
REMARK 927      BINDING AFFINITY PREDICTED BY RF-SCORE:    0.00 PKD
ROOT
HETATM    1  C   UNL     1     -12.197  12.494  63.333  1.00  0.00    -0.613 C  
HETATM    2  C   UNL     1     -11.824  11.987  64.701  1.00  0.00    -0.268 C  
HETATM    3  N   UNL     1     -10.781  11.101  64.769  1.00  0.00    -0.297 N  
HETATM    4  O   UNL     1     -12.464  12.342  65.692  1.00  0.00    -0.640 OA 
HETATM    5  O   UNL     1      -9.936  10.791  63.690  1.00  0.00    -0.312 OA 
ENDROOT
BRANCH   3   6
HETATM    6  C   UNL     1     -10.311  10.509  66.014  1.00  0.00    -0.211 C  
BRANCH   6   7
HETATM    7  C   UNL     1      -9.020   9.709  65.829  1.00  0.00    -0.207 C  
BRANCH   7   8
HETATM    8  C   UNL     1      -9.033   8.460  66.712  1.00  0.00    -0.172 C  
BRANCH   8   9
HETATM    9  C   UNL     1      -8.194   7.327  66.120  1.00  0.00    -0.131 C  
BRANCH   9  10
HETATM   10  C   UNL     1      -8.857   5.961  66.296  1.00  0.00    -0.142 C  
BRANCH  10  11
HETATM   11  N   UNL     1      -9.677   5.892  67.497  1.00  0.00    -0.111 N  
HETATM   12  C   UNL     1      -9.281   5.152  68.588  1.00  0.00    -0.119 C  
HETATM   13  H   UNL     1     -10.561   6.400  67.529  1.00  0.00     0.000 HD 
HETATM   14  O   UNL     1      -8.218   4.542  68.653  1.00  0.00    -0.081 OA 
BRANCH  12  15
HETATM   15  C   UNL     1     -10.286   5.175  69.721  1.00  0.00    -0.357 C  
BRANCH  15  16
HETATM   16  C   UNL     1     -11.300   6.297  69.513  1.00  0.00    -0.475 C  
BRANCH  16  17
HETATM   17  C   UNL     1     -11.576   7.070  70.787  1.00  0.00    -0.338 C  
HETATM   18  O   UNL     1     -11.993   6.506  71.797  1.00  0.00    -0.326 OA 
HETATM   19  N   UNL     1     -11.365   8.424  70.731  1.00  0.00    -0.268 N  
HETATM   20  O   UNL     1     -10.797   9.099  69.636  1.00  0.00    -0.231 OA 
BRANCH  19  21
HETATM   21  C   UNL     1     -11.647   9.330  71.834  1.00  0.00    -0.334 C  
BRANCH  21  22
HETATM   22  C   UNL     1     -13.100   9.815  71.836  1.00  0.00    -0.544 C  
BRANCH  22  23
HETATM   23  C   UNL     1     -13.222  11.345  71.960  1.00  0.00    -0.432 C  
BRANCH  23  24
HETATM   24  C   UNL     1     -12.334  12.105  70.973  1.00  0.00    -0.331 C  
BRANCH  24  25
HETATM   25  C   UNL     1     -12.586  13.610  71.035  1.00  0.00    -0.363 C  
BRANCH  25  26
HETATM   26  N   UNL     1     -11.437  14.364  70.576  1.00  0.00    -0.479 N  
HETATM   27  H   UNL     1     -10.723  14.639  71.250  1.00  0.00     0.000 HD 
HETATM   28  C   UNL     1     -11.283  14.720  69.257  1.00  0.00    -0.283 C  
HETATM   29  O   UNL     1     -12.081  14.415  68.375  1.00  0.00    -0.322 OA 
BRANCH  28  30
HETATM   30  C   UNL     1     -10.046  15.531  68.966  1.00  0.00    -0.234 C  
BRANCH  30  31
HETATM   31  C   UNL     1     -10.071  15.996  67.519  1.00  0.00    -0.247 C  
BRANCH  31  32
HETATM   32  C   UNL     1     -10.447  17.460  67.428  1.00  0.00    -0.336 C  
HETATM   33  N   UNL     1     -10.053  18.169  66.319  1.00  0.00    -0.374 N  
HETATM   34  O   UNL     1     -11.160  17.956  68.302  1.00  0.00    -0.097 OA 
HETATM   35  O   UNL     1      -8.933  17.742  65.581  1.00  0.00    -0.365 OA 
BRANCH  33  36
HETATM   36  C   UNL     1     -10.305  19.604  66.172  1.00  0.00    -0.530 C  
BRANCH  36  37
HETATM   37  C   UNL     1      -9.754  20.410  67.350  1.00  0.00    -0.597 C  
BRANCH  37  38
HETATM   38  C   UNL     1      -8.234  20.267  67.486  1.00  0.00    -0.358 C  
BRANCH  38  39
HETATM   39  C   UNL     1      -7.850  19.499  68.755  1.00  0.00    -0.377 C  
BRANCH  39  40
HETATM   40  C   UNL     1      -6.729  18.487  68.513  1.00  0.00    -0.255 C  
HETATM   41  N   UNL     1      -6.477  18.290  67.089  1.00  0.00    -0.173 NA 
HETATM   42  H2  UNL     1      -6.286  19.175  66.619  1.00  0.00     0.000 HD 
HETATM   43  H1  UNL     1      -5.729  17.614  66.928  1.00  0.00     0.000 HD 
ENDBRANCH  39  40
ENDBRANCH  38  39
ENDBRANCH  37  38
ENDBRANCH  36  37
ENDBRANCH  33  36
ENDBRANCH  31  32
ENDBRANCH  30  31
ENDBRANCH  28  30
ENDBRANCH  25  26
ENDBRANCH  24  25
ENDBRANCH  23  24
ENDBRANCH  22  23
ENDBRANCH  21  22
ENDBRANCH  19  21
ENDBRANCH  16  17
ENDBRANCH  15  16
ENDBRANCH  12  15
ENDBRANCH  10  11
ENDBRANCH   9  10
ENDBRANCH   8   9
ENDBRANCH   7   8
ENDBRANCH   6   7
ENDBRANCH   3   6
TORSDOF 23
ENDMDL
MODEL       79
REMARK 921   NORMALIZED FREE ENERGY PREDICTED BY IDOCK:   -4.98 KCAL/MOL
REMARK 922        TOTAL FREE ENERGY PREDICTED BY IDOCK:  -14.42 KCAL/MOL
REMARK 923 INTER-LIGAND FREE ENERGY PREDICTED BY IDOCK:  -10.79 KCAL/MOL
REMARK 924 INTRA-LIGAND FREE ENERGY PREDICTED BY IDOCK:   -3.64 KCAL/MOL
REMARK 927      BINDING AFFINITY PREDICTED BY RF-SCORE:    0.00 PKD
ROOT
HETATM    1  C   UNL     1     -12.228   6.702  71.403  1.00  0.00    -0.378 C  
HETATM    2  C   UNL     1     -11.529   6.108  72.598  1.00  0.00    -0.237 C  
HETATM    3  N   UNL     1     -10.540   6.861  73.173  1.00  0.00    -0.274 N  
HETATM    4  O   UNL     1     -11.830   4.982  72.997  1.00  0.00    -0.269 OA 
HETATM    5  O   UNL     1     -10.274   8.201  72.843  1.00  0.00    -0.307 OA 
ENDROOT
BRANCH   3   6
HETATM    6  C   UNL     1      -9.762   6.420  74.323  1.00  0.00    -0.274 C  
BRANCH   6   7
HETATM    7  C   UNL     1      -8.361   5.947  73.932  1.00  0.00    -0.114 C  
BRANCH   7   8
HETATM    8  C   UNL     1      -7.298   6.855  74.553  1.00  0.00    -0.108 C  
BRANCH   8   9
HETATM    9  C   UNL     1      -6.251   7.299  73.530  1.00  0.00    -0.064 C  
BRANCH   9  10
HETATM   10  C   UNL     1      -6.742   8.461  72.665  1.00  0.00    -0.088 C  
BRANCH  10  11
HETATM   11  N   UNL     1      -6.291   8.356  71.285  1.00  0.00    -0.038 N  
HETATM   12  C   UNL     1      -6.149   9.475  70.495  1.00  0.00    -0.065 C  
HETATM   13  H   UNL     1      -6.076   7.438  70.897  1.00  0.00     0.000 HD 
HETATM   14  O   UNL     1      -6.346  10.621  70.890  1.00  0.00    -0.346 OA 
BRANCH  12  15
HETATM   15  C   UNL     1      -5.708   9.156  69.083  1.00  0.00    -0.036 C  
BRANCH  15  16
HETATM   16  C   UNL     1      -6.491   7.967  68.534  1.00  0.00    -0.053 C  
BRANCH  16  17
HETATM   17  C   UNL     1      -7.898   8.345  68.113  1.00  0.00    -0.111 C  
HETATM   18  O   UNL     1      -8.102   9.005  67.096  1.00  0.00    -0.105 OA 
HETATM   19  N   UNL     1      -8.908   7.937  68.945  1.00  0.00    -0.141 N  
HETATM   20  O   UNL     1      -8.736   7.100  70.061  1.00  0.00    -0.140 OA 
BRANCH  19  21
HETATM   21  C   UNL     1     -10.309   8.274  68.737  1.00  0.00    -0.205 C  
BRANCH  21  22
HETATM   22  C   UNL     1     -10.574   9.776  68.863  1.00  0.00    -0.240 C  
BRANCH  22  23
HETATM   23  C   UNL     1     -10.965  10.200  70.291  1.00  0.00    -0.380 C  
BRANCH  23  24
HETATM   24  C   UNL     1     -12.466  10.438  70.462  1.00  0.00    -0.403 C  
BRANCH  24  25
HETATM   25  C   UNL     1     -12.748  11.785  71.125  1.00  0.00    -0.305 C  
BRANCH  25  26
HETATM   26  N   UNL     1     -12.020  12.861  70.482  1.00  0.00    -0.533 N  
HETATM   27  H   UNL     1     -11.177  12.640  69.952  1.00  0.00     0.000 HD 
HETATM   28  C   UNL     1     -12.434  14.169  70.566  1.00  0.00    -0.361 C  
HETATM   29  O   UNL     1     -13.446  14.522  71.164  1.00  0.00    -0.365 OA 
BRANCH  28  30
HETATM   30  C   UNL     1     -11.537  15.157  69.866  1.00  0.00    -0.329 C  
BRANCH  30  31
HETATM   31  C   UNL     1     -10.679  14.430  68.842  1.00  0.00    -0.260 C  
BRANCH  31  32
HETATM   32  C   UNL     1     -11.175  14.694  67.436  1.00  0.00    -0.342 C  
HETATM   33  N   UNL     1     -12.118  13.847  66.906  1.00  0.00    -0.436 N  
HETATM   34  O   UNL     1     -10.788  15.699  66.837  1.00  0.00    -0.315 OA 
HETATM   35  O   UNL     1     -12.223  12.530  67.393  1.00  0.00    -0.430 OA 
BRANCH  33  36
HETATM   36  C   UNL     1     -12.606  13.975  65.531  1.00  0.00    -0.516 C  
BRANCH  36  37
HETATM   37  C   UNL     1     -12.527  12.653  64.765  1.00  0.00    -0.555 C  
BRANCH  37  38
HETATM   38  C   UNL     1     -11.402  12.654  63.725  1.00  0.00    -0.529 C  
BRANCH  38  39
HETATM   39  C   UNL     1     -10.633  11.330  63.721  1.00  0.00    -0.455 C  
BRANCH  39  40
HETATM   40  C   UNL     1     -10.106  10.951  65.106  1.00  0.00    -0.292 C  
HETATM   41  N   UNL     1      -8.682  11.239  65.240  1.00  0.00    -0.387 NA 
HETATM   42  H2  UNL     1      -8.477  12.213  65.018  1.00  0.00     0.000 HD 
HETATM   43  H1  UNL     1      -8.330  10.986  66.164  1.00  0.00     0.000 HD 
ENDBRANCH  39  40
ENDBRANCH  38  39
ENDBRANCH  37  38
ENDBRANCH  36  37
ENDBRANCH  33  36
ENDBRANCH  31  32
ENDBRANCH  30  31
ENDBRANCH  28  30
ENDBRANCH  25  26
ENDBRANCH  24  25
ENDBRANCH  23  24
ENDBRANCH  22  23
ENDBRANCH  21  22
ENDBRANCH  19  21
ENDBRANCH  16  17
ENDBRANCH  15  16
ENDBRANCH  12  15
ENDBRANCH  10  11
ENDBRANCH   9  10
ENDBRANCH   8   9
ENDBRANCH   7   8
ENDBRANCH   6   7
ENDBRANCH   3   6
TORSDOF 23
ENDMDL
MODEL       80
REMARK 921   NORMALIZED FREE ENERGY PREDICTED BY IDOCK:   -4.97 KCAL/MOL
REMARK 922        TOTAL FREE ENERGY PREDICTED BY IDOCK:  -14.40 KCAL/MOL
REMARK 923 INTER-LIGAND FREE ENERGY PREDICTED BY IDOCK:  -11.27 KCAL/MOL
REMARK 924 INTRA-LIGAND FREE ENERGY PREDICTED BY IDOCK:   -3.13 KCAL/MOL
REMARK 927      BINDING AFFINITY PREDICTED BY RF-SCORE:    0.00 PKD
ROOT
HETATM    1  C   UNL     1      -6.211  13.131  68.067  1.00  0.00    -0.117 C  
HETATM    2  C   UNL     1      -6.274  11.942  67.145  1.00  0.00    -0.154 C  
HETATM    3  N   UNL     1      -7.279  11.038  67.368  1.00  0.00    -0.098 N  
HETATM    4  O   UNL     1      -5.429  11.796  66.260  1.00  0.00    -0.296 OA 
HETATM    5  O   UNL     1      -8.343  11.245  68.262  1.00  0.00    -0.135 OA 
ENDROOT
BRANCH   3   6
HETATM    6  C   UNL     1      -7.464   9.832  66.573  1.00  0.00    -0.095 C  
BRANCH   6   7
HETATM    7  C   UNL     1      -7.890  10.139  65.136  1.00  0.00    -0.140 C  
BRANCH   7   8
HETATM    8  C   UNL     1      -9.410  10.291  65.050  1.00  0.00    -0.290 C  
BRANCH   8   9
HETATM    9  C   UNL     1      -9.883  10.541  63.617  1.00  0.00    -0.354 C  
BRANCH   9  10
HETATM   10  C   UNL     1     -10.458  11.946  63.433  1.00  0.00    -0.441 C  
BRANCH  10  11
HETATM   11  N   UNL     1     -11.410  12.297  64.476  1.00  0.00    -0.316 N  
HETATM   12  C   UNL     1     -11.514  13.589  64.941  1.00  0.00    -0.334 C  
HETATM   13  H   UNL     1     -12.012  11.573  64.868  1.00  0.00     0.000 HD 
HETATM   14  O   UNL     1     -10.859  14.530  64.500  1.00  0.00    -0.351 OA 
BRANCH  12  15
HETATM   15  C   UNL     1     -12.532  13.745  66.050  1.00  0.00    -0.491 C  
BRANCH  15  16
HETATM   16  C   UNL     1     -11.840  13.784  67.410  1.00  0.00    -0.431 C  
BRANCH  16  17
HETATM   17  C   UNL     1     -11.812  12.425  68.084  1.00  0.00    -0.315 C  
HETATM   18  O   UNL     1     -11.774  11.389  67.424  1.00  0.00    -0.574 OA 
HETATM   19  N   UNL     1     -11.865  12.429  69.454  1.00  0.00    -0.312 N  
HETATM   20  O   UNL     1     -11.810  13.585  70.253  1.00  0.00    -0.309 OA 
BRANCH  19  21
HETATM   21  C   UNL     1     -11.922  11.220  70.262  1.00  0.00    -0.379 C  
BRANCH  21  22
HETATM   22  C   UNL     1     -13.150  11.185  71.177  1.00  0.00    -0.284 C  
BRANCH  22  23
HETATM   23  C   UNL     1     -13.108  10.029  72.194  1.00  0.00    -0.482 C  
BRANCH  23  24
HETATM   24  C   UNL     1     -13.727   8.735  71.664  1.00  0.00    -0.437 C  
BRANCH  24  25
HETATM   25  C   UNL     1     -12.746   7.567  71.751  1.00  0.00    -0.331 C  
BRANCH  25  26
HETATM   26  N   UNL     1     -11.370   8.018  71.689  1.00  0.00    -0.253 N  
HETATM   27  H   UNL     1     -11.028   8.444  70.827  1.00  0.00     0.000 HD 
HETATM   28  C   UNL     1     -10.515   7.888  72.757  1.00  0.00    -0.346 C  
HETATM   29  O   UNL     1     -10.847   7.408  73.836  1.00  0.00    -0.281 OA 
BRANCH  28  30
HETATM   30  C   UNL     1      -9.113   8.380  72.501  1.00  0.00    -0.326 C  
BRANCH  30  31
HETATM   31  C   UNL     1      -9.013   8.919  71.083  1.00  0.00    -0.305 C  
BRANCH  31  32
HETATM   32  C   UNL     1      -8.016   8.119  70.270  1.00  0.00    -0.103 C  
HETATM   33  N   UNL     1      -8.493   7.279  69.294  1.00  0.00    -0.132 N  
HETATM   34  O   UNL     1      -6.809   8.300  70.446  1.00  0.00    -0.036 OA 
HETATM   35  O   UNL     1      -9.804   6.773  69.389  1.00  0.00    -0.155 OA 
BRANCH  33  36
HETATM   36  C   UNL     1      -7.615   6.411  68.505  1.00  0.00    -0.097 C  
BRANCH  36  37
HETATM   37  C   UNL     1      -8.087   4.956  68.511  1.00  0.00    -0.085 C  
BRANCH  37  38
HETATM   38  C   UNL     1      -8.241   4.394  67.093  1.00  0.00    -0.101 C  
BRANCH  38  39
HETATM   39  C   UNL     1      -9.678   3.939  66.818  1.00  0.00    -0.189 C  
BRANCH  39  40
HETATM   40  C   UNL     1     -10.534   5.041  66.192  1.00  0.00    -0.286 C  
HETATM   41  N   UNL     1     -11.332   4.538  65.078  1.00  0.00    -1.108 NA 
HETATM   42  H2  UNL     1     -11.901   3.740  65.360  1.00  0.00     0.000 HD 
HETATM   43  H1  UNL     1     -11.903   5.273  64.660  1.00  0.00     0.000 HD 
ENDBRANCH  39  40
ENDBRANCH  38  39
ENDBRANCH  37  38
ENDBRANCH  36  37
ENDBRANCH  33  36
ENDBRANCH  31  32
ENDBRANCH  30  31
ENDBRANCH  28  30
ENDBRANCH  25  26
ENDBRANCH  24  25
ENDBRANCH  23  24
ENDBRANCH  22  23
ENDBRANCH  21  22
ENDBRANCH  19  21
ENDBRANCH  16  17
ENDBRANCH  15  16
ENDBRANCH  12  15
ENDBRANCH  10  11
ENDBRANCH   9  10
ENDBRANCH   8   9
ENDBRANCH   7   8
ENDBRANCH   6   7
ENDBRANCH   3   6
TORSDOF 23
ENDMDL
MODEL       81
REMARK 921   NORMALIZED FREE ENERGY PREDICTED BY IDOCK:   -4.96 KCAL/MOL
REMARK 922        TOTAL FREE ENERGY PREDICTED BY IDOCK:  -14.38 KCAL/MOL
REMARK 923 INTER-LIGAND FREE ENERGY PREDICTED BY IDOCK:  -11.52 KCAL/MOL
REMARK 924 INTRA-LIGAND FREE ENERGY PREDICTED BY IDOCK:   -2.86 KCAL/MOL
REMARK 927      BINDING AFFINITY PREDICTED BY RF-SCORE:    0.00 PKD
ROOT
HETATM    1  C   UNL     1      -7.577   9.816  65.864  1.00  0.00    -0.103 C  
HETATM    2  C   UNL     1      -8.975   9.282  66.042  1.00  0.00    -0.176 C  
HETATM    3  N   UNL     1      -9.182   8.430  67.095  1.00  0.00    -0.139 N  
HETATM    4  O   UNL     1      -9.863   9.588  65.245  1.00  0.00    -0.282 OA 
HETATM    5  O   UNL     1      -8.238   8.180  68.106  1.00  0.00    -0.126 OA 
ENDROOT
BRANCH   3   6
HETATM    6  C   UNL     1     -10.470   7.819  67.391  1.00  0.00    -0.292 C  
BRANCH   6   7
HETATM    7  C   UNL     1     -10.702   6.533  66.596  1.00  0.00    -0.243 C  
BRANCH   7   8
HETATM    8  C   UNL     1     -10.284   5.313  67.419  1.00  0.00    -0.240 C  
BRANCH   8   9
HETATM    9  C   UNL     1      -8.912   4.780  67.004  1.00  0.00    -0.111 C  
BRANCH   9  10
HETATM   10  C   UNL     1      -7.946   4.682  68.185  1.00  0.00    -0.084 C  
BRANCH  10  11
HETATM   11  N   UNL     1      -8.417   5.415  69.351  1.00  0.00    -0.099 N  
HETATM   12  C   UNL     1      -8.539   4.800  70.577  1.00  0.00    -0.095 C  
HETATM   13  H   UNL     1      -8.661   6.400  69.258  1.00  0.00     0.000 HD 
HETATM   14  O   UNL     1      -8.232   3.630  70.790  1.00  0.00    -0.063 OA 
BRANCH  12  15
HETATM   15  C   UNL     1      -9.081   5.716  71.653  1.00  0.00    -0.150 C  
BRANCH  15  16
HETATM   16  C   UNL     1     -10.568   5.454  71.880  1.00  0.00    -0.288 C  
BRANCH  16  17
HETATM   17  C   UNL     1     -11.441   6.574  71.350  1.00  0.00    -0.309 C  
HETATM   18  O   UNL     1     -11.986   6.489  70.251  1.00  0.00    -0.394 OA 
HETATM   19  N   UNL     1     -11.553   7.683  72.148  1.00  0.00    -0.293 N  
HETATM   20  O   UNL     1     -11.032   7.787  73.450  1.00  0.00    -0.327 OA 
BRANCH  19  21
HETATM   21  C   UNL     1     -12.288   8.880  71.767  1.00  0.00    -0.357 C  
BRANCH  21  22
HETATM   22  C   UNL     1     -11.415   9.889  71.016  1.00  0.00    -0.466 C  
BRANCH  22  23
HETATM   23  C   UNL     1     -12.236  10.955  70.268  1.00  0.00    -0.432 C  
BRANCH  23  24
HETATM   24  C   UNL     1     -11.391  11.830  69.342  1.00  0.00    -0.337 C  
BRANCH  24  25
HETATM   25  C   UNL     1     -11.524  11.396  67.884  1.00  0.00    -0.291 C  
BRANCH  25  26
HETATM   26  N   UNL     1     -10.812  12.289  66.992  1.00  0.00    -0.241 N  
HETATM   27  H   UNL     1      -9.894  12.638  67.270  1.00  0.00     0.000 HD 
HETATM   28  C   UNL     1     -11.337  12.679  65.783  1.00  0.00    -0.333 C  
HETATM   29  O   UNL     1     -12.423  12.293  65.361  1.00  0.00    -0.596 OA 
BRANCH  28  30
HETATM   30  C   UNL     1     -10.474  13.637  65.003  1.00  0.00    -0.406 C  
BRANCH  30  31
HETATM   31  C   UNL     1     -11.008  15.052  65.165  1.00  0.00    -0.417 C  
BRANCH  31  32
HETATM   32  C   UNL     1     -10.167  15.837  66.150  1.00  0.00    -0.315 C  
HETATM   33  N   UNL     1     -10.412  15.676  67.492  1.00  0.00    -0.279 N  
HETATM   34  O   UNL     1      -9.238  16.532  65.733  1.00  0.00    -0.486 OA 
HETATM   35  O   UNL     1     -11.684  15.250  67.922  1.00  0.00    -0.328 OA 
BRANCH  33  36
HETATM   36  C   UNL     1      -9.704  16.444  68.519  1.00  0.00    -0.228 C  
BRANCH  36  37
HETATM   37  C   UNL     1     -10.582  16.721  69.741  1.00  0.00    -0.174 C  
BRANCH  37  38
HETATM   38  C   UNL     1     -10.828  15.457  70.573  1.00  0.00    -0.327 C  
BRANCH  38  39
HETATM   39  C   UNL     1     -11.537  15.778  71.892  1.00  0.00    -0.545 C  
BRANCH  39  40
HETATM   40  C   UNL     1     -13.053  15.602  71.803  1.00  0.00    -0.466 C  
HETATM   41  N   UNL     1     -13.480  15.268  70.448  1.00  0.00    -0.678 NA 
HETATM   42  H2  UNL     1     -12.989  14.447  70.096  1.00  0.00     0.000 HD 
HETATM   43  H1  UNL     1     -14.492  15.151  70.389  1.00  0.00     0.000 HD 
ENDBRANCH  39  40
ENDBRANCH  38  39
ENDBRANCH  37  38
ENDBRANCH  36  37
ENDBRANCH  33  36
ENDBRANCH  31  32
ENDBRANCH  30  31
ENDBRANCH  28  30
ENDBRANCH  25  26
ENDBRANCH  24  25
ENDBRANCH  23  24
ENDBRANCH  22  23
ENDBRANCH  21  22
ENDBRANCH  19  21
ENDBRANCH  16  17
ENDBRANCH  15  16
ENDBRANCH  12  15
ENDBRANCH  10  11
ENDBRANCH   9  10
ENDBRANCH   8   9
ENDBRANCH   7   8
ENDBRANCH   6   7
ENDBRANCH   3   6
TORSDOF 23
ENDMDL
MODEL       82
REMARK 921   NORMALIZED FREE ENERGY PREDICTED BY IDOCK:   -4.95 KCAL/MOL
REMARK 922        TOTAL FREE ENERGY PREDICTED BY IDOCK:  -14.37 KCAL/MOL
REMARK 923 INTER-LIGAND FREE ENERGY PREDICTED BY IDOCK:  -11.59 KCAL/MOL
REMARK 924 INTRA-LIGAND FREE ENERGY PREDICTED BY IDOCK:   -2.78 KCAL/MOL
REMARK 927      BINDING AFFINITY PREDICTED BY RF-SCORE:    0.00 PKD
ROOT
HETATM    1  C   UNL     1     -12.232  13.682  63.733  1.00  0.00    -0.413 C  
HETATM    2  C   UNL     1     -11.683  14.324  64.980  1.00  0.00    -0.383 C  
HETATM    3  N   UNL     1     -11.227  15.611  64.865  1.00  0.00    -0.399 N  
HETATM    4  O   UNL     1     -11.628  13.688  66.034  1.00  0.00    -0.318 OA 
HETATM    5  O   UNL     1     -11.411  16.415  63.727  1.00  0.00    -0.899 OA 
ENDROOT
BRANCH   3   6
HETATM    6  C   UNL     1     -10.654  16.361  65.974  1.00  0.00    -0.269 C  
BRANCH   6   7
HETATM    7  C   UNL     1      -9.299  15.805  66.417  1.00  0.00    -0.333 C  
BRANCH   7   8
HETATM    8  C   UNL     1      -9.257  15.650  67.938  1.00  0.00    -0.190 C  
BRANCH   8   9
HETATM    9  C   UNL     1     -10.649  15.748  68.566  1.00  0.00    -0.253 C  
BRANCH   9  10
HETATM   10  C   UNL     1     -10.602  15.677  70.092  1.00  0.00    -0.334 C  
BRANCH  10  11
HETATM   11  N   UNL     1     -11.238  14.475  70.612  1.00  0.00    -0.504 N  
HETATM   12  C   UNL     1     -12.538  14.497  71.065  1.00  0.00    -0.340 C  
HETATM   13  H   UNL     1     -10.712  13.603  70.641  1.00  0.00     0.000 HD 
HETATM   14  O   UNL     1     -13.259  15.491  71.032  1.00  0.00    -0.498 OA 
BRANCH  12  15
HETATM   15  C   UNL     1     -13.006  13.161  71.601  1.00  0.00    -0.429 C  
BRANCH  15  16
HETATM   16  C   UNL     1     -12.381  12.017  70.806  1.00  0.00    -0.403 C  
BRANCH  16  17
HETATM   17  C   UNL     1     -12.712  10.658  71.390  1.00  0.00    -0.440 C  
HETATM   18  O   UNL     1     -13.750  10.473  72.023  1.00  0.00    -0.212 OA 
HETATM   19  N   UNL     1     -11.778   9.672  71.196  1.00  0.00    -0.341 N  
HETATM   20  O   UNL     1     -10.629   9.807  70.398  1.00  0.00    -0.265 OA 
BRANCH  19  21
HETATM   21  C   UNL     1     -11.896   8.331  71.748  1.00  0.00    -0.306 C  
BRANCH  21  22
HETATM   22  C   UNL     1     -10.797   8.020  72.768  1.00  0.00    -0.438 C  
BRANCH  22  23
HETATM   23  C   UNL     1     -10.725   6.526  73.136  1.00  0.00    -0.297 C  
BRANCH  23  24
HETATM   24  C   UNL     1      -9.299   6.034  73.392  1.00  0.00    -0.134 C  
BRANCH  24  25
HETATM   25  C   UNL     1      -8.800   5.145  72.255  1.00  0.00    -0.129 C  
BRANCH  25  26
HETATM   26  N   UNL     1      -9.204   5.654  70.960  1.00  0.00    -0.151 N  
HETATM   27  H   UNL     1      -9.144   6.656  70.781  1.00  0.00     0.000 HD 
HETATM   28  C   UNL     1      -9.666   4.824  69.966  1.00  0.00    -0.210 C  
HETATM   29  O   UNL     1      -9.753   3.606  70.087  1.00  0.00    -0.192 OA 
BRANCH  28  30
HETATM   30  C   UNL     1     -10.073   5.530  68.698  1.00  0.00    -0.246 C  
BRANCH  30  31
HETATM   31  C   UNL     1      -8.831   5.974  67.941  1.00  0.00    -0.110 C  
BRANCH  31  32
HETATM   32  C   UNL     1      -8.676   7.480  67.995  1.00  0.00    -0.121 C  
HETATM   33  N   UNL     1      -8.851   8.196  66.836  1.00  0.00    -0.127 N  
HETATM   34  O   UNL     1      -8.478   8.029  69.080  1.00  0.00    -0.133 OA 
HETATM   35  O   UNL     1      -8.650   7.569  65.591  1.00  0.00    -0.145 OA 
BRANCH  33  36
HETATM   36  C   UNL     1      -8.651   9.645  66.769  1.00  0.00    -0.134 C  
BRANCH  36  37
HETATM   37  C   UNL     1      -9.976  10.410  66.733  1.00  0.00    -0.256 C  
BRANCH  37  38
HETATM   38  C   UNL     1     -10.527  10.540  65.309  1.00  0.00    -0.232 C  
BRANCH  38  39
HETATM   39  C   UNL     1      -9.496  11.152  64.356  1.00  0.00    -0.251 C  
BRANCH  39  40
HETATM   40  C   UNL     1      -9.488  10.476  62.984  1.00  0.00    -0.335 C  
HETATM   41  N   UNL     1      -8.938   9.126  63.050  1.00  0.00    -0.422 NA 
HETATM   42  H2  UNL     1      -9.428   8.559  63.741  1.00  0.00     0.000 HD 
HETATM   43  H1  UNL     1      -8.933   8.675  62.135  1.00  0.00     0.000 HD 
ENDBRANCH  39  40
ENDBRANCH  38  39
ENDBRANCH  37  38
ENDBRANCH  36  37
ENDBRANCH  33  36
ENDBRANCH  31  32
ENDBRANCH  30  31
ENDBRANCH  28  30
ENDBRANCH  25  26
ENDBRANCH  24  25
ENDBRANCH  23  24
ENDBRANCH  22  23
ENDBRANCH  21  22
ENDBRANCH  19  21
ENDBRANCH  16  17
ENDBRANCH  15  16
ENDBRANCH  12  15
ENDBRANCH  10  11
ENDBRANCH   9  10
ENDBRANCH   8   9
ENDBRANCH   7   8
ENDBRANCH   6   7
ENDBRANCH   3   6
TORSDOF 23
ENDMDL
MODEL       83
REMARK 921   NORMALIZED FREE ENERGY PREDICTED BY IDOCK:   -4.93 KCAL/MOL
REMARK 922        TOTAL FREE ENERGY PREDICTED BY IDOCK:  -14.32 KCAL/MOL
REMARK 923 INTER-LIGAND FREE ENERGY PREDICTED BY IDOCK:  -11.70 KCAL/MOL
REMARK 924 INTRA-LIGAND FREE ENERGY PREDICTED BY IDOCK:   -2.62 KCAL/MOL
REMARK 927      BINDING AFFINITY PREDICTED BY RF-SCORE:    0.00 PKD
ROOT
HETATM    1  C   UNL     1     -10.637   4.799  72.603  1.00  0.00    -0.271 C  
HETATM    2  C   UNL     1     -10.910   5.847  71.556  1.00  0.00    -0.266 C  
HETATM    3  N   UNL     1     -11.205   7.107  72.005  1.00  0.00    -0.244 N  
HETATM    4  O   UNL     1     -10.894   5.550  70.361  1.00  0.00    -0.277 OA 
HETATM    5  O   UNL     1     -11.085   7.518  73.343  1.00  0.00    -0.344 OA 
ENDROOT
BRANCH   3   6
HETATM    6  C   UNL     1     -11.507   8.224  71.119  1.00  0.00    -0.273 C  
BRANCH   6   7
HETATM    7  C   UNL     1     -10.536   9.392  71.300  1.00  0.00    -0.385 C  
BRANCH   7   8
HETATM    8  C   UNL     1      -9.252   9.147  70.505  1.00  0.00    -0.286 C  
BRANCH   8   9
HETATM    9  C   UNL     1      -8.078   8.768  71.409  1.00  0.00    -0.189 C  
BRANCH   9  10
HETATM   10  C   UNL     1      -7.534   7.373  71.098  1.00  0.00    -0.077 C  
BRANCH  10  11
HETATM   11  N   UNL     1      -8.062   6.835  69.853  1.00  0.00    -0.123 N  
HETATM   12  C   UNL     1      -7.642   5.617  69.368  1.00  0.00    -0.083 C  
HETATM   13  H   UNL     1      -8.754   7.371  69.330  1.00  0.00     0.000 HD 
HETATM   14  O   UNL     1      -6.843   4.887  69.949  1.00  0.00    -0.045 OA 
BRANCH  12  15
HETATM   15  C   UNL     1      -8.277   5.250  68.044  1.00  0.00    -0.098 C  
BRANCH  15  16
HETATM   16  C   UNL     1      -9.246   6.341  67.596  1.00  0.00    -0.111 C  
BRANCH  16  17
HETATM   17  C   UNL     1      -8.732   7.115  66.397  1.00  0.00    -0.139 C  
HETATM   18  O   UNL     1      -7.806   6.685  65.712  1.00  0.00    -0.094 OA 
HETATM   19  N   UNL     1      -9.336   8.321  66.152  1.00  0.00    -0.204 N  
HETATM   20  O   UNL     1     -10.459   8.808  66.844  1.00  0.00    -0.285 OA 
BRANCH  19  21
HETATM   21  C   UNL     1      -8.923   9.228  65.092  1.00  0.00    -0.209 C  
BRANCH  21  22
HETATM   22  C   UNL     1      -9.111  10.699  65.474  1.00  0.00    -0.214 C  
BRANCH  22  23
HETATM   23  C   UNL     1      -9.441  11.596  64.266  1.00  0.00    -0.045 C  
BRANCH  23  24
HETATM   24  C   UNL     1     -10.657  11.118  63.472  1.00  0.00    -0.393 C  
BRANCH  24  25
HETATM   25  C   UNL     1     -11.806  12.120  63.548  1.00  0.00    -0.505 C  
BRANCH  25  26
HETATM   26  N   UNL     1     -11.348  13.429  63.969  1.00  0.00    -0.539 N  
HETATM   27  H   UNL     1     -10.411  13.734  63.705  1.00  0.00     0.000 HD 
HETATM   28  C   UNL     1     -12.140  14.271  64.712  1.00  0.00    -0.446 C  
HETATM   29  O   UNL     1     -13.286  13.996  65.056  1.00  0.00    -0.720 OA 
BRANCH  28  30
HETATM   30  C   UNL     1     -11.488  15.577  65.088  1.00  0.00    -0.156 C  
BRANCH  30  31
HETATM   31  C   UNL     1     -10.317  15.312  66.021  1.00  0.00    -0.327 C  
BRANCH  31  32
HETATM   32  C   UNL     1     -10.752  14.488  67.215  1.00  0.00    -0.287 C  
HETATM   33  N   UNL     1     -11.459  15.111  68.215  1.00  0.00    -0.325 N  
HETATM   34  O   UNL     1     -10.536  13.275  67.223  1.00  0.00    -0.246 OA 
HETATM   35  O   UNL     1     -11.327  16.500  68.401  1.00  0.00    -0.348 OA 
BRANCH  33  36
HETATM   36  C   UNL     1     -11.861  14.418  69.442  1.00  0.00    -0.325 C  
BRANCH  36  37
HETATM   37  C   UNL     1     -12.128  15.391  70.592  1.00  0.00    -0.412 C  
BRANCH  37  38
HETATM   38  C   UNL     1     -13.535  15.222  71.176  1.00  0.00    -0.559 C  
BRANCH  38  39
HETATM   39  C   UNL     1     -13.636  15.808  72.587  1.00  0.00    -0.630 C  
BRANCH  39  40
HETATM   40  C   UNL     1     -12.290  15.826  73.314  1.00  0.00    -0.502 C  
HETATM   41  N   UNL     1     -12.247  14.848  74.396  1.00  0.00    -0.711 NA 
HETATM   42  H2  UNL     1     -12.475  13.913  74.060  1.00  0.00     0.000 HD 
HETATM   43  H1  UNL     1     -11.349  14.860  74.881  1.00  0.00     0.000 HD 
ENDBRANCH  39  40
ENDBRANCH  38  39
ENDBRANCH  37  38
ENDBRANCH  36  37
ENDBRANCH  33  36
ENDBRANCH  31  32
ENDBRANCH  30  31
ENDBRANCH  28  30
ENDBRANCH  25  26
ENDBRANCH  24  25
ENDBRANCH  23  24
ENDBRANCH  22  23
ENDBRANCH  21  22
ENDBRANCH  19  21
ENDBRANCH  16  17
ENDBRANCH  15  16
ENDBRANCH  12  15
ENDBRANCH  10  11
ENDBRANCH   9  10
ENDBRANCH   8   9
ENDBRANCH   7   8
ENDBRANCH   6   7
ENDBRANCH   3   6
TORSDOF 23
ENDMDL
MODEL       84
REMARK 921   NORMALIZED FREE ENERGY PREDICTED BY IDOCK:   -4.93 KCAL/MOL
REMARK 922        TOTAL FREE ENERGY PREDICTED BY IDOCK:  -14.30 KCAL/MOL
REMARK 923 INTER-LIGAND FREE ENERGY PREDICTED BY IDOCK:  -10.99 KCAL/MOL
REMARK 924 INTRA-LIGAND FREE ENERGY PREDICTED BY IDOCK:   -3.31 KCAL/MOL
REMARK 927      BINDING AFFINITY PREDICTED BY RF-SCORE:    0.00 PKD
ROOT
HETATM    1  C   UNL     1      -9.196  10.622  65.302  1.00  0.00    -0.230 C  
HETATM    2  C   UNL     1     -10.247  11.161  64.367  1.00  0.00    -0.330 C  
HETATM    3  N   UNL     1     -11.442  11.530  64.927  1.00  0.00    -0.127 N  
HETATM    4  O   UNL     1     -10.028  11.225  63.157  1.00  0.00    -0.341 OA 
HETATM    5  O   UNL     1     -11.674  11.613  66.310  1.00  0.00    -0.443 OA 
ENDROOT
BRANCH   3   6
HETATM    6  C   UNL     1     -12.561  12.054  64.155  1.00  0.00    -0.308 C  
BRANCH   6   7
HETATM    7  C   UNL     1     -12.251  13.414  63.527  1.00  0.00    -0.468 C  
BRANCH   7   8
HETATM    8  C   UNL     1     -12.160  14.493  64.608  1.00  0.00    -0.486 C  
BRANCH   8   9
HETATM    9  C   UNL     1     -10.755  15.090  64.710  1.00  0.00    -0.354 C  
BRANCH   9  10
HETATM   10  C   UNL     1     -10.051  14.696  66.008  1.00  0.00    -0.311 C  
BRANCH  10  11
HETATM   11  N   UNL     1     -10.637  15.338  67.175  1.00  0.00    -0.295 N  
HETATM   12  C   UNL     1      -9.927  16.258  67.913  1.00  0.00    -0.241 C  
HETATM   13  H   UNL     1     -11.590  15.102  67.451  1.00  0.00     0.000 HD 
HETATM   14  O   UNL     1      -8.791  16.632  67.633  1.00  0.00    -0.198 OA 
BRANCH  12  15
HETATM   15  C   UNL     1     -10.693  16.784  69.108  1.00  0.00    -0.329 C  
BRANCH  15  16
HETATM   16  C   UNL     1     -11.942  15.942  69.355  1.00  0.00    -0.268 C  
BRANCH  16  17
HETATM   17  C   UNL     1     -11.919  15.256  70.707  1.00  0.00    -0.339 C  
HETATM   18  O   UNL     1     -10.863  14.880  71.212  1.00  0.00    -0.070 OA 
HETATM   19  N   UNL     1     -13.137  15.057  71.305  1.00  0.00    -0.370 N  
HETATM   20  O   UNL     1     -14.358  15.554  70.816  1.00  0.00    -0.284 OA 
BRANCH  19  21
HETATM   21  C   UNL     1     -13.310  14.351  72.566  1.00  0.00    -0.486 C  
BRANCH  21  22
HETATM   22  C   UNL     1     -13.966  12.980  72.383  1.00  0.00    -0.426 C  
BRANCH  22  23
HETATM   23  C   UNL     1     -12.974  11.896  71.922  1.00  0.00    -0.434 C  
BRANCH  23  24
HETATM   24  C   UNL     1     -13.645  10.562  71.593  1.00  0.00    -0.167 C  
BRANCH  24  25
HETATM   25  C   UNL     1     -12.897   9.388  72.220  1.00  0.00    -0.375 C  
BRANCH  25  26
HETATM   26  N   UNL     1     -12.788   8.271  71.303  1.00  0.00    -0.474 N  
HETATM   27  H   UNL     1     -13.569   8.062  70.681  1.00  0.00     0.000 HD 
HETATM   28  C   UNL     1     -11.661   7.485  71.248  1.00  0.00    -0.281 C  
HETATM   29  O   UNL     1     -10.668   7.675  71.943  1.00  0.00    -0.212 OA 
BRANCH  28  30
HETATM   30  C   UNL     1     -11.736   6.350  70.260  1.00  0.00    -0.389 C  
BRANCH  30  31
HETATM   31  C   UNL     1     -10.394   5.637  70.199  1.00  0.00    -0.341 C  
BRANCH  31  32
HETATM   32  C   UNL     1      -9.434   6.370  69.285  1.00  0.00    -0.135 C  
HETATM   33  N   UNL     1      -8.111   6.439  69.648  1.00  0.00    -0.122 N  
HETATM   34  O   UNL     1      -9.842   6.812  68.209  1.00  0.00    -0.139 OA 
HETATM   35  O   UNL     1      -7.753   6.326  71.005  1.00  0.00    -0.100 OA 
BRANCH  33  36
HETATM   36  C   UNL     1      -7.120   7.186  68.869  1.00  0.00    -0.084 C  
BRANCH  36  37
HETATM   37  C   UNL     1      -6.805   8.547  69.491  1.00  0.00    -0.044 C  
BRANCH  37  38
HETATM   38  C   UNL     1      -7.691   9.661  68.922  1.00  0.00    -0.077 C  
BRANCH  38  39
HETATM   39  C   UNL     1      -8.913   9.918  69.809  1.00  0.00    -0.242 C  
BRANCH  39  40
HETATM   40  C   UNL     1     -10.060  10.588  69.050  1.00  0.00    -0.217 C  
HETATM   41  N   UNL     1     -11.157   9.659  68.798  1.00  0.00    -0.450 NA 
HETATM   42  H2  UNL     1     -11.485   9.228  69.662  1.00  0.00     0.000 HD 
HETATM   43  H1  UNL     1     -11.922  10.105  68.291  1.00  0.00     0.000 HD 
ENDBRANCH  39  40
ENDBRANCH  38  39
ENDBRANCH  37  38
ENDBRANCH  36  37
ENDBRANCH  33  36
ENDBRANCH  31  32
ENDBRANCH  30  31
ENDBRANCH  28  30
ENDBRANCH  25  26
ENDBRANCH  24  25
ENDBRANCH  23  24
ENDBRANCH  22  23
ENDBRANCH  21  22
ENDBRANCH  19  21
ENDBRANCH  16  17
ENDBRANCH  15  16
ENDBRANCH  12  15
ENDBRANCH  10  11
ENDBRANCH   9  10
ENDBRANCH   8   9
ENDBRANCH   7   8
ENDBRANCH   6   7
ENDBRANCH   3   6
TORSDOF 23
ENDMDL
MODEL       85
REMARK 921   NORMALIZED FREE ENERGY PREDICTED BY IDOCK:   -4.92 KCAL/MOL
REMARK 922        TOTAL FREE ENERGY PREDICTED BY IDOCK:  -14.29 KCAL/MOL
REMARK 923 INTER-LIGAND FREE ENERGY PREDICTED BY IDOCK:  -11.28 KCAL/MOL
REMARK 924 INTRA-LIGAND FREE ENERGY PREDICTED BY IDOCK:   -3.01 KCAL/MOL
REMARK 927      BINDING AFFINITY PREDICTED BY RF-SCORE:    0.00 PKD
ROOT
HETATM    1  C   UNL     1      -7.107  20.843  67.076  1.00  0.00    -0.379 C  
HETATM    2  C   UNL     1      -7.498  19.442  66.687  1.00  0.00    -0.241 C  
HETATM    3  N   UNL     1      -7.533  18.509  67.690  1.00  0.00    -0.227 N  
HETATM    4  O   UNL     1      -7.738  19.167  65.511  1.00  0.00    -0.432 OA 
HETATM    5  O   UNL     1      -7.415  18.813  69.056  1.00  0.00    -0.305 OA 
ENDROOT
BRANCH   3   6
HETATM    6  C   UNL     1      -7.877  17.110  67.472  1.00  0.00    -0.175 C  
BRANCH   6   7
HETATM    7  C   UNL     1      -6.649  16.247  67.176  1.00  0.00    -0.230 C  
BRANCH   7   8
HETATM    8  C   UNL     1      -6.827  14.846  67.765  1.00  0.00    -0.193 C  
BRANCH   8   9
HETATM    9  C   UNL     1      -6.963  14.875  69.289  1.00  0.00    -0.151 C  
BRANCH   9  10
HETATM   10  C   UNL     1      -6.438  13.596  69.943  1.00  0.00    -0.035 C  
BRANCH  10  11
HETATM   11  N   UNL     1      -6.227  12.526  68.979  1.00  0.00    -0.080 N  
HETATM   12  C   UNL     1      -6.362  11.205  69.341  1.00  0.00    -0.088 C  
HETATM   13  H   UNL     1      -5.974  12.760  68.019  1.00  0.00     0.000 HD 
HETATM   14  O   UNL     1      -6.701  10.833  70.461  1.00  0.00    -0.312 OA 
BRANCH  12  15
HETATM   15  C   UNL     1      -6.064  10.243  68.211  1.00  0.00    -0.044 C  
BRANCH  15  16
HETATM   16  C   UNL     1      -7.345   9.561  67.738  1.00  0.00    -0.083 C  
BRANCH  16  17
HETATM   17  C   UNL     1      -7.758  10.006  66.348  1.00  0.00    -0.103 C  
HETATM   18  O   UNL     1      -7.027  10.722  65.667  1.00  0.00    -0.113 OA 
HETATM   19  N   UNL     1      -8.993   9.590  65.922  1.00  0.00    -0.161 N  
HETATM   20  O   UNL     1      -9.819   8.693  66.620  1.00  0.00    -0.219 OA 
BRANCH  19  21
HETATM   21  C   UNL     1      -9.580   9.982  64.649  1.00  0.00    -0.297 C  
BRANCH  21  22
HETATM   22  C   UNL     1     -10.325  11.317  64.735  1.00  0.00    -0.366 C  
BRANCH  22  23
HETATM   23  C   UNL     1     -11.042  11.690  63.424  1.00  0.00    -0.422 C  
BRANCH  23  24
HETATM   24  C   UNL     1     -12.472  12.189  63.638  1.00  0.00    -0.658 C  
BRANCH  24  25
HETATM   25  C   UNL     1     -12.504  13.682  63.955  1.00  0.00    -0.213 C  
BRANCH  25  26
HETATM   26  N   UNL     1     -12.590  13.925  65.381  1.00  0.00    -0.559 N  
HETATM   27  H   UNL     1     -13.432  13.638  65.882  1.00  0.00     0.000 HD 
HETATM   28  C   UNL     1     -11.572  14.530  66.077  1.00  0.00    -0.356 C  
HETATM   29  O   UNL     1     -10.518  14.889  65.561  1.00  0.00    -0.309 OA 
BRANCH  28  30
HETATM   30  C   UNL     1     -11.848  14.733  67.545  1.00  0.00    -0.326 C  
BRANCH  30  31
HETATM   31  C   UNL     1     -10.599  14.408  68.348  1.00  0.00    -0.248 C  
BRANCH  31  32
HETATM   32  C   UNL     1     -10.435  12.912  68.514  1.00  0.00    -0.247 C  
HETATM   33  N   UNL     1     -11.414  12.218  69.182  1.00  0.00    -0.277 N  
HETATM   34  O   UNL     1      -9.479  12.346  67.980  1.00  0.00    -0.195 OA 
HETATM   35  O   UNL     1     -12.230  12.886  70.115  1.00  0.00    -0.322 OA 
BRANCH  33  36
HETATM   36  C   UNL     1     -11.313  10.783  69.456  1.00  0.00    -0.289 C  
BRANCH  36  37
HETATM   37  C   UNL     1     -11.428  10.471  70.949  1.00  0.00    -0.304 C  
BRANCH  37  38
HETATM   38  C   UNL     1     -10.829   9.105  71.302  1.00  0.00    -0.402 C  
BRANCH  38  39
HETATM   39  C   UNL     1     -11.629   8.404  72.404  1.00  0.00    -0.450 C  
BRANCH  39  40
HETATM   40  C   UNL     1     -13.114   8.274  72.062  1.00  0.00    -0.327 C  
HETATM   41  N   UNL     1     -13.947   9.070  72.958  1.00  0.00    -1.141 NA 
HETATM   42  H2  UNL     1     -13.653  10.046  72.971  1.00  0.00     0.000 HD 
HETATM   43  H1  UNL     1     -14.938   8.983  72.729  1.00  0.00     0.000 HD 
ENDBRANCH  39  40
ENDBRANCH  38  39
ENDBRANCH  37  38
ENDBRANCH  36  37
ENDBRANCH  33  36
ENDBRANCH  31  32
ENDBRANCH  30  31
ENDBRANCH  28  30
ENDBRANCH  25  26
ENDBRANCH  24  25
ENDBRANCH  23  24
ENDBRANCH  22  23
ENDBRANCH  21  22
ENDBRANCH  19  21
ENDBRANCH  16  17
ENDBRANCH  15  16
ENDBRANCH  12  15
ENDBRANCH  10  11
ENDBRANCH   9  10
ENDBRANCH   8   9
ENDBRANCH   7   8
ENDBRANCH   6   7
ENDBRANCH   3   6
TORSDOF 23
ENDMDL
MODEL       86
REMARK 921   NORMALIZED FREE ENERGY PREDICTED BY IDOCK:   -4.91 KCAL/MOL
REMARK 922        TOTAL FREE ENERGY PREDICTED BY IDOCK:  -14.27 KCAL/MOL
REMARK 923 INTER-LIGAND FREE ENERGY PREDICTED BY IDOCK:  -11.37 KCAL/MOL
REMARK 924 INTRA-LIGAND FREE ENERGY PREDICTED BY IDOCK:   -2.90 KCAL/MOL
REMARK 927      BINDING AFFINITY PREDICTED BY RF-SCORE:    0.00 PKD
ROOT
HETATM    1  C   UNL     1     -10.536  18.961  66.423  1.00  0.00    -0.505 C  
HETATM    2  C   UNL     1     -10.228  17.489  66.511  1.00  0.00    -0.342 C  
HETATM    3  N   UNL     1     -10.707  16.695  65.501  1.00  0.00    -0.296 N  
HETATM    4  O   UNL     1      -9.602  17.041  67.472  1.00  0.00    -0.244 OA 
HETATM    5  O   UNL     1     -11.289  17.185  64.320  1.00  0.00    -1.126 OA 
ENDROOT
BRANCH   3   6
HETATM    6  C   UNL     1     -10.507  15.253  65.451  1.00  0.00    -0.398 C  
BRANCH   6   7
HETATM    7  C   UNL     1     -11.447  14.569  64.457  1.00  0.00    -0.349 C  
BRANCH   7   8
HETATM    8  C   UNL     1     -12.500  13.743  65.199  1.00  0.00    -0.483 C  
BRANCH   8   9
HETATM    9  C   UNL     1     -12.190  12.245  65.159  1.00  0.00    -0.345 C  
BRANCH   9  10
HETATM   10  C   UNL     1     -11.132  11.900  64.110  1.00  0.00    -0.375 C  
BRANCH  10  11
HETATM   11  N   UNL     1      -9.790  11.843  64.672  1.00  0.00    -0.382 N  
HETATM   12  C   UNL     1      -9.291  10.677  65.208  1.00  0.00    -0.214 C  
HETATM   13  H   UNL     1      -9.210  12.682  64.668  1.00  0.00     0.000 HD 
HETATM   14  O   UNL     1      -9.903   9.612  65.220  1.00  0.00    -0.310 OA 
BRANCH  12  15
HETATM   15  C   UNL     1      -7.896  10.830  65.776  1.00  0.00    -0.106 C  
BRANCH  15  16
HETATM   16  C   UNL     1      -7.957  11.099  67.277  1.00  0.00    -0.137 C  
BRANCH  16  17
HETATM   17  C   UNL     1      -8.631  12.418  67.602  1.00  0.00    -0.172 C  
HETATM   18  O   UNL     1      -8.075  13.490  67.372  1.00  0.00    -0.172 OA 
HETATM   19  N   UNL     1      -9.868  12.336  68.189  1.00  0.00    -0.207 N  
HETATM   20  O   UNL     1     -10.584  11.142  68.380  1.00  0.00    -0.175 OA 
BRANCH  19  21
HETATM   21  C   UNL     1     -10.626  13.496  68.634  1.00  0.00    -0.244 C  
BRANCH  21  22
HETATM   22  C   UNL     1     -12.035  13.126  69.107  1.00  0.00    -0.329 C  
BRANCH  22  23
HETATM   23  C   UNL     1     -12.240  13.353  70.617  1.00  0.00    -0.427 C  
BRANCH  23  24
HETATM   24  C   UNL     1     -12.587  12.072  71.378  1.00  0.00    -0.330 C  
BRANCH  24  25
HETATM   25  C   UNL     1     -12.804  10.896  70.428  1.00  0.00    -0.184 C  
BRANCH  25  26
HETATM   26  N   UNL     1     -12.099   9.711  70.875  1.00  0.00    -0.327 N  
HETATM   27  H   UNL     1     -11.254   9.422  70.382  1.00  0.00     0.000 HD 
HETATM   28  C   UNL     1     -12.538   8.966  71.944  1.00  0.00    -0.377 C  
HETATM   29  O   UNL     1     -13.531   9.250  72.606  1.00  0.00    -0.444 OA 
BRANCH  28  30
HETATM   30  C   UNL     1     -11.701   7.749  72.246  1.00  0.00    -0.390 C  
BRANCH  30  31
HETATM   31  C   UNL     1     -11.719   6.809  71.051  1.00  0.00    -0.406 C  
BRANCH  31  32
HETATM   32  C   UNL     1     -10.346   6.219  70.807  1.00  0.00    -0.206 C  
HETATM   33  N   UNL     1      -9.377   7.024  70.258  1.00  0.00    -0.159 N  
HETATM   34  O   UNL     1     -10.108   5.068  71.178  1.00  0.00    -0.204 OA 
HETATM   35  O   UNL     1      -9.753   8.133  69.476  1.00  0.00    -0.167 OA 
BRANCH  33  36
HETATM   36  C   UNL     1      -8.042   6.527  69.917  1.00  0.00    -0.121 C  
BRANCH  36  37
HETATM   37  C   UNL     1      -8.043   5.712  68.622  1.00  0.00    -0.100 C  
BRANCH  37  38
HETATM   38  C   UNL     1      -7.189   6.365  67.530  1.00  0.00    -0.086 C  
BRANCH  38  39
HETATM   39  C   UNL     1      -8.050   6.883  66.373  1.00  0.00    -0.113 C  
BRANCH  39  40
HETATM   40  C   UNL     1      -7.462   6.541  65.003  1.00  0.00    -0.085 C  
HETATM   41  N   UNL     1      -8.281   7.069  63.917  1.00  0.00    -0.337 NA 
HETATM   42  H2  UNL     1      -8.430   8.073  64.017  1.00  0.00     0.000 HD 
HETATM   43  H1  UNL     1      -7.888   6.841  63.003  1.00  0.00     0.000 HD 
ENDBRANCH  39  40
ENDBRANCH  38  39
ENDBRANCH  37  38
ENDBRANCH  36  37
ENDBRANCH  33  36
ENDBRANCH  31  32
ENDBRANCH  30  31
ENDBRANCH  28  30
ENDBRANCH  25  26
ENDBRANCH  24  25
ENDBRANCH  23  24
ENDBRANCH  22  23
ENDBRANCH  21  22
ENDBRANCH  19  21
ENDBRANCH  16  17
ENDBRANCH  15  16
ENDBRANCH  12  15
ENDBRANCH  10  11
ENDBRANCH   9  10
ENDBRANCH   8   9
ENDBRANCH   7   8
ENDBRANCH   6   7
ENDBRANCH   3   6
TORSDOF 23
ENDMDL
MODEL       87
REMARK 921   NORMALIZED FREE ENERGY PREDICTED BY IDOCK:   -4.91 KCAL/MOL
REMARK 922        TOTAL FREE ENERGY PREDICTED BY IDOCK:  -14.26 KCAL/MOL
REMARK 923 INTER-LIGAND FREE ENERGY PREDICTED BY IDOCK:  -10.64 KCAL/MOL
REMARK 924 INTRA-LIGAND FREE ENERGY PREDICTED BY IDOCK:   -3.62 KCAL/MOL
REMARK 927      BINDING AFFINITY PREDICTED BY RF-SCORE:    0.00 PKD
ROOT
HETATM    1  C   UNL     1     -11.292  16.175  70.253  1.00  0.00    -0.363 C  
HETATM    2  C   UNL     1     -11.189  16.317  68.757  1.00  0.00    -0.343 C  
HETATM    3  N   UNL     1     -10.627  17.473  68.282  1.00  0.00    -0.374 N  
HETATM    4  O   UNL     1     -11.627  15.435  68.018  1.00  0.00    -0.344 OA 
HETATM    5  O   UNL     1      -9.984  18.428  69.088  1.00  0.00    -0.322 OA 
ENDROOT
BRANCH   3   6
HETATM    6  C   UNL     1     -10.472  17.766  66.864  1.00  0.00    -0.307 C  
BRANCH   6   7
HETATM    7  C   UNL     1      -9.022  17.630  66.396  1.00  0.00    -0.255 C  
BRANCH   7   8
HETATM    8  C   UNL     1      -8.685  16.165  66.116  1.00  0.00    -0.358 C  
BRANCH   8   9
HETATM    9  C   UNL     1      -7.618  15.626  67.072  1.00  0.00    -0.245 C  
BRANCH   9  10
HETATM   10  C   UNL     1      -8.045  14.320  67.741  1.00  0.00    -0.170 C  
BRANCH  10  11
HETATM   11  N   UNL     1      -9.300  13.808  67.211  1.00  0.00    -0.230 N  
HETATM   12  C   UNL     1      -9.396  12.524  66.722  1.00  0.00    -0.230 C  
HETATM   13  H   UNL     1     -10.122  14.411  67.201  1.00  0.00     0.000 HD 
HETATM   14  O   UNL     1      -8.470  11.717  66.730  1.00  0.00    -0.176 OA 
BRANCH  12  15
HETATM   15  C   UNL     1     -10.770  12.192  66.181  1.00  0.00    -0.307 C  
BRANCH  15  16
HETATM   16  C   UNL     1     -11.815  12.272  67.291  1.00  0.00    -0.330 C  
BRANCH  16  17
HETATM   17  C   UNL     1     -11.656  11.166  68.316  1.00  0.00    -0.289 C  
HETATM   18  O   UNL     1     -11.369  10.020  67.975  1.00  0.00    -0.203 OA 
HETATM   19  N   UNL     1     -11.882  11.515  69.622  1.00  0.00    -0.327 N  
HETATM   20  O   UNL     1     -12.114  12.827  70.070  1.00  0.00    -0.328 OA 
BRANCH  19  21
HETATM   21  C   UNL     1     -11.846  10.568  70.727  1.00  0.00    -0.365 C  
BRANCH  21  22
HETATM   22  C   UNL     1     -12.954  10.823  71.752  1.00  0.00    -0.568 C  
BRANCH  22  23
HETATM   23  C   UNL     1     -13.457   9.532  72.426  1.00  0.00    -0.475 C  
BRANCH  23  24
HETATM   24  C   UNL     1     -13.804   8.425  71.430  1.00  0.00    -0.307 C  
BRANCH  24  25
HETATM   25  C   UNL     1     -12.932   7.189  71.639  1.00  0.00    -0.370 C  
BRANCH  25  26
HETATM   26  N   UNL     1     -11.800   7.472  72.498  1.00  0.00    -0.500 N  
HETATM   27  H   UNL     1     -11.514   8.441  72.638  1.00  0.00     0.000 HD 
HETATM   28  C   UNL     1     -11.101   6.471  73.130  1.00  0.00    -0.166 C  
HETATM   29  O   UNL     1     -11.386   5.281  73.035  1.00  0.00    -0.305 OA 
BRANCH  28  30
HETATM   30  C   UNL     1      -9.934   6.946  73.957  1.00  0.00    -0.371 C  
BRANCH  30  31
HETATM   31  C   UNL     1      -9.133   7.969  73.167  1.00  0.00    -0.341 C  
BRANCH  31  32
HETATM   32  C   UNL     1      -8.174   7.287  72.214  1.00  0.00    -0.101 C  
HETATM   33  N   UNL     1      -8.353   7.468  70.864  1.00  0.00    -0.113 N  
HETATM   34  O   UNL     1      -7.215   6.658  72.669  1.00  0.00    -0.079 OA 
HETATM   35  O   UNL     1      -9.629   7.800  70.370  1.00  0.00    -0.174 OA 
BRANCH  33  36
HETATM   36  C   UNL     1      -7.525   6.793  69.863  1.00  0.00    -0.095 C  
BRANCH  36  37
HETATM   37  C   UNL     1      -6.894   7.778  68.877  1.00  0.00    -0.058 C  
BRANCH  37  38
HETATM   38  C   UNL     1      -6.754   7.179  67.473  1.00  0.00    -0.064 C  
BRANCH  38  39
HETATM   39  C   UNL     1      -8.111   7.050  66.775  1.00  0.00    -0.109 C  
BRANCH  39  40
HETATM   40  C   UNL     1      -8.994   8.284  66.974  1.00  0.00    -0.140 C  
HETATM   41  N   UNL     1      -9.438   8.842  65.701  1.00  0.00    -0.435 NA 
HETATM   42  H2  UNL     1      -9.905   8.138  65.129  1.00  0.00     0.000 HD 
HETATM   43  H1  UNL     1     -10.027   9.665  65.833  1.00  0.00     0.000 HD 
ENDBRANCH  39  40
ENDBRANCH  38  39
ENDBRANCH  37  38
ENDBRANCH  36  37
ENDBRANCH  33  36
ENDBRANCH  31  32
ENDBRANCH  30  31
ENDBRANCH  28  30
ENDBRANCH  25  26
ENDBRANCH  24  25
ENDBRANCH  23  24
ENDBRANCH  22  23
ENDBRANCH  21  22
ENDBRANCH  19  21
ENDBRANCH  16  17
ENDBRANCH  15  16
ENDBRANCH  12  15
ENDBRANCH  10  11
ENDBRANCH   9  10
ENDBRANCH   8   9
ENDBRANCH   7   8
ENDBRANCH   6   7
ENDBRANCH   3   6
TORSDOF 23
ENDMDL
MODEL       88
REMARK 921   NORMALIZED FREE ENERGY PREDICTED BY IDOCK:   -4.89 KCAL/MOL
REMARK 922        TOTAL FREE ENERGY PREDICTED BY IDOCK:  -14.23 KCAL/MOL
REMARK 923 INTER-LIGAND FREE ENERGY PREDICTED BY IDOCK:  -11.18 KCAL/MOL
REMARK 924 INTRA-LIGAND FREE ENERGY PREDICTED BY IDOCK:   -3.04 KCAL/MOL
REMARK 927      BINDING AFFINITY PREDICTED BY RF-SCORE:    0.00 PKD
ROOT
HETATM    1  C   UNL     1      -9.876   5.234  66.085  1.00  0.00    -0.186 C  
HETATM    2  C   UNL     1     -10.079   6.624  66.626  1.00  0.00    -0.135 C  
HETATM    3  N   UNL     1      -9.030   7.497  66.501  1.00  0.00    -0.155 N  
HETATM    4  O   UNL     1     -11.137   6.927  67.180  1.00  0.00    -0.370 OA 
HETATM    5  O   UNL     1      -7.873   7.238  65.747  1.00  0.00    -0.096 OA 
ENDROOT
BRANCH   3   6
HETATM    6  C   UNL     1      -9.066   8.869  66.987  1.00  0.00    -0.135 C  
BRANCH   6   7
HETATM    7  C   UNL     1      -8.189   9.806  66.154  1.00  0.00    -0.120 C  
BRANCH   7   8
HETATM    8  C   UNL     1      -9.041  10.900  65.507  1.00  0.00    -0.221 C  
BRANCH   8   9
HETATM    9  C   UNL     1      -9.929  10.352  64.389  1.00  0.00    -0.388 C  
BRANCH   9  10
HETATM   10  C   UNL     1     -10.220  11.399  63.313  1.00  0.00    -0.385 C  
BRANCH  10  11
HETATM   11  N   UNL     1     -10.530  12.704  63.877  1.00  0.00    -0.423 N  
HETATM   12  C   UNL     1     -11.830  13.076  64.140  1.00  0.00    -0.416 C  
HETATM   13  H   UNL     1      -9.772  13.355  64.081  1.00  0.00     0.000 HD 
HETATM   14  O   UNL     1     -12.800  12.344  63.963  1.00  0.00    -0.717 OA 
BRANCH  12  15
HETATM   15  C   UNL     1     -11.950  14.482  64.687  1.00  0.00    -0.478 C  
BRANCH  15  16
HETATM   16  C   UNL     1     -10.577  15.146  64.761  1.00  0.00    -0.305 C  
BRANCH  16  17
HETATM   17  C   UNL     1     -10.029  15.182  66.174  1.00  0.00    -0.295 C  
HETATM   18  O   UNL     1      -9.616  14.162  66.723  1.00  0.00    -0.261 OA 
HETATM   19  N   UNL     1     -10.053  16.402  66.801  1.00  0.00    -0.276 N  
HETATM   20  O   UNL     1     -10.421  17.610  66.184  1.00  0.00    -0.361 OA 
BRANCH  19  21
HETATM   21  C   UNL     1      -9.636  16.608  68.180  1.00  0.00    -0.228 C  
BRANCH  21  22
HETATM   22  C   UNL     1     -10.811  16.944  69.102  1.00  0.00    -0.237 C  
BRANCH  22  23
HETATM   23  C   UNL     1     -11.807  15.779  69.256  1.00  0.00    -0.358 C  
BRANCH  23  24
HETATM   24  C   UNL     1     -11.226  14.582  70.011  1.00  0.00    -0.228 C  
BRANCH  24  25
HETATM   25  C   UNL     1     -12.290  13.521  70.284  1.00  0.00    -0.300 C  
BRANCH  25  26
HETATM   26  N   UNL     1     -11.697  12.227  70.556  1.00  0.00    -0.482 N  
HETATM   27  H   UNL     1     -11.314  12.043  71.484  1.00  0.00     0.000 HD 
HETATM   28  C   UNL     1     -11.637  11.241  69.601  1.00  0.00    -0.330 C  
HETATM   29  O   UNL     1     -12.089  11.368  68.467  1.00  0.00    -0.550 OA 
BRANCH  28  30
HETATM   30  C   UNL     1     -10.956   9.973  70.049  1.00  0.00    -0.352 C  
BRANCH  30  31
HETATM   31  C   UNL     1     -11.718   9.373  71.220  1.00  0.00    -0.432 C  
BRANCH  31  32
HETATM   32  C   UNL     1     -10.947   8.223  71.834  1.00  0.00    -0.287 C  
HETATM   33  N   UNL     1     -11.184   6.953  71.367  1.00  0.00    -0.250 N  
HETATM   34  O   UNL     1     -10.075   8.460  72.672  1.00  0.00    -0.292 OA 
HETATM   35  O   UNL     1     -12.419   6.653  70.761  1.00  0.00    -0.314 OA 
BRANCH  33  36
HETATM   36  C   UNL     1     -10.543   5.770  71.945  1.00  0.00    -0.232 C  
BRANCH  36  37
HETATM   37  C   UNL     1      -9.622   5.067  70.947  1.00  0.00    -0.242 C  
BRANCH  37  38
HETATM   38  C   UNL     1      -9.117   6.019  69.858  1.00  0.00    -0.147 C  
BRANCH  38  39
HETATM   39  C   UNL     1      -7.593   5.963  69.720  1.00  0.00    -0.081 C  
BRANCH  39  40
HETATM   40  C   UNL     1      -6.891   7.073  70.503  1.00  0.00    -0.057 C  
HETATM   41  N   UNL     1      -7.484   8.380  70.239  1.00  0.00    -0.061 NA 
HETATM   42  H2  UNL     1      -8.487   8.376  70.419  1.00  0.00     0.000 HD 
HETATM   43  H1  UNL     1      -7.015   9.121  70.761  1.00  0.00     0.000 HD 
ENDBRANCH  39  40
ENDBRANCH  38  39
ENDBRANCH  37  38
ENDBRANCH  36  37
ENDBRANCH  33  36
ENDBRANCH  31  32
ENDBRANCH  30  31
ENDBRANCH  28  30
ENDBRANCH  25  26
ENDBRANCH  24  25
ENDBRANCH  23  24
ENDBRANCH  22  23
ENDBRANCH  21  22
ENDBRANCH  19  21
ENDBRANCH  16  17
ENDBRANCH  15  16
ENDBRANCH  12  15
ENDBRANCH  10  11
ENDBRANCH   9  10
ENDBRANCH   8   9
ENDBRANCH   7   8
ENDBRANCH   6   7
ENDBRANCH   3   6
TORSDOF 23
ENDMDL
MODEL       89
REMARK 921   NORMALIZED FREE ENERGY PREDICTED BY IDOCK:   -4.89 KCAL/MOL
REMARK 922        TOTAL FREE ENERGY PREDICTED BY IDOCK:  -14.21 KCAL/MOL
REMARK 923 INTER-LIGAND FREE ENERGY PREDICTED BY IDOCK:  -10.68 KCAL/MOL
REMARK 924 INTRA-LIGAND FREE ENERGY PREDICTED BY IDOCK:   -3.52 KCAL/MOL
REMARK 927      BINDING AFFINITY PREDICTED BY RF-SCORE:    0.00 PKD
ROOT
HETATM    1  C   UNL     1     -10.334  11.608  63.161  1.00  0.00    -0.383 C  
HETATM    2  C   UNL     1      -9.640  10.595  64.035  1.00  0.00    -0.299 C  
HETATM    3  N   UNL     1      -8.427  10.131  63.600  1.00  0.00    -0.172 N  
HETATM    4  O   UNL     1     -10.176  10.196  65.069  1.00  0.00    -0.309 OA 
HETATM    5  O   UNL     1      -7.719  10.670  62.512  1.00  0.00    -0.157 OA 
ENDROOT
BRANCH   3   6
HETATM    6  C   UNL     1      -7.641   9.141  64.323  1.00  0.00    -0.115 C  
BRANCH   6   7
HETATM    7  C   UNL     1      -6.616   9.781  65.261  1.00  0.00    -0.098 C  
BRANCH   7   8
HETATM    8  C   UNL     1      -7.061   9.634  66.718  1.00  0.00    -0.086 C  
BRANCH   8   9
HETATM    9  C   UNL     1      -7.560  10.956  67.303  1.00  0.00    -0.104 C  
BRANCH   9  10
HETATM   10  C   UNL     1      -7.262  11.077  68.798  1.00  0.00    -0.091 C  
BRANCH  10  11
HETATM   11  N   UNL     1      -7.537   9.844  69.521  1.00  0.00    -0.109 N  
HETATM   12  C   UNL     1      -6.991   9.610  70.764  1.00  0.00    -0.079 C  
HETATM   13  H   UNL     1      -8.144   9.142  69.100  1.00  0.00     0.000 HD 
HETATM   14  O   UNL     1      -6.283  10.415  71.363  1.00  0.00    -0.317 OA 
BRANCH  12  15
HETATM   15  C   UNL     1      -7.363   8.258  71.334  1.00  0.00    -0.085 C  
BRANCH  15  16
HETATM   16  C   UNL     1      -7.609   7.254  70.211  1.00  0.00    -0.089 C  
BRANCH  16  17
HETATM   17  C   UNL     1      -8.848   6.413  70.448  1.00  0.00    -0.151 C  
HETATM   18  O   UNL     1      -8.778   5.320  71.008  1.00  0.00    -0.126 OA 
HETATM   19  N   UNL     1     -10.028   6.928  69.977  1.00  0.00    -0.180 N  
HETATM   20  O   UNL     1     -10.174   8.212  69.422  1.00  0.00    -0.201 OA 
BRANCH  19  21
HETATM   21  C   UNL     1     -11.301   6.226  70.051  1.00  0.00    -0.416 C  
BRANCH  21  22
HETATM   22  C   UNL     1     -11.996   6.417  71.402  1.00  0.00    -0.307 C  
BRANCH  22  23
HETATM   23  C   UNL     1     -13.048   7.542  71.383  1.00  0.00    -0.373 C  
BRANCH  23  24
HETATM   24  C   UNL     1     -12.561   8.835  72.037  1.00  0.00    -0.447 C  
BRANCH  24  25
HETATM   25  C   UNL     1     -13.091  10.067  71.307  1.00  0.00    -0.402 C  
BRANCH  25  26
HETATM   26  N   UNL     1     -12.497  10.207  69.992  1.00  0.00    -0.522 N  
HETATM   27  H   UNL     1     -12.465   9.396  69.374  1.00  0.00     0.000 HD 
HETATM   28  C   UNL     1     -11.974  11.401  69.556  1.00  0.00    -0.341 C  
HETATM   29  O   UNL     1     -11.987  12.431  70.223  1.00  0.00    -0.349 OA 
BRANCH  28  30
HETATM   30  C   UNL     1     -11.367  11.353  68.177  1.00  0.00    -0.374 C  
BRANCH  30  31
HETATM   31  C   UNL     1     -12.134  12.284  67.250  1.00  0.00    -0.017 C  
BRANCH  31  32
HETATM   32  C   UNL     1     -11.195  13.243  66.549  1.00  0.00    -0.304 C  
HETATM   33  N   UNL     1     -11.735  14.212  65.739  1.00  0.00    -0.348 N  
HETATM   34  O   UNL     1      -9.986  13.184  66.783  1.00  0.00    -0.239 OA 
HETATM   35  O   UNL     1     -13.002  14.009  65.161  1.00  0.00    -0.744 OA 
BRANCH  33  36
HETATM   36  C   UNL     1     -10.908  15.138  64.962  1.00  0.00    -0.440 C  
BRANCH  36  37
HETATM   37  C   UNL     1     -10.911  16.549  65.554  1.00  0.00    -0.196 C  
BRANCH  37  38
HETATM   38  C   UNL     1      -9.878  16.707  66.675  1.00  0.00    -0.285 C  
BRANCH  38  39
HETATM   39  C   UNL     1      -9.882  18.125  67.253  1.00  0.00    -0.316 C  
BRANCH  39  40
HETATM   40  C   UNL     1     -10.353  19.171  66.241  1.00  0.00    -0.474 C  
HETATM   41  N   UNL     1      -9.417  20.286  66.141  1.00  0.00    -0.641 NA 
HETATM   42  H2  UNL     1      -8.473  19.962  65.930  1.00  0.00     0.000 HD 
HETATM   43  H1  UNL     1      -9.730  20.984  65.466  1.00  0.00     0.000 HD 
ENDBRANCH  39  40
ENDBRANCH  38  39
ENDBRANCH  37  38
ENDBRANCH  36  37
ENDBRANCH  33  36
ENDBRANCH  31  32
ENDBRANCH  30  31
ENDBRANCH  28  30
ENDBRANCH  25  26
ENDBRANCH  24  25
ENDBRANCH  23  24
ENDBRANCH  22  23
ENDBRANCH  21  22
ENDBRANCH  19  21
ENDBRANCH  16  17
ENDBRANCH  15  16
ENDBRANCH  12  15
ENDBRANCH  10  11
ENDBRANCH   9  10
ENDBRANCH   8   9
ENDBRANCH   7   8
ENDBRANCH   6   7
ENDBRANCH   3   6
TORSDOF 23
ENDMDL
MODEL       90
REMARK 921   NORMALIZED FREE ENERGY PREDICTED BY IDOCK:   -4.87 KCAL/MOL
REMARK 922        TOTAL FREE ENERGY PREDICTED BY IDOCK:  -14.18 KCAL/MOL
REMARK 923 INTER-LIGAND FREE ENERGY PREDICTED BY IDOCK:  -11.14 KCAL/MOL
REMARK 924 INTRA-LIGAND FREE ENERGY PREDICTED BY IDOCK:   -3.04 KCAL/MOL
REMARK 927      BINDING AFFINITY PREDICTED BY RF-SCORE:    0.00 PKD
ROOT
HETATM    1  C   UNL     1     -11.826  10.779  70.327  1.00  0.00    -0.438 C  
HETATM    2  C   UNL     1     -12.437   9.726  71.213  1.00  0.00    -0.367 C  
HETATM    3  N   UNL     1     -12.264   8.420  70.834  1.00  0.00    -0.170 N  
HETATM    4  O   UNL     1     -13.086  10.051  72.208  1.00  0.00    -0.413 OA 
HETATM    5  O   UNL     1     -11.409   8.006  69.798  1.00  0.00    -0.062 OA 
ENDROOT
BRANCH   3   6
HETATM    6  C   UNL     1     -12.806   7.291  71.576  1.00  0.00    -0.388 C  
BRANCH   6   7
HETATM    7  C   UNL     1     -11.799   6.148  71.717  1.00  0.00    -0.279 C  
BRANCH   7   8
HETATM    8  C   UNL     1     -10.757   6.483  72.786  1.00  0.00    -0.269 C  
BRANCH   8   9
HETATM    9  C   UNL     1      -9.403   5.834  72.493  1.00  0.00    -0.149 C  
BRANCH   9  10
HETATM   10  C   UNL     1      -8.269   6.858  72.439  1.00  0.00    -0.103 C  
BRANCH  10  11
HETATM   11  N   UNL     1      -8.006   7.326  71.086  1.00  0.00    -0.100 N  
HETATM   12  C   UNL     1      -8.314   8.612  70.705  1.00  0.00    -0.143 C  
HETATM   13  H   UNL     1      -7.586   6.689  70.409  1.00  0.00     0.000 HD 
HETATM   14  O   UNL     1      -8.784   9.457  71.462  1.00  0.00    -0.265 OA 
BRANCH  12  15
HETATM   15  C   UNL     1      -8.002   8.895  69.251  1.00  0.00    -0.104 C  
BRANCH  15  16
HETATM   16  C   UNL     1      -8.681  10.186  68.800  1.00  0.00    -0.138 C  
BRANCH  16  17
HETATM   17  C   UNL     1      -8.239  10.618  67.415  1.00  0.00    -0.115 C  
HETATM   18  O   UNL     1      -7.149  11.157  67.234  1.00  0.00    -0.095 OA 
HETATM   19  N   UNL     1      -9.134  10.401  66.399  1.00  0.00    -0.154 N  
HETATM   20  O   UNL     1     -10.346   9.701  66.538  1.00  0.00    -0.239 OA 
BRANCH  19  21
HETATM   21  C   UNL     1      -8.908  10.817  65.023  1.00  0.00    -0.177 C  
BRANCH  21  22
HETATM   22  C   UNL     1     -10.147  10.628  64.144  1.00  0.00    -0.402 C  
BRANCH  22  23
HETATM   23  C   UNL     1     -10.625  11.938  63.490  1.00  0.00    -0.507 C  
BRANCH  23  24
HETATM   24  C   UNL     1     -12.141  12.131  63.559  1.00  0.00    -0.649 C  
BRANCH  24  25
HETATM   25  C   UNL     1     -12.547  12.947  64.785  1.00  0.00    -0.425 C  
BRANCH  25  26
HETATM   26  N   UNL     1     -11.407  13.607  65.390  1.00  0.00    -0.298 N  
HETATM   27  H   UNL     1     -10.810  14.195  64.809  1.00  0.00     0.000 HD 
HETATM   28  C   UNL     1     -11.109  13.461  66.724  1.00  0.00    -0.292 C  
HETATM   29  O   UNL     1     -11.782  12.790  67.500  1.00  0.00    -0.337 OA 
BRANCH  28  30
HETATM   30  C   UNL     1      -9.869  14.192  67.173  1.00  0.00    -0.253 C  
BRANCH  30  31
HETATM   31  C   UNL     1      -9.934  14.432  68.673  1.00  0.00    -0.241 C  
BRANCH  31  32
HETATM   32  C   UNL     1     -10.431  15.830  68.975  1.00  0.00    -0.225 C  
HETATM   33  N   UNL     1      -9.637  16.896  68.627  1.00  0.00    -0.257 N  
HETATM   34  O   UNL     1     -11.560  15.982  69.447  1.00  0.00    -0.343 OA 
HETATM   35  O   UNL     1      -8.246  16.716  68.502  1.00  0.00    -0.209 OA 
BRANCH  33  36
HETATM   36  C   UNL     1      -9.995  18.280  68.942  1.00  0.00    -0.339 C  
BRANCH  36  37
HETATM   37  C   UNL     1     -10.614  19.003  67.744  1.00  0.00    -0.488 C  
BRANCH  37  38
HETATM   38  C   UNL     1      -9.821  20.255  67.353  1.00  0.00    -0.586 C  
BRANCH  38  39
HETATM   39  C   UNL     1      -8.973  20.018  66.100  1.00  0.00    -0.338 C  
BRANCH  39  40
HETATM   40  C   UNL     1      -7.546  19.579  66.430  1.00  0.00    -0.281 C  
HETATM   41  N   UNL     1      -7.197  18.330  65.761  1.00  0.00    -0.503 NA 
HETATM   42  H2  UNL     1      -7.343  18.394  64.754  1.00  0.00     0.000 HD 
HETATM   43  H1  UNL     1      -6.245  18.036  65.981  1.00  0.00     0.000 HD 
ENDBRANCH  39  40
ENDBRANCH  38  39
ENDBRANCH  37  38
ENDBRANCH  36  37
ENDBRANCH  33  36
ENDBRANCH  31  32
ENDBRANCH  30  31
ENDBRANCH  28  30
ENDBRANCH  25  26
ENDBRANCH  24  25
ENDBRANCH  23  24
ENDBRANCH  22  23
ENDBRANCH  21  22
ENDBRANCH  19  21
ENDBRANCH  16  17
ENDBRANCH  15  16
ENDBRANCH  12  15
ENDBRANCH  10  11
ENDBRANCH   9  10
ENDBRANCH   8   9
ENDBRANCH   7   8
ENDBRANCH   6   7
ENDBRANCH   3   6
TORSDOF 23
ENDMDL
MODEL       91
REMARK 921   NORMALIZED FREE ENERGY PREDICTED BY IDOCK:   -4.86 KCAL/MOL
REMARK 922        TOTAL FREE ENERGY PREDICTED BY IDOCK:  -14.15 KCAL/MOL
REMARK 923 INTER-LIGAND FREE ENERGY PREDICTED BY IDOCK:  -11.52 KCAL/MOL
REMARK 924 INTRA-LIGAND FREE ENERGY PREDICTED BY IDOCK:   -2.63 KCAL/MOL
REMARK 927      BINDING AFFINITY PREDICTED BY RF-SCORE:    0.00 PKD
ROOT
HETATM    1  C   UNL     1      -5.557  19.104  69.467  1.00  0.00    -0.229 C  
HETATM    2  C   UNL     1      -6.172  18.885  68.109  1.00  0.00    -0.220 C  
HETATM    3  N   UNL     1      -6.649  19.992  67.460  1.00  0.00    -0.211 N  
HETATM    4  O   UNL     1      -6.258  17.748  67.643  1.00  0.00    -0.155 OA 
HETATM    5  O   UNL     1      -6.434  21.313  67.888  1.00  0.00    -0.342 OA 
ENDROOT
BRANCH   3   6
HETATM    6  C   UNL     1      -7.284  19.942  66.150  1.00  0.00    -0.289 C  
BRANCH   6   7
HETATM    7  C   UNL     1      -8.698  19.360  66.209  1.00  0.00    -0.364 C  
BRANCH   7   8
HETATM    8  C   UNL     1      -9.662  20.361  66.847  1.00  0.00    -0.567 C  
BRANCH   8   9
HETATM    9  C   UNL     1     -10.745  19.668  67.677  1.00  0.00    -0.500 C  
BRANCH   9  10
HETATM   10  C   UNL     1     -10.208  18.450  68.430  1.00  0.00    -0.378 C  
BRANCH  10  11
HETATM   11  N   UNL     1     -10.921  17.228  68.090  1.00  0.00    -0.288 N  
HETATM   12  C   UNL     1     -11.158  16.255  69.035  1.00  0.00    -0.331 C  
HETATM   13  H   UNL     1     -11.252  17.090  67.135  1.00  0.00     0.000 HD 
HETATM   14  O   UNL     1     -10.832  16.353  70.215  1.00  0.00    -0.309 OA 
BRANCH  12  15
HETATM   15  C   UNL     1     -11.879  15.045  68.479  1.00  0.00    -0.319 C  
BRANCH  15  16
HETATM   16  C   UNL     1     -10.893  14.105  67.791  1.00  0.00    -0.260 C  
BRANCH  16  17
HETATM   17  C   UNL     1     -10.895  14.267  66.283  1.00  0.00    -0.310 C  
HETATM   18  O   UNL     1     -10.277  15.182  65.741  1.00  0.00    -0.293 OA 
HETATM   19  N   UNL     1     -11.645  13.361  65.579  1.00  0.00    -0.317 N  
HETATM   20  O   UNL     1     -12.285  12.243  66.142  1.00  0.00    -0.647 OA 
BRANCH  19  21
HETATM   21  C   UNL     1     -11.820  13.410  64.135  1.00  0.00    -0.442 C  
BRANCH  21  22
HETATM   22  C   UNL     1     -11.423  12.098  63.452  1.00  0.00    -0.501 C  
BRANCH  22  23
HETATM   23  C   UNL     1      -9.907  11.829  63.507  1.00  0.00    -0.386 C  
BRANCH  23  24
HETATM   24  C   UNL     1      -9.497  10.537  62.799  1.00  0.00    -0.353 C  
BRANCH  24  25
HETATM   25  C   UNL     1      -8.873   9.538  63.771  1.00  0.00    -0.210 C  
BRANCH  25  26
HETATM   26  N   UNL     1      -8.424  10.184  64.988  1.00  0.00    -0.155 N  
HETATM   27  H   UNL     1      -9.118  10.491  65.670  1.00  0.00     0.000 HD 
HETATM   28  C   UNL     1      -7.091  10.395  65.248  1.00  0.00    -0.098 C  
HETATM   29  O   UNL     1      -6.190  10.042  64.494  1.00  0.00    -0.110 OA 
BRANCH  28  30
HETATM   30  C   UNL     1      -6.810  11.111  66.544  1.00  0.00    -0.126 C  
BRANCH  30  31
HETATM   31  C   UNL     1      -8.122  11.443  67.238  1.00  0.00    -0.148 C  
BRANCH  31  32
HETATM   32  C   UNL     1      -8.220  10.738  68.574  1.00  0.00    -0.136 C  
HETATM   33  N   UNL     1      -8.900   9.546  68.637  1.00  0.00    -0.130 N  
HETATM   34  O   UNL     1      -7.624  11.203  69.548  1.00  0.00    -0.069 OA 
HETATM   35  O   UNL     1      -9.893   9.260  67.680  1.00  0.00    -0.161 OA 
BRANCH  33  36
HETATM   36  C   UNL     1      -9.112   8.826  69.894  1.00  0.00    -0.157 C  
BRANCH  36  37
HETATM   37  C   UNL     1     -10.145   9.515  70.787  1.00  0.00    -0.352 C  
BRANCH  37  38
HETATM   38  C   UNL     1     -11.498   8.795  70.767  1.00  0.00    -0.309 C  
BRANCH  38  39
HETATM   39  C   UNL     1     -12.660   9.768  70.982  1.00  0.00    -0.406 C  
BRANCH  39  40
HETATM   40  C   UNL     1     -13.684   9.248  71.993  1.00  0.00    -0.428 C  
HETATM   41  N   UNL     1     -13.735   7.789  72.009  1.00  0.00    -0.515 NA 
HETATM   42  H2  UNL     1     -12.812   7.387  72.172  1.00  0.00     0.000 HD 
HETATM   43  H1  UNL     1     -14.417   7.442  72.683  1.00  0.00     0.000 HD 
ENDBRANCH  39  40
ENDBRANCH  38  39
ENDBRANCH  37  38
ENDBRANCH  36  37
ENDBRANCH  33  36
ENDBRANCH  31  32
ENDBRANCH  30  31
ENDBRANCH  28  30
ENDBRANCH  25  26
ENDBRANCH  24  25
ENDBRANCH  23  24
ENDBRANCH  22  23
ENDBRANCH  21  22
ENDBRANCH  19  21
ENDBRANCH  16  17
ENDBRANCH  15  16
ENDBRANCH  12  15
ENDBRANCH  10  11
ENDBRANCH   9  10
ENDBRANCH   8   9
ENDBRANCH   7   8
ENDBRANCH   6   7
ENDBRANCH   3   6
TORSDOF 23
ENDMDL
MODEL       92
REMARK 921   NORMALIZED FREE ENERGY PREDICTED BY IDOCK:   -4.85 KCAL/MOL
REMARK 922        TOTAL FREE ENERGY PREDICTED BY IDOCK:  -14.14 KCAL/MOL
REMARK 923 INTER-LIGAND FREE ENERGY PREDICTED BY IDOCK:  -11.46 KCAL/MOL
REMARK 924 INTRA-LIGAND FREE ENERGY PREDICTED BY IDOCK:   -2.68 KCAL/MOL
REMARK 927      BINDING AFFINITY PREDICTED BY RF-SCORE:    0.00 PKD
ROOT
HETATM    1  C   UNL     1     -11.046   4.991  72.923  1.00  0.00    -0.348 C  
HETATM    2  C   UNL     1     -11.092   5.882  71.709  1.00  0.00    -0.265 C  
HETATM    3  N   UNL     1     -11.380   7.204  71.922  1.00  0.00    -0.252 N  
HETATM    4  O   UNL     1     -10.908   5.411  70.586  1.00  0.00    -0.228 OA 
HETATM    5  O   UNL     1     -11.445   7.804  73.191  1.00  0.00    -0.330 OA 
ENDROOT
BRANCH   3   6
HETATM    6  C   UNL     1     -11.476   8.187  70.851  1.00  0.00    -0.271 C  
BRANCH   6   7
HETATM    7  C   UNL     1     -10.658   9.447  71.141  1.00  0.00    -0.403 C  
BRANCH   7   8
HETATM    8  C   UNL     1      -9.226   9.284  70.628  1.00  0.00    -0.321 C  
BRANCH   8   9
HETATM    9  C   UNL     1      -8.319   8.607  71.657  1.00  0.00    -0.216 C  
BRANCH   9  10
HETATM   10  C   UNL     1      -7.823   7.241  71.183  1.00  0.00    -0.093 C  
BRANCH  10  11
HETATM   11  N   UNL     1      -7.582   7.204  69.749  1.00  0.00    -0.100 N  
HETATM   12  C   UNL     1      -7.084   6.074  69.138  1.00  0.00    -0.070 C  
HETATM   13  H   UNL     1      -7.785   8.030  69.186  1.00  0.00     0.000 HD 
HETATM   14  O   UNL     1      -6.849   5.024  69.730  1.00  0.00    -0.048 OA 
BRANCH  12  15
HETATM   15  C   UNL     1      -6.866   6.246  67.650  1.00  0.00    -0.069 C  
BRANCH  15  16
HETATM   16  C   UNL     1      -8.138   5.900  66.880  1.00  0.00    -0.102 C  
BRANCH  16  17
HETATM   17  C   UNL     1      -8.733   7.104  66.175  1.00  0.00    -0.151 C  
HETATM   18  O   UNL     1      -8.381   7.413  65.038  1.00  0.00    -0.125 OA 
HETATM   19  N   UNL     1      -9.650   7.831  66.889  1.00  0.00    -0.183 N  
HETATM   20  O   UNL     1     -10.157   7.463  68.148  1.00  0.00    -0.166 OA 
BRANCH  19  21
HETATM   21  C   UNL     1     -10.266   9.055  66.399  1.00  0.00    -0.227 C  
BRANCH  21  22
HETATM   22  C   UNL     1      -9.402  10.291  66.664  1.00  0.00    -0.192 C  
BRANCH  22  23
HETATM   23  C   UNL     1      -9.162  11.138  65.399  1.00  0.00    -0.225 C  
BRANCH  23  24
HETATM   24  C   UNL     1      -9.722  10.499  64.128  1.00  0.00    -0.388 C  
BRANCH  24  25
HETATM   25  C   UNL     1     -10.718  11.421  63.428  1.00  0.00    -0.332 C  
BRANCH  25  26
HETATM   26  N   UNL     1     -11.147  12.501  64.293  1.00  0.00    -0.330 N  
HETATM   27  H   UNL     1     -10.444  13.120  64.698  1.00  0.00     0.000 HD 
HETATM   28  C   UNL     1     -12.473  12.716  64.585  1.00  0.00    -0.466 C  
HETATM   29  O   UNL     1     -13.385  12.034  64.127  1.00  0.00    -0.725 OA 
BRANCH  28  30
HETATM   30  C   UNL     1     -12.731  13.862  65.528  1.00  0.00    -0.536 C  
BRANCH  30  31
HETATM   31  C   UNL     1     -11.612  13.941  66.554  1.00  0.00    -0.385 C  
BRANCH  31  32
HETATM   32  C   UNL     1     -10.817  15.219  66.390  1.00  0.00    -0.317 C  
HETATM   33  N   UNL     1     -10.486  15.932  67.517  1.00  0.00    -0.292 N  
HETATM   34  O   UNL     1     -10.418  15.544  65.270  1.00  0.00    -0.370 OA 
HETATM   35  O   UNL     1     -11.271  15.803  68.678  1.00  0.00    -0.308 OA 
BRANCH  33  36
HETATM   36  C   UNL     1      -9.784  17.215  67.457  1.00  0.00    -0.256 C  
BRANCH  36  37
HETATM   37  C   UNL     1     -10.750  18.402  67.439  1.00  0.00    -0.397 C  
BRANCH  37  38
HETATM   38  C   UNL     1     -10.548  19.291  66.208  1.00  0.00    -0.545 C  
BRANCH  38  39
HETATM   39  C   UNL     1      -9.104  19.789  66.100  1.00  0.00    -0.403 C  
BRANCH  39  40
HETATM   40  C   UNL     1      -8.709  20.704  67.261  1.00  0.00    -0.213 C  
HETATM   41  N   UNL     1      -7.418  21.344  67.029  1.00  0.00    -0.813 NA 
HETATM   42  H2  UNL     1      -7.404  21.843  66.140  1.00  0.00     0.000 HD 
HETATM   43  H1  UNL     1      -7.154  21.954  67.803  1.00  0.00     0.000 HD 
ENDBRANCH  39  40
ENDBRANCH  38  39
ENDBRANCH  37  38
ENDBRANCH  36  37
ENDBRANCH  33  36
ENDBRANCH  31  32
ENDBRANCH  30  31
ENDBRANCH  28  30
ENDBRANCH  25  26
ENDBRANCH  24  25
ENDBRANCH  23  24
ENDBRANCH  22  23
ENDBRANCH  21  22
ENDBRANCH  19  21
ENDBRANCH  16  17
ENDBRANCH  15  16
ENDBRANCH  12  15
ENDBRANCH  10  11
ENDBRANCH   9  10
ENDBRANCH   8   9
ENDBRANCH   7   8
ENDBRANCH   6   7
ENDBRANCH   3   6
TORSDOF 23
ENDMDL
MODEL       93
REMARK 921   NORMALIZED FREE ENERGY PREDICTED BY IDOCK:   -4.84 KCAL/MOL
REMARK 922        TOTAL FREE ENERGY PREDICTED BY IDOCK:  -14.10 KCAL/MOL
REMARK 923 INTER-LIGAND FREE ENERGY PREDICTED BY IDOCK:  -11.38 KCAL/MOL
REMARK 924 INTRA-LIGAND FREE ENERGY PREDICTED BY IDOCK:   -2.72 KCAL/MOL
REMARK 927      BINDING AFFINITY PREDICTED BY RF-SCORE:    0.00 PKD
ROOT
HETATM    1  C   UNL     1      -8.265   7.989  73.069  1.00  0.00    -0.234 C  
HETATM    2  C   UNL     1      -9.086   8.675  72.009  1.00  0.00    -0.241 C  
HETATM    3  N   UNL     1     -10.443   8.494  72.064  1.00  0.00    -0.309 N  
HETATM    4  O   UNL     1      -8.536   9.334  71.127  1.00  0.00    -0.294 OA 
HETATM    5  O   UNL     1     -11.115   7.879  73.134  1.00  0.00    -0.382 OA 
ENDROOT
BRANCH   3   6
HETATM    6  C   UNL     1     -11.370   9.078  71.104  1.00  0.00    -0.307 C  
BRANCH   6   7
HETATM    7  C   UNL     1     -12.416   9.972  71.773  1.00  0.00    -0.475 C  
BRANCH   7   8
HETATM    8  C   UNL     1     -12.594  11.269  70.981  1.00  0.00    -0.495 C  
BRANCH   8   9
HETATM    9  C   UNL     1     -13.315  12.345  71.795  1.00  0.00    -0.368 C  
BRANCH   9  10
HETATM   10  C   UNL     1     -12.837  13.755  71.445  1.00  0.00    -0.369 C  
BRANCH  10  11
HETATM   11  N   UNL     1     -11.626  13.746  70.638  1.00  0.00    -0.514 N  
HETATM   12  C   UNL     1     -11.336  14.782  69.778  1.00  0.00    -0.283 C  
HETATM   13  H   UNL     1     -10.982  12.960  70.711  1.00  0.00     0.000 HD 
HETATM   14  O   UNL     1     -12.033  15.785  69.655  1.00  0.00    -0.356 OA 
BRANCH  12  15
HETATM   15  C   UNL     1     -10.055  14.571  69.001  1.00  0.00    -0.187 C  
BRANCH  15  16
HETATM   16  C   UNL     1     -10.120  13.270  68.205  1.00  0.00    -0.250 C  
BRANCH  16  17
HETATM   17  C   UNL     1     -11.377  13.171  67.361  1.00  0.00    -0.306 C  
HETATM   18  O   UNL     1     -12.278  12.388  67.653  1.00  0.00    -0.425 OA 
HETATM   19  N   UNL     1     -11.425  13.975  66.252  1.00  0.00    -0.339 N  
HETATM   20  O   UNL     1     -10.467  14.954  65.932  1.00  0.00    -0.284 OA 
BRANCH  19  21
HETATM   21  C   UNL     1     -12.518  13.958  65.291  1.00  0.00    -0.478 C  
BRANCH  21  22
HETATM   22  C   UNL     1     -12.071  13.483  63.905  1.00  0.00    -0.493 C  
BRANCH  22  23
HETATM   23  C   UNL     1     -12.215  11.961  63.717  1.00  0.00    -0.549 C  
BRANCH  23  24
HETATM   24  C   UNL     1     -10.874  11.242  63.562  1.00  0.00    -0.373 C  
BRANCH  24  25
HETATM   25  C   UNL     1     -10.265  10.894  64.919  1.00  0.00    -0.316 C  
BRANCH  25  26
HETATM   26  N   UNL     1      -9.712   9.554  64.929  1.00  0.00    -0.438 N  
HETATM   27  H   UNL     1     -10.319   8.770  65.166  1.00  0.00     0.000 HD 
HETATM   28  C   UNL     1      -8.393   9.312  64.628  1.00  0.00    -0.161 C  
HETATM   29  O   UNL     1      -7.597  10.191  64.313  1.00  0.00    -0.140 OA 
BRANCH  28  30
HETATM   30  C   UNL     1      -7.984   7.864  64.722  1.00  0.00    -0.140 C  
BRANCH  30  31
HETATM   31  C   UNL     1      -7.075   7.668  65.925  1.00  0.00    -0.065 C  
BRANCH  31  32
HETATM   32  C   UNL     1      -7.885   7.457  67.186  1.00  0.00    -0.117 C  
HETATM   33  N   UNL     1      -7.723   6.282  67.879  1.00  0.00    -0.101 N  
HETATM   34  O   UNL     1      -8.604   8.369  67.603  1.00  0.00    -0.128 OA 
HETATM   35  O   UNL     1      -7.264   5.134  67.206  1.00  0.00    -0.077 OA 
BRANCH  33  36
HETATM   36  C   UNL     1      -8.513   5.954  69.068  1.00  0.00    -0.105 C  
BRANCH  36  37
HETATM   37  C   UNL     1      -9.220   4.604  68.937  1.00  0.00    -0.181 C  
BRANCH  37  38
HETATM   38  C   UNL     1      -9.597   4.015  70.300  1.00  0.00    -0.271 C  
BRANCH  38  39
HETATM   39  C   UNL     1     -10.468   4.979  71.111  1.00  0.00    -0.205 C  
BRANCH  39  40
HETATM   40  C   UNL     1     -10.703   4.497  72.543  1.00  0.00    -0.120 C  
HETATM   41  N   UNL     1     -11.864   5.143  73.148  1.00  0.00    -0.504 NA 
HETATM   42  H2  UNL     1     -12.697   5.021  72.573  1.00  0.00     0.000 HD 
HETATM   43  H1  UNL     1     -12.020   4.821  74.104  1.00  0.00     0.000 HD 
ENDBRANCH  39  40
ENDBRANCH  38  39
ENDBRANCH  37  38
ENDBRANCH  36  37
ENDBRANCH  33  36
ENDBRANCH  31  32
ENDBRANCH  30  31
ENDBRANCH  28  30
ENDBRANCH  25  26
ENDBRANCH  24  25
ENDBRANCH  23  24
ENDBRANCH  22  23
ENDBRANCH  21  22
ENDBRANCH  19  21
ENDBRANCH  16  17
ENDBRANCH  15  16
ENDBRANCH  12  15
ENDBRANCH  10  11
ENDBRANCH   9  10
ENDBRANCH   8   9
ENDBRANCH   7   8
ENDBRANCH   6   7
ENDBRANCH   3   6
TORSDOF 23
ENDMDL
MODEL       94
REMARK 921   NORMALIZED FREE ENERGY PREDICTED BY IDOCK:   -4.83 KCAL/MOL
REMARK 922        TOTAL FREE ENERGY PREDICTED BY IDOCK:  -14.08 KCAL/MOL
REMARK 923 INTER-LIGAND FREE ENERGY PREDICTED BY IDOCK:  -11.61 KCAL/MOL
REMARK 924 INTRA-LIGAND FREE ENERGY PREDICTED BY IDOCK:   -2.47 KCAL/MOL
REMARK 927      BINDING AFFINITY PREDICTED BY RF-SCORE:    0.00 PKD
ROOT
HETATM    1  C   UNL     1     -12.527  12.507  64.810  1.00  0.00    -0.532 C  
HETATM    2  C   UNL     1     -12.068  13.930  64.629  1.00  0.00    -0.431 C  
HETATM    3  N   UNL     1     -11.017  14.345  65.404  1.00  0.00    -0.322 N  
HETATM    4  O   UNL     1     -12.649  14.675  63.838  1.00  0.00    -0.834 OA 
HETATM    5  O   UNL     1     -10.237  13.489  66.200  1.00  0.00    -0.288 OA 
ENDROOT
BRANCH   3   6
HETATM    6  C   UNL     1     -10.468  15.693  65.356  1.00  0.00    -0.411 C  
BRANCH   6   7
HETATM    7  C   UNL     1     -10.512  16.389  66.718  1.00  0.00    -0.273 C  
BRANCH   7   8
HETATM    8  C   UNL     1      -9.281  17.277  66.905  1.00  0.00    -0.265 C  
BRANCH   8   9
HETATM    9  C   UNL     1      -8.044  16.700  66.213  1.00  0.00    -0.361 C  
BRANCH   9  10
HETATM   10  C   UNL     1      -7.182  15.870  67.164  1.00  0.00    -0.219 C  
BRANCH  10  11
HETATM   11  N   UNL     1      -7.520  14.455  67.129  1.00  0.00    -0.310 N  
HETATM   12  C   UNL     1      -6.560  13.488  67.331  1.00  0.00     0.003 C  
HETATM   13  H   UNL     1      -8.484  14.174  66.952  1.00  0.00     0.000 HD 
HETATM   14  O   UNL     1      -5.385  13.733  67.589  1.00  0.00    -0.289 OA 
BRANCH  12  15
HETATM   15  C   UNL     1      -7.100  12.078  67.217  1.00  0.00    -0.149 C  
BRANCH  15  16
HETATM   16  C   UNL     1      -7.783  11.661  68.517  1.00  0.00    -0.134 C  
BRANCH  16  17
HETATM   17  C   UNL     1      -8.072  10.173  68.567  1.00  0.00    -0.106 C  
HETATM   18  O   UNL     1      -9.032   9.691  67.971  1.00  0.00    -0.123 OA 
HETATM   19  N   UNL     1      -7.223   9.419  69.336  1.00  0.00    -0.063 N  
HETATM   20  O   UNL     1      -6.058   9.906  69.955  1.00  0.00    -0.041 OA 
BRANCH  19  21
HETATM   21  C   UNL     1      -7.392   7.991  69.558  1.00  0.00    -0.086 C  
BRANCH  21  22
HETATM   22  C   UNL     1      -7.900   7.673  70.967  1.00  0.00    -0.090 C  
BRANCH  22  23
HETATM   23  C   UNL     1      -8.097   6.165  71.208  1.00  0.00    -0.118 C  
BRANCH  23  24
HETATM   24  C   UNL     1      -8.900   5.475  70.104  1.00  0.00    -0.147 C  
BRANCH  24  25
HETATM   25  C   UNL     1     -10.264   5.011  70.609  1.00  0.00    -0.235 C  
BRANCH  25  26
HETATM   26  N   UNL     1     -11.258   6.061  70.508  1.00  0.00    -0.320 N  
HETATM   27  H   UNL     1     -11.647   6.288  69.592  1.00  0.00     0.000 HD 
HETATM   28  C   UNL     1     -11.689   6.761  71.610  1.00  0.00    -0.314 C  
HETATM   29  O   UNL     1     -11.291   6.542  72.749  1.00  0.00    -0.250 OA 
BRANCH  28  30
HETATM   30  C   UNL     1     -12.700   7.839  71.313  1.00  0.00    -0.277 C  
BRANCH  30  31
HETATM   31  C   UNL     1     -11.978   9.134  70.973  1.00  0.00    -0.344 C  
BRANCH  31  32
HETATM   32  C   UNL     1     -12.711  10.328  71.546  1.00  0.00    -0.452 C  
HETATM   33  N   UNL     1     -12.659  11.518  70.861  1.00  0.00    -0.366 N  
HETATM   34  O   UNL     1     -13.397  10.186  72.560  1.00  0.00    -0.238 OA 
HETATM   35  O   UNL     1     -11.580  11.776  69.995  1.00  0.00    -0.293 OA 
BRANCH  33  36
HETATM   36  C   UNL     1     -13.273  12.746  71.370  1.00  0.00    -0.152 C  
BRANCH  36  37
HETATM   37  C   UNL     1     -12.362  13.962  71.195  1.00  0.00    -0.440 C  
BRANCH  37  38
HETATM   38  C   UNL     1     -13.149  15.277  71.194  1.00  0.00    -0.546 C  
BRANCH  38  39
HETATM   39  C   UNL     1     -13.771  15.565  72.564  1.00  0.00    -0.668 C  
BRANCH  39  40
HETATM   40  C   UNL     1     -12.777  16.193  73.542  1.00  0.00    -0.559 C  
HETATM   41  N   UNL     1     -12.026  15.180  74.275  1.00  0.00    -0.568 NA 
HETATM   42  H2  UNL     1     -11.563  14.529  73.641  1.00  0.00     0.000 HD 
HETATM   43  H1  UNL     1     -11.363  15.599  74.928  1.00  0.00     0.000 HD 
ENDBRANCH  39  40
ENDBRANCH  38  39
ENDBRANCH  37  38
ENDBRANCH  36  37
ENDBRANCH  33  36
ENDBRANCH  31  32
ENDBRANCH  30  31
ENDBRANCH  28  30
ENDBRANCH  25  26
ENDBRANCH  24  25
ENDBRANCH  23  24
ENDBRANCH  22  23
ENDBRANCH  21  22
ENDBRANCH  19  21
ENDBRANCH  16  17
ENDBRANCH  15  16
ENDBRANCH  12  15
ENDBRANCH  10  11
ENDBRANCH   9  10
ENDBRANCH   8   9
ENDBRANCH   7   8
ENDBRANCH   6   7
ENDBRANCH   3   6
TORSDOF 23
ENDMDL
MODEL       95
REMARK 921   NORMALIZED FREE ENERGY PREDICTED BY IDOCK:   -4.83 KCAL/MOL
REMARK 922        TOTAL FREE ENERGY PREDICTED BY IDOCK:  -14.07 KCAL/MOL
REMARK 923 INTER-LIGAND FREE ENERGY PREDICTED BY IDOCK:  -11.68 KCAL/MOL
REMARK 924 INTRA-LIGAND FREE ENERGY PREDICTED BY IDOCK:   -2.39 KCAL/MOL
REMARK 927      BINDING AFFINITY PREDICTED BY RF-SCORE:    0.00 PKD
ROOT
HETATM    1  C   UNL     1      -7.971  12.245  67.113  1.00  0.00    -0.161 C  
HETATM    2  C   UNL     1      -8.927  13.102  67.900  1.00  0.00    -0.200 C  
HETATM    3  N   UNL     1      -8.529  14.385  68.171  1.00  0.00    -0.152 N  
HETATM    4  O   UNL     1      -9.996  12.637  68.296  1.00  0.00    -0.223 OA 
HETATM    5  O   UNL     1      -7.393  14.994  67.610  1.00  0.00    -0.152 OA 
ENDROOT
BRANCH   3   6
HETATM    6  C   UNL     1      -9.333  15.330  68.932  1.00  0.00    -0.213 C  
BRANCH   6   7
HETATM    7  C   UNL     1      -9.572  16.637  68.173  1.00  0.00    -0.228 C  
BRANCH   7   8
HETATM    8  C   UNL     1     -10.769  16.495  67.230  1.00  0.00    -0.243 C  
BRANCH   8   9
HETATM    9  C   UNL     1     -10.336  16.259  65.782  1.00  0.00    -0.393 C  
BRANCH   9  10
HETATM   10  C   UNL     1     -11.329  15.385  65.015  1.00  0.00    -0.333 C  
BRANCH  10  11
HETATM   11  N   UNL     1     -10.796  14.062  64.725  1.00  0.00    -0.404 N  
HETATM   12  C   UNL     1     -11.524  13.143  64.002  1.00  0.00    -0.406 C  
HETATM   13  H   UNL     1      -9.868  13.810  65.064  1.00  0.00     0.000 HD 
HETATM   14  O   UNL     1     -12.631  13.372  63.522  1.00  0.00    -0.733 OA 
BRANCH  12  15
HETATM   15  C   UNL     1     -10.816  11.815  63.840  1.00  0.00    -0.468 C  
BRANCH  15  16
HETATM   16  C   UNL     1     -10.887  11.010  65.135  1.00  0.00    -0.183 C  
BRANCH  16  17
HETATM   17  C   UNL     1      -9.822   9.933  65.205  1.00  0.00    -0.278 C  
HETATM   18  O   UNL     1      -9.057   9.733  64.264  1.00  0.00    -0.233 OA 
HETATM   19  N   UNL     1      -9.791   9.187  66.355  1.00  0.00    -0.260 N  
HETATM   20  O   UNL     1     -10.576   9.441  67.494  1.00  0.00    -0.262 OA 
BRANCH  19  21
HETATM   21  C   UNL     1      -8.886   8.067  66.565  1.00  0.00    -0.151 C  
BRANCH  21  22
HETATM   22  C   UNL     1      -7.622   8.471  67.329  1.00  0.00    -0.097 C  
BRANCH  22  23
HETATM   23  C   UNL     1      -7.174   7.410  68.352  1.00  0.00    -0.093 C  
BRANCH  23  24
HETATM   24  C   UNL     1      -8.109   6.203  68.420  1.00  0.00    -0.108 C  
BRANCH  24  25
HETATM   25  C   UNL     1      -8.482   5.862  69.862  1.00  0.00    -0.129 C  
BRANCH  25  26
HETATM   26  N   UNL     1      -9.143   6.971  70.520  1.00  0.00    -0.155 N  
HETATM   27  H   UNL     1      -8.595   7.792  70.779  1.00  0.00     0.000 HD 
HETATM   28  C   UNL     1     -10.488   6.947  70.805  1.00  0.00    -0.216 C  
HETATM   29  O   UNL     1     -11.226   6.012  70.513  1.00  0.00    -0.323 OA 
BRANCH  28  30
HETATM   30  C   UNL     1     -10.999   8.171  71.522  1.00  0.00    -0.294 C  
BRANCH  30  31
HETATM   31  C   UNL     1     -12.112   8.811  70.708  1.00  0.00    -0.110 C  
BRANCH  31  32
HETATM   32  C   UNL     1     -12.897   9.797  71.546  1.00  0.00    -0.405 C  
HETATM   33  N   UNL     1     -12.833  11.130  71.219  1.00  0.00    -0.415 N  
HETATM   34  O   UNL     1     -13.633   9.378  72.442  1.00  0.00    -0.457 OA 
HETATM   35  O   UNL     1     -11.715  11.622  70.519  1.00  0.00    -0.292 OA 
BRANCH  33  36
HETATM   36  C   UNL     1     -13.497  12.167  72.012  1.00  0.00    -0.286 C  
BRANCH  36  37
HETATM   37  C   UNL     1     -13.023  13.572  71.636  1.00  0.00    -0.447 C  
BRANCH  37  38
HETATM   38  C   UNL     1     -13.896  14.663  72.266  1.00  0.00    -0.583 C  
BRANCH  38  39
HETATM   39  C   UNL     1     -13.110  15.959  72.486  1.00  0.00    -0.536 C  
BRANCH  39  40
HETATM   40  C   UNL     1     -11.923  15.774  73.432  1.00  0.00    -0.431 C  
HETATM   41  N   UNL     1     -12.193  14.760  74.447  1.00  0.00    -0.630 NA 
HETATM   42  H2  UNL     1     -12.472  13.876  74.023  1.00  0.00     0.000 HD 
HETATM   43  H1  UNL     1     -11.401  14.637  75.078  1.00  0.00     0.000 HD 
ENDBRANCH  39  40
ENDBRANCH  38  39
ENDBRANCH  37  38
ENDBRANCH  36  37
ENDBRANCH  33  36
ENDBRANCH  31  32
ENDBRANCH  30  31
ENDBRANCH  28  30
ENDBRANCH  25  26
ENDBRANCH  24  25
ENDBRANCH  23  24
ENDBRANCH  22  23
ENDBRANCH  21  22
ENDBRANCH  19  21
ENDBRANCH  16  17
ENDBRANCH  15  16
ENDBRANCH  12  15
ENDBRANCH  10  11
ENDBRANCH   9  10
ENDBRANCH   8   9
ENDBRANCH   7   8
ENDBRANCH   6   7
ENDBRANCH   3   6
TORSDOF 23
ENDMDL
MODEL       96
REMARK 921   NORMALIZED FREE ENERGY PREDICTED BY IDOCK:   -4.82 KCAL/MOL
REMARK 922        TOTAL FREE ENERGY PREDICTED BY IDOCK:  -14.05 KCAL/MOL
REMARK 923 INTER-LIGAND FREE ENERGY PREDICTED BY IDOCK:  -11.35 KCAL/MOL
REMARK 924 INTRA-LIGAND FREE ENERGY PREDICTED BY IDOCK:   -2.70 KCAL/MOL
REMARK 927      BINDING AFFINITY PREDICTED BY RF-SCORE:    0.00 PKD
ROOT
HETATM    1  C   UNL     1     -11.144  16.188  70.078  1.00  0.00    -0.363 C  
HETATM    2  C   UNL     1     -11.767  15.105  69.236  1.00  0.00    -0.329 C  
HETATM    3  N   UNL     1     -11.623  15.217  67.878  1.00  0.00    -0.326 N  
HETATM    4  O   UNL     1     -12.397  14.191  69.768  1.00  0.00    -0.336 OA 
HETATM    5  O   UNL     1     -10.788  16.155  67.247  1.00  0.00    -0.309 OA 
ENDROOT
BRANCH   3   6
HETATM    6  C   UNL     1     -12.179  14.261  66.931  1.00  0.00    -0.331 C  
BRANCH   6   7
HETATM    7  C   UNL     1     -11.232  13.977  65.764  1.00  0.00    -0.303 C  
BRANCH   7   8
HETATM    8  C   UNL     1     -11.448  12.559  65.232  1.00  0.00    -0.374 C  
BRANCH   8   9
HETATM    9  C   UNL     1     -11.320  12.489  63.709  1.00  0.00    -0.534 C  
BRANCH   9  10
HETATM   10  C   UNL     1     -10.188  11.562  63.265  1.00  0.00    -0.391 C  
BRANCH  10  11
HETATM   11  N   UNL     1      -9.077  11.551  64.204  1.00  0.00    -0.409 N  
HETATM   12  C   UNL     1      -8.498  10.369  64.609  1.00  0.00    -0.173 C  
HETATM   13  H   UNL     1      -8.721  12.434  64.569  1.00  0.00     0.000 HD 
HETATM   14  O   UNL     1      -8.834   9.264  64.192  1.00  0.00    -0.206 OA 
BRANCH  12  15
HETATM   15  C   UNL     1      -7.385  10.564  65.616  1.00  0.00    -0.126 C  
BRANCH  15  16
HETATM   16  C   UNL     1      -7.793  10.009  66.978  1.00  0.00    -0.102 C  
BRANCH  16  17
HETATM   17  C   UNL     1      -8.516  11.037  67.828  1.00  0.00    -0.122 C  
HETATM   18  O   UNL     1      -7.923  12.010  68.291  1.00  0.00    -0.135 OA 
HETATM   19  N   UNL     1      -9.844  10.797  68.068  1.00  0.00    -0.162 N  
HETATM   20  O   UNL     1     -10.587   9.757  67.482  1.00  0.00    -0.246 OA 
BRANCH  19  21
HETATM   21  C   UNL     1     -10.674  11.636  68.921  1.00  0.00    -0.207 C  
BRANCH  21  22
HETATM   22  C   UNL     1     -11.973  10.941  69.338  1.00  0.00    -0.393 C  
BRANCH  22  23
HETATM   23  C   UNL     1     -11.940  10.430  70.791  1.00  0.00    -0.462 C  
BRANCH  23  24
HETATM   24  C   UNL     1     -13.278  10.580  71.515  1.00  0.00    -0.470 C  
BRANCH  24  25
HETATM   25  C   UNL     1     -13.732   9.260  72.135  1.00  0.00    -0.453 C  
BRANCH  25  26
HETATM   26  N   UNL     1     -12.609   8.482  72.618  1.00  0.00    -0.572 N  
HETATM   27  H   UNL     1     -11.961   8.906  73.283  1.00  0.00     0.000 HD 
HETATM   28  C   UNL     1     -12.392   7.189  72.207  1.00  0.00    -0.100 C  
HETATM   29  O   UNL     1     -13.129   6.593  71.427  1.00  0.00    -0.212 OA 
BRANCH  28  30
HETATM   30  C   UNL     1     -11.158   6.544  72.785  1.00  0.00    -0.279 C  
BRANCH  30  31
HETATM   31  C   UNL     1     -10.642   5.481  71.828  1.00  0.00    -0.296 C  
BRANCH  31  32
HETATM   32  C   UNL     1      -9.533   6.031  70.956  1.00  0.00    -0.168 C  
HETATM   33  N   UNL     1      -9.852   6.476  69.696  1.00  0.00    -0.158 N  
HETATM   34  O   UNL     1      -8.397   6.141  71.421  1.00  0.00    -0.121 OA 
HETATM   35  O   UNL     1     -10.995   5.971  69.047  1.00  0.00    -0.321 OA 
BRANCH  33  36
HETATM   36  C   UNL     1      -8.840   6.957  68.753  1.00  0.00    -0.132 C  
BRANCH  36  37
HETATM   37  C   UNL     1      -8.172   5.811  67.990  1.00  0.00    -0.104 C  
BRANCH  37  38
HETATM   38  C   UNL     1      -8.747   5.644  66.579  1.00  0.00    -0.121 C  
BRANCH  38  39
HETATM   39  C   UNL     1      -9.418   4.279  66.400  1.00  0.00    -0.191 C  
BRANCH  39  40
HETATM   40  C   UNL     1     -10.135   4.148  65.055  1.00  0.00    -0.208 C  
HETATM   41  N   UNL     1     -11.486   4.697  65.107  1.00  0.00    -1.107 NA 
HETATM   42  H2  UNL     1     -11.482   5.663  65.434  1.00  0.00     0.000 HD 
HETATM   43  H1  UNL     1     -11.964   4.609  64.210  1.00  0.00     0.000 HD 
ENDBRANCH  39  40
ENDBRANCH  38  39
ENDBRANCH  37  38
ENDBRANCH  36  37
ENDBRANCH  33  36
ENDBRANCH  31  32
ENDBRANCH  30  31
ENDBRANCH  28  30
ENDBRANCH  25  26
ENDBRANCH  24  25
ENDBRANCH  23  24
ENDBRANCH  22  23
ENDBRANCH  21  22
ENDBRANCH  19  21
ENDBRANCH  16  17
ENDBRANCH  15  16
ENDBRANCH  12  15
ENDBRANCH  10  11
ENDBRANCH   9  10
ENDBRANCH   8   9
ENDBRANCH   7   8
ENDBRANCH   6   7
ENDBRANCH   3   6
TORSDOF 23
ENDMDL
MODEL       97
REMARK 921   NORMALIZED FREE ENERGY PREDICTED BY IDOCK:   -4.82 KCAL/MOL
REMARK 922        TOTAL FREE ENERGY PREDICTED BY IDOCK:  -14.04 KCAL/MOL
REMARK 923 INTER-LIGAND FREE ENERGY PREDICTED BY IDOCK:  -11.20 KCAL/MOL
REMARK 924 INTRA-LIGAND FREE ENERGY PREDICTED BY IDOCK:   -2.84 KCAL/MOL
REMARK 927      BINDING AFFINITY PREDICTED BY RF-SCORE:    0.00 PKD
ROOT
HETATM    1  C   UNL     1      -8.369   6.483  72.243  1.00  0.00    -0.106 C  
HETATM    2  C   UNL     1      -7.646   5.169  72.096  1.00  0.00    -0.098 C  
HETATM    3  N   UNL     1      -7.413   4.731  70.819  1.00  0.00    -0.062 N  
HETATM    4  O   UNL     1      -7.320   4.525  73.093  1.00  0.00    -0.076 OA 
HETATM    5  O   UNL     1      -7.633   5.504  69.666  1.00  0.00    -0.068 OA 
ENDROOT
BRANCH   3   6
HETATM    6  C   UNL     1      -6.741   3.476  70.512  1.00  0.00    -0.033 C  
BRANCH   6   7
HETATM    7  C   UNL     1      -7.699   2.283  70.522  1.00  0.00    -0.042 C  
BRANCH   7   8
HETATM    8  C   UNL     1      -7.920   1.764  69.100  1.00  0.00    -0.056 C  
BRANCH   8   9
HETATM    9  C   UNL     1      -9.290   2.162  68.548  1.00  0.00    -0.244 C  
BRANCH   9  10
HETATM   10  C   UNL     1      -9.189   3.234  67.462  1.00  0.00    -0.193 C  
BRANCH  10  11
HETATM   11  N   UNL     1      -9.816   4.486  67.857  1.00  0.00    -0.135 N  
HETATM   12  C   UNL     1     -10.487   5.266  66.942  1.00  0.00    -0.254 C  
HETATM   13  H   UNL     1      -9.758   4.791  68.828  1.00  0.00     0.000 HD 
HETATM   14  O   UNL     1     -10.641   4.959  65.763  1.00  0.00    -0.255 OA 
BRANCH  12  15
HETATM   15  C   UNL     1     -11.036   6.545  67.536  1.00  0.00    -0.444 C  
BRANCH  15  16
HETATM   16  C   UNL     1     -10.887   6.536  69.056  1.00  0.00    -0.357 C  
BRANCH  16  17
HETATM   17  C   UNL     1     -10.890   7.933  69.646  1.00  0.00    -0.176 C  
HETATM   18  O   UNL     1     -10.289   8.855  69.099  1.00  0.00    -0.212 OA 
HETATM   19  N   UNL     1     -11.567   8.088  70.828  1.00  0.00    -0.272 N  
HETATM   20  O   UNL     1     -12.349   7.092  71.438  1.00  0.00    -0.339 OA 
BRANCH  19  21
HETATM   21  C   UNL     1     -11.613   9.338  71.572  1.00  0.00    -0.382 C  
BRANCH  21  22
HETATM   22  C   UNL     1     -12.794  10.222  71.159  1.00  0.00    -0.504 C  
BRANCH  22  23
HETATM   23  C   UNL     1     -12.455  11.724  71.178  1.00  0.00    -0.390 C  
BRANCH  23  24
HETATM   24  C   UNL     1     -13.425  12.552  72.023  1.00  0.00    -0.486 C  
BRANCH  24  25
HETATM   25  C   UNL     1     -13.066  14.036  71.996  1.00  0.00    -0.401 C  
BRANCH  25  26
HETATM   26  N   UNL     1     -12.448  14.414  70.741  1.00  0.00    -0.329 N  
HETATM   27  H   UNL     1     -12.482  13.764  69.956  1.00  0.00     0.000 HD 
HETATM   28  C   UNL     1     -11.817  15.625  70.578  1.00  0.00    -0.373 C  
HETATM   29  O   UNL     1     -11.745  16.475  71.460  1.00  0.00    -0.395 OA 
BRANCH  28  30
HETATM   30  C   UNL     1     -11.202  15.835  69.218  1.00  0.00    -0.324 C  
BRANCH  30  31
HETATM   31  C   UNL     1     -11.993  15.060  68.176  1.00  0.00    -0.195 C  
BRANCH  31  32
HETATM   32  C   UNL     1     -11.077  14.498  67.110  1.00  0.00    -0.321 C  
HETATM   33  N   UNL     1     -10.778  13.157  67.145  1.00  0.00    -0.254 N  
HETATM   34  O   UNL     1     -10.690  15.231  66.197  1.00  0.00    -0.307 OA 
HETATM   35  O   UNL     1     -10.857  12.457  68.364  1.00  0.00    -0.219 OA 
BRANCH  33  36
HETATM   36  C   UNL     1      -9.846  12.535  66.202  1.00  0.00    -0.258 C  
BRANCH  36  37
HETATM   37  C   UNL     1     -10.207  11.077  65.911  1.00  0.00    -0.309 C  
BRANCH  37  38
HETATM   38  C   UNL     1     -10.507  10.843  64.426  1.00  0.00    -0.403 C  
BRANCH  38  39
HETATM   39  C   UNL     1     -10.733  12.161  63.680  1.00  0.00    -0.518 C  
BRANCH  39  40
HETATM   40  C   UNL     1     -12.205  12.573  63.646  1.00  0.00    -0.550 C  
HETATM   41  N   UNL     1     -12.376  13.993  63.936  1.00  0.00    -0.861 NA 
HETATM   42  H2  UNL     1     -11.814  14.570  63.310  1.00  0.00     0.000 HD 
HETATM   43  H1  UNL     1     -13.358  14.268  63.913  1.00  0.00     0.000 HD 
ENDBRANCH  39  40
ENDBRANCH  38  39
ENDBRANCH  37  38
ENDBRANCH  36  37
ENDBRANCH  33  36
ENDBRANCH  31  32
ENDBRANCH  30  31
ENDBRANCH  28  30
ENDBRANCH  25  26
ENDBRANCH  24  25
ENDBRANCH  23  24
ENDBRANCH  22  23
ENDBRANCH  21  22
ENDBRANCH  19  21
ENDBRANCH  16  17
ENDBRANCH  15  16
ENDBRANCH  12  15
ENDBRANCH  10  11
ENDBRANCH   9  10
ENDBRANCH   8   9
ENDBRANCH   7   8
ENDBRANCH   6   7
ENDBRANCH   3   6
TORSDOF 23
ENDMDL
MODEL       98
REMARK 921   NORMALIZED FREE ENERGY PREDICTED BY IDOCK:   -4.80 KCAL/MOL
REMARK 922        TOTAL FREE ENERGY PREDICTED BY IDOCK:  -14.01 KCAL/MOL
REMARK 923 INTER-LIGAND FREE ENERGY PREDICTED BY IDOCK:  -10.71 KCAL/MOL
REMARK 924 INTRA-LIGAND FREE ENERGY PREDICTED BY IDOCK:   -3.30 KCAL/MOL
REMARK 927      BINDING AFFINITY PREDICTED BY RF-SCORE:    0.00 PKD
ROOT
HETATM    1  C   UNL     1      -8.125   6.885  69.806  1.00  0.00    -0.126 C  
HETATM    2  C   UNL     1      -8.231   7.442  71.202  1.00  0.00    -0.106 C  
HETATM    3  N   UNL     1      -7.819   6.628  72.225  1.00  0.00    -0.096 N  
HETATM    4  O   UNL     1      -8.699   8.565  71.389  1.00  0.00    -0.151 OA 
HETATM    5  O   UNL     1      -7.144   5.410  72.043  1.00  0.00    -0.079 OA 
ENDROOT
BRANCH   3   6
HETATM    6  C   UNL     1      -7.873   7.015  73.629  1.00  0.00    -0.096 C  
BRANCH   6   7
HETATM    7  C   UNL     1      -8.888   6.190  74.422  1.00  0.00    -0.139 C  
BRANCH   7   8
HETATM    8  C   UNL     1     -10.312   6.668  74.129  1.00  0.00    -0.347 C  
BRANCH   8   9
HETATM    9  C   UNL     1     -11.121   5.625  73.355  1.00  0.00    -0.238 C  
BRANCH   9  10
HETATM   10  C   UNL     1     -11.842   6.229  72.150  1.00  0.00    -0.315 C  
BRANCH  10  11
HETATM   11  N   UNL     1     -11.509   7.631  71.948  1.00  0.00    -0.262 N  
HETATM   12  C   UNL     1     -12.492   8.577  71.765  1.00  0.00    -0.342 C  
HETATM   13  H   UNL     1     -10.530   7.917  71.941  1.00  0.00     0.000 HD 
HETATM   14  O   UNL     1     -13.694   8.331  71.797  1.00  0.00    -0.353 OA 
BRANCH  12  15
HETATM   15  C   UNL     1     -11.944   9.969  71.533  1.00  0.00    -0.438 C  
BRANCH  15  16
HETATM   16  C   UNL     1     -13.033  10.887  70.983  1.00  0.00    -0.396 C  
BRANCH  16  17
HETATM   17  C   UNL     1     -12.832  12.333  71.393  1.00  0.00    -0.271 C  
HETATM   18  O   UNL     1     -13.306  12.770  72.440  1.00  0.00    -0.521 OA 
HETATM   19  N   UNL     1     -12.125  13.117  70.517  1.00  0.00    -0.346 N  
HETATM   20  O   UNL     1     -11.481  12.643  69.360  1.00  0.00    -0.276 OA 
BRANCH  19  21
HETATM   21  C   UNL     1     -11.900  14.542  70.712  1.00  0.00    -0.304 C  
BRANCH  21  22
HETATM   22  C   UNL     1     -11.945  15.326  69.398  1.00  0.00    -0.342 C  
BRANCH  22  23
HETATM   23  C   UNL     1     -10.619  16.045  69.082  1.00  0.00    -0.260 C  
BRANCH  23  24
HETATM   24  C   UNL     1     -10.815  17.423  68.448  1.00  0.00    -0.234 C  
BRANCH  24  25
HETATM   25  C   UNL     1     -10.394  17.429  66.980  1.00  0.00    -0.318 C  
BRANCH  25  26
HETATM   26  N   UNL     1     -10.531  16.118  66.378  1.00  0.00    -0.306 N  
HETATM   27  H   UNL     1     -10.302  15.293  66.932  1.00  0.00     0.000 HD 
HETATM   28  C   UNL     1     -10.959  15.956  65.082  1.00  0.00    -0.377 C  
HETATM   29  O   UNL     1     -11.274  16.890  64.351  1.00  0.00    -1.159 OA 
BRANCH  28  30
HETATM   30  C   UNL     1     -11.009  14.525  64.612  1.00  0.00    -0.351 C  
BRANCH  30  31
HETATM   31  C   UNL     1     -11.167  13.601  65.809  1.00  0.00    -0.302 C  
BRANCH  31  32
HETATM   32  C   UNL     1      -9.835  12.999  66.206  1.00  0.00    -0.278 C  
HETATM   33  N   UNL     1      -9.468  11.798  65.648  1.00  0.00    -0.221 N  
HETATM   34  O   UNL     1      -9.083  13.633  66.949  1.00  0.00    -0.239 OA 
HETATM   35  O   UNL     1     -10.460  10.918  65.174  1.00  0.00    -0.283 OA 
BRANCH  33  36
HETATM   36  C   UNL     1      -8.236  11.101  66.023  1.00  0.00    -0.094 C  
BRANCH  36  37
HETATM   37  C   UNL     1      -8.516   9.801  66.779  1.00  0.00    -0.125 C  
BRANCH  37  38
HETATM   38  C   UNL     1      -7.233   9.162  67.323  1.00  0.00    -0.083 C  
BRANCH  38  39
HETATM   39  C   UNL     1      -6.319  10.200  67.981  1.00  0.00    -0.057 C  
BRANCH  39  40
HETATM   40  C   UNL     1      -6.024   9.879  69.447  1.00  0.00    -0.037 C  
HETATM   41  N   UNL     1      -6.780  10.739  70.352  1.00  0.00    -0.441 NA 
HETATM   42  H2  UNL     1      -7.780  10.697  70.156  1.00  0.00     0.000 HD 
HETATM   43  H1  UNL     1      -6.583  10.525  71.330  1.00  0.00     0.000 HD 
ENDBRANCH  39  40
ENDBRANCH  38  39
ENDBRANCH  37  38
ENDBRANCH  36  37
ENDBRANCH  33  36
ENDBRANCH  31  32
ENDBRANCH  30  31
ENDBRANCH  28  30
ENDBRANCH  25  26
ENDBRANCH  24  25
ENDBRANCH  23  24
ENDBRANCH  22  23
ENDBRANCH  21  22
ENDBRANCH  19  21
ENDBRANCH  16  17
ENDBRANCH  15  16
ENDBRANCH  12  15
ENDBRANCH  10  11
ENDBRANCH   9  10
ENDBRANCH   8   9
ENDBRANCH   7   8
ENDBRANCH   6   7
ENDBRANCH   3   6
TORSDOF 23
ENDMDL
MODEL       99
REMARK 921   NORMALIZED FREE ENERGY PREDICTED BY IDOCK:   -4.80 KCAL/MOL
REMARK 922        TOTAL FREE ENERGY PREDICTED BY IDOCK:  -14.01 KCAL/MOL
REMARK 923 INTER-LIGAND FREE ENERGY PREDICTED BY IDOCK:  -10.50 KCAL/MOL
REMARK 924 INTRA-LIGAND FREE ENERGY PREDICTED BY IDOCK:   -3.50 KCAL/MOL
REMARK 927      BINDING AFFINITY PREDICTED BY RF-SCORE:    0.00 PKD
ROOT
HETATM    1  C   UNL     1      -6.556   7.799  66.669  1.00  0.00    -0.054 C  
HETATM    2  C   UNL     1      -7.948   8.018  67.200  1.00  0.00    -0.113 C  
HETATM    3  N   UNL     1      -8.981   7.509  66.457  1.00  0.00    -0.155 N  
HETATM    4  O   UNL     1      -8.124   8.655  68.239  1.00  0.00    -0.115 OA 
HETATM    5  O   UNL     1      -8.815   6.653  65.356  1.00  0.00    -0.060 OA 
ENDROOT
BRANCH   3   6
HETATM    6  C   UNL     1     -10.382   7.651  66.829  1.00  0.00    -0.273 C  
BRANCH   6   7
HETATM    7  C   UNL     1     -11.006   6.325  67.268  1.00  0.00    -0.455 C  
BRANCH   7   8
HETATM    8  C   UNL     1     -10.888   6.155  68.784  1.00  0.00    -0.402 C  
BRANCH   8   9
HETATM    9  C   UNL     1      -9.927   5.027  69.164  1.00  0.00    -0.267 C  
BRANCH   9  10
HETATM   10  C   UNL     1      -9.911   4.762  70.669  1.00  0.00    -0.222 C  
BRANCH  10  11
HETATM   11  N   UNL     1      -9.926   5.989  71.451  1.00  0.00    -0.183 N  
HETATM   12  C   UNL     1     -10.784   6.145  72.516  1.00  0.00    -0.224 C  
HETATM   13  H   UNL     1      -9.289   6.747  71.205  1.00  0.00     0.000 HD 
HETATM   14  O   UNL     1     -11.556   5.274  72.907  1.00  0.00    -0.310 OA 
BRANCH  12  15
HETATM   15  C   UNL     1     -10.676   7.504  73.175  1.00  0.00    -0.452 C  
BRANCH  15  16
HETATM   16  C   UNL     1     -11.553   8.522  72.450  1.00  0.00    -0.425 C  
BRANCH  16  17
HETATM   17  C   UNL     1     -10.794   9.276  71.375  1.00  0.00    -0.364 C  
HETATM   18  O   UNL     1      -9.577   9.151  71.249  1.00  0.00    -0.275 OA 
HETATM   19  N   UNL     1     -11.537  10.117  70.587  1.00  0.00    -0.318 N  
HETATM   20  O   UNL     1     -12.939  10.218  70.627  1.00  0.00    -0.354 OA 
BRANCH  19  21
HETATM   21  C   UNL     1     -10.965  10.971  69.557  1.00  0.00    -0.243 C  
BRANCH  21  22
HETATM   22  C   UNL     1     -11.519  10.660  68.165  1.00  0.00    -0.303 C  
BRANCH  22  23
HETATM   23  C   UNL     1     -10.974  11.604  67.076  1.00  0.00    -0.338 C  
BRANCH  23  24
HETATM   24  C   UNL     1     -10.341  10.865  65.897  1.00  0.00    -0.310 C  
BRANCH  24  25
HETATM   25  C   UNL     1      -8.863  11.216  65.743  1.00  0.00    -0.174 C  
BRANCH  25  26
HETATM   26  N   UNL     1      -8.400  12.068  66.820  1.00  0.00    -0.288 N  
HETATM   27  H   UNL     1      -9.084  12.590  67.367  1.00  0.00     0.000 HD 
HETATM   28  C   UNL     1      -7.065  12.192  67.125  1.00  0.00    -0.120 C  
HETATM   29  O   UNL     1      -6.176  11.587  66.533  1.00  0.00    -0.140 OA 
BRANCH  28  30
HETATM   30  C   UNL     1      -6.765  13.147  68.252  1.00  0.00    -0.101 C  
BRANCH  30  31
HETATM   31  C   UNL     1      -7.068  14.569  67.809  1.00  0.00    -0.190 C  
BRANCH  31  32
HETATM   32  C   UNL     1      -8.208  15.155  68.614  1.00  0.00    -0.154 C  
HETATM   33  N   UNL     1      -9.489  14.997  68.144  1.00  0.00    -0.192 N  
HETATM   34  O   UNL     1      -7.971  15.682  69.703  1.00  0.00    -0.206 OA 
HETATM   35  O   UNL     1      -9.706  14.796  66.767  1.00  0.00    -0.236 OA 
BRANCH  33  36
HETATM   36  C   UNL     1     -10.651  15.588  68.811  1.00  0.00    -0.242 C  
BRANCH  36  37
HETATM   37  C   UNL     1     -11.829  14.615  68.890  1.00  0.00    -0.344 C  
BRANCH  37  38
HETATM   38  C   UNL     1     -12.238  14.320  70.337  1.00  0.00    -0.411 C  
BRANCH  38  39
HETATM   39  C   UNL     1     -11.867  15.472  71.276  1.00  0.00    -0.453 C  
BRANCH  39  40
HETATM   40  C   UNL     1     -12.839  15.611  72.449  1.00  0.00    -0.433 C  
HETATM   41  N   UNL     1     -13.450  14.333  72.799  1.00  0.00    -0.602 NA 
HETATM   42  H2  UNL     1     -12.743  13.622  72.984  1.00  0.00     0.000 HD 
HETATM   43  H1  UNL     1     -14.098  14.426  73.581  1.00  0.00     0.000 HD 
ENDBRANCH  39  40
ENDBRANCH  38  39
ENDBRANCH  37  38
ENDBRANCH  36  37
ENDBRANCH  33  36
ENDBRANCH  31  32
ENDBRANCH  30  31
ENDBRANCH  28  30
ENDBRANCH  25  26
ENDBRANCH  24  25
ENDBRANCH  23  24
ENDBRANCH  22  23
ENDBRANCH  21  22
ENDBRANCH  19  21
ENDBRANCH  16  17
ENDBRANCH  15  16
ENDBRANCH  12  15
ENDBRANCH  10  11
ENDBRANCH   9  10
ENDBRANCH   8   9
ENDBRANCH   7   8
ENDBRANCH   6   7
ENDBRANCH   3   6
TORSDOF 23
ENDMDL
MODEL      100
REMARK 921   NORMALIZED FREE ENERGY PREDICTED BY IDOCK:   -4.79 KCAL/MOL
REMARK 922        TOTAL FREE ENERGY PREDICTED BY IDOCK:  -13.99 KCAL/MOL
REMARK 923 INTER-LIGAND FREE ENERGY PREDICTED BY IDOCK:  -11.45 KCAL/MOL
REMARK 924 INTRA-LIGAND FREE ENERGY PREDICTED BY IDOCK:   -2.55 KCAL/MOL
REMARK 927      BINDING AFFINITY PREDICTED BY RF-SCORE:    0.00 PKD
ROOT
HETATM    1  C   UNL     1     -12.063  12.723  69.878  1.00  0.00    -0.329 C  
HETATM    2  C   UNL     1     -11.764  13.252  68.500  1.00  0.00    -0.352 C  
HETATM    3  N   UNL     1     -11.607  12.325  67.502  1.00  0.00    -0.344 N  
HETATM    4  O   UNL     1     -11.638  14.462  68.312  1.00  0.00    -0.293 OA 
HETATM    5  O   UNL     1     -11.890  10.956  67.644  1.00  0.00    -0.572 OA 
ENDROOT
BRANCH   3   6
HETATM    6  C   UNL     1     -11.299  12.676  66.122  1.00  0.00    -0.330 C  
BRANCH   6   7
HETATM    7  C   UNL     1     -12.554  13.003  65.310  1.00  0.00    -0.516 C  
BRANCH   7   8
HETATM    8  C   UNL     1     -12.193  13.844  64.084  1.00  0.00    -0.436 C  
BRANCH   8   9
HETATM    9  C   UNL     1     -12.210  15.343  64.389  1.00  0.00    -0.161 C  
BRANCH   9  10
HETATM   10  C   UNL     1     -10.848  15.855  64.860  1.00  0.00    -0.400 C  
BRANCH  10  11
HETATM   11  N   UNL     1     -10.911  17.219  65.361  1.00  0.00    -0.166 N  
HETATM   12  C   UNL     1     -10.409  17.546  66.601  1.00  0.00    -0.319 C  
HETATM   13  H   UNL     1     -11.333  17.946  64.784  1.00  0.00     0.000 HD 
HETATM   14  O   UNL     1      -9.850  16.747  67.346  1.00  0.00    -0.243 OA 
BRANCH  12  15
HETATM   15  C   UNL     1     -10.602  19.005  66.957  1.00  0.00    -0.543 C  
BRANCH  15  16
HETATM   16  C   UNL     1      -9.519  19.862  66.307  1.00  0.00    -0.505 C  
BRANCH  16  17
HETATM   17  C   UNL     1      -8.140  19.244  66.434  1.00  0.00    -0.316 C  
HETATM   18  O   UNL     1      -7.536  18.828  65.447  1.00  0.00    -0.419 OA 
HETATM   19  N   UNL     1      -7.633  19.152  67.705  1.00  0.00    -0.237 N  
HETATM   20  O   UNL     1      -8.239  19.700  68.849  1.00  0.00    -0.327 OA 
BRANCH  19  21
HETATM   21  C   UNL     1      -6.359  18.522  68.020  1.00  0.00    -0.197 C  
BRANCH  21  22
HETATM   22  C   UNL     1      -6.497  17.421  69.075  1.00  0.00    -0.226 C  
BRANCH  22  23
HETATM   23  C   UNL     1      -6.379  16.004  68.482  1.00  0.00    -0.115 C  
BRANCH  23  24
HETATM   24  C   UNL     1      -7.075  14.935  69.326  1.00  0.00    -0.160 C  
BRANCH  24  25
HETATM   25  C   UNL     1      -8.117  14.169  68.513  1.00  0.00    -0.143 C  
BRANCH  25  26
HETATM   26  N   UNL     1      -8.175  12.773  68.898  1.00  0.00    -0.339 N  
HETATM   27  H   UNL     1      -8.340  12.536  69.877  1.00  0.00     0.000 HD 
HETATM   28  C   UNL     1      -8.014  11.761  67.983  1.00  0.00    -0.141 C  
HETATM   29  O   UNL     1      -7.832  11.954  66.784  1.00  0.00    -0.146 OA 
BRANCH  28  30
HETATM   30  C   UNL     1      -8.071  10.372  68.566  1.00  0.00    -0.116 C  
BRANCH  30  31
HETATM   31  C   UNL     1      -9.204  10.290  69.576  1.00  0.00    -0.191 C  
BRANCH  31  32
HETATM   32  C   UNL     1      -9.395   8.867  70.059  1.00  0.00    -0.174 C  
HETATM   33  N   UNL     1     -10.674   8.421  70.289  1.00  0.00    -0.231 N  
HETATM   34  O   UNL     1      -8.416   8.125  70.155  1.00  0.00    -0.123 OA 
HETATM   35  O   UNL     1     -11.692   9.347  70.587  1.00  0.00    -0.268 OA 
BRANCH  33  36
HETATM   36  C   UNL     1     -10.957   7.088  70.826  1.00  0.00    -0.255 C  
BRANCH  36  37
HETATM   37  C   UNL     1     -11.408   6.112  69.738  1.00  0.00    -0.452 C  
BRANCH  37  38
HETATM   38  C   UNL     1     -10.238   5.307  69.164  1.00  0.00    -0.281 C  
BRANCH  38  39
HETATM   39  C   UNL     1      -9.965   5.672  67.701  1.00  0.00    -0.177 C  
BRANCH  39  40
HETATM   40  C   UNL     1     -11.015   6.624  67.126  1.00  0.00    -0.408 C  
HETATM   41  N   UNL     1     -10.401   7.781  66.483  1.00  0.00    -0.496 NA 
HETATM   42  H2  UNL     1      -9.727   7.497  65.772  1.00  0.00     0.000 HD 
HETATM   43  H1  UNL     1     -11.102   8.416  66.100  1.00  0.00     0.000 HD 
ENDBRANCH  39  40
ENDBRANCH  38  39
ENDBRANCH  37  38
ENDBRANCH  36  37
ENDBRANCH  33  36
ENDBRANCH  31  32
ENDBRANCH  30  31
ENDBRANCH  28  30
ENDBRANCH  25  26
ENDBRANCH  24  25
ENDBRANCH  23  24
ENDBRANCH  22  23
ENDBRANCH  21  22
ENDBRANCH  19  21
ENDBRANCH  16  17
ENDBRANCH  15  16
ENDBRANCH  12  15
ENDBRANCH  10  11
ENDBRANCH   9  10
ENDBRANCH   8   9
ENDBRANCH   7   8
ENDBRANCH   6   7
ENDBRANCH   3   6
TORSDOF 23
ENDMDL
MODEL      101
REMARK 921   NORMALIZED FREE ENERGY PREDICTED BY IDOCK:   -4.79 KCAL/MOL
REMARK 922        TOTAL FREE ENERGY PREDICTED BY IDOCK:  -13.99 KCAL/MOL
REMARK 923 INTER-LIGAND FREE ENERGY PREDICTED BY IDOCK:  -11.16 KCAL/MOL
REMARK 924 INTRA-LIGAND FREE ENERGY PREDICTED BY IDOCK:   -2.83 KCAL/MOL
REMARK 927      BINDING AFFINITY PREDICTED BY RF-SCORE:    0.00 PKD
ROOT
HETATM    1  C   UNL     1     -12.871  12.024  63.483  1.00  0.00    -0.472 C  
HETATM    2  C   UNL     1     -12.192  12.672  64.661  1.00  0.00    -0.452 C  
HETATM    3  N   UNL     1     -11.975  14.023  64.584  1.00  0.00    -0.408 N  
HETATM    4  O   UNL     1     -11.830  11.991  65.621  1.00  0.00    -0.428 OA 
HETATM    5  O   UNL     1     -12.504  14.852  63.582  1.00  0.00    -0.699 OA 
ENDROOT
BRANCH   3   6
HETATM    6  C   UNL     1     -11.317  14.790  65.633  1.00  0.00    -0.343 C  
BRANCH   6   7
HETATM    7  C   UNL     1      -9.925  15.272  65.218  1.00  0.00    -0.322 C  
BRANCH   7   8
HETATM    8  C   UNL     1      -9.045  15.487  66.451  1.00  0.00    -0.351 C  
BRANCH   8   9
HETATM    9  C   UNL     1      -9.837  16.050  67.632  1.00  0.00    -0.235 C  
BRANCH   9  10
HETATM   10  C   UNL     1      -9.385  15.460  68.968  1.00  0.00    -0.232 C  
BRANCH  10  11
HETATM   11  N   UNL     1     -10.434  14.688  69.618  1.00  0.00    -0.427 N  
HETATM   12  C   UNL     1     -11.301  15.277  70.511  1.00  0.00    -0.309 C  
HETATM   13  H   UNL     1     -10.527  13.695  69.409  1.00  0.00     0.000 HD 
HETATM   14  O   UNL     1     -11.288  16.472  70.792  1.00  0.00    -0.314 OA 
BRANCH  12  15
HETATM   15  C   UNL     1     -12.294  14.303  71.108  1.00  0.00    -0.440 C  
BRANCH  15  16
HETATM   16  C   UNL     1     -12.199  12.948  70.412  1.00  0.00    -0.381 C  
BRANCH  16  17
HETATM   17  C   UNL     1     -12.764  11.823  71.257  1.00  0.00    -0.316 C  
HETATM   18  O   UNL     1     -13.383  12.055  72.294  1.00  0.00    -0.485 OA 
HETATM   19  N   UNL     1     -12.515  10.549  70.813  1.00  0.00    -0.348 N  
HETATM   20  O   UNL     1     -11.902  10.236  69.588  1.00  0.00    -0.202 OA 
BRANCH  19  21
HETATM   21  C   UNL     1     -12.917   9.351  71.535  1.00  0.00    -0.371 C  
BRANCH  21  22
HETATM   22  C   UNL     1     -11.744   8.401  71.790  1.00  0.00    -0.371 C  
BRANCH  22  23
HETATM   23  C   UNL     1     -11.980   6.989  71.221  1.00  0.00    -0.388 C  
BRANCH  23  24
HETATM   24  C   UNL     1     -11.536   5.874  72.167  1.00  0.00    -0.333 C  
BRANCH  24  25
HETATM   25  C   UNL     1     -10.273   5.178  71.662  1.00  0.00    -0.212 C  
BRANCH  25  26
HETATM   26  N   UNL     1      -9.654   5.914  70.578  1.00  0.00    -0.170 N  
HETATM   27  H   UNL     1     -10.135   5.971  69.680  1.00  0.00     0.000 HD 
HETATM   28  C   UNL     1      -8.438   6.538  70.726  1.00  0.00    -0.134 C  
HETATM   29  O   UNL     1      -7.800   6.538  71.774  1.00  0.00    -0.101 OA 
BRANCH  28  30
HETATM   30  C   UNL     1      -7.931   7.227  69.485  1.00  0.00    -0.127 C  
BRANCH  30  31
HETATM   31  C   UNL     1      -7.107   8.443  69.877  1.00  0.00    -0.051 C  
BRANCH  31  32
HETATM   32  C   UNL     1      -7.873   9.722  69.619  1.00  0.00    -0.142 C  
HETATM   33  N   UNL     1      -7.404  10.582  68.656  1.00  0.00    -0.086 N  
HETATM   34  O   UNL     1      -8.935   9.922  70.213  1.00  0.00    -0.199 OA 
HETATM   35  O   UNL     1      -6.038  10.566  68.314  1.00  0.00    -0.047 OA 
BRANCH  33  36
HETATM   36  C   UNL     1      -8.033  11.877  68.383  1.00  0.00    -0.154 C  
BRANCH  36  37
HETATM   37  C   UNL     1      -8.740  11.900  67.027  1.00  0.00    -0.181 C  
BRANCH  37  38
HETATM   38  C   UNL     1      -8.616  10.563  66.288  1.00  0.00    -0.151 C  
BRANCH  38  39
HETATM   39  C   UNL     1      -8.299  10.765  64.803  1.00  0.00     0.004 C  
BRANCH  39  40
HETATM   40  C   UNL     1      -9.421  10.268  63.890  1.00  0.00    -0.302 C  
HETATM   41  N   UNL     1      -9.352  10.881  62.567  1.00  0.00    -0.476 NA 
HETATM   42  H2  UNL     1      -8.436  10.743  62.141  1.00  0.00     0.000 HD 
HETATM   43  H1  UNL     1     -10.100  10.550  61.958  1.00  0.00     0.000 HD 
ENDBRANCH  39  40
ENDBRANCH  38  39
ENDBRANCH  37  38
ENDBRANCH  36  37
ENDBRANCH  33  36
ENDBRANCH  31  32
ENDBRANCH  30  31
ENDBRANCH  28  30
ENDBRANCH  25  26
ENDBRANCH  24  25
ENDBRANCH  23  24
ENDBRANCH  22  23
ENDBRANCH  21  22
ENDBRANCH  19  21
ENDBRANCH  16  17
ENDBRANCH  15  16
ENDBRANCH  12  15
ENDBRANCH  10  11
ENDBRANCH   9  10
ENDBRANCH   8   9
ENDBRANCH   7   8
ENDBRANCH   6   7
ENDBRANCH   3   6
TORSDOF 23
ENDMDL
MODEL      102
REMARK 921   NORMALIZED FREE ENERGY PREDICTED BY IDOCK:   -4.78 KCAL/MOL
REMARK 922        TOTAL FREE ENERGY PREDICTED BY IDOCK:  -13.97 KCAL/MOL
REMARK 923 INTER-LIGAND FREE ENERGY PREDICTED BY IDOCK:  -11.13 KCAL/MOL
REMARK 924 INTRA-LIGAND FREE ENERGY PREDICTED BY IDOCK:   -2.84 KCAL/MOL
REMARK 927      BINDING AFFINITY PREDICTED BY RF-SCORE:    0.00 PKD
ROOT
HETATM    1  C   UNL     1      -7.127   8.492  66.894  1.00  0.00    -0.075 C  
HETATM    2  C   UNL     1      -8.360   7.777  67.379  1.00  0.00    -0.123 C  
HETATM    3  N   UNL     1      -9.004   6.972  66.476  1.00  0.00    -0.142 N  
HETATM    4  O   UNL     1      -8.769   7.951  68.528  1.00  0.00    -0.131 OA 
HETATM    5  O   UNL     1      -8.488   6.631  65.214  1.00  0.00    -0.139 OA 
ENDROOT
BRANCH   3   6
HETATM    6  C   UNL     1     -10.216   6.227  66.787  1.00  0.00    -0.202 C  
BRANCH   6   7
HETATM    7  C   UNL     1     -10.019   4.715  66.665  1.00  0.00    -0.260 C  
BRANCH   7   8
HETATM    8  C   UNL     1      -9.565   4.126  68.002  1.00  0.00    -0.200 C  
BRANCH   8   9
HETATM    9  C   UNL     1      -8.110   3.655  67.959  1.00  0.00    -0.085 C  
BRANCH   9  10
HETATM   10  C   UNL     1      -7.233   4.391  68.972  1.00  0.00    -0.052 C  
BRANCH  10  11
HETATM   11  N   UNL     1      -8.010   5.222  69.881  1.00  0.00    -0.082 N  
HETATM   12  C   UNL     1      -8.118   4.907  71.217  1.00  0.00    -0.105 C  
HETATM   13  H   UNL     1      -8.482   6.051  69.521  1.00  0.00     0.000 HD 
HETATM   14  O   UNL     1      -7.553   3.953  71.744  1.00  0.00    -0.058 OA 
BRANCH  12  15
HETATM   15  C   UNL     1      -8.998   5.869  71.987  1.00  0.00    -0.137 C  
BRANCH  15  16
HETATM   16  C   UNL     1     -10.467   5.478  71.846  1.00  0.00    -0.282 C  
BRANCH  16  17
HETATM   17  C   UNL     1     -11.289   6.554  71.163  1.00  0.00    -0.314 C  
HETATM   18  O   UNL     1     -11.550   6.488  69.963  1.00  0.00    -0.407 OA 
HETATM   19  N   UNL     1     -11.686   7.603  71.951  1.00  0.00    -0.278 N  
HETATM   20  O   UNL     1     -11.498   7.674  73.342  1.00  0.00    -0.229 OA 
BRANCH  19  21
HETATM   21  C   UNL     1     -12.416   8.757  71.447  1.00  0.00    -0.303 C  
BRANCH  21  22
HETATM   22  C   UNL     1     -11.486   9.890  71.004  1.00  0.00    -0.466 C  
BRANCH  22  23
HETATM   23  C   UNL     1     -12.247  11.163  70.588  1.00  0.00    -0.492 C  
BRANCH  23  24
HETATM   24  C   UNL     1     -11.527  11.972  69.508  1.00  0.00    -0.351 C  
BRANCH  24  25
HETATM   25  C   UNL     1     -10.993  11.072  68.396  1.00  0.00    -0.230 C  
BRANCH  25  26
HETATM   26  N   UNL     1     -11.375  11.559  67.085  1.00  0.00    -0.302 N  
HETATM   27  H   UNL     1     -12.236  12.097  66.988  1.00  0.00     0.000 HD 
HETATM   28  C   UNL     1     -10.609  11.315  65.970  1.00  0.00    -0.258 C  
HETATM   29  O   UNL     1      -9.551  10.694  65.997  1.00  0.00    -0.183 OA 
BRANCH  28  30
HETATM   30  C   UNL     1     -11.176  11.867  64.686  1.00  0.00    -0.364 C  
BRANCH  30  31
HETATM   31  C   UNL     1     -12.379  12.744  64.996  1.00  0.00    -0.559 C  
BRANCH  31  32
HETATM   32  C   UNL     1     -12.109  14.185  64.618  1.00  0.00    -0.452 C  
HETATM   33  N   UNL     1     -11.145  14.874  65.313  1.00  0.00    -0.358 N  
HETATM   34  O   UNL     1     -12.695  14.676  63.651  1.00  0.00    -0.735 OA 
HETATM   35  O   UNL     1     -10.812  14.476  66.622  1.00  0.00    -0.300 OA 
BRANCH  33  36
HETATM   36  C   UNL     1     -10.863  16.290  65.071  1.00  0.00    -0.320 C  
BRANCH  36  37
HETATM   37  C   UNL     1     -10.535  17.043  66.362  1.00  0.00    -0.252 C  
BRANCH  37  38
HETATM   38  C   UNL     1     -10.159  18.505  66.099  1.00  0.00    -0.391 C  
BRANCH  38  39
HETATM   39  C   UNL     1     -10.884  19.456  67.056  1.00  0.00    -0.540 C  
BRANCH  39  40
HETATM   40  C   UNL     1      -9.948  20.065  68.101  1.00  0.00    -0.403 C  
HETATM   41  N   UNL     1     -10.181  19.504  69.428  1.00  0.00    -0.572 NA 
HETATM   42  H2  UNL     1     -10.116  18.487  69.418  1.00  0.00     0.000 HD 
HETATM   43  H1  UNL     1      -9.557  19.911  70.125  1.00  0.00     0.000 HD 
ENDBRANCH  39  40
ENDBRANCH  38  39
ENDBRANCH  37  38
ENDBRANCH  36  37
ENDBRANCH  33  36
ENDBRANCH  31  32
ENDBRANCH  30  31
ENDBRANCH  28  30
ENDBRANCH  25  26
ENDBRANCH  24  25
ENDBRANCH  23  24
ENDBRANCH  22  23
ENDBRANCH  21  22
ENDBRANCH  19  21
ENDBRANCH  16  17
ENDBRANCH  15  16
ENDBRANCH  12  15
ENDBRANCH  10  11
ENDBRANCH   9  10
ENDBRANCH   8   9
ENDBRANCH   7   8
ENDBRANCH   6   7
ENDBRANCH   3   6
TORSDOF 23
ENDMDL
MODEL      103
REMARK 921   NORMALIZED FREE ENERGY PREDICTED BY IDOCK:   -4.78 KCAL/MOL
REMARK 922        TOTAL FREE ENERGY PREDICTED BY IDOCK:  -13.96 KCAL/MOL
REMARK 923 INTER-LIGAND FREE ENERGY PREDICTED BY IDOCK:  -10.72 KCAL/MOL
REMARK 924 INTRA-LIGAND FREE ENERGY PREDICTED BY IDOCK:   -3.24 KCAL/MOL
REMARK 927      BINDING AFFINITY PREDICTED BY RF-SCORE:    0.00 PKD
ROOT
HETATM    1  C   UNL     1     -11.881   5.891  72.215  1.00  0.00    -0.266 C  
HETATM    2  C   UNL     1     -11.625   6.815  71.053  1.00  0.00    -0.339 C  
HETATM    3  N   UNL     1     -11.130   8.058  71.348  1.00  0.00    -0.236 N  
HETATM    4  O   UNL     1     -11.887   6.456  69.904  1.00  0.00    -0.384 OA 
HETATM    5  O   UNL     1     -10.678   8.446  72.621  1.00  0.00    -0.339 OA 
ENDROOT
BRANCH   3   6
HETATM    6  C   UNL     1     -10.845   9.069  70.339  1.00  0.00    -0.246 C  
BRANCH   6   7
HETATM    7  C   UNL     1      -9.359   9.428  70.276  1.00  0.00    -0.294 C  
BRANCH   7   8
HETATM    8  C   UNL     1      -8.551   8.262  69.705  1.00  0.00    -0.129 C  
BRANCH   8   9
HETATM    9  C   UNL     1      -7.762   7.524  70.788  1.00  0.00    -0.083 C  
BRANCH   9  10
HETATM   10  C   UNL     1      -8.084   6.029  70.824  1.00  0.00    -0.120 C  
BRANCH  10  11
HETATM   11  N   UNL     1      -8.230   5.460  69.492  1.00  0.00    -0.095 N  
HETATM   12  C   UNL     1      -9.078   4.401  69.259  1.00  0.00    -0.117 C  
HETATM   13  H   UNL     1      -7.695   5.854  68.718  1.00  0.00     0.000 HD 
HETATM   14  O   UNL     1      -9.789   3.891  70.121  1.00  0.00    -0.200 OA 
BRANCH  12  15
HETATM   15  C   UNL     1      -9.062   3.929  67.821  1.00  0.00    -0.183 C  
BRANCH  15  16
HETATM   16  C   UNL     1      -9.968   4.805  66.960  1.00  0.00    -0.235 C  
BRANCH  16  17
HETATM   17  C   UNL     1      -9.204   5.905  66.250  1.00  0.00    -0.158 C  
HETATM   18  O   UNL     1      -8.186   5.659  65.606  1.00  0.00    -0.114 OA 
HETATM   19  N   UNL     1      -9.697   7.176  66.398  1.00  0.00    -0.123 N  
HETATM   20  O   UNL     1     -10.907   7.495  67.039  1.00  0.00    -0.348 OA 
BRANCH  19  21
HETATM   21  C   UNL     1      -9.051   8.359  65.849  1.00  0.00    -0.171 C  
BRANCH  21  22
HETATM   22  C   UNL     1      -9.903   9.621  66.015  1.00  0.00    -0.345 C  
BRANCH  22  23
HETATM   23  C   UNL     1      -9.060  10.907  66.110  1.00  0.00    -0.201 C  
BRANCH  23  24
HETATM   24  C   UNL     1      -7.912  10.804  67.114  1.00  0.00    -0.124 C  
BRANCH  24  25
HETATM   25  C   UNL     1      -7.730  12.105  67.894  1.00  0.00    -0.134 C  
BRANCH  25  26
HETATM   26  N   UNL     1      -8.638  13.136  67.433  1.00  0.00    -0.194 N  
HETATM   27  H   UNL     1      -9.631  12.919  67.345  1.00  0.00     0.000 HD 
HETATM   28  C   UNL     1      -8.199  14.398  67.111  1.00  0.00    -0.178 C  
HETATM   29  O   UNL     1      -7.028  14.752  67.205  1.00  0.00    -0.219 OA 
BRANCH  28  30
HETATM   30  C   UNL     1      -9.276  15.330  66.617  1.00  0.00    -0.302 C  
BRANCH  30  31
HETATM   31  C   UNL     1     -10.636  14.670  66.780  1.00  0.00    -0.288 C  
BRANCH  31  32
HETATM   32  C   UNL     1     -11.335  15.173  68.025  1.00  0.00    -0.337 C  
HETATM   33  N   UNL     1     -11.652  14.267  69.008  1.00  0.00    -0.285 N  
HETATM   34  O   UNL     1     -11.528  16.382  68.163  1.00  0.00    -0.283 OA 
HETATM   35  O   UNL     1     -11.819  12.909  68.676  1.00  0.00    -0.305 OA 
BRANCH  33  36
HETATM   36  C   UNL     1     -12.392  14.642  70.215  1.00  0.00    -0.349 C  
BRANCH  36  37
HETATM   37  C   UNL     1     -12.745  13.428  71.076  1.00  0.00    -0.387 C  
BRANCH  37  38
HETATM   38  C   UNL     1     -13.490  13.826  72.355  1.00  0.00    -0.672 C  
BRANCH  38  39
HETATM   39  C   UNL     1     -13.737  15.336  72.420  1.00  0.00    -0.622 C  
BRANCH  39  40
HETATM   40  C   UNL     1     -12.985  16.007  73.570  1.00  0.00    -0.586 C  
HETATM   41  N   UNL     1     -12.283  15.032  74.399  1.00  0.00    -0.724 NA 
HETATM   42  H2  UNL     1     -11.663  14.447  73.840  1.00  0.00     0.000 HD 
HETATM   43  H1  UNL     1     -11.781  15.480  75.166  1.00  0.00     0.000 HD 
ENDBRANCH  39  40
ENDBRANCH  38  39
ENDBRANCH  37  38
ENDBRANCH  36  37
ENDBRANCH  33  36
ENDBRANCH  31  32
ENDBRANCH  30  31
ENDBRANCH  28  30
ENDBRANCH  25  26
ENDBRANCH  24  25
ENDBRANCH  23  24
ENDBRANCH  22  23
ENDBRANCH  21  22
ENDBRANCH  19  21
ENDBRANCH  16  17
ENDBRANCH  15  16
ENDBRANCH  12  15
ENDBRANCH  10  11
ENDBRANCH   9  10
ENDBRANCH   8   9
ENDBRANCH   7   8
ENDBRANCH   6   7
ENDBRANCH   3   6
TORSDOF 23
ENDMDL
MODEL      104
REMARK 921   NORMALIZED FREE ENERGY PREDICTED BY IDOCK:   -4.77 KCAL/MOL
REMARK 922        TOTAL FREE ENERGY PREDICTED BY IDOCK:  -13.95 KCAL/MOL
REMARK 923 INTER-LIGAND FREE ENERGY PREDICTED BY IDOCK:  -11.08 KCAL/MOL
REMARK 924 INTRA-LIGAND FREE ENERGY PREDICTED BY IDOCK:   -2.87 KCAL/MOL
REMARK 927      BINDING AFFINITY PREDICTED BY RF-SCORE:    0.00 PKD
ROOT
HETATM    1  C   UNL     1      -6.675  11.044  68.459  1.00  0.00    -0.061 C  
HETATM    2  C   UNL     1      -6.626   9.990  67.384  1.00  0.00    -0.069 C  
HETATM    3  N   UNL     1      -7.514  10.120  66.349  1.00  0.00    -0.104 N  
HETATM    4  O   UNL     1      -5.838   9.048  67.472  1.00  0.00    -0.042 OA 
HETATM    5  O   UNL     1      -8.318  11.253  66.136  1.00  0.00    -0.167 OA 
ENDROOT
BRANCH   3   6
HETATM    6  C   UNL     1      -7.602   9.176  65.243  1.00  0.00    -0.098 C  
BRANCH   6   7
HETATM    7  C   UNL     1      -6.681   9.553  64.080  1.00  0.00    -0.101 C  
BRANCH   7   8
HETATM    8  C   UNL     1      -7.450   9.519  62.758  1.00  0.00    -0.108 C  
BRANCH   8   9
HETATM    9  C   UNL     1      -8.952   9.726  62.959  1.00  0.00    -0.271 C  
BRANCH   9  10
HETATM   10  C   UNL     1      -9.405  11.127  62.547  1.00  0.00    -0.231 C  
BRANCH  10  11
HETATM   11  N   UNL     1      -9.981  11.874  63.655  1.00  0.00    -0.462 N  
HETATM   12  C   UNL     1     -11.344  11.996  63.799  1.00  0.00    -0.445 C  
HETATM   13  H   UNL     1      -9.363  12.314  64.336  1.00  0.00     0.000 HD 
HETATM   14  O   UNL     1     -12.162  11.468  63.051  1.00  0.00    -0.184 OA 
BRANCH  12  15
HETATM   15  C   UNL     1     -11.745  12.841  64.989  1.00  0.00    -0.391 C  
BRANCH  15  16
HETATM   16  C   UNL     1     -11.627  14.326  64.655  1.00  0.00    -0.415 C  
BRANCH  16  17
HETATM   17  C   UNL     1     -10.542  15.016  65.458  1.00  0.00    -0.363 C  
HETATM   18  O   UNL     1      -9.773  14.373  66.170  1.00  0.00    -0.297 OA 
HETATM   19  N   UNL     1     -10.496  16.383  65.364  1.00  0.00    -0.352 N  
HETATM   20  O   UNL     1     -11.285  17.151  64.490  1.00  0.00    -1.104 OA 
BRANCH  19  21
HETATM   21  C   UNL     1      -9.569  17.212  66.121  1.00  0.00    -0.218 C  
BRANCH  21  22
HETATM   22  C   UNL     1     -10.282  18.103  67.142  1.00  0.00    -0.376 C  
BRANCH  22  23
HETATM   23  C   UNL     1     -10.218  17.543  68.575  1.00  0.00    -0.378 C  
BRANCH  23  24
HETATM   24  C   UNL     1     -11.186  16.384  68.816  1.00  0.00    -0.313 C  
BRANCH  24  25
HETATM   25  C   UNL     1     -10.492  15.204  69.492  1.00  0.00    -0.260 C  
BRANCH  25  26
HETATM   26  N   UNL     1     -11.357  14.044  69.565  1.00  0.00    -0.317 N  
HETATM   27  H   UNL     1     -12.298  14.151  69.945  1.00  0.00     0.000 HD 
HETATM   28  C   UNL     1     -10.946  12.804  69.136  1.00  0.00    -0.133 C  
HETATM   29  O   UNL     1      -9.841  12.588  68.648  1.00  0.00    -0.180 OA 
BRANCH  28  30
HETATM   30  C   UNL     1     -11.964  11.707  69.319  1.00  0.00    -0.382 C  
BRANCH  30  31
HETATM   31  C   UNL     1     -12.195  11.468  70.802  1.00  0.00    -0.463 C  
BRANCH  31  32
HETATM   32  C   UNL     1     -12.489  10.008  71.075  1.00  0.00    -0.362 C  
HETATM   33  N   UNL     1     -11.458   9.199  71.489  1.00  0.00    -0.339 N  
HETATM   34  O   UNL     1     -13.650   9.601  70.999  1.00  0.00    -0.309 OA 
HETATM   35  O   UNL     1     -10.131   9.542  71.168  1.00  0.00    -0.288 OA 
BRANCH  33  36
HETATM   36  C   UNL     1     -11.626   7.761  71.708  1.00  0.00    -0.272 C  
BRANCH  36  37
HETATM   37  C   UNL     1     -10.967   7.294  73.007  1.00  0.00    -0.388 C  
BRANCH  37  38
HETATM   38  C   UNL     1      -9.904   6.218  72.760  1.00  0.00    -0.174 C  
BRANCH  38  39
HETATM   39  C   UNL     1      -8.500   6.821  72.664  1.00  0.00    -0.127 C  
BRANCH  39  40
HETATM   40  C   UNL     1      -7.940   7.230  74.027  1.00  0.00    -0.120 C  
HETATM   41  N   UNL     1      -7.746   8.673  74.121  1.00  0.00    -0.416 NA 
HETATM   42  H2  UNL     1      -8.605   9.179  73.905  1.00  0.00     0.000 HD 
HETATM   43  H1  UNL     1      -7.372   8.946  75.031  1.00  0.00     0.000 HD 
ENDBRANCH  39  40
ENDBRANCH  38  39
ENDBRANCH  37  38
ENDBRANCH  36  37
ENDBRANCH  33  36
ENDBRANCH  31  32
ENDBRANCH  30  31
ENDBRANCH  28  30
ENDBRANCH  25  26
ENDBRANCH  24  25
ENDBRANCH  23  24
ENDBRANCH  22  23
ENDBRANCH  21  22
ENDBRANCH  19  21
ENDBRANCH  16  17
ENDBRANCH  15  16
ENDBRANCH  12  15
ENDBRANCH  10  11
ENDBRANCH   9  10
ENDBRANCH   8   9
ENDBRANCH   7   8
ENDBRANCH   6   7
ENDBRANCH   3   6
TORSDOF 23
ENDMDL
MODEL      105
REMARK 921   NORMALIZED FREE ENERGY PREDICTED BY IDOCK:   -4.77 KCAL/MOL
REMARK 922        TOTAL FREE ENERGY PREDICTED BY IDOCK:  -13.95 KCAL/MOL
REMARK 923 INTER-LIGAND FREE ENERGY PREDICTED BY IDOCK:  -11.21 KCAL/MOL
REMARK 924 INTRA-LIGAND FREE ENERGY PREDICTED BY IDOCK:   -2.74 KCAL/MOL
REMARK 927      BINDING AFFINITY PREDICTED BY RF-SCORE:    0.00 PKD
ROOT
HETATM    1  C   UNL     1     -10.954   6.389  68.938  1.00  0.00    -0.412 C  
HETATM    2  C   UNL     1     -11.431   6.497  70.363  1.00  0.00    -0.404 C  
HETATM    3  N   UNL     1     -11.060   5.492  71.218  1.00  0.00    -0.133 N  
HETATM    4  O   UNL     1     -12.146   7.438  70.709  1.00  0.00    -0.280 OA 
HETATM    5  O   UNL     1     -10.126   4.491  70.901  1.00  0.00    -0.207 OA 
ENDROOT
BRANCH   3   6
HETATM    6  C   UNL     1     -11.453   5.445  72.619  1.00  0.00    -0.241 C  
BRANCH   6   7
HETATM    7  C   UNL     1     -10.307   5.825  73.559  1.00  0.00    -0.252 C  
BRANCH   7   8
HETATM    8  C   UNL     1     -10.210   7.345  73.697  1.00  0.00    -0.380 C  
BRANCH   8   9
HETATM    9  C   UNL     1      -8.768   7.843  73.574  1.00  0.00    -0.321 C  
BRANCH   9  10
HETATM   10  C   UNL     1      -8.084   7.331  72.307  1.00  0.00    -0.100 C  
BRANCH  10  11
HETATM   11  N   UNL     1      -7.366   8.382  71.600  1.00  0.00    -0.090 N  
HETATM   12  C   UNL     1      -8.019   9.237  70.741  1.00  0.00    -0.154 C  
HETATM   13  H   UNL     1      -6.362   8.486  71.744  1.00  0.00     0.000 HD 
HETATM   14  O   UNL     1      -9.230   9.210  70.537  1.00  0.00    -0.200 OA 
BRANCH  12  15
HETATM   15  C   UNL     1      -7.095  10.234  70.074  1.00  0.00    -0.161 C  
BRANCH  15  16
HETATM   16  C   UNL     1      -6.459   9.623  68.828  1.00  0.00    -0.047 C  
BRANCH  16  17
HETATM   17  C   UNL     1      -7.369   9.700  67.617  1.00  0.00    -0.090 C  
HETATM   18  O   UNL     1      -7.589  10.770  67.055  1.00  0.00    -0.104 OA 
HETATM   19  N   UNL     1      -7.945   8.521  67.218  1.00  0.00    -0.101 N  
HETATM   20  O   UNL     1      -7.648   7.261  67.766  1.00  0.00    -0.105 OA 
BRANCH  19  21
HETATM   21  C   UNL     1      -8.900   8.421  66.124  1.00  0.00    -0.165 C  
BRANCH  21  22
HETATM   22  C   UNL     1      -8.215   8.292  64.761  1.00  0.00    -0.147 C  
BRANCH  22  23
HETATM   23  C   UNL     1      -8.502   9.485  63.829  1.00  0.00    -0.198 C  
BRANCH  23  24
HETATM   24  C   UNL     1      -9.712  10.313  64.263  1.00  0.00    -0.373 C  
BRANCH  24  25
HETATM   25  C   UNL     1     -10.130  11.306  63.180  1.00  0.00    -0.345 C  
BRANCH  25  26
HETATM   26  N   UNL     1     -10.668  12.525  63.751  1.00  0.00    -0.434 N  
HETATM   27  H   UNL     1     -10.024  13.225  64.120  1.00  0.00     0.000 HD 
HETATM   28  C   UNL     1     -12.020  12.764  63.808  1.00  0.00    -0.510 C  
HETATM   29  O   UNL     1     -12.864  11.988  63.370  1.00  0.00    -0.760 OA 
BRANCH  28  30
HETATM   30  C   UNL     1     -12.400  14.066  64.464  1.00  0.00    -0.409 C  
BRANCH  30  31
HETATM   31  C   UNL     1     -12.160  13.970  65.963  1.00  0.00    -0.461 C  
BRANCH  31  32
HETATM   32  C   UNL     1     -10.970  14.811  66.375  1.00  0.00    -0.331 C  
HETATM   33  N   UNL     1     -10.848  15.168  67.695  1.00  0.00    -0.287 N  
HETATM   34  O   UNL     1     -10.104  15.082  65.540  1.00  0.00    -0.328 OA 
HETATM   35  O   UNL     1     -11.995  15.229  68.510  1.00  0.00    -0.310 OA 
BRANCH  33  36
HETATM   36  C   UNL     1      -9.773  16.038  68.178  1.00  0.00    -0.217 C  
BRANCH  36  37
HETATM   37  C   UNL     1     -10.303  17.380  68.689  1.00  0.00    -0.364 C  
BRANCH  37  38
HETATM   38  C   UNL     1     -10.536  18.379  67.550  1.00  0.00    -0.447 C  
BRANCH  38  39
HETATM   39  C   UNL     1      -9.401  18.341  66.523  1.00  0.00    -0.306 C  
BRANCH  39  40
HETATM   40  C   UNL     1      -8.669  19.679  66.405  1.00  0.00    -0.368 C  
HETATM   41  N   UNL     1      -9.538  20.802  66.743  1.00  0.00    -0.663 NA 
HETATM   42  H2  UNL     1      -9.954  20.686  67.666  1.00  0.00     0.000 HD 
HETATM   43  H1  UNL     1      -9.050  21.695  66.664  1.00  0.00     0.000 HD 
ENDBRANCH  39  40
ENDBRANCH  38  39
ENDBRANCH  37  38
ENDBRANCH  36  37
ENDBRANCH  33  36
ENDBRANCH  31  32
ENDBRANCH  30  31
ENDBRANCH  28  30
ENDBRANCH  25  26
ENDBRANCH  24  25
ENDBRANCH  23  24
ENDBRANCH  22  23
ENDBRANCH  21  22
ENDBRANCH  19  21
ENDBRANCH  16  17
ENDBRANCH  15  16
ENDBRANCH  12  15
ENDBRANCH  10  11
ENDBRANCH   9  10
ENDBRANCH   8   9
ENDBRANCH   7   8
ENDBRANCH   6   7
ENDBRANCH   3   6
TORSDOF 23
ENDMDL
MODEL      106
REMARK 921   NORMALIZED FREE ENERGY PREDICTED BY IDOCK:   -4.77 KCAL/MOL
REMARK 922        TOTAL FREE ENERGY PREDICTED BY IDOCK:  -13.95 KCAL/MOL
REMARK 923 INTER-LIGAND FREE ENERGY PREDICTED BY IDOCK:  -11.19 KCAL/MOL
REMARK 924 INTRA-LIGAND FREE ENERGY PREDICTED BY IDOCK:   -2.76 KCAL/MOL
REMARK 927      BINDING AFFINITY PREDICTED BY RF-SCORE:    0.00 PKD
ROOT
HETATM    1  C   UNL     1     -12.012  15.982  72.563  1.00  0.00    -0.649 C  
HETATM    2  C   UNL     1     -12.575  15.719  71.191  1.00  0.00    -0.431 C  
HETATM    3  N   UNL     1     -11.679  15.663  70.155  1.00  0.00    -0.333 N  
HETATM    4  O   UNL     1     -13.790  15.597  71.030  1.00  0.00    -0.567 OA 
HETATM    5  O   UNL     1     -10.284  15.646  70.318  1.00  0.00    -0.287 OA 
ENDROOT
BRANCH   3   6
HETATM    6  C   UNL     1     -12.068  15.432  68.770  1.00  0.00    -0.155 C  
BRANCH   6   7
HETATM    7  C   UNL     1     -10.958  15.801  67.784  1.00  0.00    -0.314 C  
BRANCH   7   8
HETATM    8  C   UNL     1     -10.825  14.727  66.703  1.00  0.00    -0.319 C  
BRANCH   8   9
HETATM    9  C   UNL     1     -12.158  14.441  66.009  1.00  0.00    -0.370 C  
BRANCH   9  10
HETATM   10  C   UNL     1     -11.998  14.254  64.500  1.00  0.00    -0.462 C  
BRANCH  10  11
HETATM   11  N   UNL     1     -11.023  13.226  64.167  1.00  0.00    -0.492 N  
HETATM   12  C   UNL     1     -11.416  12.014  63.646  1.00  0.00    -0.468 C  
HETATM   13  H   UNL     1     -10.032  13.407  64.323  1.00  0.00     0.000 HD 
HETATM   14  O   UNL     1     -12.581  11.724  63.390  1.00  0.00    -0.558 OA 
BRANCH  12  15
HETATM   15  C   UNL     1     -10.261  11.066  63.404  1.00  0.00    -0.404 C  
BRANCH  15  16
HETATM   16  C   UNL     1      -9.380  10.967  64.647  1.00  0.00    -0.235 C  
BRANCH  16  17
HETATM   17  C   UNL     1      -8.689   9.622  64.761  1.00  0.00    -0.193 C  
HETATM   18  O   UNL     1      -7.682   9.367  64.103  1.00  0.00    -0.108 OA 
HETATM   19  N   UNL     1      -9.271   8.713  65.607  1.00  0.00    -0.178 N  
HETATM   20  O   UNL     1     -10.361   8.991  66.451  1.00  0.00    -0.261 OA 
BRANCH  19  21
HETATM   21  C   UNL     1      -8.788   7.352  65.783  1.00  0.00    -0.075 C  
BRANCH  21  22
HETATM   22  C   UNL     1      -7.833   7.220  66.973  1.00  0.00    -0.112 C  
BRANCH  22  23
HETATM   23  C   UNL     1      -8.566   7.007  68.310  1.00  0.00    -0.129 C  
BRANCH  23  24
HETATM   24  C   UNL     1      -7.781   6.143  69.299  1.00  0.00    -0.099 C  
BRANCH  24  25
HETATM   25  C   UNL     1      -8.625   5.779  70.518  1.00  0.00    -0.138 C  
BRANCH  25  26
HETATM   26  N   UNL     1      -9.131   6.958  71.191  1.00  0.00    -0.150 N  
HETATM   27  H   UNL     1      -8.773   7.874  70.921  1.00  0.00     0.000 HD 
HETATM   28  C   UNL     1     -10.078   6.877  72.184  1.00  0.00    -0.181 C  
HETATM   29  O   UNL     1     -10.577   5.821  72.559  1.00  0.00    -0.201 OA 
BRANCH  28  30
HETATM   30  C   UNL     1     -10.462   8.200  72.795  1.00  0.00    -0.385 C  
BRANCH  30  31
HETATM   31  C   UNL     1     -11.812   8.640  72.252  1.00  0.00    -0.436 C  
BRANCH  31  32
HETATM   32  C   UNL     1     -11.663   9.292  70.894  1.00  0.00    -0.296 C  
HETATM   33  N   UNL     1     -12.045  10.604  70.753  1.00  0.00    -0.341 N  
HETATM   34  O   UNL     1     -11.131   8.662  69.977  1.00  0.00    -0.237 OA 
HETATM   35  O   UNL     1     -13.002  11.149  71.630  1.00  0.00    -0.445 OA 
BRANCH  33  36
HETATM   36  C   UNL     1     -12.007  11.299  69.465  1.00  0.00    -0.351 C  
BRANCH  36  37
HETATM   37  C   UNL     1     -10.761  12.175  69.318  1.00  0.00    -0.031 C  
BRANCH  37  38
HETATM   38  C   UNL     1      -9.704  11.528  68.417  1.00  0.00    -0.202 C  
BRANCH  38  39
HETATM   39  C   UNL     1      -8.587  12.512  68.059  1.00  0.00    -0.185 C  
BRANCH  39  40
HETATM   40  C   UNL     1      -7.199  11.988  68.430  1.00  0.00    -0.092 C  
HETATM   41  N   UNL     1      -6.984  12.002  69.874  1.00  0.00    -0.317 NA 
HETATM   42  H2  UNL     1      -7.718  11.491  70.364  1.00  0.00     0.000 HD 
HETATM   43  H1  UNL     1      -6.058  11.652  70.121  1.00  0.00     0.000 HD 
ENDBRANCH  39  40
ENDBRANCH  38  39
ENDBRANCH  37  38
ENDBRANCH  36  37
ENDBRANCH  33  36
ENDBRANCH  31  32
ENDBRANCH  30  31
ENDBRANCH  28  30
ENDBRANCH  25  26
ENDBRANCH  24  25
ENDBRANCH  23  24
ENDBRANCH  22  23
ENDBRANCH  21  22
ENDBRANCH  19  21
ENDBRANCH  16  17
ENDBRANCH  15  16
ENDBRANCH  12  15
ENDBRANCH  10  11
ENDBRANCH   9  10
ENDBRANCH   8   9
ENDBRANCH   7   8
ENDBRANCH   6   7
ENDBRANCH   3   6
TORSDOF 23
ENDMDL
MODEL      107
REMARK 921   NORMALIZED FREE ENERGY PREDICTED BY IDOCK:   -4.77 KCAL/MOL
REMARK 922        TOTAL FREE ENERGY PREDICTED BY IDOCK:  -13.94 KCAL/MOL
REMARK 923 INTER-LIGAND FREE ENERGY PREDICTED BY IDOCK:  -11.21 KCAL/MOL
REMARK 924 INTRA-LIGAND FREE ENERGY PREDICTED BY IDOCK:   -2.73 KCAL/MOL
REMARK 927      BINDING AFFINITY PREDICTED BY RF-SCORE:    0.00 PKD
ROOT
HETATM    1  C   UNL     1     -13.073  11.398  71.674  1.00  0.00    -0.498 C  
HETATM    2  C   UNL     1     -13.258   9.936  71.985  1.00  0.00    -0.456 C  
HETATM    3  N   UNL     1     -12.446   9.055  71.320  1.00  0.00    -0.307 N  
HETATM    4  O   UNL     1     -14.128   9.574  72.779  1.00  0.00    -0.333 OA 
HETATM    5  O   UNL     1     -11.350   9.434  70.528  1.00  0.00    -0.256 OA 
ENDROOT
BRANCH   3   6
HETATM    6  C   UNL     1     -12.513   7.611  71.499  1.00  0.00    -0.336 C  
BRANCH   6   7
HETATM    7  C   UNL     1     -11.203   7.027  72.031  1.00  0.00    -0.288 C  
BRANCH   7   8
HETATM    8  C   UNL     1     -10.813   5.779  71.238  1.00  0.00    -0.313 C  
BRANCH   8   9
HETATM    9  C   UNL     1     -10.977   5.980  69.730  1.00  0.00    -0.471 C  
BRANCH   9  10
HETATM   10  C   UNL     1      -9.652   6.312  69.042  1.00  0.00    -0.127 C  
BRANCH  10  11
HETATM   11  N   UNL     1      -9.509   7.734  68.769  1.00  0.00    -0.149 N  
HETATM   12  C   UNL     1      -9.192   8.189  67.509  1.00  0.00    -0.137 C  
HETATM   13  H   UNL     1      -9.646   8.406  69.524  1.00  0.00     0.000 HD 
HETATM   14  O   UNL     1      -9.048   7.458  66.533  1.00  0.00    -0.150 OA 
BRANCH  12  15
HETATM   15  C   UNL     1      -9.051   9.694  67.435  1.00  0.00    -0.144 C  
BRANCH  15  16
HETATM   16  C   UNL     1      -9.614  10.221  66.117  1.00  0.00    -0.248 C  
BRANCH  16  17
HETATM   17  C   UNL     1     -10.649  11.309  66.324  1.00  0.00    -0.263 C  
HETATM   18  O   UNL     1     -10.890  11.753  67.445  1.00  0.00    -0.227 OA 
HETATM   19  N   UNL     1     -11.312  11.735  65.201  1.00  0.00    -0.262 N  
HETATM   20  O   UNL     1     -11.004  11.331  63.890  1.00  0.00    -0.386 OA 
BRANCH  19  21
HETATM   21  C   UNL     1     -12.386  12.716  65.223  1.00  0.00    -0.466 C  
BRANCH  21  22
HETATM   22  C   UNL     1     -12.135  13.879  64.259  1.00  0.00    -0.477 C  
BRANCH  22  23
HETATM   23  C   UNL     1     -10.775  14.566  64.487  1.00  0.00    -0.198 C  
BRANCH  23  24
HETATM   24  C   UNL     1     -10.902  16.011  64.971  1.00  0.00    -0.421 C  
BRANCH  24  25
HETATM   25  C   UNL     1     -10.315  16.187  66.370  1.00  0.00    -0.315 C  
BRANCH  25  26
HETATM   26  N   UNL     1      -8.938  15.738  66.433  1.00  0.00    -0.303 N  
HETATM   27  H   UNL     1      -8.276  16.072  65.733  1.00  0.00     0.000 HD 
HETATM   28  C   UNL     1      -8.501  14.875  67.409  1.00  0.00    -0.195 C  
HETATM   29  O   UNL     1      -9.222  14.440  68.301  1.00  0.00    -0.188 OA 
BRANCH  28  30
HETATM   30  C   UNL     1      -7.048  14.489  67.300  1.00  0.00    -0.002 C  
BRANCH  30  31
HETATM   31  C   UNL     1      -6.220  15.350  68.241  1.00  0.00    -0.121 C  
BRANCH  31  32
HETATM   32  C   UNL     1      -5.956  16.713  67.636  1.00  0.00    -0.147 C  
HETATM   33  N   UNL     1      -6.580  17.805  68.188  1.00  0.00    -0.187 N  
HETATM   34  O   UNL     1      -5.133  16.820  66.725  1.00  0.00    -0.272 OA 
HETATM   35  O   UNL     1      -7.785  17.634  68.898  1.00  0.00    -0.267 OA 
BRANCH  33  36
HETATM   36  C   UNL     1      -6.447  19.152  67.631  1.00  0.00    -0.212 C  
BRANCH  36  37
HETATM   37  C   UNL     1      -7.502  19.441  66.560  1.00  0.00    -0.258 C  
BRANCH  37  38
HETATM   38  C   UNL     1      -8.616  20.356  67.080  1.00  0.00    -0.370 C  
BRANCH  38  39
HETATM   39  C   UNL     1      -9.980  19.971  66.500  1.00  0.00    -0.603 C  
BRANCH  39  40
HETATM   40  C   UNL     1     -10.944  19.444  67.563  1.00  0.00    -0.299 C  
HETATM   41  N   UNL     1     -10.281  19.259  68.850  1.00  0.00    -0.555 NA 
HETATM   42  H2  UNL     1      -9.821  20.116  69.157  1.00  0.00     0.000 HD 
HETATM   43  H1  UNL     1     -10.924  18.907  69.560  1.00  0.00     0.000 HD 
ENDBRANCH  39  40
ENDBRANCH  38  39
ENDBRANCH  37  38
ENDBRANCH  36  37
ENDBRANCH  33  36
ENDBRANCH  31  32
ENDBRANCH  30  31
ENDBRANCH  28  30
ENDBRANCH  25  26
ENDBRANCH  24  25
ENDBRANCH  23  24
ENDBRANCH  22  23
ENDBRANCH  21  22
ENDBRANCH  19  21
ENDBRANCH  16  17
ENDBRANCH  15  16
ENDBRANCH  12  15
ENDBRANCH  10  11
ENDBRANCH   9  10
ENDBRANCH   8   9
ENDBRANCH   7   8
ENDBRANCH   6   7
ENDBRANCH   3   6
TORSDOF 23
ENDMDL
MODEL      108
REMARK 921   NORMALIZED FREE ENERGY PREDICTED BY IDOCK:   -4.76 KCAL/MOL
REMARK 922        TOTAL FREE ENERGY PREDICTED BY IDOCK:  -13.92 KCAL/MOL
REMARK 923 INTER-LIGAND FREE ENERGY PREDICTED BY IDOCK:  -10.42 KCAL/MOL
REMARK 924 INTRA-LIGAND FREE ENERGY PREDICTED BY IDOCK:   -3.50 KCAL/MOL
REMARK 927      BINDING AFFINITY PREDICTED BY RF-SCORE:    0.00 PKD
ROOT
HETATM    1  C   UNL     1     -11.988   9.183  71.335  1.00  0.00    -0.410 C  
HETATM    2  C   UNL     1     -11.157   8.207  72.126  1.00  0.00    -0.321 C  
HETATM    3  N   UNL     1     -11.703   6.972  72.356  1.00  0.00    -0.247 N  
HETATM    4  O   UNL     1     -10.054   8.541  72.562  1.00  0.00    -0.298 OA 
HETATM    5  O   UNL     1     -12.883   6.506  71.751  1.00  0.00    -0.293 OA 
ENDROOT
BRANCH   3   6
HETATM    6  C   UNL     1     -11.032   5.926  73.116  1.00  0.00    -0.253 C  
BRANCH   6   7
HETATM    7  C   UNL     1      -9.739   5.458  72.446  1.00  0.00    -0.180 C  
BRANCH   7   8
HETATM    8  C   UNL     1     -10.050   4.713  71.146  1.00  0.00    -0.243 C  
BRANCH   8   9
HETATM    9  C   UNL     1      -9.690   5.538  69.910  1.00  0.00    -0.233 C  
BRANCH   9  10
HETATM   10  C   UNL     1     -10.927   5.990  69.134  1.00  0.00    -0.359 C  
BRANCH  10  11
HETATM   11  N   UNL     1     -10.824   7.367  68.676  1.00  0.00    -0.412 N  
HETATM   12  C   UNL     1     -10.501   7.661  67.370  1.00  0.00    -0.297 C  
HETATM   13  H   UNL     1     -10.992   8.128  69.334  1.00  0.00     0.000 HD 
HETATM   14  O   UNL     1     -10.320   6.812  66.501  1.00  0.00    -0.157 OA 
BRANCH  12  15
HETATM   15  C   UNL     1     -10.405   9.147  67.099  1.00  0.00    -0.337 C  
BRANCH  15  16
HETATM   16  C   UNL     1      -8.943   9.579  67.003  1.00  0.00    -0.150 C  
BRANCH  16  17
HETATM   17  C   UNL     1      -8.517  10.439  68.177  1.00  0.00    -0.121 C  
HETATM   18  O   UNL     1      -9.141  10.424  69.236  1.00  0.00    -0.187 OA 
HETATM   19  N   UNL     1      -7.427  11.245  67.972  1.00  0.00    -0.091 N  
HETATM   20  O   UNL     1      -6.624  11.225  66.818  1.00  0.00    -0.119 OA 
BRANCH  19  21
HETATM   21  C   UNL     1      -6.924  12.187  68.960  1.00  0.00    -0.086 C  
BRANCH  21  22
HETATM   22  C   UNL     1      -6.099  13.313  68.329  1.00  0.00    -0.093 C  
BRANCH  22  23
HETATM   23  C   UNL     1      -6.944  14.258  67.454  1.00  0.00    -0.077 C  
BRANCH  23  24
HETATM   24  C   UNL     1      -7.199  15.618  68.104  1.00  0.00    -0.122 C  
BRANCH  24  25
HETATM   25  C   UNL     1      -8.245  16.421  67.334  1.00  0.00    -0.158 C  
BRANCH  25  26
HETATM   26  N   UNL     1      -9.153  15.558  66.606  1.00  0.00    -0.255 N  
HETATM   27  H   UNL     1      -9.064  14.547  66.709  1.00  0.00     0.000 HD 
HETATM   28  C   UNL     1     -10.130  16.063  65.782  1.00  0.00    -0.366 C  
HETATM   29  O   UNL     1     -10.322  17.264  65.615  1.00  0.00    -0.580 OA 
BRANCH  28  30
HETATM   30  C   UNL     1     -10.960  15.019  65.080  1.00  0.00    -0.436 C  
BRANCH  30  31
HETATM   31  C   UNL     1     -10.396  13.638  65.373  1.00  0.00    -0.345 C  
BRANCH  31  32
HETATM   32  C   UNL     1     -11.350  12.837  66.235  1.00  0.00    -0.320 C  
HETATM   33  N   UNL     1     -11.307  13.015  67.596  1.00  0.00    -0.283 N  
HETATM   34  O   UNL     1     -12.189  12.113  65.695  1.00  0.00    -0.571 OA 
HETATM   35  O   UNL     1     -10.124  13.480  68.201  1.00  0.00    -0.235 OA 
BRANCH  33  36
HETATM   36  C   UNL     1     -12.136  12.235  68.517  1.00  0.00    -0.070 C  
BRANCH  36  37
HETATM   37  C   UNL     1     -11.875  12.601  69.980  1.00  0.00    -0.358 C  
BRANCH  37  38
HETATM   38  C   UNL     1     -12.615  13.877  70.395  1.00  0.00    -0.350 C  
BRANCH  38  39
HETATM   39  C   UNL     1     -11.740  14.779  71.270  1.00  0.00    -0.358 C  
BRANCH  39  40
HETATM   40  C   UNL     1     -11.565  16.180  70.682  1.00  0.00    -0.321 C  
HETATM   41  N   UNL     1     -11.224  16.132  69.264  1.00  0.00    -0.332 NA 
HETATM   42  H2  UNL     1     -11.906  15.589  68.735  1.00  0.00     0.000 HD 
HETATM   43  H1  UNL     1     -11.107  17.067  68.871  1.00  0.00     0.000 HD 
ENDBRANCH  39  40
ENDBRANCH  38  39
ENDBRANCH  37  38
ENDBRANCH  36  37
ENDBRANCH  33  36
ENDBRANCH  31  32
ENDBRANCH  30  31
ENDBRANCH  28  30
ENDBRANCH  25  26
ENDBRANCH  24  25
ENDBRANCH  23  24
ENDBRANCH  22  23
ENDBRANCH  21  22
ENDBRANCH  19  21
ENDBRANCH  16  17
ENDBRANCH  15  16
ENDBRANCH  12  15
ENDBRANCH  10  11
ENDBRANCH   9  10
ENDBRANCH   8   9
ENDBRANCH   7   8
ENDBRANCH   6   7
ENDBRANCH   3   6
TORSDOF 23
ENDMDL
MODEL      109
REMARK 921   NORMALIZED FREE ENERGY PREDICTED BY IDOCK:   -4.76 KCAL/MOL
REMARK 922        TOTAL FREE ENERGY PREDICTED BY IDOCK:  -13.91 KCAL/MOL
REMARK 923 INTER-LIGAND FREE ENERGY PREDICTED BY IDOCK:  -10.94 KCAL/MOL
REMARK 924 INTRA-LIGAND FREE ENERGY PREDICTED BY IDOCK:   -2.97 KCAL/MOL
REMARK 927      BINDING AFFINITY PREDICTED BY RF-SCORE:    0.00 PKD
ROOT
HETATM    1  C   UNL     1     -11.827  11.503  69.407  1.00  0.00    -0.417 C  
HETATM    2  C   UNL     1     -11.927  12.996  69.583  1.00  0.00    -0.302 C  
HETATM    3  N   UNL     1     -11.417  13.773  68.576  1.00  0.00    -0.284 N  
HETATM    4  O   UNL     1     -12.418  13.469  70.609  1.00  0.00    -0.346 OA 
HETATM    5  O   UNL     1     -10.990  13.276  67.333  1.00  0.00    -0.263 OA 
ENDROOT
BRANCH   3   6
HETATM    6  C   UNL     1     -11.424  15.229  68.606  1.00  0.00    -0.337 C  
BRANCH   6   7
HETATM    7  C   UNL     1     -10.033  15.824  68.378  1.00  0.00    -0.217 C  
BRANCH   7   8
HETATM    8  C   UNL     1     -10.077  16.874  67.266  1.00  0.00    -0.286 C  
BRANCH   8   9
HETATM    9  C   UNL     1      -9.768  16.272  65.893  1.00  0.00    -0.354 C  
BRANCH   9  10
HETATM   10  C   UNL     1     -11.022  16.122  65.031  1.00  0.00    -0.344 C  
BRANCH  10  11
HETATM   11  N   UNL     1     -11.041  14.868  64.292  1.00  0.00    -0.607 N  
HETATM   12  C   UNL     1     -12.152  14.055  64.298  1.00  0.00    -0.445 C  
HETATM   13  H   UNL     1     -10.217  14.587  63.761  1.00  0.00     0.000 HD 
HETATM   14  O   UNL     1     -13.200  14.332  64.876  1.00  0.00    -0.550 OA 
BRANCH  12  15
HETATM   15  C   UNL     1     -11.964  12.780  63.504  1.00  0.00    -0.633 C  
BRANCH  15  16
HETATM   16  C   UNL     1     -11.513  11.643  64.418  1.00  0.00    -0.302 C  
BRANCH  16  17
HETATM   17  C   UNL     1     -10.174  11.065  64.004  1.00  0.00    -0.358 C  
HETATM   18  O   UNL     1      -9.588  11.471  63.002  1.00  0.00    -0.374 OA 
HETATM   19  N   UNL     1      -9.683  10.054  64.790  1.00  0.00    -0.316 N  
HETATM   20  O   UNL     1     -10.264   9.624  65.995  1.00  0.00    -0.265 OA 
BRANCH  19  21
HETATM   21  C   UNL     1      -8.451   9.335  64.501  1.00  0.00    -0.181 C  
BRANCH  21  22
HETATM   22  C   UNL     1      -8.177   8.216  65.509  1.00  0.00    -0.144 C  
BRANCH  22  23
HETATM   23  C   UNL     1      -7.037   8.554  66.487  1.00  0.00    -0.079 C  
BRANCH  23  24
HETATM   24  C   UNL     1      -7.450   8.453  67.956  1.00  0.00    -0.097 C  
BRANCH  24  25
HETATM   25  C   UNL     1      -7.051   7.108  68.560  1.00  0.00    -0.081 C  
BRANCH  25  26
HETATM   26  N   UNL     1      -8.193   6.412  69.118  1.00  0.00    -0.111 N  
HETATM   27  H   UNL     1      -8.708   6.842  69.887  1.00  0.00     0.000 HD 
HETATM   28  C   UNL     1      -8.602   5.190  68.641  1.00  0.00    -0.087 C  
HETATM   29  O   UNL     1      -8.056   4.609  67.708  1.00  0.00    -0.095 OA 
BRANCH  28  30
HETATM   30  C   UNL     1      -9.786   4.598  69.363  1.00  0.00    -0.272 C  
BRANCH  30  31
HETATM   31  C   UNL     1      -9.318   3.926  70.644  1.00  0.00    -0.225 C  
BRANCH  31  32
HETATM   32  C   UNL     1      -9.756   4.714  71.860  1.00  0.00    -0.165 C  
HETATM   33  N   UNL     1      -8.938   5.717  72.319  1.00  0.00    -0.139 N  
HETATM   34  O   UNL     1     -10.864   4.495  72.355  1.00  0.00    -0.139 OA 
HETATM   35  O   UNL     1      -7.558   5.672  72.040  1.00  0.00    -0.096 OA 
BRANCH  33  36
HETATM   36  C   UNL     1      -9.238   6.486  73.529  1.00  0.00    -0.134 C  
BRANCH  36  37
HETATM   37  C   UNL     1      -9.055   7.990  73.317  1.00  0.00    -0.349 C  
BRANCH  37  38
HETATM   38  C   UNL     1      -9.991   8.539  72.235  1.00  0.00    -0.385 C  
BRANCH  38  39
HETATM   39  C   UNL     1     -11.434   8.069  72.445  1.00  0.00    -0.449 C  
BRANCH  39  40
HETATM   40  C   UNL     1     -12.160   7.795  71.127  1.00  0.00    -0.286 C  
HETATM   41  N   UNL     1     -11.262   7.899  69.982  1.00  0.00    -0.429 NA 
HETATM   42  H2  UNL     1     -10.449   7.293  70.091  1.00  0.00     0.000 HD 
HETATM   43  H1  UNL     1     -11.746   7.717  69.103  1.00  0.00     0.000 HD 
ENDBRANCH  39  40
ENDBRANCH  38  39
ENDBRANCH  37  38
ENDBRANCH  36  37
ENDBRANCH  33  36
ENDBRANCH  31  32
ENDBRANCH  30  31
ENDBRANCH  28  30
ENDBRANCH  25  26
ENDBRANCH  24  25
ENDBRANCH  23  24
ENDBRANCH  22  23
ENDBRANCH  21  22
ENDBRANCH  19  21
ENDBRANCH  16  17
ENDBRANCH  15  16
ENDBRANCH  12  15
ENDBRANCH  10  11
ENDBRANCH   9  10
ENDBRANCH   8   9
ENDBRANCH   7   8
ENDBRANCH   6   7
ENDBRANCH   3   6
TORSDOF 23
ENDMDL
MODEL      110
REMARK 921   NORMALIZED FREE ENERGY PREDICTED BY IDOCK:   -4.76 KCAL/MOL
REMARK 922        TOTAL FREE ENERGY PREDICTED BY IDOCK:  -13.91 KCAL/MOL
REMARK 923 INTER-LIGAND FREE ENERGY PREDICTED BY IDOCK:  -11.33 KCAL/MOL
REMARK 924 INTRA-LIGAND FREE ENERGY PREDICTED BY IDOCK:   -2.57 KCAL/MOL
REMARK 927      BINDING AFFINITY PREDICTED BY RF-SCORE:    0.00 PKD
ROOT
HETATM    1  C   UNL     1      -6.039  19.947  70.515  1.00  0.00    -0.331 C  
HETATM    2  C   UNL     1      -6.196  20.451  69.104  1.00  0.00    -0.310 C  
HETATM    3  N   UNL     1      -7.259  19.966  68.389  1.00  0.00    -0.306 N  
HETATM    4  O   UNL     1      -5.374  21.237  68.630  1.00  0.00    -0.300 OA 
HETATM    5  O   UNL     1      -8.295  19.193  68.940  1.00  0.00    -0.352 OA 
ENDROOT
BRANCH   3   6
HETATM    6  C   UNL     1      -7.538  20.344  67.010  1.00  0.00    -0.316 C  
BRANCH   6   7
HETATM    7  C   UNL     1      -6.847  19.424  66.002  1.00  0.00    -0.269 C  
BRANCH   7   8
HETATM    8  C   UNL     1      -7.668  18.151  65.790  1.00  0.00    -0.010 C  
BRANCH   8   9
HETATM    9  C   UNL     1      -6.993  16.922  66.402  1.00  0.00    -0.219 C  
BRANCH   9  10
HETATM   10  C   UNL     1      -8.006  15.929  66.975  1.00  0.00    -0.235 C  
BRANCH  10  11
HETATM   11  N   UNL     1      -8.982  15.498  65.986  1.00  0.00    -0.412 N  
HETATM   12  C   UNL     1     -10.323  15.765  66.145  1.00  0.00    -0.320 C  
HETATM   13  H   UNL     1      -8.667  14.989  65.160  1.00  0.00     0.000 HD 
HETATM   14  O   UNL     1     -10.787  16.404  67.086  1.00  0.00    -0.279 OA 
BRANCH  12  15
HETATM   15  C   UNL     1     -11.181  15.202  65.032  1.00  0.00    -0.414 C  
BRANCH  15  16
HETATM   16  C   UNL     1     -12.288  14.320  65.604  1.00  0.00    -0.416 C  
BRANCH  16  17
HETATM   17  C   UNL     1     -11.763  12.993  66.117  1.00  0.00    -0.394 C  
HETATM   18  O   UNL     1     -11.344  12.133  65.344  1.00  0.00    -0.324 OA 
HETATM   19  N   UNL     1     -11.816  12.805  67.474  1.00  0.00    -0.363 N  
HETATM   20  O   UNL     1     -12.191  13.792  68.403  1.00  0.00    -0.340 OA 
BRANCH  19  21
HETATM   21  C   UNL     1     -11.424  11.568  68.132  1.00  0.00    -0.315 C  
BRANCH  21  22
HETATM   22  C   UNL     1     -11.904  11.501  69.585  1.00  0.00    -0.421 C  
BRANCH  22  23
HETATM   23  C   UNL     1     -11.539  10.174  70.277  1.00  0.00    -0.379 C  
BRANCH  23  24
HETATM   24  C   UNL     1     -12.378   9.892  71.524  1.00  0.00    -0.504 C  
BRANCH  24  25
HETATM   25  C   UNL     1     -12.697   8.405  71.661  1.00  0.00    -0.331 C  
BRANCH  25  26
HETATM   26  N   UNL     1     -12.221   7.648  70.521  1.00  0.00    -0.505 N  
HETATM   27  H   UNL     1     -12.500   7.937  69.583  1.00  0.00     0.000 HD 
HETATM   28  C   UNL     1     -11.403   6.552  70.667  1.00  0.00    -0.351 C  
HETATM   29  O   UNL     1     -11.003   6.147  71.754  1.00  0.00    -0.244 OA 
BRANCH  28  30
HETATM   30  C   UNL     1     -11.034   5.868  69.376  1.00  0.00    -0.421 C  
BRANCH  30  31
HETATM   31  C   UNL     1     -10.867   6.907  68.278  1.00  0.00    -0.244 C  
BRANCH  31  32
HETATM   32  C   UNL     1      -9.492   6.814  67.650  1.00  0.00    -0.118 C  
HETATM   33  N   UNL     1      -8.520   7.687  68.073  1.00  0.00    -0.123 N  
HETATM   34  O   UNL     1      -9.257   5.913  66.842  1.00  0.00    -0.120 OA 
HETATM   35  O   UNL     1      -8.891   8.922  68.638  1.00  0.00    -0.136 OA 
BRANCH  33  36
HETATM   36  C   UNL     1      -7.183   7.724  67.477  1.00  0.00    -0.091 C  
BRANCH  36  37
HETATM   37  C   UNL     1      -6.905   9.050  66.766  1.00  0.00    -0.080 C  
BRANCH  37  38
HETATM   38  C   UNL     1      -7.460   9.066  65.337  1.00  0.00    -0.089 C  
BRANCH  38  39
HETATM   39  C   UNL     1      -8.391  10.259  65.105  1.00  0.00    -0.162 C  
BRANCH  39  40
HETATM   40  C   UNL     1      -8.916  10.326  63.670  1.00  0.00    -0.240 C  
HETATM   41  N   UNL     1      -9.356  11.672  63.317  1.00  0.00    -0.548 NA 
HETATM   42  H2  UNL     1      -8.618  12.358  63.475  1.00  0.00     0.000 HD 
HETATM   43  H1  UNL     1      -9.706  11.716  62.360  1.00  0.00     0.000 HD 
ENDBRANCH  39  40
ENDBRANCH  38  39
ENDBRANCH  37  38
ENDBRANCH  36  37
ENDBRANCH  33  36
ENDBRANCH  31  32
ENDBRANCH  30  31
ENDBRANCH  28  30
ENDBRANCH  25  26
ENDBRANCH  24  25
ENDBRANCH  23  24
ENDBRANCH  22  23
ENDBRANCH  21  22
ENDBRANCH  19  21
ENDBRANCH  16  17
ENDBRANCH  15  16
ENDBRANCH  12  15
ENDBRANCH  10  11
ENDBRANCH   9  10
ENDBRANCH   8   9
ENDBRANCH   7   8
ENDBRANCH   6   7
ENDBRANCH   3   6
TORSDOF 23
ENDMDL
MODEL      111
REMARK 921   NORMALIZED FREE ENERGY PREDICTED BY IDOCK:   -4.75 KCAL/MOL
REMARK 922        TOTAL FREE ENERGY PREDICTED BY IDOCK:  -13.90 KCAL/MOL
REMARK 923 INTER-LIGAND FREE ENERGY PREDICTED BY IDOCK:  -10.80 KCAL/MOL
REMARK 924 INTRA-LIGAND FREE ENERGY PREDICTED BY IDOCK:   -3.10 KCAL/MOL
REMARK 927      BINDING AFFINITY PREDICTED BY RF-SCORE:    0.00 PKD
ROOT
HETATM    1  C   UNL     1     -12.114  14.280  64.126  1.00  0.00    -0.423 C  
HETATM    2  C   UNL     1     -11.961  13.068  65.008  1.00  0.00    -0.397 C  
HETATM    3  N   UNL     1     -11.093  12.098  64.581  1.00  0.00    -0.306 N  
HETATM    4  O   UNL     1     -12.623  12.964  66.041  1.00  0.00    -0.467 OA 
HETATM    5  O   UNL     1     -10.214  12.247  63.495  1.00  0.00    -0.427 OA 
ENDROOT
BRANCH   3   6
HETATM    6  C   UNL     1     -10.848  10.862  65.313  1.00  0.00    -0.052 C  
BRANCH   6   7
HETATM    7  C   UNL     1      -9.462  10.280  65.027  1.00  0.00    -0.314 C  
BRANCH   7   8
HETATM    8  C   UNL     1      -9.070   9.277  66.114  1.00  0.00    -0.224 C  
BRANCH   8   9
HETATM    9  C   UNL     1      -8.385   8.038  65.533  1.00  0.00    -0.153 C  
BRANCH   9  10
HETATM   10  C   UNL     1      -8.884   6.744  66.176  1.00  0.00    -0.148 C  
BRANCH  10  11
HETATM   11  N   UNL     1      -8.774   6.767  67.627  1.00  0.00    -0.120 N  
HETATM   12  C   UNL     1      -8.564   5.611  68.344  1.00  0.00    -0.111 C  
HETATM   13  H   UNL     1      -8.854   7.656  68.121  1.00  0.00     0.000 HD 
HETATM   14  O   UNL     1      -8.415   4.505  67.831  1.00  0.00    -0.101 OA 
BRANCH  12  15
HETATM   15  C   UNL     1      -8.517   5.836  69.840  1.00  0.00    -0.123 C  
BRANCH  15  16
HETATM   16  C   UNL     1      -9.809   5.351  70.494  1.00  0.00    -0.267 C  
BRANCH  16  17
HETATM   17  C   UNL     1     -10.950   6.334  70.317  1.00  0.00    -0.337 C  
HETATM   18  O   UNL     1     -11.612   6.360  69.281  1.00  0.00    -0.354 OA 
HETATM   19  N   UNL     1     -11.171   7.199  71.358  1.00  0.00    -0.246 N  
HETATM   20  O   UNL     1     -10.509   7.143  72.597  1.00  0.00    -0.208 OA 
BRANCH  19  21
HETATM   21  C   UNL     1     -12.173   8.254  71.331  1.00  0.00    -0.299 C  
BRANCH  21  22
HETATM   22  C   UNL     1     -11.560   9.636  71.093  1.00  0.00    -0.456 C  
BRANCH  22  23
HETATM   23  C   UNL     1     -12.597  10.684  70.645  1.00  0.00    -0.454 C  
BRANCH  23  24
HETATM   24  C   UNL     1     -12.329  11.241  69.247  1.00  0.00    -0.172 C  
BRANCH  24  25
HETATM   25  C   UNL     1     -10.836  11.448  69.002  1.00  0.00    -0.219 C  
BRANCH  25  26
HETATM   26  N   UNL     1     -10.571  12.719  68.358  1.00  0.00    -0.243 N  
HETATM   27  H   UNL     1     -11.320  13.409  68.296  1.00  0.00     0.000 HD 
HETATM   28  C   UNL     1      -9.339  13.021  67.828  1.00  0.00    -0.199 C  
HETATM   29  O   UNL     1      -8.377  12.261  67.875  1.00  0.00    -0.143 OA 
BRANCH  28  30
HETATM   30  C   UNL     1      -9.254  14.373  67.167  1.00  0.00    -0.230 C  
BRANCH  30  31
HETATM   31  C   UNL     1      -7.819  14.874  67.215  1.00  0.00    -0.235 C  
BRANCH  31  32
HETATM   32  C   UNL     1      -7.755  16.359  66.925  1.00  0.00    -0.241 C  
HETATM   33  N   UNL     1      -7.007  17.156  67.757  1.00  0.00    -0.146 N  
HETATM   34  O   UNL     1      -8.303  16.801  65.913  1.00  0.00    -0.463 OA 
HETATM   35  O   UNL     1      -6.763  16.745  69.081  1.00  0.00    -0.199 OA 
BRANCH  33  36
HETATM   36  C   UNL     1      -6.942  18.611  67.603  1.00  0.00    -0.206 C  
BRANCH  36  37
HETATM   37  C   UNL     1      -7.789  19.341  68.647  1.00  0.00    -0.396 C  
BRANCH  37  38
HETATM   38  C   UNL     1      -9.291  19.189  68.381  1.00  0.00    -0.416 C  
BRANCH  38  39
HETATM   39  C   UNL     1      -9.739  20.024  67.179  1.00  0.00    -0.545 C  
BRANCH  39  40
HETATM   40  C   UNL     1     -11.030  19.500  66.547  1.00  0.00    -0.238 C  
HETATM   41  N   UNL     1     -10.761  18.678  65.372  1.00  0.00    -0.518 NA 
HETATM   42  H2  UNL     1     -10.118  17.917  65.590  1.00  0.00     0.000 HD 
HETATM   43  H1  UNL     1     -11.622  18.328  64.950  1.00  0.00     0.000 HD 
ENDBRANCH  39  40
ENDBRANCH  38  39
ENDBRANCH  37  38
ENDBRANCH  36  37
ENDBRANCH  33  36
ENDBRANCH  31  32
ENDBRANCH  30  31
ENDBRANCH  28  30
ENDBRANCH  25  26
ENDBRANCH  24  25
ENDBRANCH  23  24
ENDBRANCH  22  23
ENDBRANCH  21  22
ENDBRANCH  19  21
ENDBRANCH  16  17
ENDBRANCH  15  16
ENDBRANCH  12  15
ENDBRANCH  10  11
ENDBRANCH   9  10
ENDBRANCH   8   9
ENDBRANCH   7   8
ENDBRANCH   6   7
ENDBRANCH   3   6
TORSDOF 23
ENDMDL
MODEL      112
REMARK 921   NORMALIZED FREE ENERGY PREDICTED BY IDOCK:   -4.74 KCAL/MOL
REMARK 922        TOTAL FREE ENERGY PREDICTED BY IDOCK:  -13.88 KCAL/MOL
REMARK 923 INTER-LIGAND FREE ENERGY PREDICTED BY IDOCK:  -11.03 KCAL/MOL
REMARK 924 INTRA-LIGAND FREE ENERGY PREDICTED BY IDOCK:   -2.85 KCAL/MOL
REMARK 927      BINDING AFFINITY PREDICTED BY RF-SCORE:    0.00 PKD
ROOT
HETATM    1  C   UNL     1     -11.747   8.178  71.369  1.00  0.00    -0.321 C  
HETATM    2  C   UNL     1     -11.593   9.651  71.092  1.00  0.00    -0.381 C  
HETATM    3  N   UNL     1     -12.609  10.469  71.511  1.00  0.00    -0.410 N  
HETATM    4  O   UNL     1     -10.605  10.068  70.486  1.00  0.00    -0.292 OA 
HETATM    5  O   UNL     1     -13.670  10.053  72.333  1.00  0.00    -0.297 OA 
ENDROOT
BRANCH   3   6
HETATM    6  C   UNL     1     -12.615  11.910  71.304  1.00  0.00    -0.277 C  
BRANCH   6   7
HETATM    7  C   UNL     1     -13.486  12.643  72.327  1.00  0.00    -0.541 C  
BRANCH   7   8
HETATM    8  C   UNL     1     -13.408  14.155  72.110  1.00  0.00    -0.527 C  
BRANCH   8   9
HETATM    9  C   UNL     1     -11.970  14.673  72.178  1.00  0.00    -0.275 C  
BRANCH   9  10
HETATM   10  C   UNL     1     -11.792  15.993  71.426  1.00  0.00    -0.470 C  
BRANCH  10  11
HETATM   11  N   UNL     1     -10.673  15.957  70.498  1.00  0.00    -0.261 N  
HETATM   12  C   UNL     1     -10.865  16.118  69.144  1.00  0.00    -0.298 C  
HETATM   13  H   UNL     1      -9.729  15.809  70.856  1.00  0.00     0.000 HD 
HETATM   14  O   UNL     1     -11.957  16.338  68.629  1.00  0.00    -0.182 OA 
BRANCH  12  15
HETATM   15  C   UNL     1      -9.585  16.010  68.342  1.00  0.00    -0.206 C  
BRANCH  15  16
HETATM   16  C   UNL     1      -9.246  14.547  68.070  1.00  0.00    -0.190 C  
BRANCH  16  17
HETATM   17  C   UNL     1     -10.468  13.730  67.699  1.00  0.00    -0.242 C  
HETATM   18  O   UNL     1     -11.077  13.076  68.543  1.00  0.00    -0.240 OA 
HETATM   19  N   UNL     1     -10.825  13.742  66.374  1.00  0.00    -0.286 N  
HETATM   20  O   UNL     1     -10.223  14.549  65.393  1.00  0.00    -0.343 OA 
BRANCH  19  21
HETATM   21  C   UNL     1     -11.923  12.960  65.828  1.00  0.00    -0.443 C  
BRANCH  21  22
HETATM   22  C   UNL     1     -11.987  13.029  64.300  1.00  0.00    -0.466 C  
BRANCH  22  23
HETATM   23  C   UNL     1     -11.527  11.725  63.620  1.00  0.00    -0.524 C  
BRANCH  23  24
HETATM   24  C   UNL     1     -10.007  11.557  63.602  1.00  0.00    -0.409 C  
BRANCH  24  25
HETATM   25  C   UNL     1      -9.577  10.269  64.302  1.00  0.00    -0.313 C  
BRANCH  25  26
HETATM   26  N   UNL     1      -8.750  10.540  65.461  1.00  0.00    -0.180 N  
HETATM   27  H   UNL     1      -7.775  10.804  65.322  1.00  0.00     0.000 HD 
HETATM   28  C   UNL     1      -9.243  10.451  66.741  1.00  0.00    -0.155 C  
HETATM   29  O   UNL     1     -10.407  10.160  67.000  1.00  0.00    -0.221 OA 
BRANCH  28  30
HETATM   30  C   UNL     1      -8.234  10.734  67.824  1.00  0.00    -0.112 C  
BRANCH  30  31
HETATM   31  C   UNL     1      -7.146   9.672  67.796  1.00  0.00    -0.081 C  
BRANCH  31  32
HETATM   32  C   UNL     1      -7.701   8.320  68.192  1.00  0.00    -0.106 C  
HETATM   33  N   UNL     1      -7.747   7.329  67.241  1.00  0.00    -0.107 N  
HETATM   34  O   UNL     1      -8.018   8.117  69.365  1.00  0.00    -0.110 OA 
HETATM   35  O   UNL     1      -7.795   7.674  65.877  1.00  0.00    -0.093 OA 
BRANCH  33  36
HETATM   36  C   UNL     1      -8.332   6.013  67.505  1.00  0.00    -0.108 C  
BRANCH  36  37
HETATM   37  C   UNL     1      -7.397   4.873  67.097  1.00  0.00    -0.082 C  
BRANCH  37  38
HETATM   38  C   UNL     1      -7.859   4.181  65.810  1.00  0.00    -0.090 C  
BRANCH  38  39
HETATM   39  C   UNL     1      -9.321   3.732  65.902  1.00  0.00    -0.167 C  
BRANCH  39  40
HETATM   40  C   UNL     1     -10.103   4.007  64.617  1.00  0.00    -0.206 C  
HETATM   41  N   UNL     1     -11.512   4.275  64.889  1.00  0.00    -1.013 NA 
HETATM   42  H2  UNL     1     -11.623   5.033  65.562  1.00  0.00     0.000 HD 
HETATM   43  H1  UNL     1     -12.034   4.458  64.032  1.00  0.00     0.000 HD 
ENDBRANCH  39  40
ENDBRANCH  38  39
ENDBRANCH  37  38
ENDBRANCH  36  37
ENDBRANCH  33  36
ENDBRANCH  31  32
ENDBRANCH  30  31
ENDBRANCH  28  30
ENDBRANCH  25  26
ENDBRANCH  24  25
ENDBRANCH  23  24
ENDBRANCH  22  23
ENDBRANCH  21  22
ENDBRANCH  19  21
ENDBRANCH  16  17
ENDBRANCH  15  16
ENDBRANCH  12  15
ENDBRANCH  10  11
ENDBRANCH   9  10
ENDBRANCH   8   9
ENDBRANCH   7   8
ENDBRANCH   6   7
ENDBRANCH   3   6
TORSDOF 23
ENDMDL
MODEL      113
REMARK 921   NORMALIZED FREE ENERGY PREDICTED BY IDOCK:   -4.74 KCAL/MOL
REMARK 922        TOTAL FREE ENERGY PREDICTED BY IDOCK:  -13.86 KCAL/MOL
REMARK 923 INTER-LIGAND FREE ENERGY PREDICTED BY IDOCK:  -11.16 KCAL/MOL
REMARK 924 INTRA-LIGAND FREE ENERGY PREDICTED BY IDOCK:   -2.70 KCAL/MOL
REMARK 927      BINDING AFFINITY PREDICTED BY RF-SCORE:    0.00 PKD
ROOT
HETATM    1  C   UNL     1     -11.623  12.261  63.496  1.00  0.00    -0.570 C  
HETATM    2  C   UNL     1     -11.454  12.263  64.993  1.00  0.00    -0.336 C  
HETATM    3  N   UNL     1     -12.072  13.272  65.684  1.00  0.00    -0.414 N  
HETATM    4  O   UNL     1     -10.761  11.406  65.541  1.00  0.00    -0.276 OA 
HETATM    5  O   UNL     1     -12.988  14.173  65.115  1.00  0.00    -0.729 OA 
ENDROOT
BRANCH   3   6
HETATM    6  C   UNL     1     -11.991  13.420  67.130  1.00  0.00    -0.366 C  
BRANCH   6   7
HETATM    7  C   UNL     1     -10.658  14.021  67.581  1.00  0.00    -0.249 C  
BRANCH   7   8
HETATM    8  C   UNL     1     -10.855  15.462  68.057  1.00  0.00    -0.292 C  
BRANCH   8   9
HETATM    9  C   UNL     1     -11.978  15.579  69.089  1.00  0.00    -0.331 C  
BRANCH   9  10
HETATM   10  C   UNL     1     -11.503  15.243  70.503  1.00  0.00    -0.310 C  
BRANCH  10  11
HETATM   11  N   UNL     1     -11.955  13.933  70.945  1.00  0.00    -0.488 N  
HETATM   12  C   UNL     1     -13.158  13.777  71.597  1.00  0.00    -0.375 C  
HETATM   13  H   UNL     1     -11.370  13.116  70.769  1.00  0.00     0.000 HD 
HETATM   14  O   UNL     1     -13.942  14.695  71.816  1.00  0.00    -0.396 OA 
BRANCH  12  15
HETATM   15  C   UNL     1     -13.432  12.346  72.009  1.00  0.00    -0.460 C  
BRANCH  15  16
HETATM   16  C   UNL     1     -12.636  11.377  71.139  1.00  0.00    -0.490 C  
BRANCH  16  17
HETATM   17  C   UNL     1     -12.725   9.947  71.635  1.00  0.00    -0.429 C  
HETATM   18  O   UNL     1     -13.736   9.532  72.200  1.00  0.00    -0.417 OA 
HETATM   19  N   UNL     1     -11.612   9.170  71.445  1.00  0.00    -0.313 N  
HETATM   20  O   UNL     1     -10.474   9.567  70.720  1.00  0.00    -0.274 OA 
BRANCH  19  21
HETATM   21  C   UNL     1     -11.494   7.800  71.922  1.00  0.00    -0.275 C  
BRANCH  21  22
HETATM   22  C   UNL     1     -10.811   7.713  73.290  1.00  0.00    -0.379 C  
BRANCH  22  23
HETATM   23  C   UNL     1      -9.589   6.776  73.293  1.00  0.00    -0.184 C  
BRANCH  23  24
HETATM   24  C   UNL     1      -8.313   7.445  72.779  1.00  0.00    -0.137 C  
BRANCH  24  25
HETATM   25  C   UNL     1      -7.192   6.429  72.572  1.00  0.00    -0.083 C  
BRANCH  25  26
HETATM   26  N   UNL     1      -7.713   5.103  72.306  1.00  0.00    -0.098 N  
HETATM   27  H   UNL     1      -8.333   4.668  72.989  1.00  0.00     0.000 HD 
HETATM   28  C   UNL     1      -7.396   4.416  71.158  1.00  0.00    -0.048 C  
HETATM   29  O   UNL     1      -6.676   4.870  70.274  1.00  0.00    -0.034 OA 
BRANCH  28  30
HETATM   30  C   UNL     1      -8.001   3.039  71.064  1.00  0.00    -0.056 C  
BRANCH  30  31
HETATM   31  C   UNL     1      -8.982   2.991  69.903  1.00  0.00    -0.171 C  
BRANCH  31  32
HETATM   32  C   UNL     1      -9.879   4.211  69.903  1.00  0.00    -0.162 C  
HETATM   33  N   UNL     1     -10.053   4.895  68.724  1.00  0.00    -0.137 N  
HETATM   34  O   UNL     1     -10.491   4.511  70.931  1.00  0.00    -0.078 OA 
HETATM   35  O   UNL     1      -9.067   4.817  67.722  1.00  0.00    -0.109 OA 
BRANCH  33  36
HETATM   36  C   UNL     1     -10.841   6.126  68.638  1.00  0.00    -0.332 C  
BRANCH  36  37
HETATM   37  C   UNL     1     -11.010   6.603  67.195  1.00  0.00    -0.478 C  
BRANCH  37  38
HETATM   38  C   UNL     1     -10.483   8.028  66.993  1.00  0.00    -0.410 C  
BRANCH  38  39
HETATM   39  C   UNL     1      -9.090   8.031  66.356  1.00  0.00    -0.226 C  
BRANCH  39  40
HETATM   40  C   UNL     1      -7.972   8.205  67.386  1.00  0.00    -0.117 C  
HETATM   41  N   UNL     1      -8.455   8.848  68.604  1.00  0.00    -0.127 NA 
HETATM   42  H2  UNL     1      -9.249   8.346  68.999  1.00  0.00     0.000 HD 
HETATM   43  H1  UNL     1      -7.709   8.965  69.290  1.00  0.00     0.000 HD 
ENDBRANCH  39  40
ENDBRANCH  38  39
ENDBRANCH  37  38
ENDBRANCH  36  37
ENDBRANCH  33  36
ENDBRANCH  31  32
ENDBRANCH  30  31
ENDBRANCH  28  30
ENDBRANCH  25  26
ENDBRANCH  24  25
ENDBRANCH  23  24
ENDBRANCH  22  23
ENDBRANCH  21  22
ENDBRANCH  19  21
ENDBRANCH  16  17
ENDBRANCH  15  16
ENDBRANCH  12  15
ENDBRANCH  10  11
ENDBRANCH   9  10
ENDBRANCH   8   9
ENDBRANCH   7   8
ENDBRANCH   6   7
ENDBRANCH   3   6
TORSDOF 23
ENDMDL
MODEL      114
REMARK 921   NORMALIZED FREE ENERGY PREDICTED BY IDOCK:   -4.73 KCAL/MOL
REMARK 922        TOTAL FREE ENERGY PREDICTED BY IDOCK:  -13.84 KCAL/MOL
REMARK 923 INTER-LIGAND FREE ENERGY PREDICTED BY IDOCK:  -11.34 KCAL/MOL
REMARK 924 INTRA-LIGAND FREE ENERGY PREDICTED BY IDOCK:   -2.51 KCAL/MOL
REMARK 927      BINDING AFFINITY PREDICTED BY RF-SCORE:    0.00 PKD
ROOT
HETATM    1  C   UNL     1     -11.741  15.591  72.448  1.00  0.00    -0.570 C  
HETATM    2  C   UNL     1     -12.376  15.521  71.084  1.00  0.00    -0.411 C  
HETATM    3  N   UNL     1     -11.530  15.514  70.007  1.00  0.00    -0.301 N  
HETATM    4  O   UNL     1     -13.603  15.504  70.970  1.00  0.00    -0.528 OA 
HETATM    5  O   UNL     1     -10.134  15.379  70.100  1.00  0.00    -0.281 OA 
ENDROOT
BRANCH   3   6
HETATM    6  C   UNL     1     -11.989  15.464  68.626  1.00  0.00    -0.216 C  
BRANCH   6   7
HETATM    7  C   UNL     1     -11.028  14.694  67.718  1.00  0.00    -0.291 C  
BRANCH   7   8
HETATM    8  C   UNL     1     -11.795  13.691  66.855  1.00  0.00    -0.451 C  
BRANCH   8   9
HETATM    9  C   UNL     1     -12.750  14.383  65.880  1.00  0.00    -0.201 C  
BRANCH   9  10
HETATM   10  C   UNL     1     -12.155  14.510  64.478  1.00  0.00    -0.484 C  
BRANCH  10  11
HETATM   11  N   UNL     1     -11.217  13.440  64.172  1.00  0.00    -0.502 N  
HETATM   12  C   UNL     1     -11.642  12.264  63.596  1.00  0.00    -0.496 C  
HETATM   13  H   UNL     1     -10.228  13.563  64.389  1.00  0.00     0.000 HD 
HETATM   14  O   UNL     1     -12.804  12.044  63.265  1.00  0.00    -0.732 OA 
BRANCH  12  15
HETATM   15  C   UNL     1     -10.526  11.262  63.392  1.00  0.00    -0.424 C  
BRANCH  15  16
HETATM   16  C   UNL     1      -9.635  11.195  64.630  1.00  0.00    -0.289 C  
BRANCH  16  17
HETATM   17  C   UNL     1      -9.500   9.785  65.171  1.00  0.00    -0.273 C  
HETATM   18  O   UNL     1      -8.842   8.935  64.574  1.00  0.00    -0.144 OA 
HETATM   19  N   UNL     1     -10.177   9.515  66.332  1.00  0.00    -0.256 N  
HETATM   20  O   UNL     1     -10.859  10.474  67.101  1.00  0.00    -0.279 OA 
BRANCH  19  21
HETATM   21  C   UNL     1     -10.220   8.199  66.953  1.00  0.00    -0.316 C  
BRANCH  21  22
HETATM   22  C   UNL     1      -8.905   7.838  67.649  1.00  0.00    -0.128 C  
BRANCH  22  23
HETATM   23  C   UNL     1      -8.465   8.889  68.685  1.00  0.00    -0.128 C  
BRANCH  23  24
HETATM   24  C   UNL     1      -7.049   9.416  68.448  1.00  0.00    -0.072 C  
BRANCH  24  25
HETATM   25  C   UNL     1      -6.254   9.494  69.749  1.00  0.00    -0.040 C  
BRANCH  25  26
HETATM   26  N   UNL     1      -7.094   9.248  70.905  1.00  0.00    -0.109 N  
HETATM   27  H   UNL     1      -7.975   9.754  70.993  1.00  0.00     0.000 HD 
HETATM   28  C   UNL     1      -6.735   8.353  71.885  1.00  0.00    -0.081 C  
HETATM   29  O   UNL     1      -5.705   7.688  71.851  1.00  0.00    -0.036 OA 
BRANCH  28  30
HETATM   30  C   UNL     1      -7.712   8.250  73.028  1.00  0.00    -0.180 C  
BRANCH  30  31
HETATM   31  C   UNL     1      -7.915   6.789  73.395  1.00  0.00    -0.105 C  
BRANCH  31  32
HETATM   32  C   UNL     1      -9.011   6.168  72.556  1.00  0.00    -0.134 C  
HETATM   33  N   UNL     1     -10.310   6.546  72.793  1.00  0.00    -0.194 N  
HETATM   34  O   UNL     1      -8.709   5.408  71.633  1.00  0.00    -0.132 OA 
HETATM   35  O   UNL     1     -10.670   7.045  74.060  1.00  0.00    -0.263 OA 
BRANCH  33  36
HETATM   36  C   UNL     1     -11.445   5.949  72.085  1.00  0.00    -0.276 C  
BRANCH  36  37
HETATM   37  C   UNL     1     -12.142   6.952  71.164  1.00  0.00    -0.428 C  
BRANCH  37  38
HETATM   38  C   UNL     1     -11.190   8.054  70.685  1.00  0.00    -0.266 C  
BRANCH  38  39
HETATM   39  C   UNL     1     -11.780   9.449  70.911  1.00  0.00    -0.378 C  
BRANCH  39  40
HETATM   40  C   UNL     1     -12.750   9.493  72.093  1.00  0.00    -0.362 C  
HETATM   41  N   UNL     1     -13.406  10.792  72.206  1.00  0.00    -0.576 NA 
HETATM   42  H2  UNL     1     -13.869  11.051  71.335  1.00  0.00     0.000 HD 
HETATM   43  H1  UNL     1     -14.053  10.821  72.994  1.00  0.00     0.000 HD 
ENDBRANCH  39  40
ENDBRANCH  38  39
ENDBRANCH  37  38
ENDBRANCH  36  37
ENDBRANCH  33  36
ENDBRANCH  31  32
ENDBRANCH  30  31
ENDBRANCH  28  30
ENDBRANCH  25  26
ENDBRANCH  24  25
ENDBRANCH  23  24
ENDBRANCH  22  23
ENDBRANCH  21  22
ENDBRANCH  19  21
ENDBRANCH  16  17
ENDBRANCH  15  16
ENDBRANCH  12  15
ENDBRANCH  10  11
ENDBRANCH   9  10
ENDBRANCH   8   9
ENDBRANCH   7   8
ENDBRANCH   6   7
ENDBRANCH   3   6
TORSDOF 23
ENDMDL
MODEL      115
REMARK 921   NORMALIZED FREE ENERGY PREDICTED BY IDOCK:   -4.73 KCAL/MOL
REMARK 922        TOTAL FREE ENERGY PREDICTED BY IDOCK:  -13.84 KCAL/MOL
REMARK 923 INTER-LIGAND FREE ENERGY PREDICTED BY IDOCK:  -11.41 KCAL/MOL
REMARK 924 INTRA-LIGAND FREE ENERGY PREDICTED BY IDOCK:   -2.43 KCAL/MOL
REMARK 927      BINDING AFFINITY PREDICTED BY RF-SCORE:    0.00 PKD
ROOT
HETATM    1  C   UNL     1     -11.613  15.444  72.218  1.00  0.00    -0.554 C  
HETATM    2  C   UNL     1     -12.211  15.599  70.845  1.00  0.00    -0.419 C  
HETATM    3  N   UNL     1     -11.336  15.652  69.791  1.00  0.00    -0.298 N  
HETATM    4  O   UNL     1     -13.430  15.704  70.706  1.00  0.00    -0.536 OA 
HETATM    5  O   UNL     1      -9.960  15.386  69.893  1.00  0.00    -0.277 OA 
ENDROOT
BRANCH   3   6
HETATM    6  C   UNL     1     -11.757  15.814  68.406  1.00  0.00    -0.271 C  
BRANCH   6   7
HETATM    7  C   UNL     1     -10.961  14.927  67.447  1.00  0.00    -0.314 C  
BRANCH   7   8
HETATM    8  C   UNL     1     -11.862  13.848  66.845  1.00  0.00    -0.453 C  
BRANCH   8   9
HETATM    9  C   UNL     1     -12.772  14.403  65.747  1.00  0.00    -0.267 C  
BRANCH   9  10
HETATM   10  C   UNL     1     -12.041  14.557  64.413  1.00  0.00    -0.472 C  
BRANCH  10  11
HETATM   11  N   UNL     1     -11.139  13.449  64.142  1.00  0.00    -0.517 N  
HETATM   12  C   UNL     1     -11.598  12.276  63.587  1.00  0.00    -0.496 C  
HETATM   13  H   UNL     1     -10.149  13.543  64.367  1.00  0.00     0.000 HD 
HETATM   14  O   UNL     1     -12.763  12.089  63.247  1.00  0.00    -0.685 OA 
BRANCH  12  15
HETATM   15  C   UNL     1     -10.516  11.231  63.418  1.00  0.00    -0.424 C  
BRANCH  15  16
HETATM   16  C   UNL     1      -9.446  11.392  64.495  1.00  0.00    -0.160 C  
BRANCH  16  17
HETATM   17  C   UNL     1      -9.870  10.800  65.825  1.00  0.00    -0.240 C  
HETATM   18  O   UNL     1     -10.612   9.821  65.878  1.00  0.00    -0.059 OA 
HETATM   19  N   UNL     1      -9.405  11.438  66.946  1.00  0.00    -0.177 N  
HETATM   20  O   UNL     1      -8.479  12.495  66.938  1.00  0.00    -0.186 OA 
BRANCH  19  21
HETATM   21  C   UNL     1      -9.771  11.053  68.302  1.00  0.00    -0.177 C  
BRANCH  21  22
HETATM   22  C   UNL     1      -9.213   9.681  68.690  1.00  0.00    -0.136 C  
BRANCH  22  23
HETATM   23  C   UNL     1      -7.856   9.768  69.414  1.00  0.00    -0.114 C  
BRANCH  23  24
HETATM   24  C   UNL     1      -6.661   9.756  68.460  1.00  0.00    -0.051 C  
BRANCH  24  25
HETATM   25  C   UNL     1      -6.959   8.951  67.196  1.00  0.00    -0.075 C  
BRANCH  25  26
HETATM   26  N   UNL     1      -7.296   7.576  67.505  1.00  0.00    -0.100 N  
HETATM   27  H   UNL     1      -7.067   7.205  68.427  1.00  0.00     0.000 HD 
HETATM   28  C   UNL     1      -7.914   6.757  66.590  1.00  0.00    -0.108 C  
HETATM   29  O   UNL     1      -8.244   7.124  65.467  1.00  0.00    -0.129 OA 
BRANCH  28  30
HETATM   30  C   UNL     1      -8.157   5.350  67.071  1.00  0.00    -0.101 C  
BRANCH  30  31
HETATM   31  C   UNL     1      -9.603   4.961  66.801  1.00  0.00    -0.170 C  
BRANCH  31  32
HETATM   32  C   UNL     1     -10.551   5.788  67.644  1.00  0.00    -0.239 C  
HETATM   33  N   UNL     1     -10.512   5.639  69.009  1.00  0.00    -0.244 N  
HETATM   34  O   UNL     1     -11.270   6.627  67.097  1.00  0.00    -0.392 OA 
HETATM   35  O   UNL     1     -10.033   4.437  69.565  1.00  0.00    -0.211 OA 
BRANCH  33  36
HETATM   36  C   UNL     1     -11.437   6.339  69.903  1.00  0.00    -0.389 C  
BRANCH  36  37
HETATM   37  C   UNL     1     -10.708   7.272  70.872  1.00  0.00    -0.251 C  
BRANCH  37  38
HETATM   38  C   UNL     1     -11.440   7.397  72.212  1.00  0.00    -0.329 C  
BRANCH  38  39
HETATM   39  C   UNL     1     -12.304   8.661  72.268  1.00  0.00    -0.449 C  
BRANCH  39  40
HETATM   40  C   UNL     1     -11.987   9.641  71.138  1.00  0.00    -0.367 C  
HETATM   41  N   UNL     1     -13.200  10.171  70.524  1.00  0.00    -0.575 NA 
HETATM   42  H2  UNL     1     -13.815  10.592  71.220  1.00  0.00     0.000 HD 
HETATM   43  H1  UNL     1     -12.988  10.825  69.771  1.00  0.00     0.000 HD 
ENDBRANCH  39  40
ENDBRANCH  38  39
ENDBRANCH  37  38
ENDBRANCH  36  37
ENDBRANCH  33  36
ENDBRANCH  31  32
ENDBRANCH  30  31
ENDBRANCH  28  30
ENDBRANCH  25  26
ENDBRANCH  24  25
ENDBRANCH  23  24
ENDBRANCH  22  23
ENDBRANCH  21  22
ENDBRANCH  19  21
ENDBRANCH  16  17
ENDBRANCH  15  16
ENDBRANCH  12  15
ENDBRANCH  10  11
ENDBRANCH   9  10
ENDBRANCH   8   9
ENDBRANCH   7   8
ENDBRANCH   6   7
ENDBRANCH   3   6
TORSDOF 23
ENDMDL
MODEL      116
REMARK 921   NORMALIZED FREE ENERGY PREDICTED BY IDOCK:   -4.73 KCAL/MOL
REMARK 922        TOTAL FREE ENERGY PREDICTED BY IDOCK:  -13.83 KCAL/MOL
REMARK 923 INTER-LIGAND FREE ENERGY PREDICTED BY IDOCK:  -10.80 KCAL/MOL
REMARK 924 INTRA-LIGAND FREE ENERGY PREDICTED BY IDOCK:   -3.03 KCAL/MOL
REMARK 927      BINDING AFFINITY PREDICTED BY RF-SCORE:    0.00 PKD
ROOT
HETATM    1  C   UNL     1      -8.697   8.038  73.756  1.00  0.00    -0.329 C  
HETATM    2  C   UNL     1      -9.517   6.828  73.393  1.00  0.00    -0.153 C  
HETATM    3  N   UNL     1      -9.359   6.331  72.126  1.00  0.00    -0.151 N  
HETATM    4  O   UNL     1     -10.308   6.347  74.205  1.00  0.00    -0.332 OA 
HETATM    5  O   UNL     1      -8.363   6.755  71.230  1.00  0.00    -0.118 OA 
ENDROOT
BRANCH   3   6
HETATM    6  C   UNL     1     -10.090   5.177  71.620  1.00  0.00    -0.200 C  
BRANCH   6   7
HETATM    7  C   UNL     1     -10.990   5.531  70.434  1.00  0.00    -0.199 C  
BRANCH   7   8
HETATM    8  C   UNL     1     -11.325   7.023  70.445  1.00  0.00    -0.354 C  
BRANCH   8   9
HETATM    9  C   UNL     1     -12.572   7.327  71.278  1.00  0.00    -0.402 C  
BRANCH   9  10
HETATM   10  C   UNL     1     -12.398   8.572  72.148  1.00  0.00    -0.382 C  
BRANCH  10  11
HETATM   11  N   UNL     1     -12.885   9.779  71.497  1.00  0.00    -0.374 N  
HETATM   12  C   UNL     1     -12.044  10.577  70.754  1.00  0.00    -0.370 C  
HETATM   13  H   UNL     1     -13.867  10.037  71.591  1.00  0.00     0.000 HD 
HETATM   14  O   UNL     1     -10.859  10.323  70.554  1.00  0.00    -0.301 OA 
BRANCH  12  15
HETATM   15  C   UNL     1     -12.729  11.803  70.190  1.00  0.00     0.068 C  
BRANCH  15  16
HETATM   16  C   UNL     1     -11.834  13.031  70.340  1.00  0.00    -0.245 C  
BRANCH  16  17
HETATM   17  C   UNL     1     -11.943  13.974  69.157  1.00  0.00    -0.360 C  
HETATM   18  O   UNL     1     -12.646  14.981  69.208  1.00  0.00    -0.045 OA 
HETATM   19  N   UNL     1     -11.242  13.617  68.033  1.00  0.00    -0.255 N  
HETATM   20  O   UNL     1     -10.350  12.533  67.959  1.00  0.00    -0.210 OA 
BRANCH  19  21
HETATM   21  C   UNL     1     -11.289  14.362  66.784  1.00  0.00    -0.352 C  
BRANCH  21  22
HETATM   22  C   UNL     1     -12.509  14.002  65.933  1.00  0.00    -0.513 C  
BRANCH  22  23
HETATM   23  C   UNL     1     -12.406  12.602  65.298  1.00  0.00    -0.528 C  
BRANCH  23  24
HETATM   24  C   UNL     1     -11.993  12.635  63.826  1.00  0.00    -0.588 C  
BRANCH  24  25
HETATM   25  C   UNL     1     -10.691  11.870  63.592  1.00  0.00    -0.442 C  
BRANCH  25  26
HETATM   26  N   UNL     1     -10.063  11.488  64.841  1.00  0.00    -0.255 N  
HETATM   27  H   UNL     1     -10.134  12.114  65.643  1.00  0.00     0.000 HD 
HETATM   28  C   UNL     1      -9.374  10.307  64.974  1.00  0.00    -0.237 C  
HETATM   29  O   UNL     1      -9.255   9.486  64.070  1.00  0.00    -0.219 OA 
BRANCH  28  30
HETATM   30  C   UNL     1      -8.757  10.089  66.333  1.00  0.00    -0.140 C  
BRANCH  30  31
HETATM   31  C   UNL     1      -9.672   9.211  67.173  1.00  0.00    -0.236 C  
BRANCH  31  32
HETATM   32  C   UNL     1      -9.002   7.894  67.503  1.00  0.00    -0.127 C  
HETATM   33  N   UNL     1      -9.579   6.735  67.046  1.00  0.00    -0.146 N  
HETATM   34  O   UNL     1      -7.922   7.898  68.099  1.00  0.00    -0.121 OA 
HETATM   35  O   UNL     1     -10.958   6.706  66.765  1.00  0.00    -0.347 OA 
BRANCH  33  36
HETATM   36  C   UNL     1      -9.048   5.410  67.374  1.00  0.00    -0.111 C  
BRANCH  36  37
HETATM   37  C   UNL     1      -7.950   4.971  66.403  1.00  0.00    -0.107 C  
BRANCH  37  38
HETATM   38  C   UNL     1      -8.448   4.917  64.955  1.00  0.00    -0.144 C  
BRANCH  38  39
HETATM   39  C   UNL     1      -9.153   3.592  64.649  1.00  0.00    -0.133 C  
BRANCH  39  40
HETATM   40  C   UNL     1     -10.538   3.792  64.030  1.00  0.00    -0.262 C  
HETATM   41  N   UNL     1     -11.456   4.444  64.958  1.00  0.00    -1.079 NA 
HETATM   42  H2  UNL     1     -11.073   5.324  65.304  1.00  0.00     0.000 HD 
HETATM   43  H1  UNL     1     -12.379   4.577  64.546  1.00  0.00     0.000 HD 
ENDBRANCH  39  40
ENDBRANCH  38  39
ENDBRANCH  37  38
ENDBRANCH  36  37
ENDBRANCH  33  36
ENDBRANCH  31  32
ENDBRANCH  30  31
ENDBRANCH  28  30
ENDBRANCH  25  26
ENDBRANCH  24  25
ENDBRANCH  23  24
ENDBRANCH  22  23
ENDBRANCH  21  22
ENDBRANCH  19  21
ENDBRANCH  16  17
ENDBRANCH  15  16
ENDBRANCH  12  15
ENDBRANCH  10  11
ENDBRANCH   9  10
ENDBRANCH   8   9
ENDBRANCH   7   8
ENDBRANCH   6   7
ENDBRANCH   3   6
TORSDOF 23
ENDMDL
MODEL      117
REMARK 921   NORMALIZED FREE ENERGY PREDICTED BY IDOCK:   -4.72 KCAL/MOL
REMARK 922        TOTAL FREE ENERGY PREDICTED BY IDOCK:  -13.82 KCAL/MOL
REMARK 923 INTER-LIGAND FREE ENERGY PREDICTED BY IDOCK:  -10.48 KCAL/MOL
REMARK 924 INTRA-LIGAND FREE ENERGY PREDICTED BY IDOCK:   -3.33 KCAL/MOL
REMARK 927      BINDING AFFINITY PREDICTED BY RF-SCORE:    0.00 PKD
ROOT
HETATM    1  C   UNL     1      -8.863   9.280  68.915  1.00  0.00    -0.135 C  
HETATM    2  C   UNL     1      -9.690   9.539  67.684  1.00  0.00    -0.154 C  
HETATM    3  N   UNL     1      -9.158  10.387  66.749  1.00  0.00    -0.143 N  
HETATM    4  O   UNL     1     -10.803   9.025  67.564  1.00  0.00    -0.232 OA 
HETATM    5  O   UNL     1      -7.839  10.869  66.779  1.00  0.00    -0.127 OA 
ENDROOT
BRANCH   3   6
HETATM    6  C   UNL     1      -9.841  10.750  65.514  1.00  0.00    -0.255 C  
BRANCH   6   7
HETATM    7  C   UNL     1      -8.932  10.632  64.289  1.00  0.00    -0.214 C  
BRANCH   7   8
HETATM    8  C   UNL     1      -8.907   9.190  63.778  1.00  0.00    -0.095 C  
BRANCH   8   9
HETATM    9  C   UNL     1      -7.662   8.435  64.247  1.00  0.00    -0.136 C  
BRANCH   9  10
HETATM   10  C   UNL     1      -7.964   6.975  64.586  1.00  0.00    -0.114 C  
BRANCH  10  11
HETATM   11  N   UNL     1      -8.964   6.842  65.635  1.00  0.00    -0.361 N  
HETATM   12  C   UNL     1      -9.206   5.629  66.239  1.00  0.00    -0.156 C  
HETATM   13  H   UNL     1      -9.493   7.663  65.928  1.00  0.00     0.000 HD 
HETATM   14  O   UNL     1      -8.591   4.599  65.978  1.00  0.00    -0.114 OA 
BRANCH  12  15
HETATM   15  C   UNL     1     -10.307   5.688  67.277  1.00  0.00    -0.295 C  
BRANCH  15  16
HETATM   16  C   UNL     1      -9.724   5.558  68.682  1.00  0.00    -0.186 C  
BRANCH  16  17
HETATM   17  C   UNL     1     -10.737   5.888  69.761  1.00  0.00    -0.340 C  
HETATM   18  O   UNL     1     -11.792   6.458  69.490  1.00  0.00    -0.274 OA 
HETATM   19  N   UNL     1     -10.390   5.543  71.042  1.00  0.00    -0.228 N  
HETATM   20  O   UNL     1      -9.245   4.805  71.389  1.00  0.00    -0.134 OA 
BRANCH  19  21
HETATM   21  C   UNL     1     -11.206   5.849  72.208  1.00  0.00    -0.291 C  
BRANCH  21  22
HETATM   22  C   UNL     1     -10.885   7.223  72.802  1.00  0.00    -0.356 C  
BRANCH  22  23
HETATM   23  C   UNL     1     -11.973   8.274  72.509  1.00  0.00    -0.420 C  
BRANCH  23  24
HETATM   24  C   UNL     1     -11.518   9.358  71.531  1.00  0.00    -0.467 C  
BRANCH  24  25
HETATM   25  C   UNL     1     -12.707  10.109  70.934  1.00  0.00    -0.357 C  
BRANCH  25  26
HETATM   26  N   UNL     1     -12.374  10.709  69.657  1.00  0.00    -0.531 N  
HETATM   27  H   UNL     1     -12.343  10.119  68.825  1.00  0.00     0.000 HD 
HETATM   28  C   UNL     1     -12.098  12.050  69.536  1.00  0.00    -0.212 C  
HETATM   29  O   UNL     1     -12.130  12.836  70.478  1.00  0.00    -0.367 OA 
BRANCH  28  30
HETATM   30  C   UNL     1     -11.739  12.493  68.141  1.00  0.00    -0.400 C  
BRANCH  30  31
HETATM   31  C   UNL     1     -11.694  14.012  68.085  1.00  0.00    -0.387 C  
BRANCH  31  32
HETATM   32  C   UNL     1     -10.264  14.511  68.081  1.00  0.00    -0.230 C  
HETATM   33  N   UNL     1      -9.882  15.410  69.047  1.00  0.00    -0.221 N  
HETATM   34  O   UNL     1      -9.463  14.042  67.270  1.00  0.00    -0.216 OA 
HETATM   35  O   UNL     1     -10.851  16.228  69.659  1.00  0.00    -0.303 OA 
BRANCH  33  36
HETATM   36  C   UNL     1      -8.545  16.005  69.083  1.00  0.00    -0.247 C  
BRANCH  36  37
HETATM   37  C   UNL     1      -8.550  17.466  68.629  1.00  0.00    -0.259 C  
BRANCH  37  38
HETATM   38  C   UNL     1      -8.697  17.596  67.109  1.00  0.00    -0.252 C  
BRANCH  38  39
HETATM   39  C   UNL     1      -8.709  19.062  66.666  1.00  0.00    -0.317 C  
BRANCH  39  40
HETATM   40  C   UNL     1      -7.412  19.793  67.016  1.00  0.00    -0.238 C  
HETATM   41  N   UNL     1      -7.524  21.231  66.794  1.00  0.00    -0.719 NA 
HETATM   42  H2  UNL     1      -8.320  21.624  67.297  1.00  0.00     0.000 HD 
HETATM   43  H1  UNL     1      -6.659  21.719  67.027  1.00  0.00     0.000 HD 
ENDBRANCH  39  40
ENDBRANCH  38  39
ENDBRANCH  37  38
ENDBRANCH  36  37
ENDBRANCH  33  36
ENDBRANCH  31  32
ENDBRANCH  30  31
ENDBRANCH  28  30
ENDBRANCH  25  26
ENDBRANCH  24  25
ENDBRANCH  23  24
ENDBRANCH  22  23
ENDBRANCH  21  22
ENDBRANCH  19  21
ENDBRANCH  16  17
ENDBRANCH  15  16
ENDBRANCH  12  15
ENDBRANCH  10  11
ENDBRANCH   9  10
ENDBRANCH   8   9
ENDBRANCH   7   8
ENDBRANCH   6   7
ENDBRANCH   3   6
TORSDOF 23
ENDMDL
MODEL      118
REMARK 921   NORMALIZED FREE ENERGY PREDICTED BY IDOCK:   -4.72 KCAL/MOL
REMARK 922        TOTAL FREE ENERGY PREDICTED BY IDOCK:  -13.81 KCAL/MOL
REMARK 923 INTER-LIGAND FREE ENERGY PREDICTED BY IDOCK:  -11.02 KCAL/MOL
REMARK 924 INTRA-LIGAND FREE ENERGY PREDICTED BY IDOCK:   -2.79 KCAL/MOL
REMARK 927      BINDING AFFINITY PREDICTED BY RF-SCORE:    0.00 PKD
ROOT
HETATM    1  C   UNL     1     -13.542   9.578  72.177  1.00  0.00    -0.500 C  
HETATM    2  C   UNL     1     -13.375   8.121  71.831  1.00  0.00    -0.324 C  
HETATM    3  N   UNL     1     -12.123   7.587  71.989  1.00  0.00    -0.293 N  
HETATM    4  O   UNL     1     -14.329   7.473  71.398  1.00  0.00    -0.441 OA 
HETATM    5  O   UNL     1     -11.056   8.249  72.618  1.00  0.00    -0.367 OA 
ENDROOT
BRANCH   3   6
HETATM    6  C   UNL     1     -11.799   6.201  71.683  1.00  0.00    -0.178 C  
BRANCH   6   7
HETATM    7  C   UNL     1     -11.467   5.389  72.937  1.00  0.00    -0.340 C  
BRANCH   7   8
HETATM    8  C   UNL     1     -10.142   4.646  72.758  1.00  0.00    -0.220 C  
BRANCH   8   9
HETATM    9  C   UNL     1      -9.435   5.035  71.458  1.00  0.00    -0.203 C  
BRANCH   9  10
HETATM   10  C   UNL     1      -8.133   5.796  71.711  1.00  0.00    -0.118 C  
BRANCH  10  11
HETATM   11  N   UNL     1      -8.303   7.238  71.609  1.00  0.00    -0.108 N  
HETATM   12  C   UNL     1      -8.244   7.877  70.391  1.00  0.00    -0.119 C  
HETATM   13  H   UNL     1      -8.469   7.784  72.454  1.00  0.00     0.000 HD 
HETATM   14  O   UNL     1      -8.089   7.297  69.320  1.00  0.00    -0.120 OA 
BRANCH  12  15
HETATM   15  C   UNL     1      -8.406   9.379  70.496  1.00  0.00    -0.233 C  
BRANCH  15  16
HETATM   16  C   UNL     1      -8.683   9.984  69.123  1.00  0.00    -0.168 C  
BRANCH  16  17
HETATM   17  C   UNL     1     -10.128  10.415  68.961  1.00  0.00    -0.213 C  
HETATM   18  O   UNL     1     -11.018   9.929  69.656  1.00  0.00    -0.233 OA 
HETATM   19  N   UNL     1     -10.376  11.344  67.983  1.00  0.00    -0.179 N  
HETATM   20  O   UNL     1      -9.384  12.000  67.234  1.00  0.00    -0.174 OA 
BRANCH  19  21
HETATM   21  C   UNL     1     -11.709  11.816  67.641  1.00  0.00    -0.250 C  
BRANCH  21  22
HETATM   22  C   UNL     1     -11.791  13.344  67.578  1.00  0.00    -0.408 C  
BRANCH  22  23
HETATM   23  C   UNL     1     -11.942  13.994  68.966  1.00  0.00    -0.392 C  
BRANCH  23  24
HETATM   24  C   UNL     1     -11.733  15.509  68.950  1.00  0.00    -0.385 C  
BRANCH  24  25
HETATM   25  C   UNL     1     -10.952  15.955  67.716  1.00  0.00    -0.315 C  
BRANCH  25  26
HETATM   26  N   UNL     1     -10.722  17.386  67.715  1.00  0.00    -0.365 N  
HETATM   27  H   UNL     1     -10.627  17.872  68.607  1.00  0.00     0.000 HD 
HETATM   28  C   UNL     1     -10.628  18.105  66.548  1.00  0.00    -0.272 C  
HETATM   29  O   UNL     1     -10.710  17.600  65.432  1.00  0.00    -0.618 OA 
BRANCH  28  30
HETATM   30  C   UNL     1     -10.422  19.586  66.738  1.00  0.00    -0.590 C  
BRANCH  30  31
HETATM   31  C   UNL     1      -8.939  19.909  66.652  1.00  0.00    -0.452 C  
BRANCH  31  32
HETATM   32  C   UNL     1      -8.261  19.698  67.989  1.00  0.00    -0.312 C  
HETATM   33  N   UNL     1      -6.893  19.807  68.053  1.00  0.00    -0.253 N  
HETATM   34  O   UNL     1      -8.951  19.517  68.995  1.00  0.00    -0.343 OA 
HETATM   35  O   UNL     1      -6.122  19.588  66.895  1.00  0.00    -0.177 OA 
BRANCH  33  36
HETATM   36  C   UNL     1      -6.140  19.549  69.282  1.00  0.00    -0.281 C  
BRANCH  36  37
HETATM   37  C   UNL     1      -5.376  18.225  69.224  1.00  0.00    -0.196 C  
BRANCH  37  38
HETATM   38  C   UNL     1      -6.296  17.018  69.435  1.00  0.00    -0.236 C  
BRANCH  38  39
HETATM   39  C   UNL     1      -6.664  16.350  68.107  1.00  0.00    -0.138 C  
BRANCH  39  40
HETATM   40  C   UNL     1      -7.358  15.001  68.300  1.00  0.00    -0.111 C  
HETATM   41  N   UNL     1      -6.986  14.047  67.259  1.00  0.00    -0.397 NA 
HETATM   42  H2  UNL     1      -5.974  13.940  67.199  1.00  0.00     0.000 HD 
HETATM   43  H1  UNL     1      -7.449  13.147  67.388  1.00  0.00     0.000 HD 
ENDBRANCH  39  40
ENDBRANCH  38  39
ENDBRANCH  37  38
ENDBRANCH  36  37
ENDBRANCH  33  36
ENDBRANCH  31  32
ENDBRANCH  30  31
ENDBRANCH  28  30
ENDBRANCH  25  26
ENDBRANCH  24  25
ENDBRANCH  23  24
ENDBRANCH  22  23
ENDBRANCH  21  22
ENDBRANCH  19  21
ENDBRANCH  16  17
ENDBRANCH  15  16
ENDBRANCH  12  15
ENDBRANCH  10  11
ENDBRANCH   9  10
ENDBRANCH   8   9
ENDBRANCH   7   8
ENDBRANCH   6   7
ENDBRANCH   3   6
TORSDOF 23
ENDMDL
MODEL      119
REMARK 921   NORMALIZED FREE ENERGY PREDICTED BY IDOCK:   -4.71 KCAL/MOL
REMARK 922        TOTAL FREE ENERGY PREDICTED BY IDOCK:  -13.81 KCAL/MOL
REMARK 923 INTER-LIGAND FREE ENERGY PREDICTED BY IDOCK:  -11.68 KCAL/MOL
REMARK 924 INTRA-LIGAND FREE ENERGY PREDICTED BY IDOCK:   -2.12 KCAL/MOL
REMARK 927      BINDING AFFINITY PREDICTED BY RF-SCORE:    0.00 PKD
ROOT
HETATM    1  C   UNL     1      -6.975   8.073  71.529  1.00  0.00    -0.060 C  
HETATM    2  C   UNL     1      -7.631   7.877  72.871  1.00  0.00    -0.118 C  
HETATM    3  N   UNL     1      -7.976   6.594  73.209  1.00  0.00    -0.101 N  
HETATM    4  O   UNL     1      -7.865   8.845  73.595  1.00  0.00    -0.377 OA 
HETATM    5  O   UNL     1      -7.592   5.455  72.482  1.00  0.00    -0.094 OA 
ENDROOT
BRANCH   3   6
HETATM    6  C   UNL     1      -8.631   6.244  74.462  1.00  0.00    -0.134 C  
BRANCH   6   7
HETATM    7  C   UNL     1     -10.011   5.620  74.245  1.00  0.00    -0.245 C  
BRANCH   7   8
HETATM    8  C   UNL     1      -9.974   4.122  74.554  1.00  0.00    -0.215 C  
BRANCH   8   9
HETATM    9  C   UNL     1     -10.823   3.311  73.573  1.00  0.00    -0.320 C  
BRANCH   9  10
HETATM   10  C   UNL     1     -10.095   3.050  72.254  1.00  0.00    -0.148 C  
BRANCH  10  11
HETATM   11  N   UNL     1     -10.252   4.143  71.307  1.00  0.00    -0.076 N  
HETATM   12  C   UNL     1      -9.748   4.056  70.028  1.00  0.00    -0.193 C  
HETATM   13  H   UNL     1     -10.744   4.989  71.595  1.00  0.00     0.000 HD 
HETATM   14  O   UNL     1      -9.178   3.063  69.584  1.00  0.00    -0.124 OA 
BRANCH  12  15
HETATM   15  C   UNL     1      -9.979   5.307  69.209  1.00  0.00    -0.285 C  
BRANCH  15  16
HETATM   16  C   UNL     1     -11.178   6.085  69.746  1.00  0.00    -0.440 C  
BRANCH  16  17
HETATM   17  C   UNL     1     -10.870   7.556  69.947  1.00  0.00    -0.240 C  
HETATM   18  O   UNL     1      -9.895   8.080  69.414  1.00  0.00    -0.175 OA 
HETATM   19  N   UNL     1     -11.720   8.243  70.776  1.00  0.00    -0.249 N  
HETATM   20  O   UNL     1     -12.900   7.715  71.327  1.00  0.00    -0.318 OA 
BRANCH  19  21
HETATM   21  C   UNL     1     -11.535   9.640  71.140  1.00  0.00    -0.384 C  
BRANCH  21  22
HETATM   22  C   UNL     1     -12.354  10.588  70.258  1.00  0.00    -0.377 C  
BRANCH  22  23
HETATM   23  C   UNL     1     -12.245  12.060  70.697  1.00  0.00    -0.409 C  
BRANCH  23  24
HETATM   24  C   UNL     1     -13.030  12.371  71.972  1.00  0.00    -0.376 C  
BRANCH  24  25
HETATM   25  C   UNL     1     -12.914  13.844  72.358  1.00  0.00    -0.364 C  
BRANCH  25  26
HETATM   26  N   UNL     1     -11.884  14.518  71.592  1.00  0.00    -0.411 N  
HETATM   27  H   UNL     1     -10.913  14.228  71.706  1.00  0.00     0.000 HD 
HETATM   28  C   UNL     1     -12.180  15.536  70.718  1.00  0.00    -0.403 C  
HETATM   29  O   UNL     1     -13.320  15.936  70.504  1.00  0.00    -0.328 OA 
BRANCH  28  30
HETATM   30  C   UNL     1     -10.982  16.144  70.034  1.00  0.00    -0.364 C  
BRANCH  30  31
HETATM   31  C   UNL     1     -11.337  16.487  68.596  1.00  0.00    -0.237 C  
BRANCH  31  32
HETATM   32  C   UNL     1     -10.407  15.787  67.627  1.00  0.00    -0.281 C  
HETATM   33  N   UNL     1     -10.883  14.701  66.933  1.00  0.00    -0.299 N  
HETATM   34  O   UNL     1      -9.283  16.251  67.425  1.00  0.00    -0.209 OA 
HETATM   35  O   UNL     1     -11.953  13.952  67.460  1.00  0.00    -0.377 OA 
BRANCH  33  36
HETATM   36  C   UNL     1     -10.041  13.914  66.030  1.00  0.00    -0.313 C  
BRANCH  36  37
HETATM   37  C   UNL     1     -10.147  12.412  66.305  1.00  0.00    -0.257 C  
BRANCH  37  38
HETATM   38  C   UNL     1     -10.966  11.686  65.233  1.00  0.00    -0.327 C  
BRANCH  38  39
HETATM   39  C   UNL     1     -10.875  12.391  63.877  1.00  0.00    -0.465 C  
BRANCH  39  40
HETATM   40  C   UNL     1     -12.239  12.847  63.357  1.00  0.00    -0.490 C  
HETATM   41  N   UNL     1     -12.449  14.276  63.568  1.00  0.00    -1.102 NA 
HETATM   42  H2  UNL     1     -11.693  14.826  63.161  1.00  0.00     0.000 HD 
HETATM   43  H1  UNL     1     -13.359  14.579  63.222  1.00  0.00     0.000 HD 
ENDBRANCH  39  40
ENDBRANCH  38  39
ENDBRANCH  37  38
ENDBRANCH  36  37
ENDBRANCH  33  36
ENDBRANCH  31  32
ENDBRANCH  30  31
ENDBRANCH  28  30
ENDBRANCH  25  26
ENDBRANCH  24  25
ENDBRANCH  23  24
ENDBRANCH  22  23
ENDBRANCH  21  22
ENDBRANCH  19  21
ENDBRANCH  16  17
ENDBRANCH  15  16
ENDBRANCH  12  15
ENDBRANCH  10  11
ENDBRANCH   9  10
ENDBRANCH   8   9
ENDBRANCH   7   8
ENDBRANCH   6   7
ENDBRANCH   3   6
TORSDOF 23
ENDMDL
MODEL      120
REMARK 921   NORMALIZED FREE ENERGY PREDICTED BY IDOCK:   -4.71 KCAL/MOL
REMARK 922        TOTAL FREE ENERGY PREDICTED BY IDOCK:  -13.79 KCAL/MOL
REMARK 923 INTER-LIGAND FREE ENERGY PREDICTED BY IDOCK:  -11.54 KCAL/MOL
REMARK 924 INTRA-LIGAND FREE ENERGY PREDICTED BY IDOCK:   -2.25 KCAL/MOL
REMARK 927      BINDING AFFINITY PREDICTED BY RF-SCORE:    0.00 PKD
ROOT
HETATM    1  C   UNL     1     -13.386  10.990  71.882  1.00  0.00    -0.423 C  
HETATM    2  C   UNL     1     -13.341   9.497  72.075  1.00  0.00    -0.452 C  
HETATM    3  N   UNL     1     -12.139   8.880  71.849  1.00  0.00    -0.348 N  
HETATM    4  O   UNL     1     -14.360   8.881  72.390  1.00  0.00    -0.513 OA 
HETATM    5  O   UNL     1     -10.929   9.561  71.639  1.00  0.00    -0.362 OA 
ENDROOT
BRANCH   3   6
HETATM    6  C   UNL     1     -11.939   7.443  71.979  1.00  0.00    -0.297 C  
BRANCH   6   7
HETATM    7  C   UNL     1     -10.723   7.099  72.842  1.00  0.00    -0.339 C  
BRANCH   7   8
HETATM    8  C   UNL     1      -9.708   6.287  72.036  1.00  0.00    -0.164 C  
BRANCH   8   9
HETATM    9  C   UNL     1      -9.781   6.598  70.539  1.00  0.00    -0.187 C  
BRANCH   9  10
HETATM   10  C   UNL     1      -8.396   6.668  69.894  1.00  0.00    -0.132 C  
BRANCH  10  11
HETATM   11  N   UNL     1      -8.241   7.835  69.039  1.00  0.00    -0.125 N  
HETATM   12  C   UNL     1      -8.722   7.843  67.749  1.00  0.00    -0.127 C  
HETATM   13  H   UNL     1      -7.767   8.662  69.402  1.00  0.00     0.000 HD 
HETATM   14  O   UNL     1      -9.339   6.909  67.243  1.00  0.00    -0.130 OA 
BRANCH  12  15
HETATM   15  C   UNL     1      -8.429   9.131  67.010  1.00  0.00    -0.123 C  
BRANCH  15  16
HETATM   16  C   UNL     1      -9.163   9.158  65.671  1.00  0.00    -0.296 C  
BRANCH  16  17
HETATM   17  C   UNL     1     -10.191  10.271  65.599  1.00  0.00    -0.231 C  
HETATM   18  O   UNL     1     -10.774  10.665  66.607  1.00  0.00    -0.239 OA 
HETATM   19  N   UNL     1     -10.447  10.776  64.350  1.00  0.00    -0.343 N  
HETATM   20  O   UNL     1      -9.739  10.429  63.186  1.00  0.00    -0.319 OA 
BRANCH  19  21
HETATM   21  C   UNL     1     -11.454  11.793  64.084  1.00  0.00    -0.327 C  
BRANCH  21  22
HETATM   22  C   UNL     1     -10.913  13.214  64.268  1.00  0.00    -0.428 C  
BRANCH  22  23
HETATM   23  C   UNL     1     -12.025  14.255  64.495  1.00  0.00    -0.478 C  
BRANCH  23  24
HETATM   24  C   UNL     1     -11.518  15.698  64.461  1.00  0.00    -0.304 C  
BRANCH  24  25
HETATM   25  C   UNL     1     -10.576  15.989  65.627  1.00  0.00    -0.377 C  
BRANCH  25  26
HETATM   26  N   UNL     1     -10.522  17.405  65.930  1.00  0.00    -0.323 N  
HETATM   27  H   UNL     1     -10.416  18.072  65.165  1.00  0.00     0.000 HD 
HETATM   28  C   UNL     1     -10.610  17.875  67.219  1.00  0.00    -0.332 C  
HETATM   29  O   UNL     1     -10.758  17.148  68.196  1.00  0.00    -0.364 OA 
BRANCH  28  30
HETATM   30  C   UNL     1     -10.501  19.372  67.350  1.00  0.00    -0.581 C  
BRANCH  30  31
HETATM   31  C   UNL     1      -9.176  19.840  66.769  1.00  0.00    -0.457 C  
BRANCH  31  32
HETATM   32  C   UNL     1      -8.011  19.256  67.541  1.00  0.00    -0.260 C  
HETATM   33  N   UNL     1      -7.087  18.501  66.859  1.00  0.00    -0.200 N  
HETATM   34  O   UNL     1      -7.875  19.537  68.734  1.00  0.00    -0.355 OA 
HETATM   35  O   UNL     1      -7.460  17.855  65.665  1.00  0.00    -0.544 OA 
BRANCH  33  36
HETATM   36  C   UNL     1      -5.968  17.835  67.529  1.00  0.00    -0.150 C  
BRANCH  36  37
HETATM   37  C   UNL     1      -5.888  16.348  67.177  1.00  0.00    -0.146 C  
BRANCH  37  38
HETATM   38  C   UNL     1      -6.338  15.455  68.337  1.00  0.00    -0.110 C  
BRANCH  38  39
HETATM   39  C   UNL     1      -7.855  15.246  68.334  1.00  0.00    -0.122 C  
BRANCH  39  40
HETATM   40  C   UNL     1      -8.245  13.767  68.351  1.00  0.00    -0.151 C  
HETATM   41  N   UNL     1      -9.669  13.586  68.619  1.00  0.00    -0.385 NA 
HETATM   42  H2  UNL     1     -10.240  14.114  67.960  1.00  0.00     0.000 HD 
HETATM   43  H1  UNL     1      -9.929  12.600  68.630  1.00  0.00     0.000 HD 
ENDBRANCH  39  40
ENDBRANCH  38  39
ENDBRANCH  37  38
ENDBRANCH  36  37
ENDBRANCH  33  36
ENDBRANCH  31  32
ENDBRANCH  30  31
ENDBRANCH  28  30
ENDBRANCH  25  26
ENDBRANCH  24  25
ENDBRANCH  23  24
ENDBRANCH  22  23
ENDBRANCH  21  22
ENDBRANCH  19  21
ENDBRANCH  16  17
ENDBRANCH  15  16
ENDBRANCH  12  15
ENDBRANCH  10  11
ENDBRANCH   9  10
ENDBRANCH   8   9
ENDBRANCH   7   8
ENDBRANCH   6   7
ENDBRANCH   3   6
TORSDOF 23
ENDMDL
MODEL      121
REMARK 921   NORMALIZED FREE ENERGY PREDICTED BY IDOCK:   -4.67 KCAL/MOL
REMARK 922        TOTAL FREE ENERGY PREDICTED BY IDOCK:  -13.71 KCAL/MOL
REMARK 923 INTER-LIGAND FREE ENERGY PREDICTED BY IDOCK:  -11.84 KCAL/MOL
REMARK 924 INTRA-LIGAND FREE ENERGY PREDICTED BY IDOCK:   -1.87 KCAL/MOL
REMARK 927      BINDING AFFINITY PREDICTED BY RF-SCORE:    0.00 PKD
ROOT
HETATM    1  C   UNL     1     -10.221  19.245  68.262  1.00  0.00    -0.513 C  
HETATM    2  C   UNL     1     -10.454  18.736  66.864  1.00  0.00    -0.414 C  
HETATM    3  N   UNL     1     -10.445  17.377  66.691  1.00  0.00    -0.290 N  
HETATM    4  O   UNL     1     -10.610  19.527  65.933  1.00  0.00    -0.504 OA 
HETATM    5  O   UNL     1     -10.421  16.447  67.744  1.00  0.00    -0.283 OA 
ENDROOT
BRANCH   3   6
HETATM    6  C   UNL     1     -10.639  16.732  65.400  1.00  0.00    -0.203 C  
BRANCH   6   7
HETATM    7  C   UNL     1     -11.172  15.304  65.535  1.00  0.00    -0.277 C  
BRANCH   7   8
HETATM    8  C   UNL     1     -11.765  14.827  64.209  1.00  0.00    -0.272 C  
BRANCH   8   9
HETATM    9  C   UNL     1     -12.052  13.324  64.214  1.00  0.00    -0.475 C  
BRANCH   9  10
HETATM   10  C   UNL     1     -12.214  12.770  65.630  1.00  0.00    -0.444 C  
BRANCH  10  11
HETATM   11  N   UNL     1     -11.016  12.092  66.101  1.00  0.00    -0.290 N  
HETATM   12  C   UNL     1     -11.033  11.331  67.249  1.00  0.00    -0.286 C  
HETATM   13  H   UNL     1     -10.149  12.182  65.572  1.00  0.00     0.000 HD 
HETATM   14  O   UNL     1     -12.039  11.135  67.925  1.00  0.00    -0.627 OA 
BRANCH  12  15
HETATM   15  C   UNL     1      -9.683  10.740  67.593  1.00  0.00    -0.185 C  
BRANCH  15  16
HETATM   16  C   UNL     1      -9.851   9.388  68.282  1.00  0.00    -0.180 C  
BRANCH  16  17
HETATM   17  C   UNL     1      -9.775   8.229  67.307  1.00  0.00    -0.177 C  
HETATM   18  O   UNL     1     -10.785   7.788  66.763  1.00  0.00    -0.311 OA 
HETATM   19  N   UNL     1      -8.530   7.693  67.100  1.00  0.00    -0.120 N  
HETATM   20  O   UNL     1      -7.335   8.223  67.619  1.00  0.00    -0.089 OA 
BRANCH  19  21
HETATM   21  C   UNL     1      -8.281   6.534  66.256  1.00  0.00    -0.119 C  
BRANCH  21  22
HETATM   22  C   UNL     1      -7.141   5.659  66.785  1.00  0.00    -0.070 C  
BRANCH  22  23
HETATM   23  C   UNL     1      -7.578   4.736  67.938  1.00  0.00    -0.082 C  
BRANCH  23  24
HETATM   24  C   UNL     1      -8.927   4.058  67.692  1.00  0.00    -0.149 C  
BRANCH  24  25
HETATM   25  C   UNL     1      -9.588   3.634  69.002  1.00  0.00    -0.095 C  
BRANCH  25  26
HETATM   26  N   UNL     1      -9.542   4.691  69.992  1.00  0.00    -0.169 N  
HETATM   27  H   UNL     1      -8.816   4.668  70.707  1.00  0.00     0.000 HD 
HETATM   28  C   UNL     1     -10.450   5.724  69.993  1.00  0.00    -0.283 C  
HETATM   29  O   UNL     1     -11.343   5.842  69.160  1.00  0.00    -0.298 OA 
BRANCH  28  30
HETATM   30  C   UNL     1     -10.271   6.714  71.115  1.00  0.00    -0.216 C  
BRANCH  30  31
HETATM   31  C   UNL     1     -11.443   6.609  72.079  1.00  0.00    -0.329 C  
BRANCH  31  32
HETATM   32  C   UNL     1     -12.523   7.611  71.727  1.00  0.00    -0.329 C  
HETATM   33  N   UNL     1     -12.149   8.896  71.420  1.00  0.00    -0.309 N  
HETATM   34  O   UNL     1     -13.694   7.233  71.645  1.00  0.00    -0.380 OA 
HETATM   35  O   UNL     1     -10.932   9.404  71.915  1.00  0.00    -0.325 OA 
BRANCH  33  36
HETATM   36  C   UNL     1     -13.122   9.953  71.138  1.00  0.00    -0.370 C  
BRANCH  36  37
HETATM   37  C   UNL     1     -12.482  11.342  71.137  1.00  0.00    -0.465 C  
BRANCH  37  38
HETATM   38  C   UNL     1     -13.287  12.350  71.964  1.00  0.00    -0.511 C  
BRANCH  38  39
HETATM   39  C   UNL     1     -12.837  13.789  71.697  1.00  0.00    -0.438 C  
BRANCH  39  40
HETATM   40  C   UNL     1     -12.374  14.003  70.254  1.00  0.00    -0.358 C  
HETATM   41  N   UNL     1     -12.855  15.270  69.714  1.00  0.00    -0.608 NA 
HETATM   42  H2  UNL     1     -12.588  16.053  70.310  1.00  0.00     0.000 HD 
HETATM   43  H1  UNL     1     -12.547  15.413  68.752  1.00  0.00     0.000 HD 
ENDBRANCH  39  40
ENDBRANCH  38  39
ENDBRANCH  37  38
ENDBRANCH  36  37
ENDBRANCH  33  36
ENDBRANCH  31  32
ENDBRANCH  30  31
ENDBRANCH  28  30
ENDBRANCH  25  26
ENDBRANCH  24  25
ENDBRANCH  23  24
ENDBRANCH  22  23
ENDBRANCH  21  22
ENDBRANCH  19  21
ENDBRANCH  16  17
ENDBRANCH  15  16
ENDBRANCH  12  15
ENDBRANCH  10  11
ENDBRANCH   9  10
ENDBRANCH   8   9
ENDBRANCH   7   8
ENDBRANCH   6   7
ENDBRANCH   3   6
TORSDOF 23
ENDMDL
MODEL      122
REMARK 921   NORMALIZED FREE ENERGY PREDICTED BY IDOCK:   -4.66 KCAL/MOL
REMARK 922        TOTAL FREE ENERGY PREDICTED BY IDOCK:  -13.67 KCAL/MOL
REMARK 923 INTER-LIGAND FREE ENERGY PREDICTED BY IDOCK:  -10.20 KCAL/MOL
REMARK 924 INTRA-LIGAND FREE ENERGY PREDICTED BY IDOCK:   -3.48 KCAL/MOL
REMARK 927      BINDING AFFINITY PREDICTED BY RF-SCORE:    0.00 PKD
ROOT
HETATM    1  C   UNL     1      -9.386   8.422  67.831  1.00  0.00    -0.147 C  
HETATM    2  C   UNL     1      -8.436   7.272  67.622  1.00  0.00    -0.116 C  
HETATM    3  N   UNL     1      -8.397   6.721  66.367  1.00  0.00    -0.116 N  
HETATM    4  O   UNL     1      -7.761   6.845  68.559  1.00  0.00    -0.108 OA 
HETATM    5  O   UNL     1      -9.034   7.273  65.243  1.00  0.00     0.089 OA 
ENDROOT
BRANCH   3   6
HETATM    6  C   UNL     1      -7.544   5.596  66.011  1.00  0.00    -0.087 C  
BRANCH   6   7
HETATM    7  C   UNL     1      -8.337   4.422  65.434  1.00  0.00    -0.111 C  
BRANCH   7   8
HETATM    8  C   UNL     1      -9.484   4.040  66.372  1.00  0.00    -0.202 C  
BRANCH   8   9
HETATM    9  C   UNL     1      -9.115   2.872  67.287  1.00  0.00    -0.202 C  
BRANCH   9  10
HETATM   10  C   UNL     1      -8.995   3.297  68.751  1.00  0.00    -0.131 C  
BRANCH  10  11
HETATM   11  N   UNL     1      -9.754   4.504  69.043  1.00  0.00    -0.174 N  
HETATM   12  C   UNL     1     -10.153   4.802  70.326  1.00  0.00    -0.234 C  
HETATM   13  H   UNL     1      -9.994   5.141  68.283  1.00  0.00     0.000 HD 
HETATM   14  O   UNL     1      -9.876   4.116  71.306  1.00  0.00    -0.178 OA 
BRANCH  12  15
HETATM   15  C   UNL     1     -10.963   6.077  70.419  1.00  0.00    -0.399 C  
BRANCH  15  16
HETATM   16  C   UNL     1     -11.761   6.110  71.720  1.00  0.00    -0.312 C  
BRANCH  16  17
HETATM   17  C   UNL     1     -12.765   7.246  71.754  1.00  0.00    -0.335 C  
HETATM   18  O   UNL     1     -13.914   7.092  71.343  1.00  0.00    -0.319 OA 
HETATM   19  N   UNL     1     -12.306   8.445  72.235  1.00  0.00    -0.368 N  
HETATM   20  O   UNL     1     -11.036   8.644  72.805  1.00  0.00    -0.161 OA 
BRANCH  19  21
HETATM   21  C   UNL     1     -13.108   9.659  72.271  1.00  0.00    -0.382 C  
BRANCH  21  22
HETATM   22  C   UNL     1     -13.147  10.375  70.918  1.00  0.00    -0.412 C  
BRANCH  22  23
HETATM   23  C   UNL     1     -11.770  10.436  70.231  1.00  0.00    -0.406 C  
BRANCH  23  24
HETATM   24  C   UNL     1     -11.711  11.445  69.083  1.00  0.00    -0.410 C  
BRANCH  24  25
HETATM   25  C   UNL     1     -10.270  11.752  68.680  1.00  0.00    -0.201 C  
BRANCH  25  26
HETATM   26  N   UNL     1     -10.036  13.179  68.578  1.00  0.00    -0.342 N  
HETATM   27  H   UNL     1     -10.624  13.817  69.114  1.00  0.00     0.000 HD 
HETATM   28  C   UNL     1      -9.043  13.696  67.780  1.00  0.00    -0.199 C  
HETATM   29  O   UNL     1      -8.277  13.003  67.118  1.00  0.00    -0.177 OA 
BRANCH  28  30
HETATM   30  C   UNL     1      -8.966  15.201  67.770  1.00  0.00    -0.178 C  
BRANCH  30  31
HETATM   31  C   UNL     1     -10.332  15.779  67.437  1.00  0.00    -0.282 C  
BRANCH  31  32
HETATM   32  C   UNL     1     -10.750  15.401  66.032  1.00  0.00    -0.322 C  
HETATM   33  N   UNL     1     -11.914  14.690  65.865  1.00  0.00    -0.292 N  
HETATM   34  O   UNL     1     -10.088  15.807  65.074  1.00  0.00    -0.425 OA 
HETATM   35  O   UNL     1     -12.402  13.897  66.921  1.00  0.00    -0.410 OA 
BRANCH  33  36
HETATM   36  C   UNL     1     -12.365  14.215  64.555  1.00  0.00    -0.392 C  
BRANCH  36  37
HETATM   37  C   UNL     1     -12.569  12.699  64.529  1.00  0.00    -0.491 C  
BRANCH  37  38
HETATM   38  C   UNL     1     -11.424  11.975  63.813  1.00  0.00    -0.547 C  
BRANCH  38  39
HETATM   39  C   UNL     1     -10.350  11.503  64.798  1.00  0.00    -0.341 C  
BRANCH  39  40
HETATM   40  C   UNL     1      -9.198  10.771  64.107  1.00  0.00    -0.224 C  
HETATM   41  N   UNL     1      -8.214  10.282  65.067  1.00  0.00    -0.152 NA 
HETATM   42  H2  UNL     1      -8.650   9.699  65.781  1.00  0.00     0.000 HD 
HETATM   43  H1  UNL     1      -7.446   9.794  64.606  1.00  0.00     0.000 HD 
ENDBRANCH  39  40
ENDBRANCH  38  39
ENDBRANCH  37  38
ENDBRANCH  36  37
ENDBRANCH  33  36
ENDBRANCH  31  32
ENDBRANCH  30  31
ENDBRANCH  28  30
ENDBRANCH  25  26
ENDBRANCH  24  25
ENDBRANCH  23  24
ENDBRANCH  22  23
ENDBRANCH  21  22
ENDBRANCH  19  21
ENDBRANCH  16  17
ENDBRANCH  15  16
ENDBRANCH  12  15
ENDBRANCH  10  11
ENDBRANCH   9  10
ENDBRANCH   8   9
ENDBRANCH   7   8
ENDBRANCH   6   7
ENDBRANCH   3   6
TORSDOF 23
ENDMDL
MODEL      123
REMARK 921   NORMALIZED FREE ENERGY PREDICTED BY IDOCK:   -4.65 KCAL/MOL
REMARK 922        TOTAL FREE ENERGY PREDICTED BY IDOCK:  -13.66 KCAL/MOL
REMARK 923 INTER-LIGAND FREE ENERGY PREDICTED BY IDOCK:  -10.91 KCAL/MOL
REMARK 924 INTRA-LIGAND FREE ENERGY PREDICTED BY IDOCK:   -2.74 KCAL/MOL
REMARK 927      BINDING AFFINITY PREDICTED BY RF-SCORE:    0.00 PKD
ROOT
HETATM    1  C   UNL     1     -11.117  10.734  67.684  1.00  0.00    -0.384 C  
HETATM    2  C   UNL     1     -11.441  10.765  69.154  1.00  0.00    -0.298 C  
HETATM    3  N   UNL     1     -11.125   9.647  69.881  1.00  0.00    -0.241 N  
HETATM    4  O   UNL     1     -11.995  11.748  69.648  1.00  0.00    -0.306 OA 
HETATM    5  O   UNL     1     -10.362   8.574  69.389  1.00  0.00    -0.208 OA 
ENDROOT
BRANCH   3   6
HETATM    6  C   UNL     1     -11.390   9.516  71.307  1.00  0.00    -0.376 C  
BRANCH   6   7
HETATM    7  C   UNL     1     -12.778   8.940  71.592  1.00  0.00    -0.403 C  
BRANCH   7   8
HETATM    8  C   UNL     1     -12.851   7.477  71.151  1.00  0.00    -0.264 C  
BRANCH   8   9
HETATM    9  C   UNL     1     -12.460   6.516  72.276  1.00  0.00    -0.112 C  
BRANCH   9  10
HETATM   10  C   UNL     1     -11.088   5.881  72.046  1.00  0.00    -0.274 C  
BRANCH  10  11
HETATM   11  N   UNL     1     -10.757   5.771  70.633  1.00  0.00    -0.278 N  
HETATM   12  C   UNL     1     -10.009   4.717  70.157  1.00  0.00    -0.251 C  
HETATM   13  H   UNL     1     -11.085   6.486  69.984  1.00  0.00     0.000 HD 
HETATM   14  O   UNL     1      -9.606   3.792  70.857  1.00  0.00    -0.163 OA 
BRANCH  12  15
HETATM   15  C   UNL     1      -9.738   4.801  68.670  1.00  0.00    -0.223 C  
BRANCH  15  16
HETATM   16  C   UNL     1      -8.450   5.575  68.404  1.00  0.00    -0.101 C  
BRANCH  16  17
HETATM   17  C   UNL     1      -8.390   6.131  66.994  1.00  0.00    -0.105 C  
HETATM   18  O   UNL     1      -8.857   5.506  66.044  1.00  0.00    -0.137 OA 
HETATM   19  N   UNL     1      -7.761   7.340  66.847  1.00  0.00    -0.107 N  
HETATM   20  O   UNL     1      -7.301   8.137  67.910  1.00  0.00    -0.092 OA 
BRANCH  19  21
HETATM   21  C   UNL     1      -7.547   7.986  65.560  1.00  0.00    -0.085 C  
BRANCH  21  22
HETATM   22  C   UNL     1      -8.671   8.963  65.202  1.00  0.00    -0.213 C  
BRANCH  22  23
HETATM   23  C   UNL     1      -8.152  10.276  64.586  1.00  0.00    -0.154 C  
BRANCH  23  24
HETATM   24  C   UNL     1      -8.287  10.324  63.064  1.00  0.00    -0.170 C  
BRANCH  24  25
HETATM   25  C   UNL     1      -9.635  10.901  62.638  1.00  0.00    -0.255 C  
BRANCH  25  26
HETATM   26  N   UNL     1      -9.975  12.085  63.400  1.00  0.00    -0.507 N  
HETATM   27  H   UNL     1      -9.226  12.697  63.725  1.00  0.00     0.000 HD 
HETATM   28  C   UNL     1     -11.277  12.407  63.699  1.00  0.00    -0.474 C  
HETATM   29  O   UNL     1     -12.241  11.741  63.333  1.00  0.00    -0.511 OA 
BRANCH  28  30
HETATM   30  C   UNL     1     -11.441  13.655  64.528  1.00  0.00    -0.401 C  
BRANCH  30  31
HETATM   31  C   UNL     1     -10.341  13.719  65.576  1.00  0.00    -0.333 C  
BRANCH  31  32
HETATM   32  C   UNL     1     -10.815  14.450  66.814  1.00  0.00    -0.301 C  
HETATM   33  N   UNL     1     -10.017  15.438  67.336  1.00  0.00    -0.228 N  
HETATM   34  O   UNL     1     -11.932  14.200  67.273  1.00  0.00    -0.397 OA 
HETATM   35  O   UNL     1      -8.631  15.418  67.088  1.00  0.00    -0.179 OA 
BRANCH  33  36
HETATM   36  C   UNL     1     -10.353  16.151  68.570  1.00  0.00    -0.254 C  
BRANCH  36  37
HETATM   37  C   UNL     1     -10.733  17.610  68.309  1.00  0.00    -0.285 C  
BRANCH  37  38
HETATM   38  C   UNL     1      -9.556  18.564  68.543  1.00  0.00    -0.388 C  
BRANCH  38  39
HETATM   39  C   UNL     1      -9.828  19.951  67.955  1.00  0.00    -0.529 C  
BRANCH  39  40
HETATM   40  C   UNL     1     -10.518  19.888  66.591  1.00  0.00    -0.460 C  
HETATM   41  N   UNL     1      -9.634  20.328  65.517  1.00  0.00    -0.467 NA 
HETATM   42  H2  UNL     1      -8.760  19.802  65.516  1.00  0.00     0.000 HD 
HETATM   43  H1  UNL     1     -10.094  20.286  64.607  1.00  0.00     0.000 HD 
ENDBRANCH  39  40
ENDBRANCH  38  39
ENDBRANCH  37  38
ENDBRANCH  36  37
ENDBRANCH  33  36
ENDBRANCH  31  32
ENDBRANCH  30  31
ENDBRANCH  28  30
ENDBRANCH  25  26
ENDBRANCH  24  25
ENDBRANCH  23  24
ENDBRANCH  22  23
ENDBRANCH  21  22
ENDBRANCH  19  21
ENDBRANCH  16  17
ENDBRANCH  15  16
ENDBRANCH  12  15
ENDBRANCH  10  11
ENDBRANCH   9  10
ENDBRANCH   8   9
ENDBRANCH   7   8
ENDBRANCH   6   7
ENDBRANCH   3   6
TORSDOF 23
ENDMDL
MODEL      124
REMARK 921   NORMALIZED FREE ENERGY PREDICTED BY IDOCK:   -4.64 KCAL/MOL
REMARK 922        TOTAL FREE ENERGY PREDICTED BY IDOCK:  -13.63 KCAL/MOL
REMARK 923 INTER-LIGAND FREE ENERGY PREDICTED BY IDOCK:  -10.75 KCAL/MOL
REMARK 924 INTRA-LIGAND FREE ENERGY PREDICTED BY IDOCK:   -2.89 KCAL/MOL
REMARK 927      BINDING AFFINITY PREDICTED BY RF-SCORE:    0.00 PKD
ROOT
HETATM    1  C   UNL     1      -9.661  11.531  63.089  1.00  0.00    -0.412 C  
HETATM    2  C   UNL     1      -9.435  10.374  64.026  1.00  0.00    -0.299 C  
HETATM    3  N   UNL     1      -8.362   9.565  63.761  1.00  0.00    -0.163 N  
HETATM    4  O   UNL     1     -10.213  10.168  64.958  1.00  0.00    -0.309 OA 
HETATM    5  O   UNL     1      -7.372   9.852  62.806  1.00  0.00    -0.117 OA 
ENDROOT
BRANCH   3   6
HETATM    6  C   UNL     1      -8.020   8.398  64.564  1.00  0.00    -0.146 C  
BRANCH   6   7
HETATM    7  C   UNL     1      -7.393   8.778  65.907  1.00  0.00    -0.085 C  
BRANCH   7   8
HETATM    8  C   UNL     1      -7.696   7.710  66.959  1.00  0.00    -0.108 C  
BRANCH   8   9
HETATM    9  C   UNL     1      -9.144   7.779  67.449  1.00  0.00    -0.138 C  
BRANCH   9  10
HETATM   10  C   UNL     1      -9.261   8.453  68.817  1.00  0.00    -0.143 C  
BRANCH  10  11
HETATM   11  N   UNL     1      -8.049   8.314  69.611  1.00  0.00    -0.114 N  
HETATM   12  C   UNL     1      -7.987   8.782  70.904  1.00  0.00    -0.135 C  
HETATM   13  H   UNL     1      -7.232   7.862  69.201  1.00  0.00     0.000 HD 
HETATM   14  O   UNL     1      -8.932   9.302  71.490  1.00  0.00    -0.316 OA 
BRANCH  12  15
HETATM   15  C   UNL     1      -6.632   8.578  71.548  1.00  0.00    -0.070 C  
BRANCH  15  16
HETATM   16  C   UNL     1      -6.297   7.091  71.628  1.00  0.00    -0.037 C  
BRANCH  16  17
HETATM   17  C   UNL     1      -7.146   6.360  72.650  1.00  0.00    -0.075 C  
HETATM   18  O   UNL     1      -6.936   6.481  73.855  1.00  0.00    -0.081 OA 
HETATM   19  N   UNL     1      -8.127   5.544  72.148  1.00  0.00    -0.111 N  
HETATM   20  O   UNL     1      -8.470   5.449  70.788  1.00  0.00    -0.116 OA 
BRANCH  19  21
HETATM   21  C   UNL     1      -8.986   4.713  72.979  1.00  0.00    -0.117 C  
BRANCH  21  22
HETATM   22  C   UNL     1      -9.974   5.538  73.808  1.00  0.00    -0.197 C  
BRANCH  22  23
HETATM   23  C   UNL     1     -10.709   6.607  72.978  1.00  0.00    -0.299 C  
BRANCH  23  24
HETATM   24  C   UNL     1     -11.923   6.060  72.227  1.00  0.00    -0.259 C  
BRANCH  24  25
HETATM   25  C   UNL     1     -12.084   6.723  70.861  1.00  0.00    -0.367 C  
BRANCH  25  26
HETATM   26  N   UNL     1     -11.961   8.165  70.948  1.00  0.00    -0.439 N  
HETATM   27  H   UNL     1     -11.078   8.603  70.687  1.00  0.00     0.000 HD 
HETATM   28  C   UNL     1     -13.001   8.957  71.373  1.00  0.00    -0.278 C  
HETATM   29  O   UNL     1     -14.103   8.518  71.687  1.00  0.00    -0.400 OA 
BRANCH  28  30
HETATM   30  C   UNL     1     -12.683  10.429  71.434  1.00  0.00    -0.551 C  
BRANCH  30  31
HETATM   31  C   UNL     1     -11.823  10.815  70.241  1.00  0.00    -0.438 C  
BRANCH  31  32
HETATM   32  C   UNL     1     -11.946  12.294  69.940  1.00  0.00    -0.306 C  
HETATM   33  N   UNL     1     -11.243  12.806  68.877  1.00  0.00    -0.270 N  
HETATM   34  O   UNL     1     -12.731  12.981  70.598  1.00  0.00    -0.214 OA 
HETATM   35  O   UNL     1     -10.079  12.150  68.432  1.00  0.00    -0.206 OA 
BRANCH  33  36
HETATM   36  C   UNL     1     -11.240  14.233  68.551  1.00  0.00    -0.266 C  
BRANCH  36  37
HETATM   37  C   UNL     1     -12.139  14.554  67.355  1.00  0.00    -0.292 C  
BRANCH  37  38
HETATM   38  C   UNL     1     -12.117  13.441  66.303  1.00  0.00    -0.475 C  
BRANCH  38  39
HETATM   39  C   UNL     1     -11.872  13.997  64.897  1.00  0.00    -0.402 C  
BRANCH  39  40
HETATM   40  C   UNL     1     -11.113  15.324  64.913  1.00  0.00    -0.424 C  
HETATM   41  N   UNL     1     -11.631  16.256  63.916  1.00  0.00    -1.573 NA 
HETATM   42  H2  UNL     1     -12.635  16.400  64.029  1.00  0.00     0.000 HD 
HETATM   43  H1  UNL     1     -11.125  17.142  63.927  1.00  0.00     0.000 HD 
ENDBRANCH  39  40
ENDBRANCH  38  39
ENDBRANCH  37  38
ENDBRANCH  36  37
ENDBRANCH  33  36
ENDBRANCH  31  32
ENDBRANCH  30  31
ENDBRANCH  28  30
ENDBRANCH  25  26
ENDBRANCH  24  25
ENDBRANCH  23  24
ENDBRANCH  22  23
ENDBRANCH  21  22
ENDBRANCH  19  21
ENDBRANCH  16  17
ENDBRANCH  15  16
ENDBRANCH  12  15
ENDBRANCH  10  11
ENDBRANCH   9  10
ENDBRANCH   8   9
ENDBRANCH   7   8
ENDBRANCH   6   7
ENDBRANCH   3   6
TORSDOF 23
ENDMDL
MODEL      125
REMARK 921   NORMALIZED FREE ENERGY PREDICTED BY IDOCK:   -4.64 KCAL/MOL
REMARK 922        TOTAL FREE ENERGY PREDICTED BY IDOCK:  -13.62 KCAL/MOL
REMARK 923 INTER-LIGAND FREE ENERGY PREDICTED BY IDOCK:  -11.06 KCAL/MOL
REMARK 924 INTRA-LIGAND FREE ENERGY PREDICTED BY IDOCK:   -2.56 KCAL/MOL
REMARK 927      BINDING AFFINITY PREDICTED BY RF-SCORE:    0.00 PKD
ROOT
HETATM    1  C   UNL     1      -8.715   8.857  71.329  1.00  0.00    -0.279 C  
HETATM    2  C   UNL     1      -8.246   9.098  69.918  1.00  0.00    -0.136 C  
HETATM    3  N   UNL     1      -7.230  10.002  69.750  1.00  0.00    -0.109 N  
HETATM    4  O   UNL     1      -8.789   8.521  68.976  1.00  0.00    -0.143 OA 
HETATM    5  O   UNL     1      -6.488  10.562  70.804  1.00  0.00    -0.323 OA 
ENDROOT
BRANCH   3   6
HETATM    6  C   UNL     1      -6.677  10.355  68.450  1.00  0.00    -0.060 C  
BRANCH   6   7
HETATM    7  C   UNL     1      -5.590   9.379  67.994  1.00  0.00    -0.037 C  
BRANCH   7   8
HETATM    8  C   UNL     1      -5.125   9.721  66.577  1.00  0.00    -0.039 C  
BRANCH   8   9
HETATM    9  C   UNL     1      -6.057   9.143  65.510  1.00  0.00    -0.059 C  
BRANCH   9  10
HETATM   10  C   UNL     1      -6.582  10.216  64.555  1.00  0.00    -0.118 C  
BRANCH  10  11
HETATM   11  N   UNL     1      -7.973  10.558  64.815  1.00  0.00    -0.309 N  
HETATM   12  C   UNL     1      -8.979  10.131  63.979  1.00  0.00    -0.238 C  
HETATM   13  H   UNL     1      -8.205  11.124  65.631  1.00  0.00     0.000 HD 
HETATM   14  O   UNL     1      -8.798   9.415  62.998  1.00  0.00    -0.228 OA 
BRANCH  12  15
HETATM   15  C   UNL     1     -10.350  10.622  64.395  1.00  0.00    -0.347 C  
BRANCH  15  16
HETATM   16  C   UNL     1     -10.831  11.725  63.456  1.00  0.00    -0.496 C  
BRANCH  16  17
HETATM   17  C   UNL     1     -11.094  13.029  64.183  1.00  0.00    -0.401 C  
HETATM   18  O   UNL     1     -10.216  13.882  64.298  1.00  0.00    -0.276 OA 
HETATM   19  N   UNL     1     -12.346  13.179  64.721  1.00  0.00    -0.417 N  
HETATM   20  O   UNL     1     -13.411  12.281  64.532  1.00  0.00    -0.769 OA 
BRANCH  19  21
HETATM   21  C   UNL     1     -12.750  14.332  65.513  1.00  0.00    -0.380 C  
BRANCH  21  22
HETATM   22  C   UNL     1     -12.267  14.244  66.963  1.00  0.00    -0.338 C  
BRANCH  22  23
HETATM   23  C   UNL     1     -10.977  15.048  67.217  1.00  0.00    -0.326 C  
BRANCH  23  24
HETATM   24  C   UNL     1     -11.098  16.033  68.380  1.00  0.00    -0.351 C  
BRANCH  24  25
HETATM   25  C   UNL     1     -10.448  15.487  69.648  1.00  0.00    -0.286 C  
BRANCH  25  26
HETATM   26  N   UNL     1     -11.251  14.445  70.256  1.00  0.00    -0.468 N  
HETATM   27  H   UNL     1     -11.067  13.471  70.011  1.00  0.00     0.000 HD 
HETATM   28  C   UNL     1     -12.254  14.731  71.151  1.00  0.00    -0.325 C  
HETATM   29  O   UNL     1     -12.531  15.869  71.518  1.00  0.00    -0.435 OA 
BRANCH  28  30
HETATM   30  C   UNL     1     -13.008  13.527  71.655  1.00  0.00    -0.447 C  
BRANCH  30  31
HETATM   31  C   UNL     1     -12.591  12.297  70.864  1.00  0.00    -0.334 C  
BRANCH  31  32
HETATM   32  C   UNL     1     -13.089  11.032  71.530  1.00  0.00    -0.396 C  
HETATM   33  N   UNL     1     -12.420   9.857  71.285  1.00  0.00    -0.352 N  
HETATM   34  O   UNL     1     -14.022  11.098  72.333  1.00  0.00     0.239 OA 
HETATM   35  O   UNL     1     -11.677   9.713  70.098  1.00  0.00    -0.202 OA 
BRANCH  33  36
HETATM   36  C   UNL     1     -12.867   8.571  71.824  1.00  0.00    -0.348 C  
BRANCH  36  37
HETATM   37  C   UNL     1     -11.788   7.894  72.672  1.00  0.00    -0.352 C  
BRANCH  37  38
HETATM   38  C   UNL     1     -11.507   6.460  72.212  1.00  0.00    -0.339 C  
BRANCH  38  39
HETATM   39  C   UNL     1     -11.295   6.383  70.697  1.00  0.00    -0.419 C  
BRANCH  39  40
HETATM   40  C   UNL     1     -10.393   5.218  70.287  1.00  0.00    -0.280 C  
HETATM   41  N   UNL     1      -9.051   5.670  69.937  1.00  0.00    -0.134 NA 
HETATM   42  H2  UNL     1      -8.634   6.216  70.691  1.00  0.00     0.000 HD 
HETATM   43  H1  UNL     1      -8.449   4.893  69.664  1.00  0.00     0.000 HD 
ENDBRANCH  39  40
ENDBRANCH  38  39
ENDBRANCH  37  38
ENDBRANCH  36  37
ENDBRANCH  33  36
ENDBRANCH  31  32
ENDBRANCH  30  31
ENDBRANCH  28  30
ENDBRANCH  25  26
ENDBRANCH  24  25
ENDBRANCH  23  24
ENDBRANCH  22  23
ENDBRANCH  21  22
ENDBRANCH  19  21
ENDBRANCH  16  17
ENDBRANCH  15  16
ENDBRANCH  12  15
ENDBRANCH  10  11
ENDBRANCH   9  10
ENDBRANCH   8   9
ENDBRANCH   7   8
ENDBRANCH   6   7
ENDBRANCH   3   6
TORSDOF 23
ENDMDL
MODEL      126
REMARK 921   NORMALIZED FREE ENERGY PREDICTED BY IDOCK:   -4.63 KCAL/MOL
REMARK 922        TOTAL FREE ENERGY PREDICTED BY IDOCK:  -13.62 KCAL/MOL
REMARK 923 INTER-LIGAND FREE ENERGY PREDICTED BY IDOCK:  -10.93 KCAL/MOL
REMARK 924 INTRA-LIGAND FREE ENERGY PREDICTED BY IDOCK:   -2.68 KCAL/MOL
REMARK 927      BINDING AFFINITY PREDICTED BY RF-SCORE:    0.00 PKD
ROOT
HETATM    1  C   UNL     1     -10.533  18.431  65.940  1.00  0.00    -0.346 C  
HETATM    2  C   UNL     1     -10.109  16.986  65.953  1.00  0.00    -0.263 C  
HETATM    3  N   UNL     1     -10.804  16.129  65.141  1.00  0.00    -0.406 N  
HETATM    4  O   UNL     1      -9.198  16.613  66.694  1.00  0.00    -0.226 OA 
HETATM    5  O   UNL     1     -11.741  16.540  64.177  1.00  0.00    -0.998 OA 
ENDROOT
BRANCH   3   6
HETATM    6  C   UNL     1     -10.525  14.702  65.054  1.00  0.00    -0.421 C  
BRANCH   6   7
HETATM    7  C   UNL     1     -11.266  13.897  66.124  1.00  0.00    -0.303 C  
BRANCH   7   8
HETATM    8  C   UNL     1     -10.359  12.803  66.692  1.00  0.00    -0.252 C  
BRANCH   8   9
HETATM    9  C   UNL     1      -9.549  13.294  67.894  1.00  0.00    -0.217 C  
BRANCH   9  10
HETATM   10  C   UNL     1      -8.071  13.492  67.555  1.00  0.00    -0.186 C  
BRANCH  10  11
HETATM   11  N   UNL     1      -7.489  12.327  66.906  1.00  0.00    -0.372 N  
HETATM   12  C   UNL     1      -6.142  12.058  67.001  1.00  0.00    -0.132 C  
HETATM   13  H   UNL     1      -8.089  11.700  66.371  1.00  0.00     0.000 HD 
HETATM   14  O   UNL     1      -5.353  12.735  67.655  1.00  0.00    -0.110 OA 
BRANCH  12  15
HETATM   15  C   UNL     1      -5.723  10.826  66.227  1.00  0.00    -0.113 C  
BRANCH  15  16
HETATM   16  C   UNL     1      -6.257   9.564  66.901  1.00  0.00    -0.065 C  
BRANCH  16  17
HETATM   17  C   UNL     1      -7.441   8.970  66.162  1.00  0.00    -0.091 C  
HETATM   18  O   UNL     1      -7.986   9.578  65.243  1.00  0.00    -0.106 OA 
HETATM   19  N   UNL     1      -7.875   7.746  66.601  1.00  0.00    -0.100 N  
HETATM   20  O   UNL     1      -7.226   6.970  67.578  1.00  0.00    -0.085 OA 
BRANCH  19  21
HETATM   21  C   UNL     1      -9.039   7.062  66.058  1.00  0.00    -0.069 C  
BRANCH  21  22
HETATM   22  C   UNL     1     -10.284   7.246  66.930  1.00  0.00    -0.340 C  
BRANCH  22  23
HETATM   23  C   UNL     1     -10.675   5.968  67.696  1.00  0.00    -0.377 C  
BRANCH  23  24
HETATM   24  C   UNL     1     -11.359   6.251  69.035  1.00  0.00    -0.319 C  
BRANCH  24  25
HETATM   25  C   UNL     1     -10.389   6.867  70.041  1.00  0.00    -0.200 C  
BRANCH  25  26
HETATM   26  N   UNL     1     -10.994   7.970  70.760  1.00  0.00    -0.244 N  
HETATM   27  H   UNL     1     -10.754   8.926  70.495  1.00  0.00     0.000 HD 
HETATM   28  C   UNL     1     -11.882   7.766  71.789  1.00  0.00    -0.290 C  
HETATM   29  O   UNL     1     -12.243   6.653  72.162  1.00  0.00    -0.299 OA 
BRANCH  28  30
HETATM   30  C   UNL     1     -12.385   9.026  72.445  1.00  0.00    -0.350 C  
BRANCH  30  31
HETATM   31  C   UNL     1     -13.445   9.670  71.565  1.00  0.00    -0.430 C  
BRANCH  31  32
HETATM   32  C   UNL     1     -12.849  10.782  70.727  1.00  0.00    -0.320 C  
HETATM   33  N   UNL     1     -12.687  12.019  71.302  1.00  0.00    -0.344 N  
HETATM   34  O   UNL     1     -12.453  10.533  69.587  1.00  0.00    -0.208 OA 
HETATM   35  O   UNL     1     -13.497  12.393  72.391  1.00  0.00    -0.503 OA 
BRANCH  33  36
HETATM   36  C   UNL     1     -12.188  13.175  70.554  1.00  0.00    -0.328 C  
BRANCH  36  37
HETATM   37  C   UNL     1     -13.224  14.298  70.471  1.00  0.00    -0.061 C  
BRANCH  37  38
HETATM   38  C   UNL     1     -12.700  15.611  71.062  1.00  0.00    -0.517 C  
BRANCH  38  39
HETATM   39  C   UNL     1     -11.198  15.541  71.353  1.00  0.00    -0.410 C  
BRANCH  39  40
HETATM   40  C   UNL     1     -10.345  15.867  70.125  1.00  0.00    -0.175 C  
HETATM   41  N   UNL     1     -10.815  17.069  69.444  1.00  0.00    -0.359 NA 
HETATM   42  H2  UNL     1     -10.865  17.862  70.083  1.00  0.00     0.000 HD 
HETATM   43  H1  UNL     1     -10.246  17.286  68.625  1.00  0.00     0.000 HD 
ENDBRANCH  39  40
ENDBRANCH  38  39
ENDBRANCH  37  38
ENDBRANCH  36  37
ENDBRANCH  33  36
ENDBRANCH  31  32
ENDBRANCH  30  31
ENDBRANCH  28  30
ENDBRANCH  25  26
ENDBRANCH  24  25
ENDBRANCH  23  24
ENDBRANCH  22  23
ENDBRANCH  21  22
ENDBRANCH  19  21
ENDBRANCH  16  17
ENDBRANCH  15  16
ENDBRANCH  12  15
ENDBRANCH  10  11
ENDBRANCH   9  10
ENDBRANCH   8   9
ENDBRANCH   7   8
ENDBRANCH   6   7
ENDBRANCH   3   6
TORSDOF 23
ENDMDL
MODEL      127
REMARK 921   NORMALIZED FREE ENERGY PREDICTED BY IDOCK:   -4.63 KCAL/MOL
REMARK 922        TOTAL FREE ENERGY PREDICTED BY IDOCK:  -13.61 KCAL/MOL
REMARK 923 INTER-LIGAND FREE ENERGY PREDICTED BY IDOCK:  -11.16 KCAL/MOL
REMARK 924 INTRA-LIGAND FREE ENERGY PREDICTED BY IDOCK:   -2.45 KCAL/MOL
REMARK 927      BINDING AFFINITY PREDICTED BY RF-SCORE:    0.00 PKD
ROOT
HETATM    1  C   UNL     1     -12.797   8.493  71.657  1.00  0.00    -0.366 C  
HETATM    2  C   UNL     1     -12.197   7.124  71.475  1.00  0.00    -0.360 C  
HETATM    3  N   UNL     1     -11.496   6.904  70.318  1.00  0.00    -0.325 N  
HETATM    4  O   UNL     1     -12.371   6.251  72.326  1.00  0.00    -0.268 OA 
HETATM    5  O   UNL     1     -11.149   7.911  69.401  1.00  0.00    -0.089 OA 
ENDROOT
BRANCH   3   6
HETATM    6  C   UNL     1     -10.870   5.630  69.989  1.00  0.00    -0.296 C  
BRANCH   6   7
HETATM    7  C   UNL     1      -9.368   5.626  70.279  1.00  0.00    -0.186 C  
BRANCH   7   8
HETATM    8  C   UNL     1      -9.116   5.538  71.786  1.00  0.00    -0.151 C  
BRANCH   8   9
HETATM    9  C   UNL     1      -7.663   5.856  72.145  1.00  0.00    -0.102 C  
BRANCH   9  10
HETATM   10  C   UNL     1      -7.472   7.317  72.553  1.00  0.00    -0.083 C  
BRANCH  10  11
HETATM   11  N   UNL     1      -7.147   8.172  71.421  1.00  0.00    -0.062 N  
HETATM   12  C   UNL     1      -8.060   9.076  70.926  1.00  0.00    -0.169 C  
HETATM   13  H   UNL     1      -6.227   8.100  70.987  1.00  0.00     0.000 HD 
HETATM   14  O   UNL     1      -9.174   9.259  71.409  1.00  0.00    -0.282 OA 
BRANCH  12  15
HETATM   15  C   UNL     1      -7.549   9.843  69.725  1.00  0.00    -0.151 C  
BRANCH  15  16
HETATM   16  C   UNL     1      -8.700  10.553  69.015  1.00  0.00    -0.160 C  
BRANCH  16  17
HETATM   17  C   UNL     1      -8.353  10.932  67.588  1.00  0.00    -0.116 C  
HETATM   18  O   UNL     1      -7.387  11.649  67.338  1.00  0.00    -0.110 OA 
HETATM   19  N   UNL     1      -9.194  10.457  66.615  1.00  0.00    -0.154 N  
HETATM   20  O   UNL     1     -10.250   9.557  66.841  1.00  0.00    -0.225 OA 
BRANCH  19  21
HETATM   21  C   UNL     1      -9.057  10.782  65.203  1.00  0.00    -0.203 C  
BRANCH  21  22
HETATM   22  C   UNL     1     -10.381  10.661  64.444  1.00  0.00    -0.347 C  
BRANCH  22  23
HETATM   23  C   UNL     1     -10.643  11.850  63.501  1.00  0.00    -0.507 C  
BRANCH  23  24
HETATM   24  C   UNL     1     -12.117  12.253  63.431  1.00  0.00    -0.615 C  
BRANCH  24  25
HETATM   25  C   UNL     1     -12.659  12.635  64.807  1.00  0.00    -0.454 C  
BRANCH  25  26
HETATM   26  N   UNL     1     -11.726  13.469  65.538  1.00  0.00    -0.329 N  
HETATM   27  H   UNL     1     -11.286  14.255  65.060  1.00  0.00     0.000 HD 
HETATM   28  C   UNL     1     -11.419  13.230  66.856  1.00  0.00    -0.338 C  
HETATM   29  O   UNL     1     -11.915  12.320  67.513  1.00  0.00    -0.513 OA 
BRANCH  28  30
HETATM   30  C   UNL     1     -10.404  14.176  67.445  1.00  0.00    -0.256 C  
BRANCH  30  31
HETATM   31  C   UNL     1     -10.987  15.580  67.497  1.00  0.00    -0.316 C  
BRANCH  31  32
HETATM   32  C   UNL     1     -10.198  16.525  66.615  1.00  0.00    -0.300 C  
HETATM   33  N   UNL     1      -9.709  17.682  67.170  1.00  0.00    -0.282 N  
HETATM   34  O   UNL     1      -9.946  16.199  65.453  1.00  0.00    -0.482 OA 
HETATM   35  O   UNL     1     -10.335  18.229  68.306  1.00  0.00    -0.367 OA 
BRANCH  33  36
HETATM   36  C   UNL     1      -8.998  18.692  66.383  1.00  0.00    -0.279 C  
BRANCH  36  37
HETATM   37  C   UNL     1      -8.541  19.875  67.240  1.00  0.00    -0.384 C  
BRANCH  37  38
HETATM   38  C   UNL     1      -7.072  19.750  67.660  1.00  0.00    -0.287 C  
BRANCH  38  39
HETATM   39  C   UNL     1      -6.930  19.580  69.175  1.00  0.00    -0.392 C  
BRANCH  39  40
HETATM   40  C   UNL     1      -6.020  20.638  69.803  1.00  0.00    -0.242 C  
HETATM   41  N   UNL     1      -5.974  20.517  71.256  1.00  0.00    -0.615 NA 
HETATM   42  H2  UNL     1      -5.703  19.577  71.543  1.00  0.00     0.000 HD 
HETATM   43  H1  UNL     1      -5.367  21.223  71.675  1.00  0.00     0.000 HD 
ENDBRANCH  39  40
ENDBRANCH  38  39
ENDBRANCH  37  38
ENDBRANCH  36  37
ENDBRANCH  33  36
ENDBRANCH  31  32
ENDBRANCH  30  31
ENDBRANCH  28  30
ENDBRANCH  25  26
ENDBRANCH  24  25
ENDBRANCH  23  24
ENDBRANCH  22  23
ENDBRANCH  21  22
ENDBRANCH  19  21
ENDBRANCH  16  17
ENDBRANCH  15  16
ENDBRANCH  12  15
ENDBRANCH  10  11
ENDBRANCH   9  10
ENDBRANCH   8   9
ENDBRANCH   7   8
ENDBRANCH   6   7
ENDBRANCH   3   6
TORSDOF 23
ENDMDL
MODEL      128
REMARK 921   NORMALIZED FREE ENERGY PREDICTED BY IDOCK:   -4.62 KCAL/MOL
REMARK 922        TOTAL FREE ENERGY PREDICTED BY IDOCK:  -13.60 KCAL/MOL
REMARK 923 INTER-LIGAND FREE ENERGY PREDICTED BY IDOCK:  -11.67 KCAL/MOL
REMARK 924 INTRA-LIGAND FREE ENERGY PREDICTED BY IDOCK:   -1.92 KCAL/MOL
REMARK 927      BINDING AFFINITY PREDICTED BY RF-SCORE:    0.00 PKD
ROOT
HETATM    1  C   UNL     1      -8.693   3.930  71.104  1.00  0.00    -0.121 C  
HETATM    2  C   UNL     1      -9.947   4.217  71.888  1.00  0.00    -0.183 C  
HETATM    3  N   UNL     1     -10.576   5.407  71.635  1.00  0.00    -0.230 N  
HETATM    4  O   UNL     1     -10.347   3.416  72.734  1.00  0.00    -0.162 OA 
HETATM    5  O   UNL     1     -10.237   6.271  70.579  1.00  0.00    -0.184 OA 
ENDROOT
BRANCH   3   6
HETATM    6  C   UNL     1     -11.787   5.836  72.321  1.00  0.00    -0.153 C  
BRANCH   6   7
HETATM    7  C   UNL     1     -11.988   7.352  72.257  1.00  0.00    -0.277 C  
BRANCH   7   8
HETATM    8  C   UNL     1     -13.330   7.686  71.604  1.00  0.00    -0.400 C  
BRANCH   8   9
HETATM    9  C   UNL     1     -13.685   9.168  71.744  1.00  0.00    -0.465 C  
BRANCH   9  10
HETATM   10  C   UNL     1     -12.451  10.068  71.671  1.00  0.00    -0.418 C  
BRANCH  10  11
HETATM   11  N   UNL     1     -11.799  10.014  70.370  1.00  0.00    -0.337 N  
HETATM   12  C   UNL     1     -11.731  11.126  69.561  1.00  0.00    -0.335 C  
HETATM   13  H   UNL     1     -11.387   9.137  70.054  1.00  0.00     0.000 HD 
HETATM   14  O   UNL     1     -12.164  12.231  69.877  1.00  0.00    -0.250 OA 
BRANCH  12  15
HETATM   15  C   UNL     1     -11.049  10.859  68.236  1.00  0.00    -0.324 C  
BRANCH  15  16
HETATM   16  C   UNL     1     -10.000   9.761  68.387  1.00  0.00    -0.176 C  
BRANCH  16  17
HETATM   17  C   UNL     1      -8.853   9.918  67.407  1.00  0.00    -0.132 C  
HETATM   18  O   UNL     1      -8.029  10.822  67.533  1.00  0.00    -0.109 OA 
HETATM   19  N   UNL     1      -8.816   9.022  66.370  1.00  0.00    -0.139 N  
HETATM   20  O   UNL     1      -9.674   7.916  66.239  1.00  0.00    -0.188 OA 
BRANCH  19  21
HETATM   21  C   UNL     1      -7.832   9.069  65.299  1.00  0.00    -0.102 C  
BRANCH  21  22
HETATM   22  C   UNL     1      -8.359   9.786  64.052  1.00  0.00    -0.169 C  
BRANCH  22  23
HETATM   23  C   UNL     1      -9.619  10.627  64.330  1.00  0.00    -0.349 C  
BRANCH  23  24
HETATM   24  C   UNL     1     -10.098  11.419  63.113  1.00  0.00    -0.390 C  
BRANCH  24  25
HETATM   25  C   UNL     1     -11.551  11.862  63.269  1.00  0.00    -0.286 C  
BRANCH  25  26
HETATM   26  N   UNL     1     -11.773  12.533  64.535  1.00  0.00    -0.344 N  
HETATM   27  H   UNL     1     -11.519  12.055  65.400  1.00  0.00     0.000 HD 
HETATM   28  C   UNL     1     -12.316  13.794  64.602  1.00  0.00    -0.372 C  
HETATM   29  O   UNL     1     -12.632  14.449  63.614  1.00  0.00    -0.817 OA 
BRANCH  28  30
HETATM   30  C   UNL     1     -12.506  14.321  66.002  1.00  0.00    -0.392 C  
BRANCH  30  31
HETATM   31  C   UNL     1     -11.341  13.880  66.875  1.00  0.00    -0.343 C  
BRANCH  31  32
HETATM   32  C   UNL     1     -11.002  14.942  67.900  1.00  0.00    -0.286 C  
HETATM   33  N   UNL     1      -9.683  15.279  68.080  1.00  0.00    -0.210 N  
HETATM   34  O   UNL     1     -11.914  15.532  68.483  1.00  0.00    -0.319 OA 
HETATM   35  O   UNL     1      -8.676  14.350  67.753  1.00  0.00    -0.164 OA 
BRANCH  33  36
HETATM   36  C   UNL     1      -9.248  16.240  69.096  1.00  0.00    -0.235 C  
BRANCH  36  37
HETATM   37  C   UNL     1      -8.772  17.556  68.479  1.00  0.00    -0.282 C  
BRANCH  37  38
HETATM   38  C   UNL     1      -9.795  18.682  68.662  1.00  0.00    -0.427 C  
BRANCH  38  39
HETATM   39  C   UNL     1     -10.776  18.751  67.488  1.00  0.00    -0.474 C  
BRANCH  39  40
HETATM   40  C   UNL     1     -10.315  19.713  66.392  1.00  0.00    -0.504 C  
HETATM   41  N   UNL     1      -9.255  20.599  66.861  1.00  0.00    -0.622 NA 
HETATM   42  H2  UNL     1      -8.472  20.071  67.245  1.00  0.00     0.000 HD 
HETATM   43  H1  UNL     1      -8.947  21.241  66.130  1.00  0.00     0.000 HD 
ENDBRANCH  39  40
ENDBRANCH  38  39
ENDBRANCH  37  38
ENDBRANCH  36  37
ENDBRANCH  33  36
ENDBRANCH  31  32
ENDBRANCH  30  31
ENDBRANCH  28  30
ENDBRANCH  25  26
ENDBRANCH  24  25
ENDBRANCH  23  24
ENDBRANCH  22  23
ENDBRANCH  21  22
ENDBRANCH  19  21
ENDBRANCH  16  17
ENDBRANCH  15  16
ENDBRANCH  12  15
ENDBRANCH  10  11
ENDBRANCH   9  10
ENDBRANCH   8   9
ENDBRANCH   7   8
ENDBRANCH   6   7
ENDBRANCH   3   6
TORSDOF 23
ENDMDL
MODEL      129
REMARK 921   NORMALIZED FREE ENERGY PREDICTED BY IDOCK:   -4.62 KCAL/MOL
REMARK 922        TOTAL FREE ENERGY PREDICTED BY IDOCK:  -13.59 KCAL/MOL
REMARK 923 INTER-LIGAND FREE ENERGY PREDICTED BY IDOCK:  -11.59 KCAL/MOL
REMARK 924 INTRA-LIGAND FREE ENERGY PREDICTED BY IDOCK:   -2.01 KCAL/MOL
REMARK 927      BINDING AFFINITY PREDICTED BY RF-SCORE:    0.00 PKD
ROOT
HETATM    1  C   UNL     1     -13.067  11.073  71.834  1.00  0.00    -0.525 C  
HETATM    2  C   UNL     1     -13.193   9.584  72.023  1.00  0.00    -0.452 C  
HETATM    3  N   UNL     1     -12.141   8.815  71.599  1.00  0.00    -0.316 N  
HETATM    4  O   UNL     1     -14.218   9.104  72.508  1.00  0.00    -0.512 OA 
HETATM    5  O   UNL     1     -10.902   9.332  71.183  1.00  0.00    -0.280 OA 
ENDROOT
BRANCH   3   6
HETATM    6  C   UNL     1     -12.118   7.362  71.698  1.00  0.00    -0.317 C  
BRANCH   6   7
HETATM    7  C   UNL     1     -10.970   6.856  72.573  1.00  0.00    -0.294 C  
BRANCH   7   8
HETATM    8  C   UNL     1     -10.407   5.549  72.012  1.00  0.00    -0.265 C  
BRANCH   8   9
HETATM    9  C   UNL     1     -10.204   5.614  70.497  1.00  0.00    -0.297 C  
BRANCH   9  10
HETATM   10  C   UNL     1      -8.730   5.516  70.104  1.00  0.00    -0.129 C  
BRANCH  10  11
HETATM   11  N   UNL     1      -8.347   6.523  69.126  1.00  0.00    -0.118 N  
HETATM   12  C   UNL     1      -8.318   6.235  67.780  1.00  0.00    -0.117 C  
HETATM   13  H   UNL     1      -8.096   7.459  69.443  1.00  0.00     0.000 HD 
HETATM   14  O   UNL     1      -8.642   5.149  67.305  1.00  0.00    -0.106 OA 
BRANCH  12  15
HETATM   15  C   UNL     1      -7.859   7.399  66.929  1.00  0.00    -0.115 C  
BRANCH  15  16
HETATM   16  C   UNL     1      -8.973   7.844  65.985  1.00  0.00    -0.195 C  
BRANCH  16  17
HETATM   17  C   UNL     1      -9.930   8.822  66.638  1.00  0.00    -0.285 C  
HETATM   18  O   UNL     1     -10.600   8.498  67.617  1.00  0.00    -0.245 OA 
HETATM   19  N   UNL     1     -10.021  10.060  66.056  1.00  0.00    -0.258 N  
HETATM   20  O   UNL     1      -9.207  10.508  65.001  1.00  0.00    -0.179 OA 
BRANCH  19  21
HETATM   21  C   UNL     1     -10.940  11.095  66.504  1.00  0.00    -0.209 C  
BRANCH  21  22
HETATM   22  C   UNL     1     -10.466  11.781  67.788  1.00  0.00    -0.219 C  
BRANCH  22  23
HETATM   23  C   UNL     1     -11.626  12.172  68.723  1.00  0.00    -0.380 C  
BRANCH  23  24
HETATM   24  C   UNL     1     -11.827  13.684  68.837  1.00  0.00    -0.402 C  
BRANCH  24  25
HETATM   25  C   UNL     1     -10.513  14.440  68.658  1.00  0.00    -0.247 C  
BRANCH  25  26
HETATM   26  N   UNL     1     -10.701  15.674  67.921  1.00  0.00    -0.286 N  
HETATM   27  H   UNL     1     -10.843  15.631  66.912  1.00  0.00     0.000 HD 
HETATM   28  C   UNL     1     -10.694  16.899  68.544  1.00  0.00    -0.359 C  
HETATM   29  O   UNL     1     -10.550  17.043  69.754  1.00  0.00    -0.237 OA 
BRANCH  28  30
HETATM   30  C   UNL     1     -10.871  18.075  67.618  1.00  0.00    -0.257 C  
BRANCH  30  31
HETATM   31  C   UNL     1      -9.779  18.059  66.559  1.00  0.00    -0.338 C  
BRANCH  31  32
HETATM   32  C   UNL     1      -8.874  19.265  66.697  1.00  0.00    -0.334 C  
HETATM   33  N   UNL     1      -7.720  19.305  65.953  1.00  0.00    -0.272 N  
HETATM   34  O   UNL     1      -9.231  20.210  67.404  1.00  0.00    -0.342 OA 
HETATM   35  O   UNL     1      -7.134  18.104  65.512  1.00  0.00    -0.522 OA 
BRANCH  33  36
HETATM   36  C   UNL     1      -6.746  20.393  66.070  1.00  0.00    -0.242 C  
BRANCH  36  37
HETATM   37  C   UNL     1      -5.566  20.016  66.968  1.00  0.00    -0.181 C  
BRANCH  37  38
HETATM   38  C   UNL     1      -5.479  20.907  68.211  1.00  0.00    -0.355 C  
BRANCH  38  39
HETATM   39  C   UNL     1      -6.194  20.276  69.410  1.00  0.00    -0.355 C  
BRANCH  39  40
HETATM   40  C   UNL     1      -5.389  20.396  70.705  1.00  0.00    -0.275 C  
HETATM   41  N   UNL     1      -6.256  20.541  71.870  1.00  0.00    -0.769 NA 
HETATM   42  H2  UNL     1      -6.936  19.783  71.923  1.00  0.00     0.000 HD 
HETATM   43  H1  UNL     1      -5.719  20.622  72.734  1.00  0.00     0.000 HD 
ENDBRANCH  39  40
ENDBRANCH  38  39
ENDBRANCH  37  38
ENDBRANCH  36  37
ENDBRANCH  33  36
ENDBRANCH  31  32
ENDBRANCH  30  31
ENDBRANCH  28  30
ENDBRANCH  25  26
ENDBRANCH  24  25
ENDBRANCH  23  24
ENDBRANCH  22  23
ENDBRANCH  21  22
ENDBRANCH  19  21
ENDBRANCH  16  17
ENDBRANCH  15  16
ENDBRANCH  12  15
ENDBRANCH  10  11
ENDBRANCH   9  10
ENDBRANCH   8   9
ENDBRANCH   7   8
ENDBRANCH   6   7
ENDBRANCH   3   6
TORSDOF 23
ENDMDL
MODEL      130
REMARK 921   NORMALIZED FREE ENERGY PREDICTED BY IDOCK:   -4.62 KCAL/MOL
REMARK 922        TOTAL FREE ENERGY PREDICTED BY IDOCK:  -13.59 KCAL/MOL
REMARK 923 INTER-LIGAND FREE ENERGY PREDICTED BY IDOCK:  -10.22 KCAL/MOL
REMARK 924 INTRA-LIGAND FREE ENERGY PREDICTED BY IDOCK:   -3.37 KCAL/MOL
REMARK 927      BINDING AFFINITY PREDICTED BY RF-SCORE:    0.00 PKD
ROOT
HETATM    1  C   UNL     1      -8.193  10.101  68.930  1.00  0.00    -0.124 C  
HETATM    2  C   UNL     1      -8.408   9.239  67.714  1.00  0.00    -0.116 C  
HETATM    3  N   UNL     1      -9.523   8.443  67.709  1.00  0.00    -0.147 N  
HETATM    4  O   UNL     1      -7.587   9.245  66.795  1.00  0.00    -0.090 OA 
HETATM    5  O   UNL     1     -10.553   8.520  68.662  1.00  0.00    -0.198 OA 
ENDROOT
BRANCH   3   6
HETATM    6  C   UNL     1      -9.861   7.543  66.615  1.00  0.00    -0.204 C  
BRANCH   6   7
HETATM    7  C   UNL     1     -10.932   6.524  67.008  1.00  0.00    -0.466 C  
BRANCH   7   8
HETATM    8  C   UNL     1     -10.639   5.167  66.365  1.00  0.00    -0.336 C  
BRANCH   8   9
HETATM    9  C   UNL     1      -9.178   5.039  65.931  1.00  0.00    -0.159 C  
BRANCH   9  10
HETATM   10  C   UNL     1      -8.474   3.859  66.603  1.00  0.00    -0.105 C  
BRANCH  10  11
HETATM   11  N   UNL     1      -9.039   3.544  67.906  1.00  0.00    -0.141 N  
HETATM   12  C   UNL     1      -8.230   3.294  68.992  1.00  0.00    -0.059 C  
HETATM   13  H   UNL     1     -10.052   3.507  68.017  1.00  0.00     0.000 HD 
HETATM   14  O   UNL     1      -7.004   3.355  68.960  1.00  0.00    -0.044 OA 
BRANCH  12  15
HETATM   15  C   UNL     1      -9.004   2.948  70.246  1.00  0.00    -0.165 C  
BRANCH  15  16
HETATM   16  C   UNL     1      -9.925   4.100  70.641  1.00  0.00    -0.185 C  
BRANCH  16  17
HETATM   17  C   UNL     1      -9.871   4.400  72.126  1.00  0.00    -0.176 C  
HETATM   18  O   UNL     1     -10.714   3.947  72.898  1.00  0.00    -0.170 OA 
HETATM   19  N   UNL     1      -8.856   5.224  72.540  1.00  0.00    -0.127 N  
HETATM   20  O   UNL     1      -7.814   5.685  71.716  1.00  0.00    -0.105 OA 
BRANCH  19  21
HETATM   21  C   UNL     1      -8.695   5.676  73.914  1.00  0.00    -0.117 C  
BRANCH  21  22
HETATM   22  C   UNL     1      -9.022   7.162  74.083  1.00  0.00    -0.255 C  
BRANCH  22  23
HETATM   23  C   UNL     1     -10.393   7.546  73.495  1.00  0.00    -0.373 C  
BRANCH  23  24
HETATM   24  C   UNL     1     -10.294   8.496  72.301  1.00  0.00    -0.402 C  
BRANCH  24  25
HETATM   25  C   UNL     1     -11.672   8.839  71.741  1.00  0.00    -0.346 C  
BRANCH  25  26
HETATM   26  N   UNL     1     -11.659  10.096  71.019  1.00  0.00    -0.372 N  
HETATM   27  H   UNL     1     -10.985  10.226  70.264  1.00  0.00     0.000 HD 
HETATM   28  C   UNL     1     -12.529  11.116  71.322  1.00  0.00    -0.360 C  
HETATM   29  O   UNL     1     -13.384  11.039  72.198  1.00  0.00    -0.451 OA 
BRANCH  28  30
HETATM   30  C   UNL     1     -12.350  12.361  70.492  1.00  0.00    -0.346 C  
BRANCH  30  31
HETATM   31  C   UNL     1     -11.161  12.186  69.560  1.00  0.00    -0.201 C  
BRANCH  31  32
HETATM   32  C   UNL     1     -11.250  13.137  68.385  1.00  0.00    -0.271 C  
HETATM   33  N   UNL     1     -11.743  12.661  67.195  1.00  0.00    -0.366 N  
HETATM   34  O   UNL     1     -10.958  14.324  68.546  1.00  0.00    -0.236 OA 
HETATM   35  O   UNL     1     -11.663  11.285  66.908  1.00  0.00    -0.464 OA 
BRANCH  33  36
HETATM   36  C   UNL     1     -11.800  13.482  65.983  1.00  0.00    -0.379 C  
BRANCH  36  37
HETATM   37  C   UNL     1     -12.875  12.998  65.008  1.00  0.00    -0.365 C  
BRANCH  37  38
HETATM   38  C   UNL     1     -12.275  12.506  63.687  1.00  0.00    -0.642 C  
BRANCH  38  39
HETATM   39  C   UNL     1     -10.753  12.674  63.659  1.00  0.00    -0.410 C  
BRANCH  39  40
HETATM   40  C   UNL     1     -10.011  11.343  63.784  1.00  0.00    -0.341 C  
HETATM   41  N   UNL     1      -9.082  11.346  64.909  1.00  0.00    -0.407 NA 
HETATM   42  H2  UNL     1      -9.552  11.593  65.779  1.00  0.00     0.000 HD 
HETATM   43  H1  UNL     1      -8.587  10.458  64.993  1.00  0.00     0.000 HD 
ENDBRANCH  39  40
ENDBRANCH  38  39
ENDBRANCH  37  38
ENDBRANCH  36  37
ENDBRANCH  33  36
ENDBRANCH  31  32
ENDBRANCH  30  31
ENDBRANCH  28  30
ENDBRANCH  25  26
ENDBRANCH  24  25
ENDBRANCH  23  24
ENDBRANCH  22  23
ENDBRANCH  21  22
ENDBRANCH  19  21
ENDBRANCH  16  17
ENDBRANCH  15  16
ENDBRANCH  12  15
ENDBRANCH  10  11
ENDBRANCH   9  10
ENDBRANCH   8   9
ENDBRANCH   7   8
ENDBRANCH   6   7
ENDBRANCH   3   6
TORSDOF 23
ENDMDL
MODEL      131
REMARK 921   NORMALIZED FREE ENERGY PREDICTED BY IDOCK:   -4.62 KCAL/MOL
REMARK 922        TOTAL FREE ENERGY PREDICTED BY IDOCK:  -13.58 KCAL/MOL
REMARK 923 INTER-LIGAND FREE ENERGY PREDICTED BY IDOCK:  -11.17 KCAL/MOL
REMARK 924 INTRA-LIGAND FREE ENERGY PREDICTED BY IDOCK:   -2.41 KCAL/MOL
REMARK 927      BINDING AFFINITY PREDICTED BY RF-SCORE:    0.00 PKD
ROOT
HETATM    1  C   UNL     1     -12.162  12.800  70.499  1.00  0.00    -0.389 C  
HETATM    2  C   UNL     1     -11.707  13.211  69.123  1.00  0.00    -0.325 C  
HETATM    3  N   UNL     1     -11.755  12.253  68.144  1.00  0.00    -0.339 N  
HETATM    4  O   UNL     1     -11.286  14.350  68.922  1.00  0.00    -0.238 OA 
HETATM    5  O   UNL     1     -12.366  10.997  68.297  1.00  0.00    -0.479 OA 
ENDROOT
BRANCH   3   6
HETATM    6  C   UNL     1     -11.335  12.489  66.770  1.00  0.00    -0.334 C  
BRANCH   6   7
HETATM    7  C   UNL     1     -12.339  13.343  65.992  1.00  0.00    -0.471 C  
BRANCH   7   8
HETATM    8  C   UNL     1     -11.736  13.799  64.663  1.00  0.00    -0.417 C  
BRANCH   8   9
HETATM    9  C   UNL     1     -11.579  15.320  64.593  1.00  0.00    -0.333 C  
BRANCH   9  10
HETATM   10  C   UNL     1     -10.443  15.827  65.481  1.00  0.00    -0.403 C  
BRANCH  10  11
HETATM   11  N   UNL     1     -10.532  17.257  65.736  1.00  0.00    -0.306 N  
HETATM   12  C   UNL     1     -10.451  17.759  67.015  1.00  0.00    -0.322 C  
HETATM   13  H   UNL     1     -10.657  17.898  64.953  1.00  0.00     0.000 HD 
HETATM   14  O   UNL     1     -10.262  17.067  68.012  1.00  0.00    -0.288 OA 
BRANCH  12  15
HETATM   15  C   UNL     1     -10.604  19.264  67.077  1.00  0.00    -0.571 C  
BRANCH  15  16
HETATM   16  C   UNL     1      -9.353  19.951  66.537  1.00  0.00    -0.501 C  
BRANCH  16  17
HETATM   17  C   UNL     1      -8.107  19.103  66.710  1.00  0.00    -0.273 C  
HETATM   18  O   UNL     1      -7.609  18.504  65.759  1.00  0.00    -0.488 OA 
HETATM   19  N   UNL     1      -7.602  19.023  67.982  1.00  0.00    -0.263 N  
HETATM   20  O   UNL     1      -8.075  19.766  69.078  1.00  0.00    -0.260 OA 
BRANCH  19  21
HETATM   21  C   UNL     1      -6.459  18.199  68.345  1.00  0.00    -0.208 C  
BRANCH  21  22
HETATM   22  C   UNL     1      -6.875  16.832  68.895  1.00  0.00    -0.198 C  
BRANCH  22  23
HETATM   23  C   UNL     1      -6.726  15.698  67.863  1.00  0.00    -0.167 C  
BRANCH  23  24
HETATM   24  C   UNL     1      -7.741  14.570  68.053  1.00  0.00    -0.138 C  
BRANCH  24  25
HETATM   25  C   UNL     1      -7.169  13.222  67.621  1.00  0.00    -0.162 C  
BRANCH  25  26
HETATM   26  N   UNL     1      -8.034  12.125  68.006  1.00  0.00    -0.141 N  
HETATM   27  H   UNL     1      -9.008  12.133  67.704  1.00  0.00     0.000 HD 
HETATM   28  C   UNL     1      -7.579  11.075  68.768  1.00  0.00    -0.127 C  
HETATM   29  O   UNL     1      -6.420  10.973  69.158  1.00  0.00    -0.053 OA 
BRANCH  28  30
HETATM   30  C   UNL     1      -8.625  10.042  69.102  1.00  0.00    -0.158 C  
BRANCH  30  31
HETATM   31  C   UNL     1      -8.590   8.929  68.067  1.00  0.00    -0.130 C  
BRANCH  31  32
HETATM   32  C   UNL     1      -9.724   7.950  68.287  1.00  0.00    -0.160 C  
HETATM   33  N   UNL     1      -9.516   6.888  69.133  1.00  0.00    -0.142 N  
HETATM   34  O   UNL     1     -10.823   8.172  67.774  1.00  0.00    -0.143 OA 
HETATM   35  O   UNL     1      -8.206   6.421  69.355  1.00  0.00    -0.115 OA 
BRANCH  33  36
HETATM   36  C   UNL     1     -10.524   5.849  69.354  1.00  0.00    -0.275 C  
BRANCH  36  37
HETATM   37  C   UNL     1     -11.387   6.135  70.585  1.00  0.00    -0.368 C  
BRANCH  37  38
HETATM   38  C   UNL     1     -10.691   7.080  71.570  1.00  0.00    -0.244 C  
BRANCH  38  39
HETATM   39  C   UNL     1     -11.328   8.473  71.564  1.00  0.00    -0.348 C  
BRANCH  39  40
HETATM   40  C   UNL     1     -12.856   8.420  71.522  1.00  0.00    -0.303 C  
HETATM   41  N   UNL     1     -13.416   9.551  70.789  1.00  0.00    -0.588 NA 
HETATM   42  H2  UNL     1     -13.020   9.618  69.851  1.00  0.00     0.000 HD 
HETATM   43  H1  UNL     1     -14.435   9.516  70.761  1.00  0.00     0.000 HD 
ENDBRANCH  39  40
ENDBRANCH  38  39
ENDBRANCH  37  38
ENDBRANCH  36  37
ENDBRANCH  33  36
ENDBRANCH  31  32
ENDBRANCH  30  31
ENDBRANCH  28  30
ENDBRANCH  25  26
ENDBRANCH  24  25
ENDBRANCH  23  24
ENDBRANCH  22  23
ENDBRANCH  21  22
ENDBRANCH  19  21
ENDBRANCH  16  17
ENDBRANCH  15  16
ENDBRANCH  12  15
ENDBRANCH  10  11
ENDBRANCH   9  10
ENDBRANCH   8   9
ENDBRANCH   7   8
ENDBRANCH   6   7
ENDBRANCH   3   6
TORSDOF 23
ENDMDL
MODEL      132
REMARK 921   NORMALIZED FREE ENERGY PREDICTED BY IDOCK:   -4.62 KCAL/MOL
REMARK 922        TOTAL FREE ENERGY PREDICTED BY IDOCK:  -13.58 KCAL/MOL
REMARK 923 INTER-LIGAND FREE ENERGY PREDICTED BY IDOCK:  -10.96 KCAL/MOL
REMARK 924 INTRA-LIGAND FREE ENERGY PREDICTED BY IDOCK:   -2.61 KCAL/MOL
REMARK 927      BINDING AFFINITY PREDICTED BY RF-SCORE:    0.00 PKD
ROOT
HETATM    1  C   UNL     1      -7.928  11.705  66.964  1.00  0.00    -0.164 C  
HETATM    2  C   UNL     1      -8.492  13.051  67.337  1.00  0.00    -0.200 C  
HETATM    3  N   UNL     1      -7.591  14.057  67.568  1.00  0.00    -0.178 N  
HETATM    4  O   UNL     1      -9.708  13.204  67.453  1.00  0.00    -0.212 OA 
HETATM    5  O   UNL     1      -6.215  13.962  67.300  1.00  0.00    -0.307 OA 
ENDROOT
BRANCH   3   6
HETATM    6  C   UNL     1      -7.978  15.408  67.952  1.00  0.00    -0.135 C  
BRANCH   6   7
HETATM    7  C   UNL     1      -7.987  16.372  66.764  1.00  0.00    -0.295 C  
BRANCH   7   8
HETATM    8  C   UNL     1      -9.288  17.177  66.740  1.00  0.00    -0.268 C  
BRANCH   8   9
HETATM    9  C   UNL     1     -10.164  16.819  65.537  1.00  0.00    -0.188 C  
BRANCH   9  10
HETATM   10  C   UNL     1     -11.133  15.677  65.845  1.00  0.00    -0.155 C  
BRANCH  10  11
HETATM   11  N   UNL     1     -11.015  14.578  64.898  1.00  0.00    -0.395 N  
HETATM   12  C   UNL     1     -12.069  13.723  64.664  1.00  0.00    -0.421 C  
HETATM   13  H   UNL     1     -10.137  14.439  64.399  1.00  0.00     0.000 HD 
HETATM   14  O   UNL     1     -13.173  13.838  65.189  1.00  0.00    -0.757 OA 
BRANCH  12  15
HETATM   15  C   UNL     1     -11.738  12.624  63.677  1.00  0.00    -0.597 C  
BRANCH  15  16
HETATM   16  C   UNL     1     -11.142  11.419  64.399  1.00  0.00    -0.329 C  
BRANCH  16  17
HETATM   17  C   UNL     1      -9.862  10.930  63.749  1.00  0.00    -0.337 C  
HETATM   18  O   UNL     1      -9.354  11.538  62.808  1.00  0.00    -0.374 OA 
HETATM   19  N   UNL     1      -9.334   9.768  64.251  1.00  0.00    -0.244 N  
HETATM   20  O   UNL     1      -9.820   9.094  65.384  1.00  0.00    -0.156 OA 
BRANCH  19  21
HETATM   21  C   UNL     1      -8.154   9.116  63.702  1.00  0.00    -0.160 C  
BRANCH  21  22
HETATM   22  C   UNL     1      -7.662   7.963  64.580  1.00  0.00    -0.120 C  
BRANCH  22  23
HETATM   23  C   UNL     1      -6.498   8.367  65.505  1.00  0.00    -0.049 C  
BRANCH  23  24
HETATM   24  C   UNL     1      -6.822   8.202  66.991  1.00  0.00    -0.070 C  
BRANCH  24  25
HETATM   25  C   UNL     1      -6.471   6.801  67.489  1.00  0.00    -0.046 C  
BRANCH  25  26
HETATM   26  N   UNL     1      -7.655   5.986  67.671  1.00  0.00    -0.089 N  
HETATM   27  H   UNL     1      -8.100   5.569  66.854  1.00  0.00     0.000 HD 
HETATM   28  C   UNL     1      -8.195   5.759  68.915  1.00  0.00    -0.101 C  
HETATM   29  O   UNL     1      -7.714   6.204  69.953  1.00  0.00    -0.095 OA 
BRANCH  28  30
HETATM   30  C   UNL     1      -9.445   4.917  68.913  1.00  0.00    -0.202 C  
BRANCH  30  31
HETATM   31  C   UNL     1     -10.118   5.001  70.274  1.00  0.00    -0.339 C  
BRANCH  31  32
HETATM   32  C   UNL     1     -11.269   5.985  70.247  1.00  0.00    -0.322 C  
HETATM   33  N   UNL     1     -11.764   6.446  71.443  1.00  0.00    -0.317 N  
HETATM   34  O   UNL     1     -11.677   6.408  69.163  1.00  0.00    -0.217 OA 
HETATM   35  O   UNL     1     -11.601   5.672  72.608  1.00  0.00    -0.307 OA 
BRANCH  33  36
HETATM   36  C   UNL     1     -12.920   7.341  71.524  1.00  0.00    -0.389 C  
BRANCH  36  37
HETATM   37  C   UNL     1     -12.557   8.700  72.126  1.00  0.00    -0.451 C  
BRANCH  37  38
HETATM   38  C   UNL     1     -13.473   9.819  71.619  1.00  0.00    -0.436 C  
BRANCH  38  39
HETATM   39  C   UNL     1     -12.757  11.173  71.605  1.00  0.00    -0.466 C  
BRANCH  39  40
HETATM   40  C   UNL     1     -12.120  11.487  70.250  1.00  0.00    -0.359 C  
HETATM   41  N   UNL     1     -12.434  10.467  69.255  1.00  0.00    -0.717 NA 
HETATM   42  H2  UNL     1     -13.441  10.329  69.169  1.00  0.00     0.000 HD 
HETATM   43  H1  UNL     1     -12.009  10.677  68.351  1.00  0.00     0.000 HD 
ENDBRANCH  39  40
ENDBRANCH  38  39
ENDBRANCH  37  38
ENDBRANCH  36  37
ENDBRANCH  33  36
ENDBRANCH  31  32
ENDBRANCH  30  31
ENDBRANCH  28  30
ENDBRANCH  25  26
ENDBRANCH  24  25
ENDBRANCH  23  24
ENDBRANCH  22  23
ENDBRANCH  21  22
ENDBRANCH  19  21
ENDBRANCH  16  17
ENDBRANCH  15  16
ENDBRANCH  12  15
ENDBRANCH  10  11
ENDBRANCH   9  10
ENDBRANCH   8   9
ENDBRANCH   7   8
ENDBRANCH   6   7
ENDBRANCH   3   6
TORSDOF 23
ENDMDL
MODEL      133
REMARK 921   NORMALIZED FREE ENERGY PREDICTED BY IDOCK:   -4.61 KCAL/MOL
REMARK 922        TOTAL FREE ENERGY PREDICTED BY IDOCK:  -13.57 KCAL/MOL
REMARK 923 INTER-LIGAND FREE ENERGY PREDICTED BY IDOCK:  -10.68 KCAL/MOL
REMARK 924 INTRA-LIGAND FREE ENERGY PREDICTED BY IDOCK:   -2.89 KCAL/MOL
REMARK 927      BINDING AFFINITY PREDICTED BY RF-SCORE:    0.00 PKD
ROOT
HETATM    1  C   UNL     1      -5.908  19.749  70.352  1.00  0.00    -0.327 C  
HETATM    2  C   UNL     1      -6.154  20.396  69.014  1.00  0.00    -0.341 C  
HETATM    3  N   UNL     1      -7.327  20.080  68.380  1.00  0.00    -0.285 N  
HETATM    4  O   UNL     1      -5.310  21.145  68.522  1.00  0.00    -0.312 OA 
HETATM    5  O   UNL     1      -8.375  19.355  68.973  1.00  0.00    -0.348 OA 
ENDROOT
BRANCH   3   6
HETATM    6  C   UNL     1      -7.702  20.610  67.077  1.00  0.00    -0.265 C  
BRANCH   6   7
HETATM    7  C   UNL     1      -7.206  19.733  65.925  1.00  0.00    -0.320 C  
BRANCH   7   8
HETATM    8  C   UNL     1      -7.948  18.396  65.914  1.00  0.00    -0.040 C  
BRANCH   8   9
HETATM    9  C   UNL     1      -7.042  17.231  66.318  1.00  0.00    -0.311 C  
BRANCH   9  10
HETATM   10  C   UNL     1      -7.825  16.082  66.956  1.00  0.00    -0.228 C  
BRANCH  10  11
HETATM   11  N   UNL     1      -8.794  15.496  66.042  1.00  0.00    -0.419 N  
HETATM   12  C   UNL     1     -10.147  15.659  66.238  1.00  0.00    -0.299 C  
HETATM   13  H   UNL     1      -8.465  14.954  65.243  1.00  0.00     0.000 HD 
HETATM   14  O   UNL     1     -10.631  16.326  67.148  1.00  0.00    -0.312 OA 
BRANCH  12  15
HETATM   15  C   UNL     1     -10.990  14.943  65.205  1.00  0.00    -0.410 C  
BRANCH  15  16
HETATM   16  C   UNL     1     -12.042  14.070  65.885  1.00  0.00    -0.448 C  
BRANCH  16  17
HETATM   17  C   UNL     1     -11.430  12.883  66.604  1.00  0.00    -0.343 C  
HETATM   18  O   UNL     1     -10.802  12.022  65.991  1.00  0.00    -0.268 OA 
HETATM   19  N   UNL     1     -11.648  12.817  67.957  1.00  0.00    -0.320 N  
HETATM   20  O   UNL     1     -12.272  13.823  68.715  1.00  0.00    -0.350 OA 
BRANCH  19  21
HETATM   21  C   UNL     1     -11.200  11.713  68.792  1.00  0.00    -0.245 C  
BRANCH  21  22
HETATM   22  C   UNL     1     -12.365  10.900  69.362  1.00  0.00    -0.188 C  
BRANCH  22  23
HETATM   23  C   UNL     1     -12.299  10.747  70.894  1.00  0.00    -0.497 C  
BRANCH  23  24
HETATM   24  C   UNL     1     -13.311   9.743  71.446  1.00  0.00    -0.449 C  
BRANCH  24  25
HETATM   25  C   UNL     1     -12.625   8.480  71.962  1.00  0.00    -0.364 C  
BRANCH  25  26
HETATM   26  N   UNL     1     -11.223   8.712  72.246  1.00  0.00    -0.357 N  
HETATM   27  H   UNL     1     -10.791   9.581  71.934  1.00  0.00     0.000 HD 
HETATM   28  C   UNL     1     -10.459   7.792  72.925  1.00  0.00    -0.350 C  
HETATM   29  O   UNL     1     -10.900   6.730  73.354  1.00  0.00    -0.291 OA 
BRANCH  28  30
HETATM   30  C   UNL     1      -9.014   8.184  73.101  1.00  0.00    -0.330 C  
BRANCH  30  31
HETATM   31  C   UNL     1      -8.480   8.760  71.799  1.00  0.00    -0.178 C  
BRANCH  31  32
HETATM   32  C   UNL     1      -8.161   7.657  70.811  1.00  0.00    -0.109 C  
HETATM   33  N   UNL     1      -8.675   7.749  69.541  1.00  0.00    -0.135 N  
HETATM   34  O   UNL     1      -7.389   6.754  71.142  1.00  0.00    -0.076 OA 
HETATM   35  O   UNL     1      -9.842   8.503  69.314  1.00  0.00    -0.178 OA 
BRANCH  33  36
HETATM   36  C   UNL     1      -8.484   6.700  68.537  1.00  0.00    -0.122 C  
BRANCH  36  37
HETATM   37  C   UNL     1      -9.813   6.147  68.020  1.00  0.00    -0.134 C  
BRANCH  37  38
HETATM   38  C   UNL     1     -10.412   5.103  68.968  1.00  0.00    -0.149 C  
BRANCH  38  39
HETATM   39  C   UNL     1      -9.413   3.984  69.281  1.00  0.00    -0.260 C  
BRANCH  39  40
HETATM   40  C   UNL     1      -9.477   3.529  70.740  1.00  0.00    -0.170 C  
HETATM   41  N   UNL     1      -9.652   4.656  71.651  1.00  0.00    -0.153 NA 
HETATM   42  H2  UNL     1     -10.467   5.215  71.399  1.00  0.00     0.000 HD 
HETATM   43  H1  UNL     1      -9.694   4.353  72.624  1.00  0.00     0.000 HD 
ENDBRANCH  39  40
ENDBRANCH  38  39
ENDBRANCH  37  38
ENDBRANCH  36  37
ENDBRANCH  33  36
ENDBRANCH  31  32
ENDBRANCH  30  31
ENDBRANCH  28  30
ENDBRANCH  25  26
ENDBRANCH  24  25
ENDBRANCH  23  24
ENDBRANCH  22  23
ENDBRANCH  21  22
ENDBRANCH  19  21
ENDBRANCH  16  17
ENDBRANCH  15  16
ENDBRANCH  12  15
ENDBRANCH  10  11
ENDBRANCH   9  10
ENDBRANCH   8   9
ENDBRANCH   7   8
ENDBRANCH   6   7
ENDBRANCH   3   6
TORSDOF 23
ENDMDL
MODEL      134
REMARK 921   NORMALIZED FREE ENERGY PREDICTED BY IDOCK:   -4.61 KCAL/MOL
REMARK 922        TOTAL FREE ENERGY PREDICTED BY IDOCK:  -13.57 KCAL/MOL
REMARK 923 INTER-LIGAND FREE ENERGY PREDICTED BY IDOCK:  -11.24 KCAL/MOL
REMARK 924 INTRA-LIGAND FREE ENERGY PREDICTED BY IDOCK:   -2.33 KCAL/MOL
REMARK 927      BINDING AFFINITY PREDICTED BY RF-SCORE:    0.00 PKD
ROOT
HETATM    1  C   UNL     1     -10.717   5.118  66.124  1.00  0.00    -0.247 C  
HETATM    2  C   UNL     1      -9.669   5.126  67.207  1.00  0.00    -0.155 C  
HETATM    3  N   UNL     1     -10.012   5.717  68.395  1.00  0.00    -0.146 N  
HETATM    4  O   UNL     1      -8.555   4.647  66.996  1.00  0.00    -0.105 OA 
HETATM    5  O   UNL     1     -11.313   6.135  68.722  1.00  0.00    -0.344 OA 
ENDROOT
BRANCH   3   6
HETATM    6  C   UNL     1      -9.107   5.818  69.531  1.00  0.00    -0.130 C  
BRANCH   6   7
HETATM    7  C   UNL     1      -9.204   4.610  70.464  1.00  0.00    -0.193 C  
BRANCH   7   8
HETATM    8  C   UNL     1      -7.895   4.423  71.234  1.00  0.00    -0.080 C  
BRANCH   8   9
HETATM    9  C   UNL     1      -7.729   5.460  72.347  1.00  0.00    -0.102 C  
BRANCH   9  10
HETATM   10  C   UNL     1      -6.440   6.269  72.198  1.00  0.00    -0.054 C  
BRANCH  10  11
HETATM   11  N   UNL     1      -6.548   7.304  71.180  1.00  0.00    -0.043 N  
HETATM   12  C   UNL     1      -7.068   8.544  71.477  1.00  0.00    -0.092 C  
HETATM   13  H   UNL     1      -6.233   7.107  70.231  1.00  0.00     0.000 HD 
HETATM   14  O   UNL     1      -7.434   8.881  72.600  1.00  0.00    -0.354 OA 
BRANCH  12  15
HETATM   15  C   UNL     1      -7.132   9.467  70.279  1.00  0.00    -0.097 C  
BRANCH  15  16
HETATM   16  C   UNL     1      -8.581   9.686  69.850  1.00  0.00    -0.218 C  
BRANCH  16  17
HETATM   17  C   UNL     1      -8.812   9.334  68.393  1.00  0.00    -0.129 C  
HETATM   18  O   UNL     1      -7.945   8.768  67.730  1.00  0.00    -0.105 OA 
HETATM   19  N   UNL     1     -10.019   9.712  67.864  1.00  0.00    -0.158 N  
HETATM   20  O   UNL     1     -11.076  10.270  68.604  1.00  0.00    -0.243 OA 
BRANCH  19  21
HETATM   21  C   UNL     1     -10.382   9.523  66.468  1.00  0.00    -0.193 C  
BRANCH  21  22
HETATM   22  C   UNL     1     -10.017  10.730  65.599  1.00  0.00    -0.317 C  
BRANCH  22  23
HETATM   23  C   UNL     1     -11.153  11.766  65.504  1.00  0.00    -0.336 C  
BRANCH  23  24
HETATM   24  C   UNL     1     -11.759  11.872  64.104  1.00  0.00    -0.428 C  
BRANCH  24  25
HETATM   25  C   UNL     1     -12.065  13.321  63.734  1.00  0.00    -0.482 C  
BRANCH  25  26
HETATM   26  N   UNL     1     -11.187  14.247  64.421  1.00  0.00    -0.593 N  
HETATM   27  H   UNL     1     -10.371  13.882  64.914  1.00  0.00     0.000 HD 
HETATM   28  C   UNL     1     -11.422  15.601  64.428  1.00  0.00    -0.262 C  
HETATM   29  O   UNL     1     -12.366  16.128  63.847  1.00  0.00    -0.895 OA 
BRANCH  28  30
HETATM   30  C   UNL     1     -10.425  16.407  65.221  1.00  0.00    -0.285 C  
BRANCH  30  31
HETATM   31  C   UNL     1     -10.041  15.646  66.480  1.00  0.00    -0.293 C  
BRANCH  31  32
HETATM   32  C   UNL     1     -10.802  16.167  67.681  1.00  0.00    -0.297 C  
HETATM   33  N   UNL     1     -11.656  15.312  68.334  1.00  0.00    -0.344 N  
HETATM   34  O   UNL     1     -10.579  17.308  68.089  1.00  0.00    -0.363 OA 
HETATM   35  O   UNL     1     -12.208  14.216  67.644  1.00  0.00    -0.351 OA 
BRANCH  33  36
HETATM   36  C   UNL     1     -12.490  15.741  69.459  1.00  0.00     0.074 C  
BRANCH  36  37
HETATM   37  C   UNL     1     -12.041  15.117  70.782  1.00  0.00    -0.387 C  
BRANCH  37  38
HETATM   38  C   UNL     1     -12.886  13.895  71.159  1.00  0.00    -0.423 C  
BRANCH  38  39
HETATM   39  C   UNL     1     -13.840  14.203  72.317  1.00  0.00    -0.643 C  
BRANCH  39  40
HETATM   40  C   UNL     1     -13.818  15.678  72.721  1.00  0.00    -0.545 C  
HETATM   41  N   UNL     1     -13.114  15.883  73.982  1.00  0.00    -0.877 NA 
HETATM   42  H2  UNL     1     -12.172  15.492  73.950  1.00  0.00     0.000 HD 
HETATM   43  H1  UNL     1     -13.099  16.867  74.251  1.00  0.00     0.000 HD 
ENDBRANCH  39  40
ENDBRANCH  38  39
ENDBRANCH  37  38
ENDBRANCH  36  37
ENDBRANCH  33  36
ENDBRANCH  31  32
ENDBRANCH  30  31
ENDBRANCH  28  30
ENDBRANCH  25  26
ENDBRANCH  24  25
ENDBRANCH  23  24
ENDBRANCH  22  23
ENDBRANCH  21  22
ENDBRANCH  19  21
ENDBRANCH  16  17
ENDBRANCH  15  16
ENDBRANCH  12  15
ENDBRANCH  10  11
ENDBRANCH   9  10
ENDBRANCH   8   9
ENDBRANCH   7   8
ENDBRANCH   6   7
ENDBRANCH   3   6
TORSDOF 23
ENDMDL
MODEL      135
REMARK 921   NORMALIZED FREE ENERGY PREDICTED BY IDOCK:   -4.60 KCAL/MOL
REMARK 922        TOTAL FREE ENERGY PREDICTED BY IDOCK:  -13.53 KCAL/MOL
REMARK 923 INTER-LIGAND FREE ENERGY PREDICTED BY IDOCK:  -10.36 KCAL/MOL
REMARK 924 INTRA-LIGAND FREE ENERGY PREDICTED BY IDOCK:   -3.17 KCAL/MOL
REMARK 927      BINDING AFFINITY PREDICTED BY RF-SCORE:    0.00 PKD
ROOT
HETATM    1  C   UNL     1     -12.360  14.350  64.459  1.00  0.00    -0.440 C  
HETATM    2  C   UNL     1     -11.521  15.564  64.760  1.00  0.00    -0.313 C  
HETATM    3  N   UNL     1     -10.903  15.601  65.982  1.00  0.00    -0.305 N  
HETATM    4  O   UNL     1     -11.437  16.480  63.941  1.00  0.00    -1.145 OA 
HETATM    5  O   UNL     1     -10.851  14.517  66.875  1.00  0.00    -0.294 OA 
ENDROOT
BRANCH   3   6
HETATM    6  C   UNL     1     -10.071  16.711  66.427  1.00  0.00    -0.315 C  
BRANCH   6   7
HETATM    7  C   UNL     1     -10.651  17.420  67.653  1.00  0.00    -0.350 C  
BRANCH   7   8
HETATM    8  C   UNL     1      -9.733  17.233  68.862  1.00  0.00    -0.251 C  
BRANCH   8   9
HETATM    9  C   UNL     1      -8.273  17.033  68.451  1.00  0.00    -0.250 C  
BRANCH   9  10
HETATM   10  C   UNL     1      -7.610  15.883  69.210  1.00  0.00    -0.221 C  
BRANCH  10  11
HETATM   11  N   UNL     1      -8.206  14.593  68.895  1.00  0.00    -0.194 N  
HETATM   12  C   UNL     1      -7.582  13.708  68.045  1.00  0.00    -0.139 C  
HETATM   13  H   UNL     1      -9.102  14.340  69.312  1.00  0.00     0.000 HD 
HETATM   14  O   UNL     1      -6.486  13.912  67.530  1.00  0.00    -0.244 OA 
BRANCH  12  15
HETATM   15  C   UNL     1      -8.376  12.441  67.814  1.00  0.00    -0.164 C  
BRANCH  15  16
HETATM   16  C   UNL     1      -7.440  11.244  67.661  1.00  0.00    -0.101 C  
BRANCH  16  17
HETATM   17  C   UNL     1      -8.164  10.003  67.176  1.00  0.00    -0.117 C  
HETATM   18  O   UNL     1      -9.310   9.751  67.541  1.00  0.00    -0.133 OA 
HETATM   19  N   UNL     1      -7.454   9.177  66.343  1.00  0.00    -0.092 N  
HETATM   20  O   UNL     1      -6.182   9.469  65.820  1.00  0.00    -0.061 OA 
BRANCH  19  21
HETATM   21  C   UNL     1      -7.963   7.909  65.841  1.00  0.00    -0.106 C  
BRANCH  21  22
HETATM   22  C   UNL     1      -7.594   6.731  66.747  1.00  0.00    -0.090 C  
BRANCH  22  23
HETATM   23  C   UNL     1      -7.739   5.366  66.047  1.00  0.00    -0.091 C  
BRANCH  23  24
HETATM   24  C   UNL     1      -9.189   5.008  65.717  1.00  0.00    -0.159 C  
BRANCH  24  25
HETATM   25  C   UNL     1      -9.774   4.037  66.741  1.00  0.00    -0.190 C  
BRANCH  25  26
HETATM   26  N   UNL     1     -10.213   4.724  67.939  1.00  0.00    -0.057 N  
HETATM   27  H   UNL     1     -11.030   5.333  67.890  1.00  0.00     0.000 HD 
HETATM   28  C   UNL     1      -9.559   4.578  69.140  1.00  0.00    -0.180 C  
HETATM   29  O   UNL     1      -8.582   3.852  69.295  1.00  0.00    -0.074 OA 
BRANCH  28  30
HETATM   30  C   UNL     1     -10.133   5.393  70.270  1.00  0.00    -0.318 C  
BRANCH  30  31
HETATM   31  C   UNL     1     -11.044   6.473  69.708  1.00  0.00    -0.430 C  
BRANCH  31  32
HETATM   32  C   UNL     1     -11.081   7.679  70.623  1.00  0.00    -0.257 C  
HETATM   33  N   UNL     1     -12.159   7.831  71.461  1.00  0.00    -0.299 N  
HETATM   34  O   UNL     1     -10.115   8.445  70.654  1.00  0.00    -0.188 OA 
HETATM   35  O   UNL     1     -13.390   7.233  71.128  1.00  0.00    -0.331 OA 
BRANCH  33  36
HETATM   36  C   UNL     1     -12.322   8.999  72.329  1.00  0.00    -0.332 C  
BRANCH  36  37
HETATM   37  C   UNL     1     -13.350   9.989  71.778  1.00  0.00    -0.492 C  
BRANCH  37  38
HETATM   38  C   UNL     1     -12.747  11.380  71.551  1.00  0.00    -0.462 C  
BRANCH  38  39
HETATM   39  C   UNL     1     -11.890  11.424  70.283  1.00  0.00    -0.438 C  
BRANCH  39  40
HETATM   40  C   UNL     1     -12.018  12.751  69.532  1.00  0.00    -0.276 C  
HETATM   41  N   UNL     1     -11.044  13.732  69.998  1.00  0.00    -0.463 NA 
HETATM   42  H2  UNL     1     -10.094  13.366  69.946  1.00  0.00     0.000 HD 
HETATM   43  H1  UNL     1     -11.130  14.617  69.498  1.00  0.00     0.000 HD 
ENDBRANCH  39  40
ENDBRANCH  38  39
ENDBRANCH  37  38
ENDBRANCH  36  37
ENDBRANCH  33  36
ENDBRANCH  31  32
ENDBRANCH  30  31
ENDBRANCH  28  30
ENDBRANCH  25  26
ENDBRANCH  24  25
ENDBRANCH  23  24
ENDBRANCH  22  23
ENDBRANCH  21  22
ENDBRANCH  19  21
ENDBRANCH  16  17
ENDBRANCH  15  16
ENDBRANCH  12  15
ENDBRANCH  10  11
ENDBRANCH   9  10
ENDBRANCH   8   9
ENDBRANCH   7   8
ENDBRANCH   6   7
ENDBRANCH   3   6
TORSDOF 23
ENDMDL
MODEL      136
REMARK 921   NORMALIZED FREE ENERGY PREDICTED BY IDOCK:   -4.59 KCAL/MOL
REMARK 922        TOTAL FREE ENERGY PREDICTED BY IDOCK:  -13.51 KCAL/MOL
REMARK 923 INTER-LIGAND FREE ENERGY PREDICTED BY IDOCK:  -10.68 KCAL/MOL
REMARK 924 INTRA-LIGAND FREE ENERGY PREDICTED BY IDOCK:   -2.84 KCAL/MOL
REMARK 927      BINDING AFFINITY PREDICTED BY RF-SCORE:    0.00 PKD
ROOT
HETATM    1  C   UNL     1     -12.605  15.593  71.235  1.00  0.00    -0.523 C  
HETATM    2  C   UNL     1     -12.344  14.415  70.334  1.00  0.00    -0.342 C  
HETATM    3  N   UNL     1     -12.088  14.689  69.016  1.00  0.00    -0.272 N  
HETATM    4  O   UNL     1     -12.395  13.268  70.780  1.00  0.00    -0.360 OA 
HETATM    5  O   UNL     1     -11.872  15.980  68.505  1.00  0.00    -0.343 OA 
ENDROOT
BRANCH   3   6
HETATM    6  C   UNL     1     -11.832  13.659  68.018  1.00  0.00    -0.362 C  
BRANCH   6   7
HETATM    7  C   UNL     1     -11.997  14.179  66.589  1.00  0.00    -0.470 C  
BRANCH   7   8
HETATM    8  C   UNL     1     -12.162  13.013  65.612  1.00  0.00    -0.521 C  
BRANCH   8   9
HETATM    9  C   UNL     1     -11.810  13.409  64.177  1.00  0.00    -0.492 C  
BRANCH   9  10
HETATM   10  C   UNL     1     -11.179  12.256  63.395  1.00  0.00    -0.420 C  
BRANCH  10  11
HETATM   11  N   UNL     1      -9.999  11.717  64.055  1.00  0.00    -0.346 N  
HETATM   12  C   UNL     1      -9.335  10.625  63.545  1.00  0.00    -0.290 C  
HETATM   13  H   UNL     1      -9.659  12.157  64.910  1.00  0.00     0.000 HD 
HETATM   14  O   UNL     1      -9.649  10.057  62.502  1.00  0.00    -0.272 OA 
BRANCH  12  15
HETATM   15  C   UNL     1      -8.158  10.192  64.392  1.00  0.00    -0.163 C  
BRANCH  15  16
HETATM   16  C   UNL     1      -8.631   9.351  65.575  1.00  0.00    -0.169 C  
BRANCH  16  17
HETATM   17  C   UNL     1      -8.959  10.196  66.791  1.00  0.00    -0.132 C  
HETATM   18  O   UNL     1      -8.338  11.229  67.034  1.00  0.00    -0.140 OA 
HETATM   19  N   UNL     1      -9.956   9.723  67.605  1.00  0.00    -0.165 N  
HETATM   20  O   UNL     1     -10.760   8.605  67.318  1.00  0.00    -0.271 OA 
BRANCH  19  21
HETATM   21  C   UNL     1     -10.352  10.364  68.850  1.00  0.00    -0.209 C  
BRANCH  21  22
HETATM   22  C   UNL     1     -11.141   9.424  69.766  1.00  0.00    -0.193 C  
BRANCH  22  23
HETATM   23  C   UNL     1     -11.469  10.054  71.133  1.00  0.00    -0.432 C  
BRANCH  23  24
HETATM   24  C   UNL     1     -12.953   9.979  71.493  1.00  0.00    -0.535 C  
BRANCH  24  25
HETATM   25  C   UNL     1     -13.378   8.551  71.828  1.00  0.00    -0.367 C  
BRANCH  25  26
HETATM   26  N   UNL     1     -12.420   7.898  72.698  1.00  0.00    -0.580 N  
HETATM   27  H   UNL     1     -12.240   8.294  73.621  1.00  0.00     0.000 HD 
HETATM   28  C   UNL     1     -11.749   6.762  72.315  1.00  0.00    -0.263 C  
HETATM   29  O   UNL     1     -11.917   6.207  71.234  1.00  0.00    -0.203 OA 
BRANCH  28  30
HETATM   30  C   UNL     1     -10.767   6.240  73.333  1.00  0.00    -0.281 C  
BRANCH  30  31
HETATM   31  C   UNL     1     -10.269   4.868  72.904  1.00  0.00    -0.217 C  
BRANCH  31  32
HETATM   32  C   UNL     1      -8.937   4.975  72.191  1.00  0.00    -0.132 C  
HETATM   33  N   UNL     1      -8.882   4.650  70.858  1.00  0.00    -0.112 N  
HETATM   34  O   UNL     1      -7.962   5.424  72.797  1.00  0.00    -0.101 OA 
HETATM   35  O   UNL     1      -9.837   3.770  70.315  1.00  0.00    -0.190 OA 
BRANCH  33  36
HETATM   36  C   UNL     1      -7.628   4.651  70.100  1.00  0.00    -0.054 C  
BRANCH  36  37
HETATM   37  C   UNL     1      -7.664   5.632  68.927  1.00  0.00    -0.089 C  
BRANCH  37  38
HETATM   38  C   UNL     1      -8.074   7.042  69.366  1.00  0.00    -0.130 C  
BRANCH  38  39
HETATM   39  C   UNL     1      -7.012   7.687  70.260  1.00  0.00    -0.051 C  
BRANCH  39  40
HETATM   40  C   UNL     1      -7.494   8.990  70.901  1.00  0.00    -0.116 C  
HETATM   41  N   UNL     1      -8.156   8.750  72.179  1.00  0.00    -0.368 NA 
HETATM   42  H2  UNL     1      -7.557   8.223  72.814  1.00  0.00     0.000 HD 
HETATM   43  H1  UNL     1      -8.477   9.619  72.607  1.00  0.00     0.000 HD 
ENDBRANCH  39  40
ENDBRANCH  38  39
ENDBRANCH  37  38
ENDBRANCH  36  37
ENDBRANCH  33  36
ENDBRANCH  31  32
ENDBRANCH  30  31
ENDBRANCH  28  30
ENDBRANCH  25  26
ENDBRANCH  24  25
ENDBRANCH  23  24
ENDBRANCH  22  23
ENDBRANCH  21  22
ENDBRANCH  19  21
ENDBRANCH  16  17
ENDBRANCH  15  16
ENDBRANCH  12  15
ENDBRANCH  10  11
ENDBRANCH   9  10
ENDBRANCH   8   9
ENDBRANCH   7   8
ENDBRANCH   6   7
ENDBRANCH   3   6
TORSDOF 23
ENDMDL
MODEL      137
REMARK 921   NORMALIZED FREE ENERGY PREDICTED BY IDOCK:   -4.58 KCAL/MOL
REMARK 922        TOTAL FREE ENERGY PREDICTED BY IDOCK:  -13.50 KCAL/MOL
REMARK 923 INTER-LIGAND FREE ENERGY PREDICTED BY IDOCK:  -10.16 KCAL/MOL
REMARK 924 INTRA-LIGAND FREE ENERGY PREDICTED BY IDOCK:   -3.35 KCAL/MOL
REMARK 927      BINDING AFFINITY PREDICTED BY RF-SCORE:    0.00 PKD
ROOT
HETATM    1  C   UNL     1     -12.524  12.560  63.343  1.00  0.00    -0.514 C  
HETATM    2  C   UNL     1     -11.741  12.109  64.548  1.00  0.00    -0.338 C  
HETATM    3  N   UNL     1     -10.492  11.594  64.318  1.00  0.00    -0.303 N  
HETATM    4  O   UNL     1     -12.236  12.182  65.674  1.00  0.00    -0.571 OA 
HETATM    5  O   UNL     1      -9.838  11.634  63.075  1.00  0.00    -0.393 OA 
ENDROOT
BRANCH   3   6
HETATM    6  C   UNL     1      -9.620  11.102  65.375  1.00  0.00    -0.229 C  
BRANCH   6   7
HETATM    7  C   UNL     1      -9.856   9.623  65.686  1.00  0.00    -0.369 C  
BRANCH   7   8
HETATM    8  C   UNL     1      -8.538   8.935  66.047  1.00  0.00    -0.162 C  
BRANCH   8   9
HETATM    9  C   UNL     1      -7.351   9.528  65.285  1.00  0.00    -0.104 C  
BRANCH   9  10
HETATM   10  C   UNL     1      -6.181   9.869  66.208  1.00  0.00    -0.067 C  
BRANCH  10  11
HETATM   11  N   UNL     1      -6.537  10.858  67.215  1.00  0.00    -0.073 N  
HETATM   12  C   UNL     1      -6.442  10.573  68.558  1.00  0.00    -0.055 C  
HETATM   13  H   UNL     1      -6.862  11.778  66.919  1.00  0.00     0.000 HD 
HETATM   14  O   UNL     1      -6.024   9.508  69.004  1.00  0.00    -0.041 OA 
BRANCH  12  15
HETATM   15  C   UNL     1      -6.893  11.714  69.444  1.00  0.00    -0.086 C  
BRANCH  15  16
HETATM   16  C   UNL     1      -6.957  13.016  68.649  1.00  0.00    -0.102 C  
BRANCH  16  17
HETATM   17  C   UNL     1      -6.315  14.176  69.385  1.00  0.00    -0.114 C  
HETATM   18  O   UNL     1      -6.095  14.119  70.593  1.00  0.00    -0.186 OA 
HETATM   19  N   UNL     1      -6.031  15.286  68.632  1.00  0.00    -0.088 N  
HETATM   20  O   UNL     1      -6.171  15.363  67.236  1.00  0.00    -0.317 OA 
BRANCH  19  21
HETATM   21  C   UNL     1      -5.483  16.516  69.186  1.00  0.00    -0.130 C  
BRANCH  21  22
HETATM   22  C   UNL     1      -6.477  17.679  69.123  1.00  0.00    -0.237 C  
BRANCH  22  23
HETATM   23  C   UNL     1      -6.093  18.740  68.074  1.00  0.00    -0.199 C  
BRANCH  23  24
HETATM   24  C   UNL     1      -6.666  20.125  68.377  1.00  0.00    -0.337 C  
BRANCH  24  25
HETATM   25  C   UNL     1      -7.507  20.651  67.216  1.00  0.00    -0.347 C  
BRANCH  25  26
HETATM   26  N   UNL     1      -8.291  19.598  66.603  1.00  0.00    -0.305 N  
HETATM   27  H   UNL     1      -7.829  18.935  65.980  1.00  0.00     0.000 HD 
HETATM   28  C   UNL     1      -9.639  19.467  66.836  1.00  0.00    -0.347 C  
HETATM   29  O   UNL     1     -10.272  20.206  67.584  1.00  0.00    -0.403 OA 
BRANCH  28  30
HETATM   30  C   UNL     1     -10.299  18.337  66.088  1.00  0.00    -0.414 C  
BRANCH  30  31
HETATM   31  C   UNL     1      -9.525  17.049  66.325  1.00  0.00    -0.281 C  
BRANCH  31  32
HETATM   32  C   UNL     1     -10.467  15.880  66.519  1.00  0.00    -0.304 C  
HETATM   33  N   UNL     1     -10.651  15.393  67.790  1.00  0.00    -0.267 N  
HETATM   34  O   UNL     1     -11.103  15.450  65.555  1.00  0.00    -0.333 OA 
HETATM   35  O   UNL     1      -9.650  15.585  68.762  1.00  0.00    -0.190 OA 
BRANCH  33  36
HETATM   36  C   UNL     1     -11.484  14.221  68.071  1.00  0.00    -0.314 C  
BRANCH  36  37
HETATM   37  C   UNL     1     -10.700  13.112  68.776  1.00  0.00    -0.253 C  
BRANCH  37  38
HETATM   38  C   UNL     1     -11.590  11.918  69.137  1.00  0.00    -0.373 C  
BRANCH  38  39
HETATM   39  C   UNL     1     -10.788  10.615  69.206  1.00  0.00    -0.282 C  
BRANCH  39  40
HETATM   40  C   UNL     1     -11.256   9.694  70.333  1.00  0.00    -0.283 C  
HETATM   41  N   UNL     1     -11.240   8.292  69.929  1.00  0.00    -0.448 NA 
HETATM   42  H2  UNL     1     -10.322   8.017  69.581  1.00  0.00     0.000 HD 
HETATM   43  H1  UNL     1     -11.552   7.678  70.681  1.00  0.00     0.000 HD 
ENDBRANCH  39  40
ENDBRANCH  38  39
ENDBRANCH  37  38
ENDBRANCH  36  37
ENDBRANCH  33  36
ENDBRANCH  31  32
ENDBRANCH  30  31
ENDBRANCH  28  30
ENDBRANCH  25  26
ENDBRANCH  24  25
ENDBRANCH  23  24
ENDBRANCH  22  23
ENDBRANCH  21  22
ENDBRANCH  19  21
ENDBRANCH  16  17
ENDBRANCH  15  16
ENDBRANCH  12  15
ENDBRANCH  10  11
ENDBRANCH   9  10
ENDBRANCH   8   9
ENDBRANCH   7   8
ENDBRANCH   6   7
ENDBRANCH   3   6
TORSDOF 23
ENDMDL
MODEL      138
REMARK 921   NORMALIZED FREE ENERGY PREDICTED BY IDOCK:   -4.58 KCAL/MOL
REMARK 922        TOTAL FREE ENERGY PREDICTED BY IDOCK:  -13.50 KCAL/MOL
REMARK 923 INTER-LIGAND FREE ENERGY PREDICTED BY IDOCK:   -9.38 KCAL/MOL
REMARK 924 INTRA-LIGAND FREE ENERGY PREDICTED BY IDOCK:   -4.12 KCAL/MOL
REMARK 927      BINDING AFFINITY PREDICTED BY RF-SCORE:    0.00 PKD
ROOT
HETATM    1  C   UNL     1      -7.958   5.325  64.567  1.00  0.00    -0.113 C  
HETATM    2  C   UNL     1      -7.582   6.783  64.523  1.00  0.00    -0.103 C  
HETATM    3  N   UNL     1      -6.913   7.283  65.610  1.00  0.00    -0.059 N  
HETATM    4  O   UNL     1      -7.902   7.478  63.558  1.00  0.00    -0.121 OA 
HETATM    5  O   UNL     1      -6.402   6.493  66.654  1.00  0.00    -0.039 OA 
ENDROOT
BRANCH   3   6
HETATM    6  C   UNL     1      -6.495   8.673  65.725  1.00  0.00    -0.056 C  
BRANCH   6   7
HETATM    7  C   UNL     1      -5.371   8.862  66.745  1.00  0.00    -0.039 C  
BRANCH   7   8
HETATM    8  C   UNL     1      -5.451  10.253  67.377  1.00  0.00    -0.041 C  
BRANCH   8   9
HETATM    9  C   UNL     1      -6.562  11.103  66.758  1.00  0.00    -0.133 C  
BRANCH   9  10
HETATM   10  C   UNL     1      -6.950  12.286  67.646  1.00  0.00    -0.128 C  
BRANCH  10  11
HETATM   11  N   UNL     1      -7.804  13.242  66.957  1.00  0.00    -0.399 N  
HETATM   12  C   UNL     1      -8.586  14.132  67.657  1.00  0.00    -0.189 C  
HETATM   13  H   UNL     1      -7.824  13.251  65.937  1.00  0.00     0.000 HD 
HETATM   14  O   UNL     1      -8.597  14.218  68.882  1.00  0.00    -0.133 OA 
BRANCH  12  15
HETATM   15  C   UNL     1      -9.431  15.016  66.764  1.00  0.00    -0.263 C  
BRANCH  15  16
HETATM   16  C   UNL     1     -10.882  15.025  67.240  1.00  0.00    -0.310 C  
BRANCH  16  17
HETATM   17  C   UNL     1     -11.655  13.810  66.764  1.00  0.00    -0.370 C  
HETATM   18  O   UNL     1     -12.097  12.985  67.561  1.00  0.00    -0.333 OA 
HETATM   19  N   UNL     1     -11.797  13.678  65.406  1.00  0.00    -0.337 N  
HETATM   20  O   UNL     1     -11.398  14.641  64.463  1.00  0.00    -0.367 OA 
BRANCH  19  21
HETATM   21  C   UNL     1     -12.444  12.539  64.772  1.00  0.00    -0.457 C  
BRANCH  21  22
HETATM   22  C   UNL     1     -11.438  11.494  64.281  1.00  0.00    -0.271 C  
BRANCH  22  23
HETATM   23  C   UNL     1     -10.245  11.313  65.238  1.00  0.00    -0.328 C  
BRANCH  23  24
HETATM   24  C   UNL     1      -9.795   9.858  65.375  1.00  0.00    -0.384 C  
BRANCH  24  25
HETATM   25  C   UNL     1     -10.448   9.180  66.577  1.00  0.00    -0.127 C  
BRANCH  25  26
HETATM   26  N   UNL     1      -9.460   8.619  67.477  1.00  0.00    -0.146 N  
HETATM   27  H   UNL     1      -9.055   7.708  67.262  1.00  0.00     0.000 HD 
HETATM   28  C   UNL     1      -9.055   9.279  68.612  1.00  0.00    -0.132 C  
HETATM   29  O   UNL     1      -9.474  10.386  68.938  1.00  0.00    -0.168 OA 
BRANCH  28  30
HETATM   30  C   UNL     1      -8.047   8.532  69.447  1.00  0.00    -0.112 C  
BRANCH  30  31
HETATM   31  C   UNL     1      -8.491   7.087  69.610  1.00  0.00    -0.134 C  
BRANCH  31  32
HETATM   32  C   UNL     1      -9.428   6.940  70.791  1.00  0.00    -0.165 C  
HETATM   33  N   UNL     1     -10.707   6.496  70.560  1.00  0.00    -0.240 N  
HETATM   34  O   UNL     1      -9.000   7.141  71.930  1.00  0.00    -0.128 OA 
HETATM   35  O   UNL     1     -11.290   6.680  69.292  1.00  0.00    -0.291 OA 
BRANCH  33  36
HETATM   36  C   UNL     1     -11.707   6.390  71.624  1.00  0.00    -0.313 C  
BRANCH  36  37
HETATM   37  C   UNL     1     -12.891   7.333  71.399  1.00  0.00    -0.425 C  
BRANCH  37  38
HETATM   38  C   UNL     1     -12.750   8.636  72.193  1.00  0.00    -0.447 C  
BRANCH  38  39
HETATM   39  C   UNL     1     -11.804   9.621  71.499  1.00  0.00    -0.483 C  
BRANCH  39  40
HETATM   40  C   UNL     1     -12.550  10.734  70.763  1.00  0.00    -0.383 C  
HETATM   41  N   UNL     1     -12.420  10.607  69.315  1.00  0.00    -0.711 NA 
HETATM   42  H2  UNL     1     -12.717   9.686  68.995  1.00  0.00     0.000 HD 
HETATM   43  H1  UNL     1     -12.917  11.350  68.824  1.00  0.00     0.000 HD 
ENDBRANCH  39  40
ENDBRANCH  38  39
ENDBRANCH  37  38
ENDBRANCH  36  37
ENDBRANCH  33  36
ENDBRANCH  31  32
ENDBRANCH  30  31
ENDBRANCH  28  30
ENDBRANCH  25  26
ENDBRANCH  24  25
ENDBRANCH  23  24
ENDBRANCH  22  23
ENDBRANCH  21  22
ENDBRANCH  19  21
ENDBRANCH  16  17
ENDBRANCH  15  16
ENDBRANCH  12  15
ENDBRANCH  10  11
ENDBRANCH   9  10
ENDBRANCH   8   9
ENDBRANCH   7   8
ENDBRANCH   6   7
ENDBRANCH   3   6
TORSDOF 23
ENDMDL
MODEL      139
REMARK 921   NORMALIZED FREE ENERGY PREDICTED BY IDOCK:   -4.58 KCAL/MOL
REMARK 922        TOTAL FREE ENERGY PREDICTED BY IDOCK:  -13.48 KCAL/MOL
REMARK 923 INTER-LIGAND FREE ENERGY PREDICTED BY IDOCK:  -10.55 KCAL/MOL
REMARK 924 INTRA-LIGAND FREE ENERGY PREDICTED BY IDOCK:   -2.94 KCAL/MOL
REMARK 927      BINDING AFFINITY PREDICTED BY RF-SCORE:    0.00 PKD
ROOT
HETATM    1  C   UNL     1      -9.142   2.380  69.443  1.00  0.00    -0.183 C  
HETATM    2  C   UNL     1      -9.176   3.763  70.040  1.00  0.00    -0.150 C  
HETATM    3  N   UNL     1      -8.219   4.057  70.975  1.00  0.00    -0.070 N  
HETATM    4  O   UNL     1     -10.054   4.560  69.710  1.00  0.00    -0.229 OA 
HETATM    5  O   UNL     1      -7.118   3.233  71.265  1.00  0.00    -0.032 OA 
ENDROOT
BRANCH   3   6
HETATM    6  C   UNL     1      -8.129   5.342  71.654  1.00  0.00    -0.117 C  
BRANCH   6   7
HETATM    7  C   UNL     1      -8.364   5.224  73.161  1.00  0.00    -0.115 C  
BRANCH   7   8
HETATM    8  C   UNL     1      -9.587   6.043  73.578  1.00  0.00    -0.142 C  
BRANCH   8   9
HETATM    9  C   UNL     1     -10.890   5.260  73.407  1.00  0.00    -0.355 C  
BRANCH   9  10
HETATM   10  C   UNL     1     -11.826   5.908  72.386  1.00  0.00    -0.207 C  
BRANCH  10  11
HETATM   11  N   UNL     1     -11.512   7.310  72.156  1.00  0.00    -0.264 N  
HETATM   12  C   UNL     1     -12.488   8.207  71.784  1.00  0.00    -0.330 C  
HETATM   13  H   UNL     1     -10.551   7.633  72.272  1.00  0.00     0.000 HD 
HETATM   14  O   UNL     1     -13.674   7.916  71.660  1.00  0.00    -0.353 OA 
BRANCH  12  15
HETATM   15  C   UNL     1     -11.957   9.606  71.554  1.00  0.00    -0.485 C  
BRANCH  15  16
HETATM   16  C   UNL     1     -12.995  10.460  70.832  1.00  0.00    -0.475 C  
BRANCH  16  17
HETATM   17  C   UNL     1     -12.925  11.920  71.235  1.00  0.00    -0.236 C  
HETATM   18  O   UNL     1     -13.443  12.318  72.277  1.00  0.00    -0.520 OA 
HETATM   19  N   UNL     1     -12.285  12.759  70.359  1.00  0.00    -0.338 N  
HETATM   20  O   UNL     1     -11.594  12.339  69.209  1.00  0.00    -0.284 OA 
BRANCH  19  21
HETATM   21  C   UNL     1     -12.188  14.199  70.549  1.00  0.00    -0.361 C  
BRANCH  21  22
HETATM   22  C   UNL     1     -11.848  14.938  69.251  1.00  0.00    -0.350 C  
BRANCH  22  23
HETATM   23  C   UNL     1     -10.416  15.507  69.242  1.00  0.00    -0.245 C  
BRANCH  23  24
HETATM   24  C   UNL     1      -9.717  15.361  67.889  1.00  0.00    -0.207 C  
BRANCH  24  25
HETATM   25  C   UNL     1      -8.481  14.470  67.990  1.00  0.00    -0.161 C  
BRANCH  25  26
HETATM   26  N   UNL     1      -8.823  13.125  68.407  1.00  0.00    -0.294 N  
HETATM   27  H   UNL     1      -9.804  12.887  68.555  1.00  0.00     0.000 HD 
HETATM   28  C   UNL     1      -7.863  12.162  68.608  1.00  0.00    -0.078 C  
HETATM   29  O   UNL     1      -6.664  12.354  68.434  1.00  0.00    -0.059 OA 
BRANCH  28  30
HETATM   30  C   UNL     1      -8.398  10.831  69.072  1.00  0.00    -0.138 C  
BRANCH  30  31
HETATM   31  C   UNL     1      -8.045   9.757  68.054  1.00  0.00    -0.105 C  
BRANCH  31  32
HETATM   32  C   UNL     1      -8.609  10.099  66.691  1.00  0.00    -0.126 C  
HETATM   33  N   UNL     1      -9.971  10.219  66.558  1.00  0.00    -0.215 N  
HETATM   34  O   UNL     1      -7.837  10.339  65.760  1.00  0.00    -0.133 OA 
HETATM   35  O   UNL     1     -10.820   9.552  67.461  1.00  0.00    -0.280 OA 
BRANCH  33  36
HETATM   36  C   UNL     1     -10.616  10.475  65.269  1.00  0.00    -0.067 C  
BRANCH  36  37
HETATM   37  C   UNL     1     -10.840  11.968  65.021  1.00  0.00    -0.351 C  
BRANCH  37  38
HETATM   38  C   UNL     1     -12.061  12.501  65.777  1.00  0.00    -0.443 C  
BRANCH  38  39
HETATM   39  C   UNL     1     -12.254  14.004  65.551  1.00  0.00    -0.455 C  
BRANCH  39  40
HETATM   40  C   UNL     1     -11.930  14.429  64.118  1.00  0.00    -0.346 C  
HETATM   41  N   UNL     1     -12.025  15.876  63.949  1.00  0.00    -1.249 NA 
HETATM   42  H2  UNL     1     -11.440  16.368  64.625  1.00  0.00     0.000 HD 
HETATM   43  H1  UNL     1     -11.809  16.160  62.993  1.00  0.00     0.000 HD 
ENDBRANCH  39  40
ENDBRANCH  38  39
ENDBRANCH  37  38
ENDBRANCH  36  37
ENDBRANCH  33  36
ENDBRANCH  31  32
ENDBRANCH  30  31
ENDBRANCH  28  30
ENDBRANCH  25  26
ENDBRANCH  24  25
ENDBRANCH  23  24
ENDBRANCH  22  23
ENDBRANCH  21  22
ENDBRANCH  19  21
ENDBRANCH  16  17
ENDBRANCH  15  16
ENDBRANCH  12  15
ENDBRANCH  10  11
ENDBRANCH   9  10
ENDBRANCH   8   9
ENDBRANCH   7   8
ENDBRANCH   6   7
ENDBRANCH   3   6
TORSDOF 23
ENDMDL
MODEL      140
REMARK 921   NORMALIZED FREE ENERGY PREDICTED BY IDOCK:   -4.57 KCAL/MOL
REMARK 922        TOTAL FREE ENERGY PREDICTED BY IDOCK:  -13.48 KCAL/MOL
REMARK 923 INTER-LIGAND FREE ENERGY PREDICTED BY IDOCK:  -10.49 KCAL/MOL
REMARK 924 INTRA-LIGAND FREE ENERGY PREDICTED BY IDOCK:   -2.99 KCAL/MOL
REMARK 927      BINDING AFFINITY PREDICTED BY RF-SCORE:    0.00 PKD
ROOT
HETATM    1  C   UNL     1     -12.297  12.277  63.377  1.00  0.00    -0.624 C  
HETATM    2  C   UNL     1     -11.723  12.221  64.768  1.00  0.00    -0.358 C  
HETATM    3  N   UNL     1     -12.200  13.133  65.673  1.00  0.00    -0.446 N  
HETATM    4  O   UNL     1     -10.843  11.405  65.044  1.00  0.00    -0.291 OA 
HETATM    5  O   UNL     1     -13.303  13.973  65.440  1.00  0.00    -0.721 OA 
ENDROOT
BRANCH   3   6
HETATM    6  C   UNL     1     -11.735  13.216  67.050  1.00  0.00    -0.377 C  
BRANCH   6   7
HETATM    7  C   UNL     1     -10.489  14.093  67.193  1.00  0.00    -0.270 C  
BRANCH   7   8
HETATM    8  C   UNL     1     -10.822  15.374  67.959  1.00  0.00    -0.292 C  
BRANCH   8   9
HETATM    9  C   UNL     1     -12.022  15.192  68.891  1.00  0.00    -0.284 C  
BRANCH   9  10
HETATM   10  C   UNL     1     -11.603  15.046  70.354  1.00  0.00    -0.287 C  
BRANCH  10  11
HETATM   11  N   UNL     1     -12.039  13.784  70.933  1.00  0.00    -0.465 N  
HETATM   12  C   UNL     1     -13.241  13.682  71.597  1.00  0.00    -0.367 C  
HETATM   13  H   UNL     1     -11.443  12.961  70.845  1.00  0.00     0.000 HD 
HETATM   14  O   UNL     1     -14.037  14.608  71.717  1.00  0.00    -0.417 OA 
BRANCH  12  15
HETATM   15  C   UNL     1     -13.496  12.300  72.160  1.00  0.00    -0.431 C  
BRANCH  15  16
HETATM   16  C   UNL     1     -12.878  11.233  71.260  1.00  0.00    -0.491 C  
BRANCH  16  17
HETATM   17  C   UNL     1     -12.928   9.851  71.882  1.00  0.00    -0.448 C  
HETATM   18  O   UNL     1     -13.736   9.582  72.768  1.00  0.00    -0.304 OA 
HETATM   19  N   UNL     1     -12.005   8.947  71.422  1.00  0.00    -0.295 N  
HETATM   20  O   UNL     1     -11.130   9.176  70.346  1.00  0.00    -0.241 OA 
BRANCH  19  21
HETATM   21  C   UNL     1     -11.860   7.601  71.956  1.00  0.00    -0.301 C  
BRANCH  21  22
HETATM   22  C   UNL     1     -10.854   7.535  73.109  1.00  0.00    -0.448 C  
BRANCH  22  23
HETATM   23  C   UNL     1      -9.499   6.936  72.689  1.00  0.00    -0.159 C  
BRANCH  23  24
HETATM   24  C   UNL     1      -8.386   7.979  72.574  1.00  0.00    -0.211 C  
BRANCH  24  25
HETATM   25  C   UNL     1      -7.834   8.055  71.152  1.00  0.00    -0.089 C  
BRANCH  25  26
HETATM   26  N   UNL     1      -8.813   7.625  70.174  1.00  0.00    -0.145 N  
HETATM   27  H   UNL     1      -9.764   7.991  70.232  1.00  0.00     0.000 HD 
HETATM   28  C   UNL     1      -8.497   6.739  69.172  1.00  0.00    -0.128 C  
HETATM   29  O   UNL     1      -7.375   6.265  69.016  1.00  0.00    -0.081 OA 
BRANCH  28  30
HETATM   30  C   UNL     1      -9.647   6.378  68.267  1.00  0.00    -0.123 C  
BRANCH  30  31
HETATM   31  C   UNL     1      -9.684   4.872  68.067  1.00  0.00    -0.202 C  
BRANCH  31  32
HETATM   32  C   UNL     1      -9.785   4.524  66.597  1.00  0.00    -0.207 C  
HETATM   33  N   UNL     1      -8.714   3.908  65.996  1.00  0.00    -0.112 N  
HETATM   34  O   UNL     1     -10.844   4.725  65.999  1.00  0.00    -0.287 OA 
HETATM   35  O   UNL     1      -7.423   4.072  66.535  1.00  0.00    -0.081 OA 
BRANCH  33  36
HETATM   36  C   UNL     1      -8.686   3.598  64.565  1.00  0.00    -0.105 C  
BRANCH  36  37
HETATM   37  C   UNL     1      -8.792   4.856  63.700  1.00  0.00    -0.070 C  
BRANCH  37  38
HETATM   38  C   UNL     1      -7.423   5.493  63.439  1.00  0.00    -0.057 C  
BRANCH  38  39
HETATM   39  C   UNL     1      -7.450   7.007  63.674  1.00  0.00    -0.096 C  
BRANCH  39  40
HETATM   40  C   UNL     1      -7.906   7.375  65.086  1.00  0.00    -0.123 C  
HETATM   41  N   UNL     1      -6.870   7.102  66.077  1.00  0.00    -0.056 NA 
HETATM   42  H2  UNL     1      -5.994   7.566  65.836  1.00  0.00     0.000 HD 
HETATM   43  H1  UNL     1      -7.174   7.348  67.020  1.00  0.00     0.000 HD 
ENDBRANCH  39  40
ENDBRANCH  38  39
ENDBRANCH  37  38
ENDBRANCH  36  37
ENDBRANCH  33  36
ENDBRANCH  31  32
ENDBRANCH  30  31
ENDBRANCH  28  30
ENDBRANCH  25  26
ENDBRANCH  24  25
ENDBRANCH  23  24
ENDBRANCH  22  23
ENDBRANCH  21  22
ENDBRANCH  19  21
ENDBRANCH  16  17
ENDBRANCH  15  16
ENDBRANCH  12  15
ENDBRANCH  10  11
ENDBRANCH   9  10
ENDBRANCH   8   9
ENDBRANCH   7   8
ENDBRANCH   6   7
ENDBRANCH   3   6
TORSDOF 23
ENDMDL
MODEL      141
REMARK 921   NORMALIZED FREE ENERGY PREDICTED BY IDOCK:   -4.56 KCAL/MOL
REMARK 922        TOTAL FREE ENERGY PREDICTED BY IDOCK:  -13.45 KCAL/MOL
REMARK 923 INTER-LIGAND FREE ENERGY PREDICTED BY IDOCK:  -10.59 KCAL/MOL
REMARK 924 INTRA-LIGAND FREE ENERGY PREDICTED BY IDOCK:   -2.85 KCAL/MOL
REMARK 927      BINDING AFFINITY PREDICTED BY RF-SCORE:    0.00 PKD
ROOT
HETATM    1  C   UNL     1     -10.565   5.013  66.527  1.00  0.00    -0.289 C  
HETATM    2  C   UNL     1      -9.670   4.736  67.706  1.00  0.00    -0.156 C  
HETATM    3  N   UNL     1     -10.037   5.290  68.905  1.00  0.00    -0.184 N  
HETATM    4  O   UNL     1      -8.646   4.067  67.565  1.00  0.00    -0.098 OA 
HETATM    5  O   UNL     1     -11.267   5.927  69.137  1.00  0.00    -0.340 OA 
ENDROOT
BRANCH   3   6
HETATM    6  C   UNL     1      -9.269   5.127  70.131  1.00  0.00    -0.142 C  
BRANCH   6   7
HETATM    7  C   UNL     1      -9.996   4.266  71.165  1.00  0.00    -0.226 C  
BRANCH   7   8
HETATM    8  C   UNL     1      -9.841   4.864  72.564  1.00  0.00    -0.202 C  
BRANCH   8   9
HETATM    9  C   UNL     1     -11.152   5.455  73.086  1.00  0.00    -0.363 C  
BRANCH   9  10
HETATM   10  C   UNL     1     -11.120   6.983  73.140  1.00  0.00    -0.224 C  
BRANCH  10  11
HETATM   11  N   UNL     1      -9.894   7.532  72.579  1.00  0.00    -0.165 N  
HETATM   12  C   UNL     1      -9.907   8.696  71.844  1.00  0.00    -0.314 C  
HETATM   13  H   UNL     1      -9.011   7.046  72.733  1.00  0.00     0.000 HD 
HETATM   14  O   UNL     1     -10.916   9.368  71.642  1.00  0.00    -0.369 OA 
BRANCH  12  15
HETATM   15  C   UNL     1      -8.543   9.083  71.315  1.00  0.00    -0.221 C  
BRANCH  15  16
HETATM   16  C   UNL     1      -8.680   9.945  70.062  1.00  0.00    -0.188 C  
BRANCH  16  17
HETATM   17  C   UNL     1      -8.942   9.118  68.817  1.00  0.00    -0.136 C  
HETATM   18  O   UNL     1      -8.143   8.263  68.442  1.00  0.00    -0.123 OA 
HETATM   19  N   UNL     1     -10.094   9.406  68.132  1.00  0.00    -0.173 N  
HETATM   20  O   UNL     1     -11.084  10.302  68.573  1.00  0.00    -0.248 OA 
BRANCH  19  21
HETATM   21  C   UNL     1     -10.468   8.765  66.880  1.00  0.00    -0.249 C  
BRANCH  21  22
HETATM   22  C   UNL     1      -9.620   9.247  65.700  1.00  0.00    -0.324 C  
BRANCH  22  23
HETATM   23  C   UNL     1      -9.856  10.730  65.357  1.00  0.00    -0.317 C  
BRANCH  23  24
HETATM   24  C   UNL     1     -10.252  10.957  63.898  1.00  0.00    -0.418 C  
BRANCH  24  25
HETATM   25  C   UNL     1     -10.324  12.445  63.561  1.00  0.00    -0.362 C  
BRANCH  25  26
HETATM   26  N   UNL     1     -10.844  13.220  64.670  1.00  0.00    -0.359 N  
HETATM   27  H   UNL     1     -10.189  13.685  65.300  1.00  0.00     0.000 HD 
HETATM   28  C   UNL     1     -12.193  13.346  64.898  1.00  0.00    -0.408 C  
HETATM   29  O   UNL     1     -13.052  12.839  64.182  1.00  0.00    -0.645 OA 
BRANCH  28  30
HETATM   30  C   UNL     1     -12.551  14.159  66.116  1.00  0.00    -0.355 C  
BRANCH  30  31
HETATM   31  C   UNL     1     -11.555  13.876  67.229  1.00  0.00    -0.393 C  
BRANCH  31  32
HETATM   32  C   UNL     1     -11.101  15.161  67.889  1.00  0.00    -0.321 C  
HETATM   33  N   UNL     1     -10.299  16.016  67.172  1.00  0.00    -0.290 N  
HETATM   34  O   UNL     1     -11.525  15.447  69.011  1.00  0.00    -0.294 OA 
HETATM   35  O   UNL     1      -9.505  15.512  66.124  1.00  0.00    -0.288 OA 
BRANCH  33  36
HETATM   36  C   UNL     1      -9.750  17.246  67.747  1.00  0.00    -0.270 C  
BRANCH  36  37
HETATM   37  C   UNL     1      -8.658  17.857  66.866  1.00  0.00    -0.259 C  
BRANCH  37  38
HETATM   38  C   UNL     1      -7.289  17.846  67.554  1.00  0.00    -0.209 C  
BRANCH  38  39
HETATM   39  C   UNL     1      -7.207  16.764  68.634  1.00  0.00    -0.207 C  
BRANCH  39  40
HETATM   40  C   UNL     1      -6.379  15.555  68.195  1.00  0.00    -0.125 C  
HETATM   41  N   UNL     1      -5.388  15.917  67.187  1.00  0.00    -0.335 NA 
HETATM   42  H2  UNL     1      -4.791  16.679  67.509  1.00  0.00     0.000 HD 
HETATM   43  H1  UNL     1      -4.835  15.110  66.894  1.00  0.00     0.000 HD 
ENDBRANCH  39  40
ENDBRANCH  38  39
ENDBRANCH  37  38
ENDBRANCH  36  37
ENDBRANCH  33  36
ENDBRANCH  31  32
ENDBRANCH  30  31
ENDBRANCH  28  30
ENDBRANCH  25  26
ENDBRANCH  24  25
ENDBRANCH  23  24
ENDBRANCH  22  23
ENDBRANCH  21  22
ENDBRANCH  19  21
ENDBRANCH  16  17
ENDBRANCH  15  16
ENDBRANCH  12  15
ENDBRANCH  10  11
ENDBRANCH   9  10
ENDBRANCH   8   9
ENDBRANCH   7   8
ENDBRANCH   6   7
ENDBRANCH   3   6
TORSDOF 23
ENDMDL
MODEL      142
REMARK 921   NORMALIZED FREE ENERGY PREDICTED BY IDOCK:   -4.55 KCAL/MOL
REMARK 922        TOTAL FREE ENERGY PREDICTED BY IDOCK:  -13.43 KCAL/MOL
REMARK 923 INTER-LIGAND FREE ENERGY PREDICTED BY IDOCK:  -10.83 KCAL/MOL
REMARK 924 INTRA-LIGAND FREE ENERGY PREDICTED BY IDOCK:   -2.60 KCAL/MOL
REMARK 927      BINDING AFFINITY PREDICTED BY RF-SCORE:    0.00 PKD
ROOT
HETATM    1  C   UNL     1     -10.999   6.132  68.136  1.00  0.00    -0.398 C  
HETATM    2  C   UNL     1     -11.231   6.109  69.624  1.00  0.00    -0.418 C  
HETATM    3  N   UNL     1     -10.449   5.258  70.359  1.00  0.00    -0.272 N  
HETATM    4  O   UNL     1     -12.112   6.809  70.125  1.00  0.00    -0.289 OA 
HETATM    5  O   UNL     1      -9.341   4.562  69.847  1.00  0.00    -0.117 OA 
ENDROOT
BRANCH   3   6
HETATM    6  C   UNL     1     -10.564   5.110  71.803  1.00  0.00    -0.168 C  
BRANCH   6   7
HETATM    7  C   UNL     1      -9.351   5.674  72.545  1.00  0.00    -0.151 C  
BRANCH   7   8
HETATM    8  C   UNL     1      -9.640   7.093  73.040  1.00  0.00    -0.199 C  
BRANCH   8   9
HETATM    9  C   UNL     1      -8.539   8.077  72.639  1.00  0.00    -0.237 C  
BRANCH   9  10
HETATM   10  C   UNL     1      -7.841   7.670  71.341  1.00  0.00    -0.089 C  
BRANCH  10  11
HETATM   11  N   UNL     1      -7.680   8.787  70.423  1.00  0.00    -0.081 N  
HETATM   12  C   UNL     1      -8.772   9.433  69.889  1.00  0.00    -0.197 C  
HETATM   13  H   UNL     1      -6.741   9.096  70.170  1.00  0.00     0.000 HD 
HETATM   14  O   UNL     1      -9.935   9.156  70.166  1.00  0.00    -0.178 OA 
BRANCH  12  15
HETATM   15  C   UNL     1      -8.398  10.541  68.927  1.00  0.00    -0.147 C  
BRANCH  15  16
HETATM   16  C   UNL     1      -8.075   9.968  67.550  1.00  0.00    -0.110 C  
BRANCH  16  17
HETATM   17  C   UNL     1      -9.201  10.179  66.556  1.00  0.00    -0.153 C  
HETATM   18  O   UNL     1     -10.375  10.199  66.921  1.00  0.00    -0.224 OA 
HETATM   19  N   UNL     1      -8.832  10.312  65.243  1.00  0.00    -0.170 N  
HETATM   20  O   UNL     1      -7.503  10.396  64.791  1.00  0.00    -0.130 OA 
BRANCH  19  21
HETATM   21  C   UNL     1      -9.782  10.448  64.148  1.00  0.00    -0.324 C  
BRANCH  21  22
HETATM   22  C   UNL     1     -10.046  11.911  63.782  1.00  0.00    -0.423 C  
BRANCH  22  23
HETATM   23  C   UNL     1     -11.546  12.264  63.765  1.00  0.00    -0.555 C  
BRANCH  23  24
HETATM   24  C   UNL     1     -12.145  12.425  65.162  1.00  0.00    -0.464 C  
BRANCH  24  25
HETATM   25  C   UNL     1     -12.695  13.834  65.378  1.00  0.00    -0.472 C  
BRANCH  25  26
HETATM   26  N   UNL     1     -11.742  14.679  66.069  1.00  0.00    -0.341 N  
HETATM   27  H   UNL     1     -11.142  15.298  65.523  1.00  0.00     0.000 HD 
HETATM   28  C   UNL     1     -11.625  14.672  67.439  1.00  0.00    -0.389 C  
HETATM   29  O   UNL     1     -12.319  13.976  68.174  1.00  0.00    -0.248 OA 
BRANCH  28  30
HETATM   30  C   UNL     1     -10.560  15.589  67.983  1.00  0.00    -0.270 C  
BRANCH  30  31
HETATM   31  C   UNL     1      -9.196  15.138  67.486  1.00  0.00    -0.188 C  
BRANCH  31  32
HETATM   32  C   UNL     1      -8.431  16.295  66.879  1.00  0.00    -0.224 C  
HETATM   33  N   UNL     1      -7.446  16.892  67.627  1.00  0.00    -0.156 N  
HETATM   34  O   UNL     1      -8.652  16.619  65.710  1.00  0.00    -0.464 OA 
HETATM   35  O   UNL     1      -7.495  16.815  69.032  1.00  0.00    -0.229 OA 
BRANCH  33  36
HETATM   36  C   UNL     1      -6.702  18.062  67.157  1.00  0.00    -0.182 C  
BRANCH  36  37
HETATM   37  C   UNL     1      -7.153  19.349  67.849  1.00  0.00    -0.290 C  
BRANCH  37  38
HETATM   38  C   UNL     1      -8.380  19.969  67.172  1.00  0.00    -0.381 C  
BRANCH  38  39
HETATM   39  C   UNL     1      -9.664  19.682  67.956  1.00  0.00    -0.501 C  
BRANCH  39  40
HETATM   40  C   UNL     1     -10.874  19.466  67.044  1.00  0.00    -0.432 C  
HETATM   41  N   UNL     1     -10.476  19.006  65.718  1.00  0.00    -0.569 NA 
HETATM   42  H2  UNL     1      -9.898  18.168  65.773  1.00  0.00     0.000 HD 
HETATM   43  H1  UNL     1     -11.283  18.862  65.110  1.00  0.00     0.000 HD 
ENDBRANCH  39  40
ENDBRANCH  38  39
ENDBRANCH  37  38
ENDBRANCH  36  37
ENDBRANCH  33  36
ENDBRANCH  31  32
ENDBRANCH  30  31
ENDBRANCH  28  30
ENDBRANCH  25  26
ENDBRANCH  24  25
ENDBRANCH  23  24
ENDBRANCH  22  23
ENDBRANCH  21  22
ENDBRANCH  19  21
ENDBRANCH  16  17
ENDBRANCH  15  16
ENDBRANCH  12  15
ENDBRANCH  10  11
ENDBRANCH   9  10
ENDBRANCH   8   9
ENDBRANCH   7   8
ENDBRANCH   6   7
ENDBRANCH   3   6
TORSDOF 23
ENDMDL
MODEL      143
REMARK 921   NORMALIZED FREE ENERGY PREDICTED BY IDOCK:   -4.54 KCAL/MOL
REMARK 922        TOTAL FREE ENERGY PREDICTED BY IDOCK:  -13.40 KCAL/MOL
REMARK 923 INTER-LIGAND FREE ENERGY PREDICTED BY IDOCK:  -11.08 KCAL/MOL
REMARK 924 INTRA-LIGAND FREE ENERGY PREDICTED BY IDOCK:   -2.33 KCAL/MOL
REMARK 927      BINDING AFFINITY PREDICTED BY RF-SCORE:    0.00 PKD
ROOT
HETATM    1  C   UNL     1      -8.440   2.203  69.730  1.00  0.00    -0.086 C  
HETATM    2  C   UNL     1      -9.037   2.776  70.989  1.00  0.00    -0.111 C  
HETATM    3  N   UNL     1      -9.727   3.953  70.866  1.00  0.00    -0.188 N  
HETATM    4  O   UNL     1      -8.871   2.208  72.069  1.00  0.00    -0.067 OA 
HETATM    5  O   UNL     1     -10.065   4.546  69.638  1.00  0.00    -0.221 OA 
ENDROOT
BRANCH   3   6
HETATM    6  C   UNL     1     -10.349   4.639  71.991  1.00  0.00    -0.164 C  
BRANCH   6   7
HETATM    7  C   UNL     1     -10.485   6.145  71.753  1.00  0.00    -0.259 C  
BRANCH   7   8
HETATM    8  C   UNL     1     -11.870   6.631  72.185  1.00  0.00    -0.337 C  
BRANCH   8   9
HETATM    9  C   UNL     1     -12.320   7.862  71.396  1.00  0.00    -0.334 C  
BRANCH   9  10
HETATM   10  C   UNL     1     -11.299   8.999  71.463  1.00  0.00    -0.346 C  
BRANCH  10  11
HETATM   11  N   UNL     1     -11.006   9.561  70.154  1.00  0.00    -0.249 N  
HETATM   12  C   UNL     1     -11.776  10.571  69.623  1.00  0.00    -0.256 C  
HETATM   13  H   UNL     1     -10.216   9.199  69.619  1.00  0.00     0.000 HD 
HETATM   14  O   UNL     1     -12.719  11.093  70.211  1.00  0.00    -0.236 OA 
BRANCH  12  15
HETATM   15  C   UNL     1     -11.335  10.994  68.238  1.00  0.00    -0.366 C  
BRANCH  15  16
HETATM   16  C   UNL     1      -9.882  10.593  67.994  1.00  0.00    -0.177 C  
BRANCH  16  17
HETATM   17  C   UNL     1      -9.358  11.100  66.664  1.00  0.00    -0.177 C  
HETATM   18  O   UNL     1      -8.912  12.240  66.549  1.00  0.00    -0.208 OA 
HETATM   19  N   UNL     1      -9.443  10.228  65.609  1.00  0.00    -0.204 N  
HETATM   20  O   UNL     1      -9.851   8.886  65.712  1.00  0.00    -0.226 OA 
BRANCH  19  21
HETATM   21  C   UNL     1      -9.057  10.570  64.248  1.00  0.00    -0.228 C  
BRANCH  21  22
HETATM   22  C   UNL     1      -9.919  11.691  63.660  1.00  0.00    -0.406 C  
BRANCH  22  23
HETATM   23  C   UNL     1     -11.407  11.311  63.552  1.00  0.00    -0.091 C  
BRANCH  23  24
HETATM   24  C   UNL     1     -12.349  12.505  63.706  1.00  0.00    -0.595 C  
BRANCH  24  25
HETATM   25  C   UNL     1     -12.397  12.999  65.151  1.00  0.00    -0.484 C  
BRANCH  25  26
HETATM   26  N   UNL     1     -11.637  14.220  65.324  1.00  0.00    -0.336 N  
HETATM   27  H   UNL     1     -11.189  14.644  64.512  1.00  0.00     0.000 HD 
HETATM   28  C   UNL     1     -11.503  14.823  66.552  1.00  0.00    -0.327 C  
HETATM   29  O   UNL     1     -12.023  14.395  67.578  1.00  0.00    -0.384 OA 
BRANCH  28  30
HETATM   30  C   UNL     1     -10.650  16.066  66.552  1.00  0.00    -0.284 C  
BRANCH  30  31
HETATM   31  C   UNL     1      -9.224  15.706  66.167  1.00  0.00    -0.378 C  
BRANCH  31  32
HETATM   32  C   UNL     1      -8.237  16.249  67.179  1.00  0.00    -0.189 C  
HETATM   33  N   UNL     1      -7.652  17.468  66.932  1.00  0.00    -0.199 N  
HETATM   34  O   UNL     1      -8.046  15.632  68.228  1.00  0.00    -0.130 OA 
HETATM   35  O   UNL     1      -7.543  17.932  65.607  1.00  0.00    -0.546 OA 
BRANCH  33  36
HETATM   36  C   UNL     1      -6.633  18.043  67.812  1.00  0.00    -0.187 C  
BRANCH  36  37
HETATM   37  C   UNL     1      -7.084  19.369  68.427  1.00  0.00    -0.339 C  
BRANCH  37  38
HETATM   38  C   UNL     1      -8.582  19.374  68.752  1.00  0.00    -0.371 C  
BRANCH  38  39
HETATM   39  C   UNL     1      -9.361  20.299  67.812  1.00  0.00    -0.426 C  
BRANCH  39  40
HETATM   40  C   UNL     1     -10.566  19.608  67.172  1.00  0.00    -0.487 C  
HETATM   41  N   UNL     1     -10.429  19.515  65.722  1.00  0.00    -0.483 NA 
HETATM   42  H2  UNL     1      -9.556  19.058  65.460  1.00  0.00     0.000 HD 
HETATM   43  H1  UNL     1     -11.233  19.054  65.296  1.00  0.00     0.000 HD 
ENDBRANCH  39  40
ENDBRANCH  38  39
ENDBRANCH  37  38
ENDBRANCH  36  37
ENDBRANCH  33  36
ENDBRANCH  31  32
ENDBRANCH  30  31
ENDBRANCH  28  30
ENDBRANCH  25  26
ENDBRANCH  24  25
ENDBRANCH  23  24
ENDBRANCH  22  23
ENDBRANCH  21  22
ENDBRANCH  19  21
ENDBRANCH  16  17
ENDBRANCH  15  16
ENDBRANCH  12  15
ENDBRANCH  10  11
ENDBRANCH   9  10
ENDBRANCH   8   9
ENDBRANCH   7   8
ENDBRANCH   6   7
ENDBRANCH   3   6
TORSDOF 23
ENDMDL
MODEL      144
REMARK 921   NORMALIZED FREE ENERGY PREDICTED BY IDOCK:   -4.53 KCAL/MOL
REMARK 922        TOTAL FREE ENERGY PREDICTED BY IDOCK:  -13.39 KCAL/MOL
REMARK 923 INTER-LIGAND FREE ENERGY PREDICTED BY IDOCK:  -11.69 KCAL/MOL
REMARK 924 INTRA-LIGAND FREE ENERGY PREDICTED BY IDOCK:   -1.69 KCAL/MOL
REMARK 927      BINDING AFFINITY PREDICTED BY RF-SCORE:    0.00 PKD
ROOT
HETATM    1  C   UNL     1      -6.324  20.019  70.255  1.00  0.00    -0.354 C  
HETATM    2  C   UNL     1      -6.360  20.139  68.754  1.00  0.00    -0.312 C  
HETATM    3  N   UNL     1      -7.489  19.686  68.123  1.00  0.00    -0.297 N  
HETATM    4  O   UNL     1      -5.392  20.596  68.144  1.00  0.00    -0.215 OA 
HETATM    5  O   UNL     1      -8.665  19.302  68.789  1.00  0.00    -0.362 OA 
ENDROOT
BRANCH   3   6
HETATM    6  C   UNL     1      -7.668  19.719  66.678  1.00  0.00    -0.280 C  
BRANCH   6   7
HETATM    7  C   UNL     1      -7.094  18.479  65.991  1.00  0.00    -0.306 C  
BRANCH   7   8
HETATM    8  C   UNL     1      -8.068  17.305  66.105  1.00  0.00    -0.272 C  
BRANCH   8   9
HETATM    9  C   UNL     1      -7.484  16.149  66.920  1.00  0.00    -0.266 C  
BRANCH   9  10
HETATM   10  C   UNL     1      -8.447  14.966  67.021  1.00  0.00    -0.231 C  
BRANCH  10  11
HETATM   11  N   UNL     1      -9.385  14.917  65.909  1.00  0.00    -0.487 N  
HETATM   12  C   UNL     1     -10.731  15.133  66.102  1.00  0.00    -0.325 C  
HETATM   13  H   UNL     1      -9.039  14.718  64.970  1.00  0.00     0.000 HD 
HETATM   14  O   UNL     1     -11.230  15.417  67.188  1.00  0.00    -0.326 OA 
BRANCH  12  15
HETATM   15  C   UNL     1     -11.545  15.002  64.833  1.00  0.00    -0.374 C  
BRANCH  15  16
HETATM   16  C   UNL     1     -12.568  13.877  64.968  1.00  0.00    -0.422 C  
BRANCH  16  17
HETATM   17  C   UNL     1     -11.939  12.574  65.420  1.00  0.00    -0.437 C  
HETATM   18  O   UNL     1     -12.153  12.119  66.541  1.00  0.00    -0.627 OA 
HETATM   19  N   UNL     1     -11.102  11.963  64.521  1.00  0.00    -0.315 N  
HETATM   20  O   UNL     1     -10.903  12.391  63.196  1.00  0.00    -0.362 OA 
BRANCH  19  21
HETATM   21  C   UNL     1     -10.356  10.748  64.811  1.00  0.00    -0.310 C  
BRANCH  21  22
HETATM   22  C   UNL     1      -9.200  10.989  65.786  1.00  0.00    -0.226 C  
BRANCH  22  23
HETATM   23  C   UNL     1      -7.933  10.192  65.424  1.00  0.00    -0.144 C  
BRANCH  23  24
HETATM   24  C   UNL     1      -7.665   9.021  66.371  1.00  0.00    -0.099 C  
BRANCH  24  25
HETATM   25  C   UNL     1      -8.751   7.953  66.264  1.00  0.00    -0.154 C  
BRANCH  25  26
HETATM   26  N   UNL     1      -9.121   7.434  67.566  1.00  0.00    -0.125 N  
HETATM   27  H   UNL     1      -9.548   8.063  68.246  1.00  0.00     0.000 HD 
HETATM   28  C   UNL     1      -8.913   6.120  67.909  1.00  0.00    -0.112 C  
HETATM   29  O   UNL     1      -8.424   5.290  67.147  1.00  0.00    -0.108 OA 
BRANCH  28  30
HETATM   30  C   UNL     1      -9.327   5.764  69.314  1.00  0.00    -0.148 C  
BRANCH  30  31
HETATM   31  C   UNL     1      -9.557   7.037  70.114  1.00  0.00    -0.164 C  
BRANCH  31  32
HETATM   32  C   UNL     1     -11.005   7.154  70.539  1.00  0.00    -0.262 C  
HETATM   33  N   UNL     1     -11.351   8.156  71.412  1.00  0.00    -0.252 N  
HETATM   34  O   UNL     1     -11.846   6.407  70.033  1.00  0.00    -0.404 OA 
HETATM   35  O   UNL     1     -10.379   8.694  72.277  1.00  0.00    -0.327 OA 
BRANCH  33  36
HETATM   36  C   UNL     1     -12.710   8.307  71.937  1.00  0.00    -0.342 C  
BRANCH  36  37
HETATM   37  C   UNL     1     -13.115   9.776  72.077  1.00  0.00    -0.546 C  
BRANCH  37  38
HETATM   38  C   UNL     1     -13.106  10.507  70.730  1.00  0.00    -0.335 C  
BRANCH  38  39
HETATM   39  C   UNL     1     -11.991  11.555  70.664  1.00  0.00    -0.391 C  
BRANCH  39  40
HETATM   40  C   UNL     1     -12.531  12.985  70.604  1.00  0.00    -0.268 C  
HETATM   41  N   UNL     1     -13.332  13.310  71.780  1.00  0.00    -0.404 NA 
HETATM   42  H2  UNL     1     -12.813  13.144  72.641  1.00  0.00     0.000 HD 
HETATM   43  H1  UNL     1     -13.693  14.263  71.740  1.00  0.00     0.000 HD 
ENDBRANCH  39  40
ENDBRANCH  38  39
ENDBRANCH  37  38
ENDBRANCH  36  37
ENDBRANCH  33  36
ENDBRANCH  31  32
ENDBRANCH  30  31
ENDBRANCH  28  30
ENDBRANCH  25  26
ENDBRANCH  24  25
ENDBRANCH  23  24
ENDBRANCH  22  23
ENDBRANCH  21  22
ENDBRANCH  19  21
ENDBRANCH  16  17
ENDBRANCH  15  16
ENDBRANCH  12  15
ENDBRANCH  10  11
ENDBRANCH   9  10
ENDBRANCH   8   9
ENDBRANCH   7   8
ENDBRANCH   6   7
ENDBRANCH   3   6
TORSDOF 23
ENDMDL
MODEL      145
REMARK 921   NORMALIZED FREE ENERGY PREDICTED BY IDOCK:   -4.53 KCAL/MOL
REMARK 922        TOTAL FREE ENERGY PREDICTED BY IDOCK:  -13.37 KCAL/MOL
REMARK 923 INTER-LIGAND FREE ENERGY PREDICTED BY IDOCK:  -10.71 KCAL/MOL
REMARK 924 INTRA-LIGAND FREE ENERGY PREDICTED BY IDOCK:   -2.66 KCAL/MOL
REMARK 927      BINDING AFFINITY PREDICTED BY RF-SCORE:    0.00 PKD
ROOT
HETATM    1  C   UNL     1     -10.930   8.936  71.649  1.00  0.00    -0.415 C  
HETATM    2  C   UNL     1     -10.821   7.705  72.511  1.00  0.00    -0.314 C  
HETATM    3  N   UNL     1     -11.599   6.633  72.159  1.00  0.00    -0.286 N  
HETATM    4  O   UNL     1     -10.084   7.700  73.498  1.00  0.00    -0.325 OA 
HETATM    5  O   UNL     1     -12.331   6.547  70.963  1.00  0.00    -0.295 OA 
ENDROOT
BRANCH   3   6
HETATM    6  C   UNL     1     -11.618   5.379  72.899  1.00  0.00    -0.228 C  
BRANCH   6   7
HETATM    7  C   UNL     1     -10.255   4.684  72.904  1.00  0.00    -0.229 C  
BRANCH   7   8
HETATM    8  C   UNL     1     -10.040   3.919  71.597  1.00  0.00    -0.167 C  
BRANCH   8   9
HETATM    9  C   UNL     1      -9.076   4.644  70.656  1.00  0.00    -0.181 C  
BRANCH   9  10
HETATM   10  C   UNL     1      -9.748   5.063  69.348  1.00  0.00    -0.184 C  
BRANCH  10  11
HETATM   11  N   UNL     1      -9.606   6.487  69.081  1.00  0.00    -0.134 N  
HETATM   12  C   UNL     1     -10.294   7.091  68.053  1.00  0.00    -0.193 C  
HETATM   13  H   UNL     1      -8.986   7.046  69.667  1.00  0.00     0.000 HD 
HETATM   14  O   UNL     1     -11.090   6.504  67.324  1.00  0.00    -0.378 OA 
BRANCH  12  15
HETATM   15  C   UNL     1      -9.984   8.566  67.913  1.00  0.00    -0.225 C  
BRANCH  15  16
HETATM   16  C   UNL     1      -8.477   8.802  67.952  1.00  0.00    -0.126 C  
BRANCH  16  17
HETATM   17  C   UNL     1      -8.104  10.026  68.766  1.00  0.00    -0.106 C  
HETATM   18  O   UNL     1      -8.294  10.065  69.980  1.00  0.00    -0.188 OA 
HETATM   19  N   UNL     1      -7.581  11.082  68.064  1.00  0.00    -0.090 N  
HETATM   20  O   UNL     1      -7.254  11.049  66.697  1.00  0.00    -0.129 OA 
BRANCH  19  21
HETATM   21  C   UNL     1      -7.236  12.360  68.669  1.00  0.00    -0.104 C  
BRANCH  21  22
HETATM   22  C   UNL     1      -6.309  13.196  67.782  1.00  0.00    -0.156 C  
BRANCH  22  23
HETATM   23  C   UNL     1      -6.668  14.694  67.782  1.00  0.00    -0.194 C  
BRANCH  23  24
HETATM   24  C   UNL     1      -6.536  15.347  69.159  1.00  0.00    -0.128 C  
BRANCH  24  25
HETATM   25  C   UNL     1      -7.501  16.520  69.318  1.00  0.00    -0.183 C  
BRANCH  25  26
HETATM   26  N   UNL     1      -8.277  16.741  68.115  1.00  0.00    -0.193 N  
HETATM   27  H   UNL     1      -8.109  16.150  67.301  1.00  0.00     0.000 HD 
HETATM   28  C   UNL     1      -9.234  17.726  68.039  1.00  0.00    -0.273 C  
HETATM   29  O   UNL     1      -9.516  18.469  68.974  1.00  0.00    -0.271 OA 
BRANCH  28  30
HETATM   30  C   UNL     1      -9.918  17.835  66.700  1.00  0.00    -0.338 C  
BRANCH  30  31
HETATM   31  C   UNL     1      -9.623  16.593  65.875  1.00  0.00    -0.248 C  
BRANCH  31  32
HETATM   32  C   UNL     1     -10.748  15.586  65.990  1.00  0.00    -0.326 C  
HETATM   33  N   UNL     1     -11.506  15.322  64.875  1.00  0.00    -0.370 N  
HETATM   34  O   UNL     1     -10.905  14.974  67.048  1.00  0.00    -0.299 OA 
HETATM   35  O   UNL     1     -11.603  16.287  63.854  1.00  0.00    -0.987 OA 
BRANCH  33  36
HETATM   36  C   UNL     1     -12.660  14.421  64.903  1.00  0.00    -0.286 C  
BRANCH  36  37
HETATM   37  C   UNL     1     -12.243  12.951  64.963  1.00  0.00    -0.515 C  
BRANCH  37  38
HETATM   38  C   UNL     1     -12.143  12.322  63.569  1.00  0.00    -0.649 C  
BRANCH  38  39
HETATM   39  C   UNL     1     -10.812  11.592  63.372  1.00  0.00    -0.423 C  
BRANCH  39  40
HETATM   40  C   UNL     1     -10.284  10.970  64.666  1.00  0.00    -0.330 C  
HETATM   41  N   UNL     1      -9.218  10.007  64.408  1.00  0.00    -0.248 NA 
HETATM   42  H2  UNL     1      -8.465  10.424  63.862  1.00  0.00     0.000 HD 
HETATM   43  H1  UNL     1      -8.867   9.592  65.271  1.00  0.00     0.000 HD 
ENDBRANCH  39  40
ENDBRANCH  38  39
ENDBRANCH  37  38
ENDBRANCH  36  37
ENDBRANCH  33  36
ENDBRANCH  31  32
ENDBRANCH  30  31
ENDBRANCH  28  30
ENDBRANCH  25  26
ENDBRANCH  24  25
ENDBRANCH  23  24
ENDBRANCH  22  23
ENDBRANCH  21  22
ENDBRANCH  19  21
ENDBRANCH  16  17
ENDBRANCH  15  16
ENDBRANCH  12  15
ENDBRANCH  10  11
ENDBRANCH   9  10
ENDBRANCH   8   9
ENDBRANCH   7   8
ENDBRANCH   6   7
ENDBRANCH   3   6
TORSDOF 23
ENDMDL
MODEL      146
REMARK 921   NORMALIZED FREE ENERGY PREDICTED BY IDOCK:   -4.52 KCAL/MOL
REMARK 922        TOTAL FREE ENERGY PREDICTED BY IDOCK:  -13.35 KCAL/MOL
REMARK 923 INTER-LIGAND FREE ENERGY PREDICTED BY IDOCK:   -9.53 KCAL/MOL
REMARK 924 INTRA-LIGAND FREE ENERGY PREDICTED BY IDOCK:   -3.82 KCAL/MOL
REMARK 927      BINDING AFFINITY PREDICTED BY RF-SCORE:    0.00 PKD
ROOT
HETATM    1  C   UNL     1     -12.296  14.368  69.795  1.00  0.00    -0.333 C  
HETATM    2  C   UNL     1     -11.785  14.892  68.478  1.00  0.00    -0.310 C  
HETATM    3  N   UNL     1     -11.008  16.020  68.521  1.00  0.00    -0.308 N  
HETATM    4  O   UNL     1     -12.092  14.332  67.425  1.00  0.00    -0.400 OA 
HETATM    5  O   UNL     1     -10.515  16.595  69.704  1.00  0.00    -0.296 OA 
ENDROOT
BRANCH   3   6
HETATM    6  C   UNL     1     -10.452  16.656  67.334  1.00  0.00    -0.314 C  
BRANCH   6   7
HETATM    7  C   UNL     1      -8.936  16.841  67.428  1.00  0.00    -0.211 C  
BRANCH   7   8
HETATM    8  C   UNL     1      -8.216  15.544  67.053  1.00  0.00    -0.275 C  
BRANCH   8   9
HETATM    9  C   UNL     1      -7.165  15.149  68.092  1.00  0.00    -0.120 C  
BRANCH   9  10
HETATM   10  C   UNL     1      -6.241  14.039  67.590  1.00  0.00    -0.093 C  
BRANCH  10  11
HETATM   11  N   UNL     1      -6.978  12.891  67.083  1.00  0.00    -0.355 N  
HETATM   12  C   UNL     1      -6.401  11.642  67.029  1.00  0.00    -0.149 C  
HETATM   13  H   UNL     1      -7.938  13.014  66.763  1.00  0.00     0.000 HD 
HETATM   14  O   UNL     1      -5.267  11.393  67.429  1.00  0.00    -0.042 OA 
BRANCH  12  15
HETATM   15  C   UNL     1      -7.312  10.588  66.437  1.00  0.00    -0.129 C  
BRANCH  15  16
HETATM   16  C   UNL     1      -8.591  11.228  65.901  1.00  0.00    -0.096 C  
BRANCH  16  17
HETATM   17  C   UNL     1      -9.836  10.676  66.568  1.00  0.00    -0.204 C  
HETATM   18  O   UNL     1     -10.433   9.709  66.099  1.00  0.00    -0.179 OA 
HETATM   19  N   UNL     1     -10.264  11.336  67.691  1.00  0.00    -0.178 N  
HETATM   20  O   UNL     1      -9.563  12.380  68.320  1.00  0.00    -0.212 OA 
BRANCH  19  21
HETATM   21  C   UNL     1     -11.478  10.991  68.415  1.00  0.00    -0.308 C  
BRANCH  21  22
HETATM   22  C   UNL     1     -11.225   9.974  69.531  1.00  0.00    -0.254 C  
BRANCH  22  23
HETATM   23  C   UNL     1     -11.641  10.492  70.921  1.00  0.00    -0.385 C  
BRANCH  23  24
HETATM   24  C   UNL     1     -13.151  10.447  71.156  1.00  0.00    -0.474 C  
BRANCH  24  25
HETATM   25  C   UNL     1     -13.499   9.678  72.428  1.00  0.00    -0.333 C  
BRANCH  25  26
HETATM   26  N   UNL     1     -12.740   8.448  72.534  1.00  0.00    -0.583 N  
HETATM   27  H   UNL     1     -11.880   8.441  73.084  1.00  0.00     0.000 HD 
HETATM   28  C   UNL     1     -13.145   7.289  71.914  1.00  0.00    -0.242 C  
HETATM   29  O   UNL     1     -14.174   7.200  71.251  1.00  0.00    -0.355 OA 
BRANCH  28  30
HETATM   30  C   UNL     1     -12.217   6.117  72.104  1.00  0.00    -0.202 C  
BRANCH  30  31
HETATM   31  C   UNL     1     -10.845   6.458  71.542  1.00  0.00    -0.299 C  
BRANCH  31  32
HETATM   32  C   UNL     1     -10.224   5.253  70.866  1.00  0.00    -0.234 C  
HETATM   33  N   UNL     1     -10.150   5.239  69.495  1.00  0.00    -0.230 N  
HETATM   34  O   UNL     1      -9.731   4.360  71.558  1.00  0.00    -0.155 OA 
HETATM   35  O   UNL     1     -11.056   6.009  68.740  1.00  0.00    -0.336 OA 
BRANCH  33  36
HETATM   36  C   UNL     1      -9.634   4.091  68.747  1.00  0.00    -0.130 C  
BRANCH  36  37
HETATM   37  C   UNL     1      -8.129   4.195  68.495  1.00  0.00    -0.077 C  
BRANCH  37  38
HETATM   38  C   UNL     1      -7.746   5.522  67.830  1.00  0.00    -0.092 C  
BRANCH  38  39
HETATM   39  C   UNL     1      -7.662   5.388  66.307  1.00  0.00    -0.099 C  
BRANCH  39  40
HETATM   40  C   UNL     1      -8.438   6.485  65.576  1.00  0.00    -0.136 C  
HETATM   41  N   UNL     1      -9.767   6.679  66.148  1.00  0.00    -0.397 NA 
HETATM   42  H2  UNL     1      -9.717   6.863  67.150  1.00  0.00     0.000 HD 
HETATM   43  H1  UNL     1     -10.285   7.410  65.660  1.00  0.00     0.000 HD 
ENDBRANCH  39  40
ENDBRANCH  38  39
ENDBRANCH  37  38
ENDBRANCH  36  37
ENDBRANCH  33  36
ENDBRANCH  31  32
ENDBRANCH  30  31
ENDBRANCH  28  30
ENDBRANCH  25  26
ENDBRANCH  24  25
ENDBRANCH  23  24
ENDBRANCH  22  23
ENDBRANCH  21  22
ENDBRANCH  19  21
ENDBRANCH  16  17
ENDBRANCH  15  16
ENDBRANCH  12  15
ENDBRANCH  10  11
ENDBRANCH   9  10
ENDBRANCH   8   9
ENDBRANCH   7   8
ENDBRANCH   6   7
ENDBRANCH   3   6
TORSDOF 23
ENDMDL
MODEL      147
REMARK 921   NORMALIZED FREE ENERGY PREDICTED BY IDOCK:   -4.50 KCAL/MOL
REMARK 922        TOTAL FREE ENERGY PREDICTED BY IDOCK:  -13.31 KCAL/MOL
REMARK 923 INTER-LIGAND FREE ENERGY PREDICTED BY IDOCK:  -11.46 KCAL/MOL
REMARK 924 INTRA-LIGAND FREE ENERGY PREDICTED BY IDOCK:   -1.85 KCAL/MOL
REMARK 927      BINDING AFFINITY PREDICTED BY RF-SCORE:    0.00 PKD
ROOT
HETATM    1  C   UNL     1      -9.540   3.886  69.234  1.00  0.00    -0.232 C  
HETATM    2  C   UNL     1      -9.109   4.841  70.316  1.00  0.00    -0.115 C  
HETATM    3  N   UNL     1      -8.209   4.368  71.235  1.00  0.00    -0.082 N  
HETATM    4  O   UNL     1      -9.585   5.975  70.369  1.00  0.00    -0.161 OA 
HETATM    5  O   UNL     1      -7.534   3.141  71.121  1.00  0.00    -0.033 OA 
ENDROOT
BRANCH   3   6
HETATM    6  C   UNL     1      -7.707   5.163  72.348  1.00  0.00    -0.097 C  
BRANCH   6   7
HETATM    7  C   UNL     1      -8.152   4.611  73.704  1.00  0.00    -0.106 C  
BRANCH   7   8
HETATM    8  C   UNL     1      -9.296   5.452  74.274  1.00  0.00    -0.132 C  
BRANCH   8   9
HETATM    9  C   UNL     1     -10.646   4.742  74.154  1.00  0.00    -0.351 C  
BRANCH   9  10
HETATM   10  C   UNL     1     -11.527   5.352  73.063  1.00  0.00    -0.259 C  
BRANCH  10  11
HETATM   11  N   UNL     1     -11.360   6.794  72.956  1.00  0.00    -0.490 N  
HETATM   12  C   UNL     1     -12.179   7.547  72.145  1.00  0.00    -0.248 C  
HETATM   13  H   UNL     1     -10.623   7.254  73.490  1.00  0.00     0.000 HD 
HETATM   14  O   UNL     1     -13.115   7.085  71.498  1.00  0.00    -0.380 OA 
BRANCH  12  15
HETATM   15  C   UNL     1     -11.822   9.019  72.138  1.00  0.00    -0.384 C  
BRANCH  15  16
HETATM   16  C   UNL     1     -13.065   9.869  71.887  1.00  0.00    -0.559 C  
BRANCH  16  17
HETATM   17  C   UNL     1     -12.726  11.244  71.345  1.00  0.00    -0.396 C  
HETATM   18  O   UNL     1     -13.051  12.264  71.949  1.00  0.00    -0.432 OA 
HETATM   19  N   UNL     1     -12.071  11.274  70.141  1.00  0.00    -0.345 N  
HETATM   20  O   UNL     1     -11.591  10.140  69.463  1.00  0.00    -0.206 OA 
BRANCH  19  21
HETATM   21  C   UNL     1     -11.732  12.504  69.439  1.00  0.00    -0.322 C  
BRANCH  21  22
HETATM   22  C   UNL     1     -11.079  12.240  68.079  1.00  0.00    -0.285 C  
BRANCH  22  23
HETATM   23  C   UNL     1     -11.697  13.078  66.944  1.00  0.00    -0.441 C  
BRANCH  23  24
HETATM   24  C   UNL     1     -10.887  13.031  65.648  1.00  0.00    -0.293 C  
BRANCH  24  25
HETATM   25  C   UNL     1     -10.855  14.393  64.957  1.00  0.00    -0.407 C  
BRANCH  25  26
HETATM   26  N   UNL     1     -10.689  15.473  65.909  1.00  0.00    -0.331 N  
HETATM   27  H   UNL     1     -10.388  15.254  66.859  1.00  0.00     0.000 HD 
HETATM   28  C   UNL     1     -10.927  16.783  65.569  1.00  0.00    -0.031 C  
HETATM   29  O   UNL     1     -11.273  17.140  64.447  1.00  0.00    -1.143 OA 
BRANCH  28  30
HETATM   30  C   UNL     1     -10.737  17.768  66.694  1.00  0.00    -0.124 C  
BRANCH  30  31
HETATM   31  C   UNL     1      -9.827  18.897  66.234  1.00  0.00    -0.401 C  
BRANCH  31  32
HETATM   32  C   UNL     1      -8.382  18.601  66.579  1.00  0.00    -0.291 C  
HETATM   33  N   UNL     1      -8.013  18.600  67.902  1.00  0.00    -0.254 N  
HETATM   34  O   UNL     1      -7.598  18.290  65.680  1.00  0.00    -0.532 OA 
HETATM   35  O   UNL     1      -8.761  19.344  68.835  1.00  0.00    -0.365 OA 
BRANCH  33  36
HETATM   36  C   UNL     1      -6.628  18.398  68.331  1.00  0.00    -0.222 C  
BRANCH  36  37
HETATM   37  C   UNL     1      -6.536  17.556  69.606  1.00  0.00    -0.147 C  
BRANCH  37  38
HETATM   38  C   UNL     1      -6.230  16.085  69.305  1.00  0.00    -0.151 C  
BRANCH  38  39
HETATM   39  C   UNL     1      -7.485  15.214  69.410  1.00  0.00    -0.204 C  
BRANCH  39  40
HETATM   40  C   UNL     1      -8.098  14.898  68.045  1.00  0.00    -0.136 C  
HETATM   41  N   UNL     1      -7.104  14.373  67.114  1.00  0.00    -0.373 NA 
HETATM   42  H2  UNL     1      -6.623  13.561  67.503  1.00  0.00     0.000 HD 
HETATM   43  H1  UNL     1      -7.512  14.162  66.204  1.00  0.00     0.000 HD 
ENDBRANCH  39  40
ENDBRANCH  38  39
ENDBRANCH  37  38
ENDBRANCH  36  37
ENDBRANCH  33  36
ENDBRANCH  31  32
ENDBRANCH  30  31
ENDBRANCH  28  30
ENDBRANCH  25  26
ENDBRANCH  24  25
ENDBRANCH  23  24
ENDBRANCH  22  23
ENDBRANCH  21  22
ENDBRANCH  19  21
ENDBRANCH  16  17
ENDBRANCH  15  16
ENDBRANCH  12  15
ENDBRANCH  10  11
ENDBRANCH   9  10
ENDBRANCH   8   9
ENDBRANCH   7   8
ENDBRANCH   6   7
ENDBRANCH   3   6
TORSDOF 23
ENDMDL
MODEL      148
REMARK 921   NORMALIZED FREE ENERGY PREDICTED BY IDOCK:   -4.50 KCAL/MOL
REMARK 922        TOTAL FREE ENERGY PREDICTED BY IDOCK:  -13.30 KCAL/MOL
REMARK 923 INTER-LIGAND FREE ENERGY PREDICTED BY IDOCK:  -10.32 KCAL/MOL
REMARK 924 INTRA-LIGAND FREE ENERGY PREDICTED BY IDOCK:   -2.98 KCAL/MOL
REMARK 927      BINDING AFFINITY PREDICTED BY RF-SCORE:    0.00 PKD
ROOT
HETATM    1  C   UNL     1     -10.177  17.056  66.850  1.00  0.00    -0.305 C  
HETATM    2  C   UNL     1     -10.849  16.640  65.567  1.00  0.00    -0.163 C  
HETATM    3  N   UNL     1     -11.145  15.310  65.427  1.00  0.00    -0.351 N  
HETATM    4  O   UNL     1     -11.080  17.472  64.689  1.00  0.00    -0.978 OA 
HETATM    5  O   UNL     1     -11.036  14.363  66.460  1.00  0.00    -0.305 OA 
ENDROOT
BRANCH   3   6
HETATM    6  C   UNL     1     -11.780  14.750  64.242  1.00  0.00    -0.258 C  
BRANCH   6   7
HETATM    7  C   UNL     1     -12.410  13.382  64.509  1.00  0.00    -0.415 C  
BRANCH   7   8
HETATM    8  C   UNL     1     -12.144  12.433  63.339  1.00  0.00    -0.620 C  
BRANCH   8   9
HETATM    9  C   UNL     1     -10.806  11.705  63.481  1.00  0.00    -0.497 C  
BRANCH   9  10
HETATM   10  C   UNL     1     -10.670  11.000  64.832  1.00  0.00    -0.208 C  
BRANCH  10  11
HETATM   11  N   UNL     1      -9.437  10.236  64.939  1.00  0.00    -0.253 N  
HETATM   12  C   UNL     1      -9.334   9.165  65.798  1.00  0.00    -0.245 C  
HETATM   13  H   UNL     1      -8.634  10.499  64.367  1.00  0.00     0.000 HD 
HETATM   14  O   UNL     1     -10.259   8.754  66.493  1.00  0.00    -0.288 OA 
BRANCH  12  15
HETATM   15  C   UNL     1      -7.962   8.526  65.793  1.00  0.00    -0.107 C  
BRANCH  15  16
HETATM   16  C   UNL     1      -7.680   7.855  67.136  1.00  0.00    -0.101 C  
BRANCH  16  17
HETATM   17  C   UNL     1      -7.132   6.451  66.977  1.00  0.00    -0.073 C  
HETATM   18  O   UNL     1      -7.297   5.817  65.937  1.00  0.00    -0.071 OA 
HETATM   19  N   UNL     1      -6.478   5.930  68.065  1.00  0.00    -0.041 N  
HETATM   20  O   UNL     1      -6.178   6.648  69.236  1.00  0.00    -0.028 OA 
BRANCH  19  21
HETATM   21  C   UNL     1      -5.953   4.574  68.116  1.00  0.00    -0.027 C  
BRANCH  21  22
HETATM   22  C   UNL     1      -6.339   3.846  69.406  1.00  0.00    -0.029 C  
BRANCH  22  23
HETATM   23  C   UNL     1      -7.724   3.177  69.328  1.00  0.00    -0.048 C  
BRANCH  23  24
HETATM   24  C   UNL     1      -7.928   2.356  68.053  1.00  0.00    -0.063 C  
BRANCH  24  25
HETATM   25  C   UNL     1      -9.027   2.949  67.174  1.00  0.00    -0.159 C  
BRANCH  25  26
HETATM   26  N   UNL     1      -9.643   4.105  67.794  1.00  0.00    -0.171 N  
HETATM   27  H   UNL     1      -9.442   4.308  68.773  1.00  0.00     0.000 HD 
HETATM   28  C   UNL     1     -10.489   4.936  67.099  1.00  0.00    -0.064 C  
HETATM   29  O   UNL     1     -10.771   4.780  65.915  1.00  0.00    -0.318 OA 
BRANCH  28  30
HETATM   30  C   UNL     1     -11.063   6.069  67.911  1.00  0.00    -0.220 C  
BRANCH  30  31
HETATM   31  C   UNL     1     -10.500   6.020  69.323  1.00  0.00    -0.328 C  
BRANCH  31  32
HETATM   32  C   UNL     1     -11.262   6.952  70.241  1.00  0.00    -0.316 C  
HETATM   33  N   UNL     1     -10.930   8.285  70.243  1.00  0.00    -0.241 N  
HETATM   34  O   UNL     1     -12.208   6.512  70.899  1.00  0.00    -0.329 OA 
HETATM   35  O   UNL     1      -9.638   8.681  69.847  1.00  0.00    -0.168 OA 
BRANCH  33  36
HETATM   36  C   UNL     1     -11.558   9.251  71.147  1.00  0.00    -0.327 C  
BRANCH  36  37
HETATM   37  C   UNL     1     -11.802  10.600  70.469  1.00  0.00    -0.453 C  
BRANCH  37  38
HETATM   38  C   UNL     1     -12.830  11.449  71.227  1.00  0.00    -0.481 C  
BRANCH  38  39
HETATM   39  C   UNL     1     -12.543  12.946  71.083  1.00  0.00    -0.373 C  
BRANCH  39  40
HETATM   40  C   UNL     1     -11.934  13.301  69.725  1.00  0.00    -0.324 C  
HETATM   41  N   UNL     1     -12.414  14.589  69.237  1.00  0.00    -0.570 NA 
HETATM   42  H2  UNL     1     -12.254  15.329  69.921  1.00  0.00     0.000 HD 
HETATM   43  H1  UNL     1     -12.008  14.826  68.332  1.00  0.00     0.000 HD 
ENDBRANCH  39  40
ENDBRANCH  38  39
ENDBRANCH  37  38
ENDBRANCH  36  37
ENDBRANCH  33  36
ENDBRANCH  31  32
ENDBRANCH  30  31
ENDBRANCH  28  30
ENDBRANCH  25  26
ENDBRANCH  24  25
ENDBRANCH  23  24
ENDBRANCH  22  23
ENDBRANCH  21  22
ENDBRANCH  19  21
ENDBRANCH  16  17
ENDBRANCH  15  16
ENDBRANCH  12  15
ENDBRANCH  10  11
ENDBRANCH   9  10
ENDBRANCH   8   9
ENDBRANCH   7   8
ENDBRANCH   6   7
ENDBRANCH   3   6
TORSDOF 23
ENDMDL
MODEL      149
REMARK 921   NORMALIZED FREE ENERGY PREDICTED BY IDOCK:   -4.48 KCAL/MOL
REMARK 922        TOTAL FREE ENERGY PREDICTED BY IDOCK:  -13.27 KCAL/MOL
REMARK 923 INTER-LIGAND FREE ENERGY PREDICTED BY IDOCK:  -11.23 KCAL/MOL
REMARK 924 INTRA-LIGAND FREE ENERGY PREDICTED BY IDOCK:   -2.03 KCAL/MOL
REMARK 927      BINDING AFFINITY PREDICTED BY RF-SCORE:    0.00 PKD
ROOT
HETATM    1  C   UNL     1      -7.252  11.826  67.319  1.00  0.00    -0.142 C  
HETATM    2  C   UNL     1      -8.254  12.949  67.390  1.00  0.00    -0.187 C  
HETATM    3  N   UNL     1      -7.752  14.222  67.452  1.00  0.00    -0.185 N  
HETATM    4  O   UNL     1      -9.460  12.703  67.423  1.00  0.00    -0.181 OA 
HETATM    5  O   UNL     1      -6.398  14.548  67.265  1.00  0.00    -0.301 OA 
ENDROOT
BRANCH   3   6
HETATM    6  C   UNL     1      -8.589  15.411  67.540  1.00  0.00    -0.174 C  
BRANCH   6   7
HETATM    7  C   UNL     1      -9.104  15.864  66.172  1.00  0.00    -0.385 C  
BRANCH   7   8
HETATM    8  C   UNL     1     -10.631  15.954  66.179  1.00  0.00    -0.310 C  
BRANCH   8   9
HETATM    9  C   UNL     1     -11.210  16.028  64.765  1.00  0.00    -0.348 C  
BRANCH   9  10
HETATM   10  C   UNL     1     -12.004  14.775  64.397  1.00  0.00    -0.417 C  
BRANCH  10  11
HETATM   11  N   UNL     1     -11.146  13.625  64.152  1.00  0.00    -0.574 N  
HETATM   12  C   UNL     1     -11.654  12.455  63.634  1.00  0.00    -0.499 C  
HETATM   13  H   UNL     1     -10.152  13.688  64.368  1.00  0.00     0.000 HD 
HETATM   14  O   UNL     1     -12.828  12.302  63.309  1.00  0.00    -0.719 OA 
BRANCH  12  15
HETATM   15  C   UNL     1     -10.613  11.365  63.488  1.00  0.00    -0.468 C  
BRANCH  15  16
HETATM   16  C   UNL     1     -10.347  10.697  64.835  1.00  0.00    -0.347 C  
BRANCH  16  17
HETATM   17  C   UNL     1      -9.082   9.861  64.825  1.00  0.00    -0.237 C  
HETATM   18  O   UNL     1      -8.122  10.167  64.120  1.00  0.00    -0.153 OA 
HETATM   19  N   UNL     1      -9.091   8.741  65.617  1.00  0.00    -0.206 N  
HETATM   20  O   UNL     1     -10.121   8.404  66.513  1.00  0.00    -0.276 OA 
BRANCH  19  21
HETATM   21  C   UNL     1      -7.994   7.786  65.675  1.00  0.00    -0.118 C  
BRANCH  21  22
HETATM   22  C   UNL     1      -7.909   7.075  67.028  1.00  0.00    -0.108 C  
BRANCH  22  23
HETATM   23  C   UNL     1      -7.010   7.813  68.038  1.00  0.00    -0.080 C  
BRANCH  23  24
HETATM   24  C   UNL     1      -7.725   8.155  69.346  1.00  0.00    -0.103 C  
BRANCH  24  25
HETATM   25  C   UNL     1      -7.446   7.112  70.427  1.00  0.00    -0.084 C  
BRANCH  25  26
HETATM   26  N   UNL     1      -8.602   6.273  70.671  1.00  0.00    -0.137 N  
HETATM   27  H   UNL     1      -8.904   5.623  69.946  1.00  0.00     0.000 HD 
HETATM   28  C   UNL     1      -9.302   6.329  71.853  1.00  0.00    -0.149 C  
HETATM   29  O   UNL     1      -8.998   7.065  72.787  1.00  0.00    -0.129 OA 
BRANCH  28  30
HETATM   30  C   UNL     1     -10.495   5.410  71.920  1.00  0.00    -0.283 C  
BRANCH  30  31
HETATM   31  C   UNL     1     -11.773   6.234  71.920  1.00  0.00    -0.370 C  
BRANCH  31  32
HETATM   32  C   UNL     1     -11.587   7.520  71.142  1.00  0.00    -0.282 C  
HETATM   33  N   UNL     1     -11.765   8.713  71.800  1.00  0.00    -0.307 N  
HETATM   34  O   UNL     1     -11.203   7.469  69.972  1.00  0.00    -0.243 OA 
HETATM   35  O   UNL     1     -12.583   8.762  72.945  1.00  0.00    -0.288 OA 
BRANCH  33  36
HETATM   36  C   UNL     1     -11.679  10.007  71.119  1.00  0.00    -0.387 C  
BRANCH  36  37
HETATM   37  C   UNL     1     -13.021  10.741  71.105  1.00  0.00    -0.467 C  
BRANCH  37  38
HETATM   38  C   UNL     1     -12.929  12.123  71.761  1.00  0.00    -0.437 C  
BRANCH  38  39
HETATM   39  C   UNL     1     -12.414  13.181  70.782  1.00  0.00    -0.389 C  
BRANCH  39  40
HETATM   40  C   UNL     1     -11.916  14.444  71.487  1.00  0.00    -0.226 C  
HETATM   41  N   UNL     1     -10.839  15.089  70.744  1.00  0.00    -0.537 NA 
HETATM   42  H2  UNL     1     -11.117  15.286  69.783  1.00  0.00     0.000 HD 
HETATM   43  H1  UNL     1     -10.506  15.931  71.215  1.00  0.00     0.000 HD 
ENDBRANCH  39  40
ENDBRANCH  38  39
ENDBRANCH  37  38
ENDBRANCH  36  37
ENDBRANCH  33  36
ENDBRANCH  31  32
ENDBRANCH  30  31
ENDBRANCH  28  30
ENDBRANCH  25  26
ENDBRANCH  24  25
ENDBRANCH  23  24
ENDBRANCH  22  23
ENDBRANCH  21  22
ENDBRANCH  19  21
ENDBRANCH  16  17
ENDBRANCH  15  16
ENDBRANCH  12  15
ENDBRANCH  10  11
ENDBRANCH   9  10
ENDBRANCH   8   9
ENDBRANCH   7   8
ENDBRANCH   6   7
ENDBRANCH   3   6
TORSDOF 23
ENDMDL
MODEL      150
REMARK 921   NORMALIZED FREE ENERGY PREDICTED BY IDOCK:   -4.48 KCAL/MOL
REMARK 922        TOTAL FREE ENERGY PREDICTED BY IDOCK:  -13.27 KCAL/MOL
REMARK 923 INTER-LIGAND FREE ENERGY PREDICTED BY IDOCK:  -10.50 KCAL/MOL
REMARK 924 INTRA-LIGAND FREE ENERGY PREDICTED BY IDOCK:   -2.77 KCAL/MOL
REMARK 927      BINDING AFFINITY PREDICTED BY RF-SCORE:    0.00 PKD
ROOT
HETATM    1  C   UNL     1     -13.377  10.154  72.075  1.00  0.00    -0.492 C  
HETATM    2  C   UNL     1     -13.358   8.686  71.737  1.00  0.00    -0.374 C  
HETATM    3  N   UNL     1     -12.133   8.074  71.711  1.00  0.00    -0.291 N  
HETATM    4  O   UNL     1     -14.405   8.097  71.468  1.00  0.00    -0.426 OA 
HETATM    5  O   UNL     1     -10.941   8.671  72.155  1.00  0.00    -0.341 OA 
ENDROOT
BRANCH   3   6
HETATM    6  C   UNL     1     -11.947   6.666  71.386  1.00  0.00    -0.353 C  
BRANCH   6   7
HETATM    7  C   UNL     1     -11.119   6.465  70.115  1.00  0.00    -0.428 C  
BRANCH   7   8
HETATM    8  C   UNL     1     -10.398   5.116  70.155  1.00  0.00    -0.340 C  
BRANCH   8   9
HETATM    9  C   UNL     1      -8.953   5.250  70.639  1.00  0.00    -0.159 C  
BRANCH   9  10
HETATM   10  C   UNL     1      -8.122   6.166  69.739  1.00  0.00    -0.119 C  
BRANCH  10  11
HETATM   11  N   UNL     1      -7.539   7.282  70.468  1.00  0.00    -0.086 N  
HETATM   12  C   UNL     1      -7.923   8.579  70.210  1.00  0.00    -0.103 C  
HETATM   13  H   UNL     1      -6.834   7.100  71.182  1.00  0.00     0.000 HD 
HETATM   14  O   UNL     1      -8.790   8.888  69.398  1.00  0.00    -0.138 OA 
BRANCH  12  15
HETATM   15  C   UNL     1      -7.176   9.599  71.043  1.00  0.00     0.076 C  
BRANCH  15  16
HETATM   16  C   UNL     1      -5.861   9.981  70.367  1.00  0.00    -0.071 C  
BRANCH  16  17
HETATM   17  C   UNL     1      -6.045  11.048  69.305  1.00  0.00    -0.050 C  
HETATM   18  O   UNL     1      -6.247  10.747  68.130  1.00  0.00    -0.056 OA 
HETATM   19  N   UNL     1      -5.941  12.347  69.730  1.00  0.00    -0.124 N  
HETATM   20  O   UNL     1      -5.810  12.742  71.073  1.00  0.00    -0.312 OA 
BRANCH  19  21
HETATM   21  C   UNL     1      -6.016  13.495  68.837  1.00  0.00    -0.082 C  
BRANCH  21  22
HETATM   22  C   UNL     1      -6.332  14.795  69.582  1.00  0.00    -0.142 C  
BRANCH  22  23
HETATM   23  C   UNL     1      -6.498  16.002  68.639  1.00  0.00    -0.118 C  
BRANCH  23  24
HETATM   24  C   UNL     1      -7.939  16.212  68.174  1.00  0.00    -0.148 C  
BRANCH  24  25
HETATM   25  C   UNL     1      -8.008  16.497  66.675  1.00  0.00    -0.284 C  
BRANCH  25  26
HETATM   26  N   UNL     1      -8.800  15.504  65.977  1.00  0.00    -0.419 N  
HETATM   27  H   UNL     1      -8.351  14.644  65.663  1.00  0.00     0.000 HD 
HETATM   28  C   UNL     1     -10.139  15.689  65.727  1.00  0.00    -0.366 C  
HETATM   29  O   UNL     1     -10.765  16.682  66.086  1.00  0.00    -0.249 OA 
BRANCH  28  30
HETATM   30  C   UNL     1     -10.795  14.569  64.961  1.00  0.00    -0.425 C  
BRANCH  30  31
HETATM   31  C   UNL     1     -10.308  13.232  65.497  1.00  0.00    -0.298 C  
BRANCH  31  32
HETATM   32  C   UNL     1     -11.292  12.658  66.495  1.00  0.00    -0.326 C  
HETATM   33  N   UNL     1     -10.965  12.694  67.829  1.00  0.00    -0.225 N  
HETATM   34  O   UNL     1     -12.387  12.252  66.100  1.00  0.00    -0.588 OA 
HETATM   35  O   UNL     1      -9.612  12.749  68.214  1.00  0.00    -0.218 OA 
BRANCH  33  36
HETATM   36  C   UNL     1     -11.816  12.100  68.863  1.00  0.00    -0.304 C  
BRANCH  36  37
HETATM   37  C   UNL     1     -12.129  13.087  69.989  1.00  0.00    -0.367 C  
BRANCH  37  38
HETATM   38  C   UNL     1     -12.281  14.522  69.474  1.00  0.00    -0.306 C  
BRANCH  38  39
HETATM   39  C   UNL     1     -12.625  15.496  70.605  1.00  0.00    -0.493 C  
BRANCH  39  40
HETATM   40  C   UNL     1     -11.493  15.636  71.624  1.00  0.00    -0.429 C  
HETATM   41  N   UNL     1     -11.937  16.323  72.833  1.00  0.00    -0.528 NA 
HETATM   42  H2  UNL     1     -12.751  15.866  73.243  1.00  0.00     0.000 HD 
HETATM   43  H1  UNL     1     -11.182  16.416  73.513  1.00  0.00     0.000 HD 
ENDBRANCH  39  40
ENDBRANCH  38  39
ENDBRANCH  37  38
ENDBRANCH  36  37
ENDBRANCH  33  36
ENDBRANCH  31  32
ENDBRANCH  30  31
ENDBRANCH  28  30
ENDBRANCH  25  26
ENDBRANCH  24  25
ENDBRANCH  23  24
ENDBRANCH  22  23
ENDBRANCH  21  22
ENDBRANCH  19  21
ENDBRANCH  16  17
ENDBRANCH  15  16
ENDBRANCH  12  15
ENDBRANCH  10  11
ENDBRANCH   9  10
ENDBRANCH   8   9
ENDBRANCH   7   8
ENDBRANCH   6   7
ENDBRANCH   3   6
TORSDOF 23
ENDMDL
MODEL      151
REMARK 921   NORMALIZED FREE ENERGY PREDICTED BY IDOCK:   -4.48 KCAL/MOL
REMARK 922        TOTAL FREE ENERGY PREDICTED BY IDOCK:  -13.27 KCAL/MOL
REMARK 923 INTER-LIGAND FREE ENERGY PREDICTED BY IDOCK:   -9.71 KCAL/MOL
REMARK 924 INTRA-LIGAND FREE ENERGY PREDICTED BY IDOCK:   -3.55 KCAL/MOL
REMARK 927      BINDING AFFINITY PREDICTED BY RF-SCORE:    0.00 PKD
ROOT
HETATM    1  C   UNL     1     -12.287  14.873  64.271  1.00  0.00    -0.300 C  
HETATM    2  C   UNL     1     -12.458  13.853  65.366  1.00  0.00    -0.501 C  
HETATM    3  N   UNL     1     -11.788  14.085  66.538  1.00  0.00    -0.397 N  
HETATM    4  O   UNL     1     -13.147  12.849  65.177  1.00  0.00    -0.753 OA 
HETATM    5  O   UNL     1     -11.120  15.283  66.842  1.00  0.00    -0.321 OA 
ENDROOT
BRANCH   3   6
HETATM    6  C   UNL     1     -11.839  13.186  67.683  1.00  0.00    -0.359 C  
BRANCH   6   7
HETATM    7  C   UNL     1     -10.446  12.779  68.168  1.00  0.00    -0.244 C  
BRANCH   7   8
HETATM    8  C   UNL     1      -9.739  11.930  67.110  1.00  0.00    -0.194 C  
BRANCH   8   9
HETATM    9  C   UNL     1     -10.582  10.729  66.678  1.00  0.00    -0.291 C  
BRANCH   9  10
HETATM   10  C   UNL     1      -9.835   9.817  65.705  1.00  0.00    -0.301 C  
BRANCH  10  11
HETATM   11  N   UNL     1     -10.025   8.406  66.009  1.00  0.00    -0.462 N  
HETATM   12  C   UNL     1      -8.962   7.602  66.354  1.00  0.00    -0.167 C  
HETATM   13  H   UNL     1     -10.962   8.007  65.965  1.00  0.00     0.000 HD 
HETATM   14  O   UNL     1      -7.808   8.005  66.470  1.00  0.00    -0.094 OA 
BRANCH  12  15
HETATM   15  C   UNL     1      -9.357   6.161  66.594  1.00  0.00    -0.161 C  
BRANCH  15  16
HETATM   16  C   UNL     1      -8.122   5.263  66.602  1.00  0.00    -0.105 C  
BRANCH  16  17
HETATM   17  C   UNL     1      -7.782   4.759  67.992  1.00  0.00    -0.082 C  
HETATM   18  O   UNL     1      -7.043   5.399  68.737  1.00  0.00    -0.058 OA 
HETATM   19  N   UNL     1      -8.320   3.548  68.344  1.00  0.00    -0.080 N  
HETATM   20  O   UNL     1      -9.247   2.829  67.569  1.00  0.00    -0.173 OA 
BRANCH  19  21
HETATM   21  C   UNL     1      -8.042   2.880  69.607  1.00  0.00    -0.044 C  
BRANCH  21  22
HETATM   22  C   UNL     1      -9.313   2.370  70.292  1.00  0.00    -0.188 C  
BRANCH  22  23
HETATM   23  C   UNL     1      -9.270   2.517  71.824  1.00  0.00    -0.166 C  
BRANCH  23  24
HETATM   24  C   UNL     1     -10.499   1.935  72.522  1.00  0.00    -0.222 C  
BRANCH  24  25
HETATM   25  C   UNL     1     -10.689   2.533  73.915  1.00  0.00    -0.177 C  
BRANCH  25  26
HETATM   26  N   UNL     1     -10.141   3.872  74.002  1.00  0.00    -0.132 N  
HETATM   27  H   UNL     1      -9.186   3.995  74.338  1.00  0.00     0.000 HD 
HETATM   28  C   UNL     1     -10.873   4.979  73.644  1.00  0.00    -0.307 C  
HETATM   29  O   UNL     1     -12.020   4.923  73.211  1.00  0.00    -0.193 OA 
BRANCH  28  30
HETATM   30  C   UNL     1     -10.156   6.292  73.831  1.00  0.00    -0.283 C  
BRANCH  30  31
HETATM   31  C   UNL     1      -8.794   6.230  73.157  1.00  0.00    -0.129 C  
BRANCH  31  32
HETATM   32  C   UNL     1      -8.875   6.724  71.728  1.00  0.00    -0.128 C  
HETATM   33  N   UNL     1      -8.261   7.911  71.411  1.00  0.00    -0.102 N  
HETATM   34  O   UNL     1      -9.414   6.017  70.874  1.00  0.00    -0.165 OA 
HETATM   35  O   UNL     1      -8.042   8.872  72.417  1.00  0.00    -0.381 OA 
BRANCH  33  36
HETATM   36  C   UNL     1      -8.345   8.508  70.077  1.00  0.00    -0.123 C  
BRANCH  36  37
HETATM   37  C   UNL     1      -9.361   9.649  70.017  1.00  0.00    -0.276 C  
BRANCH  37  38
HETATM   38  C   UNL     1     -10.795   9.136  69.847  1.00  0.00    -0.242 C  
BRANCH  38  39
HETATM   39  C   UNL     1     -11.675   9.508  71.044  1.00  0.00    -0.419 C  
BRANCH  39  40
HETATM   40  C   UNL     1     -12.617   8.375  71.456  1.00  0.00    -0.308 C  
HETATM   41  N   UNL     1     -12.872   8.381  72.893  1.00  0.00    -0.686 NA 
HETATM   42  H2  UNL     1     -13.221   9.287  73.205  1.00  0.00     0.000 HD 
HETATM   43  H1  UNL     1     -13.500   7.625  73.169  1.00  0.00     0.000 HD 
ENDBRANCH  39  40
ENDBRANCH  38  39
ENDBRANCH  37  38
ENDBRANCH  36  37
ENDBRANCH  33  36
ENDBRANCH  31  32
ENDBRANCH  30  31
ENDBRANCH  28  30
ENDBRANCH  25  26
ENDBRANCH  24  25
ENDBRANCH  23  24
ENDBRANCH  22  23
ENDBRANCH  21  22
ENDBRANCH  19  21
ENDBRANCH  16  17
ENDBRANCH  15  16
ENDBRANCH  12  15
ENDBRANCH  10  11
ENDBRANCH   9  10
ENDBRANCH   8   9
ENDBRANCH   7   8
ENDBRANCH   6   7
ENDBRANCH   3   6
TORSDOF 23
ENDMDL
MODEL      152
REMARK 921   NORMALIZED FREE ENERGY PREDICTED BY IDOCK:   -4.46 KCAL/MOL
REMARK 922        TOTAL FREE ENERGY PREDICTED BY IDOCK:  -13.20 KCAL/MOL
REMARK 923 INTER-LIGAND FREE ENERGY PREDICTED BY IDOCK:   -9.73 KCAL/MOL
REMARK 924 INTRA-LIGAND FREE ENERGY PREDICTED BY IDOCK:   -3.47 KCAL/MOL
REMARK 927      BINDING AFFINITY PREDICTED BY RF-SCORE:    0.00 PKD
ROOT
HETATM    1  C   UNL     1      -9.890   5.344  66.318  1.00  0.00    -0.186 C  
HETATM    2  C   UNL     1      -8.897   6.343  66.851  1.00  0.00    -0.119 C  
HETATM    3  N   UNL     1      -9.302   7.651  66.901  1.00  0.00    -0.152 N  
HETATM    4  O   UNL     1      -7.770   5.979  67.189  1.00  0.00    -0.098 OA 
HETATM    5  O   UNL     1     -10.620   8.079  66.669  1.00  0.00    -0.277 OA 
ENDROOT
BRANCH   3   6
HETATM    6  C   UNL     1      -8.454   8.736  67.376  1.00  0.00    -0.116 C  
BRANCH   6   7
HETATM    7  C   UNL     1      -8.554   8.935  68.890  1.00  0.00    -0.135 C  
BRANCH   7   8
HETATM    8  C   UNL     1      -7.922  10.267  69.297  1.00  0.00    -0.149 C  
BRANCH   8   9
HETATM    9  C   UNL     1      -7.583  11.137  68.085  1.00  0.00    -0.103 C  
BRANCH   9  10
HETATM   10  C   UNL     1      -7.283  12.585  68.476  1.00  0.00    -0.110 C  
BRANCH  10  11
HETATM   11  N   UNL     1      -7.657  13.531  67.436  1.00  0.00    -0.280 N  
HETATM   12  C   UNL     1      -7.916  14.850  67.733  1.00  0.00    -0.150 C  
HETATM   13  H   UNL     1      -7.729  13.211  66.470  1.00  0.00     0.000 HD 
HETATM   14  O   UNL     1      -7.816  15.331  68.858  1.00  0.00    -0.138 OA 
BRANCH  12  15
HETATM   15  C   UNL     1      -8.326  15.665  66.524  1.00  0.00    -0.276 C  
BRANCH  15  16
HETATM   16  C   UNL     1      -9.612  16.436  66.811  1.00  0.00    -0.263 C  
BRANCH  16  17
HETATM   17  C   UNL     1     -10.786  15.518  67.093  1.00  0.00    -0.316 C  
HETATM   18  O   UNL     1     -11.294  15.461  68.211  1.00  0.00    -0.319 OA 
HETATM   19  N   UNL     1     -11.215  14.746  66.044  1.00  0.00    -0.341 N  
HETATM   20  O   UNL     1     -10.733  14.847  64.727  1.00  0.00    -0.404 OA 
BRANCH  19  21
HETATM   21  C   UNL     1     -12.278  13.758  66.153  1.00  0.00    -0.459 C  
BRANCH  21  22
HETATM   22  C   UNL     1     -11.763  12.325  66.004  1.00  0.00    -0.451 C  
BRANCH  22  23
HETATM   23  C   UNL     1     -10.883  11.877  67.187  1.00  0.00    -0.301 C  
BRANCH  23  24
HETATM   24  C   UNL     1     -11.622  10.987  68.187  1.00  0.00    -0.345 C  
BRANCH  24  25
HETATM   25  C   UNL     1     -11.551  11.555  69.603  1.00  0.00    -0.333 C  
BRANCH  25  26
HETATM   26  N   UNL     1     -11.340  10.512  70.587  1.00  0.00    -0.380 N  
HETATM   27  H   UNL     1     -10.386  10.237  70.820  1.00  0.00     0.000 HD 
HETATM   28  C   UNL     1     -12.389   9.884  71.215  1.00  0.00    -0.381 C  
HETATM   29  O   UNL     1     -13.566  10.165  71.011  1.00  0.00    -0.285 OA 
BRANCH  28  30
HETATM   30  C   UNL     1     -11.985   8.803  72.184  1.00  0.00    -0.436 C  
BRANCH  30  31
HETATM   31  C   UNL     1     -12.476   7.456  71.677  1.00  0.00    -0.381 C  
BRANCH  31  32
HETATM   32  C   UNL     1     -11.368   6.425  71.721  1.00  0.00    -0.289 C  
HETATM   33  N   UNL     1     -10.643   6.196  70.577  1.00  0.00    -0.236 N  
HETATM   34  O   UNL     1     -11.092   5.880  72.792  1.00  0.00    -0.253 OA 
HETATM   35  O   UNL     1     -11.214   6.479  69.322  1.00  0.00    -0.328 OA 
BRANCH  33  36
HETATM   36  C   UNL     1      -9.601   5.169  70.499  1.00  0.00    -0.180 C  
BRANCH  36  37
HETATM   37  C   UNL     1      -8.198   5.758  70.657  1.00  0.00    -0.119 C  
BRANCH  37  38
HETATM   38  C   UNL     1      -7.828   5.977  72.128  1.00  0.00    -0.102 C  
BRANCH  38  39
HETATM   39  C   UNL     1      -6.638   6.931  72.275  1.00  0.00    -0.057 C  
BRANCH  39  40
HETATM   40  C   UNL     1      -7.070   8.390  72.435  1.00  0.00    -0.087 C  
HETATM   41  N   UNL     1      -8.468   8.499  72.838  1.00  0.00    -0.395 NA 
HETATM   42  H2  UNL     1      -8.653   7.961  73.685  1.00  0.00     0.000 HD 
HETATM   43  H1  UNL     1      -8.756   9.472  72.945  1.00  0.00     0.000 HD 
ENDBRANCH  39  40
ENDBRANCH  38  39
ENDBRANCH  37  38
ENDBRANCH  36  37
ENDBRANCH  33  36
ENDBRANCH  31  32
ENDBRANCH  30  31
ENDBRANCH  28  30
ENDBRANCH  25  26
ENDBRANCH  24  25
ENDBRANCH  23  24
ENDBRANCH  22  23
ENDBRANCH  21  22
ENDBRANCH  19  21
ENDBRANCH  16  17
ENDBRANCH  15  16
ENDBRANCH  12  15
ENDBRANCH  10  11
ENDBRANCH   9  10
ENDBRANCH   8   9
ENDBRANCH   7   8
ENDBRANCH   6   7
ENDBRANCH   3   6
TORSDOF 23
ENDMDL
MODEL      153
REMARK 921   NORMALIZED FREE ENERGY PREDICTED BY IDOCK:   -4.46 KCAL/MOL
REMARK 922        TOTAL FREE ENERGY PREDICTED BY IDOCK:  -13.20 KCAL/MOL
REMARK 923 INTER-LIGAND FREE ENERGY PREDICTED BY IDOCK:  -10.74 KCAL/MOL
REMARK 924 INTRA-LIGAND FREE ENERGY PREDICTED BY IDOCK:   -2.47 KCAL/MOL
REMARK 927      BINDING AFFINITY PREDICTED BY RF-SCORE:    0.00 PKD
ROOT
HETATM    1  C   UNL     1      -7.469  11.844  67.992  1.00  0.00    -0.107 C  
HETATM    2  C   UNL     1      -8.581  12.851  67.857  1.00  0.00    -0.185 C  
HETATM    3  N   UNL     1      -8.214  14.148  67.611  1.00  0.00    -0.172 N  
HETATM    4  O   UNL     1      -9.754  12.504  67.996  1.00  0.00    -0.202 OA 
HETATM    5  O   UNL     1      -6.906  14.553  67.297  1.00  0.00    -0.252 OA 
ENDROOT
BRANCH   3   6
HETATM    6  C   UNL     1      -9.169  15.239  67.470  1.00  0.00    -0.199 C  
BRANCH   6   7
HETATM    7  C   UNL     1      -9.320  15.698  66.019  1.00  0.00    -0.384 C  
BRANCH   7   8
HETATM    8  C   UNL     1     -10.651  16.427  65.825  1.00  0.00    -0.327 C  
BRANCH   8   9
HETATM    9  C   UNL     1     -11.246  16.178  64.437  1.00  0.00    -0.184 C  
BRANCH   9  10
HETATM   10  C   UNL     1     -12.144  14.941  64.405  1.00  0.00    -0.401 C  
BRANCH  10  11
HETATM   11  N   UNL     1     -11.415  13.734  64.046  1.00  0.00    -0.608 N  
HETATM   12  C   UNL     1     -12.015  12.496  64.099  1.00  0.00    -0.429 C  
HETATM   13  H   UNL     1     -10.441  13.807  63.751  1.00  0.00     0.000 HD 
HETATM   14  O   UNL     1     -13.191  12.319  64.405  1.00  0.00    -0.806 OA 
BRANCH  12  15
HETATM   15  C   UNL     1     -11.083  11.364  63.727  1.00  0.00    -0.417 C  
BRANCH  15  16
HETATM   16  C   UNL     1      -9.860  11.355  64.641  1.00  0.00    -0.302 C  
BRANCH  16  17
HETATM   17  C   UNL     1      -9.157  10.012  64.655  1.00  0.00    -0.237 C  
HETATM   18  O   UNL     1      -8.316   9.726  63.806  1.00  0.00    -0.144 OA 
HETATM   19  N   UNL     1      -9.540   9.139  65.641  1.00  0.00    -0.253 N  
HETATM   20  O   UNL     1     -10.422   9.455  66.689  1.00  0.00    -0.233 OA 
BRANCH  19  21
HETATM   21  C   UNL     1      -9.026   7.783  65.761  1.00  0.00    -0.066 C  
BRANCH  21  22
HETATM   22  C   UNL     1      -9.217   7.207  67.167  1.00  0.00    -0.153 C  
BRANCH  22  23
HETATM   23  C   UNL     1      -8.340   5.969  67.433  1.00  0.00    -0.105 C  
BRANCH  23  24
HETATM   24  C   UNL     1      -8.489   5.416  68.850  1.00  0.00    -0.099 C  
BRANCH  24  25
HETATM   25  C   UNL     1      -9.790   4.632  69.013  1.00  0.00    -0.154 C  
BRANCH  25  26
HETATM   26  N   UNL     1     -10.239   4.620  70.391  1.00  0.00    -0.198 N  
HETATM   27  H   UNL     1     -10.924   5.312  70.694  1.00  0.00     0.000 HD 
HETATM   28  C   UNL     1      -9.767   3.703  71.299  1.00  0.00    -0.169 C  
HETATM   29  O   UNL     1      -8.959   2.823  71.017  1.00  0.00    -0.078 OA 
BRANCH  28  30
HETATM   30  C   UNL     1     -10.318   3.860  72.694  1.00  0.00    -0.228 C  
BRANCH  30  31
HETATM   31  C   UNL     1      -9.677   5.067  73.361  1.00  0.00    -0.158 C  
BRANCH  31  32
HETATM   32  C   UNL     1     -10.293   6.355  72.857  1.00  0.00    -0.208 C  
HETATM   33  N   UNL     1      -9.456   7.385  72.504  1.00  0.00    -0.147 N  
HETATM   34  O   UNL     1     -11.514   6.419  72.698  1.00  0.00    -0.256 OA 
HETATM   35  O   UNL     1      -8.169   7.462  73.070  1.00  0.00    -0.105 OA 
BRANCH  33  36
HETATM   36  C   UNL     1      -9.957   8.693  72.075  1.00  0.00    -0.329 C  
BRANCH  36  37
HETATM   37  C   UNL     1     -10.308   8.716  70.586  1.00  0.00    -0.241 C  
BRANCH  37  38
HETATM   38  C   UNL     1     -11.305   9.829  70.245  1.00  0.00    -0.333 C  
BRANCH  38  39
HETATM   39  C   UNL     1     -12.176  10.196  71.450  1.00  0.00    -0.492 C  
BRANCH  39  40
HETATM   40  C   UNL     1     -13.399   9.289  71.590  1.00  0.00    -0.394 C  
HETATM   41  N   UNL     1     -13.590   8.847  72.968  1.00  0.00    -0.981 NA 
HETATM   42  H2  UNL     1     -13.639   9.639  73.609  1.00  0.00     0.000 HD 
HETATM   43  H1  UNL     1     -14.406   8.242  73.061  1.00  0.00     0.000 HD 
ENDBRANCH  39  40
ENDBRANCH  38  39
ENDBRANCH  37  38
ENDBRANCH  36  37
ENDBRANCH  33  36
ENDBRANCH  31  32
ENDBRANCH  30  31
ENDBRANCH  28  30
ENDBRANCH  25  26
ENDBRANCH  24  25
ENDBRANCH  23  24
ENDBRANCH  22  23
ENDBRANCH  21  22
ENDBRANCH  19  21
ENDBRANCH  16  17
ENDBRANCH  15  16
ENDBRANCH  12  15
ENDBRANCH  10  11
ENDBRANCH   9  10
ENDBRANCH   8   9
ENDBRANCH   7   8
ENDBRANCH   6   7
ENDBRANCH   3   6
TORSDOF 23
ENDMDL
MODEL      154
REMARK 921   NORMALIZED FREE ENERGY PREDICTED BY IDOCK:   -4.46 KCAL/MOL
REMARK 922        TOTAL FREE ENERGY PREDICTED BY IDOCK:  -13.20 KCAL/MOL
REMARK 923 INTER-LIGAND FREE ENERGY PREDICTED BY IDOCK:  -10.62 KCAL/MOL
REMARK 924 INTRA-LIGAND FREE ENERGY PREDICTED BY IDOCK:   -2.58 KCAL/MOL
REMARK 927      BINDING AFFINITY PREDICTED BY RF-SCORE:    0.00 PKD
ROOT
HETATM    1  C   UNL     1      -7.828  10.867  69.339  1.00  0.00    -0.048 C  
HETATM    2  C   UNL     1      -8.627  10.318  68.186  1.00  0.00    -0.119 C  
HETATM    3  N   UNL     1      -8.840  11.158  67.126  1.00  0.00    -0.141 N  
HETATM    4  O   UNL     1      -9.082   9.175  68.235  1.00  0.00    -0.133 OA 
HETATM    5  O   UNL     1      -8.214  12.406  66.968  1.00  0.00    -0.178 OA 
ENDROOT
BRANCH   3   6
HETATM    6  C   UNL     1      -9.605  10.781  65.945  1.00  0.00    -0.208 C  
BRANCH   6   7
HETATM    7  C   UNL     1      -8.723  10.625  64.704  1.00  0.00    -0.161 C  
BRANCH   7   8
HETATM    8  C   UNL     1      -8.811   9.197  64.162  1.00  0.00    -0.127 C  
BRANCH   8   9
HETATM    9  C   UNL     1      -7.442   8.517  64.107  1.00  0.00    -0.112 C  
BRANCH   9  10
HETATM   10  C   UNL     1      -7.461   7.242  63.264  1.00  0.00    -0.097 C  
BRANCH  10  11
HETATM   11  N   UNL     1      -8.485   6.303  63.699  1.00  0.00    -0.331 N  
HETATM   12  C   UNL     1      -8.179   5.252  64.534  1.00  0.00    -0.135 C  
HETATM   13  H   UNL     1      -9.445   6.427  63.380  1.00  0.00     0.000 HD 
HETATM   14  O   UNL     1      -7.061   5.049  64.999  1.00  0.00    -0.060 OA 
BRANCH  12  15
HETATM   15  C   UNL     1      -9.369   4.368  64.841  1.00  0.00    -0.163 C  
BRANCH  15  16
HETATM   16  C   UNL     1     -10.065   4.833  66.118  1.00  0.00    -0.288 C  
BRANCH  16  17
HETATM   17  C   UNL     1      -9.643   4.029  67.332  1.00  0.00    -0.177 C  
HETATM   18  O   UNL     1      -9.204   2.887  67.218  1.00  0.00    -0.172 OA 
HETATM   19  N   UNL     1      -9.810   4.639  68.549  1.00  0.00    -0.140 N  
HETATM   20  O   UNL     1     -10.212   5.975  68.725  1.00  0.00    -0.157 OA 
BRANCH  19  21
HETATM   21  C   UNL     1      -9.527   3.991  69.821  1.00  0.00    -0.195 C  
BRANCH  21  22
HETATM   22  C   UNL     1      -9.410   4.991  70.974  1.00  0.00    -0.203 C  
BRANCH  22  23
HETATM   23  C   UNL     1     -10.486   4.787  72.058  1.00  0.00    -0.225 C  
BRANCH  23  24
HETATM   24  C   UNL     1     -11.087   6.097  72.568  1.00  0.00    -0.313 C  
BRANCH  24  25
HETATM   25  C   UNL     1     -12.131   6.650  71.601  1.00  0.00    -0.355 C  
BRANCH  25  26
HETATM   26  N   UNL     1     -12.050   8.093  71.494  1.00  0.00    -0.290 N  
HETATM   27  H   UNL     1     -11.164   8.522  71.226  1.00  0.00     0.000 HD 
HETATM   28  C   UNL     1     -13.134   8.901  71.745  1.00  0.00    -0.374 C  
HETATM   29  O   UNL     1     -14.241   8.472  72.054  1.00  0.00    -0.420 OA 
BRANCH  28  30
HETATM   30  C   UNL     1     -12.859  10.378  71.619  1.00  0.00    -0.579 C  
BRANCH  30  31
HETATM   31  C   UNL     1     -11.657  10.597  70.714  1.00  0.00    -0.388 C  
BRANCH  31  32
HETATM   32  C   UNL     1     -12.024  11.466  69.529  1.00  0.00    -0.341 C  
HETATM   33  N   UNL     1     -11.952  12.830  69.672  1.00  0.00    -0.310 N  
HETATM   34  O   UNL     1     -12.296  10.934  68.451  1.00  0.00    -0.477 OA 
HETATM   35  O   UNL     1     -12.063  13.403  70.954  1.00  0.00    -0.326 OA 
BRANCH  33  36
HETATM   36  C   UNL     1     -12.356  13.754  68.610  1.00  0.00     0.021 C  
BRANCH  36  37
HETATM   37  C   UNL     1     -11.216  14.040  67.630  1.00  0.00    -0.317 C  
BRANCH  37  38
HETATM   38  C   UNL     1     -11.507  13.488  66.231  1.00  0.00    -0.350 C  
BRANCH  38  39
HETATM   39  C   UNL     1     -10.698  14.219  65.155  1.00  0.00    -0.407 C  
BRANCH  39  40
HETATM   40  C   UNL     1     -10.718  15.738  65.335  1.00  0.00    -0.404 C  
HETATM   41  N   UNL     1     -11.341  16.409  64.199  1.00  0.00    -1.422 NA 
HETATM   42  H2  UNL     1     -12.276  16.044  64.019  1.00  0.00     0.000 HD 
HETATM   43  H1  UNL     1     -11.354  17.422  64.319  1.00  0.00     0.000 HD 
ENDBRANCH  39  40
ENDBRANCH  38  39
ENDBRANCH  37  38
ENDBRANCH  36  37
ENDBRANCH  33  36
ENDBRANCH  31  32
ENDBRANCH  30  31
ENDBRANCH  28  30
ENDBRANCH  25  26
ENDBRANCH  24  25
ENDBRANCH  23  24
ENDBRANCH  22  23
ENDBRANCH  21  22
ENDBRANCH  19  21
ENDBRANCH  16  17
ENDBRANCH  15  16
ENDBRANCH  12  15
ENDBRANCH  10  11
ENDBRANCH   9  10
ENDBRANCH   8   9
ENDBRANCH   7   8
ENDBRANCH   6   7
ENDBRANCH   3   6
TORSDOF 23
ENDMDL
MODEL      155
REMARK 921   NORMALIZED FREE ENERGY PREDICTED BY IDOCK:   -4.45 KCAL/MOL
REMARK 922        TOTAL FREE ENERGY PREDICTED BY IDOCK:  -13.19 KCAL/MOL
REMARK 923 INTER-LIGAND FREE ENERGY PREDICTED BY IDOCK:  -10.74 KCAL/MOL
REMARK 924 INTRA-LIGAND FREE ENERGY PREDICTED BY IDOCK:   -2.45 KCAL/MOL
REMARK 927      BINDING AFFINITY PREDICTED BY RF-SCORE:    0.00 PKD
ROOT
HETATM    1  C   UNL     1     -10.630  19.042  67.206  1.00  0.00    -0.554 C  
HETATM    2  C   UNL     1     -10.464  17.638  66.687  1.00  0.00    -0.286 C  
HETATM    3  N   UNL     1     -10.494  16.629  67.614  1.00  0.00    -0.313 N  
HETATM    4  O   UNL     1     -10.279  17.437  65.487  1.00  0.00    -0.604 OA 
HETATM    5  O   UNL     1     -10.851  16.804  68.962  1.00  0.00    -0.319 OA 
ENDROOT
BRANCH   3   6
HETATM    6  C   UNL     1     -10.333  15.222  67.273  1.00  0.00    -0.264 C  
BRANCH   6   7
HETATM    7  C   UNL     1      -9.716  14.412  68.416  1.00  0.00    -0.226 C  
BRANCH   7   8
HETATM    8  C   UNL     1      -8.242  14.777  68.594  1.00  0.00    -0.159 C  
BRANCH   8   9
HETATM    9  C   UNL     1      -7.373  14.239  67.456  1.00  0.00    -0.199 C  
BRANCH   9  10
HETATM   10  C   UNL     1      -6.967  12.781  67.676  1.00  0.00    -0.146 C  
BRANCH  10  11
HETATM   11  N   UNL     1      -7.336  11.926  66.557  1.00  0.00    -0.372 N  
HETATM   12  C   UNL     1      -6.618  10.789  66.263  1.00  0.00    -0.132 C  
HETATM   13  H   UNL     1      -8.140  12.174  65.982  1.00  0.00     0.000 HD 
HETATM   14  O   UNL     1      -5.661  10.393  66.923  1.00  0.00    -0.045 OA 
BRANCH  12  15
HETATM   15  C   UNL     1      -7.134  10.057  65.043  1.00  0.00    -0.136 C  
BRANCH  15  16
HETATM   16  C   UNL     1      -7.679   8.686  65.433  1.00  0.00    -0.094 C  
BRANCH  16  17
HETATM   17  C   UNL     1      -8.552   8.742  66.672  1.00  0.00    -0.112 C  
HETATM   18  O   UNL     1      -8.189   8.230  67.729  1.00  0.00    -0.124 OA 
HETATM   19  N   UNL     1      -9.766   9.362  66.529  1.00  0.00    -0.216 N  
HETATM   20  O   UNL     1     -10.183  10.047  65.373  1.00  0.00    -0.289 OA 
BRANCH  19  21
HETATM   21  C   UNL     1     -10.760   9.444  67.589  1.00  0.00    -0.230 C  
BRANCH  21  22
HETATM   22  C   UNL     1     -10.645  10.738  68.400  1.00  0.00    -0.228 C  
BRANCH  22  23
HETATM   23  C   UNL     1     -12.008  11.267  68.883  1.00  0.00    -0.378 C  
BRANCH  23  24
HETATM   24  C   UNL     1     -12.022  11.636  70.367  1.00  0.00    -0.448 C  
BRANCH  24  25
HETATM   25  C   UNL     1     -12.916  10.694  71.170  1.00  0.00    -0.387 C  
BRANCH  25  26
HETATM   26  N   UNL     1     -12.807   9.326  70.706  1.00  0.00    -0.516 N  
HETATM   27  H   UNL     1     -13.328   9.041  69.876  1.00  0.00     0.000 HD 
HETATM   28  C   UNL     1     -12.020   8.401  71.351  1.00  0.00    -0.297 C  
HETATM   29  O   UNL     1     -11.344   8.661  72.341  1.00  0.00    -0.359 OA 
BRANCH  28  30
HETATM   30  C   UNL     1     -12.053   7.020  70.748  1.00  0.00    -0.374 C  
BRANCH  30  31
HETATM   31  C   UNL     1     -10.632   6.537  70.503  1.00  0.00    -0.282 C  
BRANCH  31  32
HETATM   32  C   UNL     1     -10.542   5.754  69.210  1.00  0.00    -0.306 C  
HETATM   33  N   UNL     1      -9.780   4.611  69.190  1.00  0.00    -0.179 N  
HETATM   34  O   UNL     1     -11.214   6.111  68.240  1.00  0.00    -0.323 OA 
HETATM   35  O   UNL     1      -8.727   4.459  70.112  1.00  0.00    -0.072 OA 
BRANCH  33  36
HETATM   36  C   UNL     1      -9.573   3.826  67.971  1.00  0.00    -0.119 C  
BRANCH  36  37
HETATM   37  C   UNL     1      -8.303   4.240  67.227  1.00  0.00    -0.100 C  
BRANCH  37  38
HETATM   38  C   UNL     1      -8.245   3.654  65.812  1.00  0.00    -0.104 C  
BRANCH  38  39
HETATM   39  C   UNL     1      -8.976   4.543  64.801  1.00  0.00    -0.152 C  
BRANCH  39  40
HETATM   40  C   UNL     1     -10.248   3.891  64.256  1.00  0.00    -0.226 C  
HETATM   41  N   UNL     1     -11.447   4.431  64.889  1.00  0.00    -1.068 NA 
HETATM   42  H2  UNL     1     -11.485   5.447  64.807  1.00  0.00     0.000 HD 
HETATM   43  H1  UNL     1     -12.295   3.996  64.525  1.00  0.00     0.000 HD 
ENDBRANCH  39  40
ENDBRANCH  38  39
ENDBRANCH  37  38
ENDBRANCH  36  37
ENDBRANCH  33  36
ENDBRANCH  31  32
ENDBRANCH  30  31
ENDBRANCH  28  30
ENDBRANCH  25  26
ENDBRANCH  24  25
ENDBRANCH  23  24
ENDBRANCH  22  23
ENDBRANCH  21  22
ENDBRANCH  19  21
ENDBRANCH  16  17
ENDBRANCH  15  16
ENDBRANCH  12  15
ENDBRANCH  10  11
ENDBRANCH   9  10
ENDBRANCH   8   9
ENDBRANCH   7   8
ENDBRANCH   6   7
ENDBRANCH   3   6
TORSDOF 23
ENDMDL
MODEL      156
REMARK 921   NORMALIZED FREE ENERGY PREDICTED BY IDOCK:   -4.44 KCAL/MOL
REMARK 922        TOTAL FREE ENERGY PREDICTED BY IDOCK:  -13.17 KCAL/MOL
REMARK 923 INTER-LIGAND FREE ENERGY PREDICTED BY IDOCK:  -10.47 KCAL/MOL
REMARK 924 INTRA-LIGAND FREE ENERGY PREDICTED BY IDOCK:   -2.70 KCAL/MOL
REMARK 927      BINDING AFFINITY PREDICTED BY RF-SCORE:    0.00 PKD
ROOT
HETATM    1  C   UNL     1      -9.505   4.850  68.670  1.00  0.00    -0.198 C  
HETATM    2  C   UNL     1      -9.640   5.274  70.109  1.00  0.00    -0.178 C  
HETATM    3  N   UNL     1     -10.755   5.998  70.439  1.00  0.00    -0.268 N  
HETATM    4  O   UNL     1      -8.758   4.997  70.924  1.00  0.00    -0.117 OA 
HETATM    5  O   UNL     1     -11.847   6.202  69.579  1.00  0.00    -0.128 OA 
ENDROOT
BRANCH   3   6
HETATM    6  C   UNL     1     -11.021   6.493  71.783  1.00  0.00    -0.247 C  
BRANCH   6   7
HETATM    7  C   UNL     1     -11.582   5.408  72.704  1.00  0.00    -0.270 C  
BRANCH   7   8
HETATM    8  C   UNL     1     -10.572   5.064  73.800  1.00  0.00    -0.330 C  
BRANCH   8   9
HETATM    9  C   UNL     1      -9.907   6.313  74.382  1.00  0.00    -0.320 C  
BRANCH   9  10
HETATM   10  C   UNL     1      -8.385   6.278  74.240  1.00  0.00    -0.120 C  
BRANCH  10  11
HETATM   11  N   UNL     1      -7.938   6.735  72.933  1.00  0.00    -0.105 N  
HETATM   12  C   UNL     1      -7.618   8.056  72.711  1.00  0.00    -0.124 C  
HETATM   13  H   UNL     1      -7.861   6.065  72.168  1.00  0.00     0.000 HD 
HETATM   14  O   UNL     1      -7.643   8.922  73.581  1.00  0.00    -0.388 OA 
BRANCH  12  15
HETATM   15  C   UNL     1      -7.212   8.339  71.281  1.00  0.00    -0.073 C  
BRANCH  15  16
HETATM   16  C   UNL     1      -8.320   9.097  70.552  1.00  0.00    -0.222 C  
BRANCH  16  17
HETATM   17  C   UNL     1      -8.584   8.543  69.165  1.00  0.00    -0.133 C  
HETATM   18  O   UNL     1      -7.735   7.879  68.574  1.00  0.00    -0.109 OA 
HETATM   19  N   UNL     1      -9.799   8.853  68.611  1.00  0.00    -0.163 N  
HETATM   20  O   UNL     1     -10.837   9.522  69.284  1.00  0.00    -0.228 OA 
BRANCH  19  21
HETATM   21  C   UNL     1     -10.192   8.469  67.263  1.00  0.00    -0.276 C  
BRANCH  21  22
HETATM   22  C   UNL     1      -9.576   9.375  66.194  1.00  0.00    -0.311 C  
BRANCH  22  23
HETATM   23  C   UNL     1     -10.370  10.678  65.981  1.00  0.00    -0.290 C  
BRANCH  23  24
HETATM   24  C   UNL     1     -10.638  10.989  64.508  1.00  0.00    -0.383 C  
BRANCH  24  25
HETATM   25  C   UNL     1     -11.771  12.000  64.345  1.00  0.00    -0.320 C  
BRANCH  25  26
HETATM   26  N   UNL     1     -11.284  13.363  64.392  1.00  0.00    -0.372 N  
HETATM   27  H   UNL     1     -10.672  13.697  63.647  1.00  0.00     0.000 HD 
HETATM   28  C   UNL     1     -11.622  14.220  65.412  1.00  0.00    -0.346 C  
HETATM   29  O   UNL     1     -12.367  13.912  66.337  1.00  0.00    -0.448 OA 
BRANCH  28  30
HETATM   30  C   UNL     1     -10.997  15.588  65.316  1.00  0.00    -0.391 C  
BRANCH  30  31
HETATM   31  C   UNL     1      -9.797  15.667  66.248  1.00  0.00    -0.318 C  
BRANCH  31  32
HETATM   32  C   UNL     1      -9.392  17.106  66.487  1.00  0.00    -0.265 C  
HETATM   33  N   UNL     1      -9.720  17.686  67.688  1.00  0.00    -0.271 N  
HETATM   34  O   UNL     1      -8.713  17.691  65.641  1.00  0.00    -0.395 OA 
HETATM   35  O   UNL     1     -10.811  17.191  68.427  1.00  0.00    -0.367 OA 
BRANCH  33  36
HETATM   36  C   UNL     1      -9.436  19.092  67.986  1.00  0.00    -0.319 C  
BRANCH  36  37
HETATM   37  C   UNL     1      -8.247  19.252  68.935  1.00  0.00    -0.344 C  
BRANCH  37  38
HETATM   38  C   UNL     1      -6.937  19.506  68.181  1.00  0.00    -0.314 C  
BRANCH  38  39
HETATM   39  C   UNL     1      -7.040  20.727  67.263  1.00  0.00    -0.417 C  
BRANCH  39  40
HETATM   40  C   UNL     1      -6.208  20.576  65.988  1.00  0.00    -0.219 C  
HETATM   41  N   UNL     1      -7.049  20.368  64.814  1.00  0.00    -0.384 NA 
HETATM   42  H2  UNL     1      -7.744  21.109  64.719  1.00  0.00     0.000 HD 
HETATM   43  H1  UNL     1      -6.494  20.268  63.964  1.00  0.00     0.000 HD 
ENDBRANCH  39  40
ENDBRANCH  38  39
ENDBRANCH  37  38
ENDBRANCH  36  37
ENDBRANCH  33  36
ENDBRANCH  31  32
ENDBRANCH  30  31
ENDBRANCH  28  30
ENDBRANCH  25  26
ENDBRANCH  24  25
ENDBRANCH  23  24
ENDBRANCH  22  23
ENDBRANCH  21  22
ENDBRANCH  19  21
ENDBRANCH  16  17
ENDBRANCH  15  16
ENDBRANCH  12  15
ENDBRANCH  10  11
ENDBRANCH   9  10
ENDBRANCH   8   9
ENDBRANCH   7   8
ENDBRANCH   6   7
ENDBRANCH   3   6
TORSDOF 23
ENDMDL
MODEL      157
REMARK 921   NORMALIZED FREE ENERGY PREDICTED BY IDOCK:   -4.44 KCAL/MOL
REMARK 922        TOTAL FREE ENERGY PREDICTED BY IDOCK:  -13.15 KCAL/MOL
REMARK 923 INTER-LIGAND FREE ENERGY PREDICTED BY IDOCK:  -11.52 KCAL/MOL
REMARK 924 INTRA-LIGAND FREE ENERGY PREDICTED BY IDOCK:   -1.63 KCAL/MOL
REMARK 927      BINDING AFFINITY PREDICTED BY RF-SCORE:    0.00 PKD
ROOT
HETATM    1  C   UNL     1      -8.951   3.753  64.033  1.00  0.00    -0.116 C  
HETATM    2  C   UNL     1      -9.375   3.799  65.478  1.00  0.00    -0.160 C  
HETATM    3  N   UNL     1      -8.874   2.826  66.301  1.00  0.00    -0.139 N  
HETATM    4  O   UNL     1     -10.162   4.663  65.867  1.00  0.00    -0.239 OA 
HETATM    5  O   UNL     1      -7.863   1.922  65.932  1.00  0.00    -0.070 OA 
ENDROOT
BRANCH   3   6
HETATM    6  C   UNL     1      -9.201   2.726  67.717  1.00  0.00    -0.202 C  
BRANCH   6   7
HETATM    7  C   UNL     1      -8.035   2.187  68.549  1.00  0.00    -0.061 C  
BRANCH   7   8
HETATM    8  C   UNL     1      -8.255   2.483  70.033  1.00  0.00    -0.064 C  
BRANCH   8   9
HETATM    9  C   UNL     1      -9.483   3.365  70.268  1.00  0.00    -0.247 C  
BRANCH   9  10
HETATM   10  C   UNL     1      -9.114   4.725  70.861  1.00  0.00    -0.134 C  
BRANCH  10  11
HETATM   11  N   UNL     1     -10.251   5.632  70.922  1.00  0.00    -0.211 N  
HETATM   12  C   UNL     1     -10.965   5.802  72.086  1.00  0.00    -0.257 C  
HETATM   13  H   UNL     1     -10.522   6.151  70.087  1.00  0.00     0.000 HD 
HETATM   14  O   UNL     1     -10.687   5.250  73.147  1.00  0.00    -0.220 OA 
BRANCH  12  15
HETATM   15  C   UNL     1     -12.132   6.755  71.937  1.00  0.00    -0.375 C  
BRANCH  15  16
HETATM   16  C   UNL     1     -11.803   8.105  72.569  1.00  0.00    -0.438 C  
BRANCH  16  17
HETATM   17  C   UNL     1     -10.981   8.988  71.651  1.00  0.00    -0.365 C  
HETATM   18  O   UNL     1      -9.760   8.865  71.576  1.00  0.00    -0.261 OA 
HETATM   19  N   UNL     1     -11.674   9.940  70.948  1.00  0.00    -0.334 N  
HETATM   20  O   UNL     1     -13.075  10.055  70.925  1.00  0.00    -0.366 OA 
BRANCH  19  21
HETATM   21  C   UNL     1     -11.040  10.919  70.078  1.00  0.00    -0.211 C  
BRANCH  21  22
HETATM   22  C   UNL     1     -12.010  12.013  69.623  1.00  0.00    -0.360 C  
BRANCH  22  23
HETATM   23  C   UNL     1     -11.723  12.515  68.195  1.00  0.00    -0.400 C  
BRANCH  23  24
HETATM   24  C   UNL     1     -11.095  11.450  67.295  1.00  0.00    -0.363 C  
BRANCH  24  25
HETATM   25  C   UNL     1     -11.148  11.857  65.824  1.00  0.00    -0.317 C  
BRANCH  25  26
HETATM   26  N   UNL     1     -10.707  13.224  65.631  1.00  0.00    -0.278 N  
HETATM   27  H   UNL     1      -9.743  13.470  65.858  1.00  0.00     0.000 HD 
HETATM   28  C   UNL     1     -11.550  14.197  65.151  1.00  0.00    -0.344 C  
HETATM   29  O   UNL     1     -12.717  13.987  64.834  1.00  0.00    -0.647 OA 
BRANCH  28  30
HETATM   30  C   UNL     1     -10.932  15.568  65.047  1.00  0.00    -0.454 C  
BRANCH  30  31
HETATM   31  C   UNL     1     -10.576  16.074  66.436  1.00  0.00    -0.284 C  
BRANCH  31  32
HETATM   32  C   UNL     1     -10.609  17.587  66.486  1.00  0.00    -0.191 C  
HETATM   33  N   UNL     1     -10.288  18.209  67.667  1.00  0.00    -0.380 N  
HETATM   34  O   UNL     1     -10.840  18.220  65.453  1.00  0.00    -0.569 OA 
HETATM   35  O   UNL     1     -10.447  17.519  68.884  1.00  0.00    -0.349 OA 
BRANCH  33  36
HETATM   36  C   UNL     1     -10.360  19.663  67.835  1.00  0.00    -0.454 C  
BRANCH  36  37
HETATM   37  C   UNL     1      -9.047  20.353  67.461  1.00  0.00    -0.447 C  
BRANCH  37  38
HETATM   38  C   UNL     1      -7.839  19.706  68.146  1.00  0.00    -0.346 C  
BRANCH  38  39
HETATM   39  C   UNL     1      -6.724  19.388  67.145  1.00  0.00    -0.206 C  
BRANCH  39  40
HETATM   40  C   UNL     1      -7.229  18.608  65.931  1.00  0.00    -0.232 C  
HETATM   41  N   UNL     1      -6.281  18.662  64.822  1.00  0.00    -0.433 NA 
HETATM   42  H2  UNL     1      -5.355  18.346  65.108  1.00  0.00     0.000 HD 
HETATM   43  H1  UNL     1      -6.618  18.141  64.011  1.00  0.00     0.000 HD 
ENDBRANCH  39  40
ENDBRANCH  38  39
ENDBRANCH  37  38
ENDBRANCH  36  37
ENDBRANCH  33  36
ENDBRANCH  31  32
ENDBRANCH  30  31
ENDBRANCH  28  30
ENDBRANCH  25  26
ENDBRANCH  24  25
ENDBRANCH  23  24
ENDBRANCH  22  23
ENDBRANCH  21  22
ENDBRANCH  19  21
ENDBRANCH  16  17
ENDBRANCH  15  16
ENDBRANCH  12  15
ENDBRANCH  10  11
ENDBRANCH   9  10
ENDBRANCH   8   9
ENDBRANCH   7   8
ENDBRANCH   6   7
ENDBRANCH   3   6
TORSDOF 23
ENDMDL
MODEL      158
REMARK 921   NORMALIZED FREE ENERGY PREDICTED BY IDOCK:   -4.43 KCAL/MOL
REMARK 922        TOTAL FREE ENERGY PREDICTED BY IDOCK:  -13.15 KCAL/MOL
REMARK 923 INTER-LIGAND FREE ENERGY PREDICTED BY IDOCK:   -9.81 KCAL/MOL
REMARK 924 INTRA-LIGAND FREE ENERGY PREDICTED BY IDOCK:   -3.34 KCAL/MOL
REMARK 927      BINDING AFFINITY PREDICTED BY RF-SCORE:    0.00 PKD
ROOT
HETATM    1  C   UNL     1      -7.448   9.639  68.219  1.00  0.00    -0.077 C  
HETATM    2  C   UNL     1      -8.569   8.638  68.122  1.00  0.00    -0.141 C  
HETATM    3  N   UNL     1      -8.982   8.291  66.863  1.00  0.00    -0.141 N  
HETATM    4  O   UNL     1      -9.094   8.192  69.143  1.00  0.00    -0.147 OA 
HETATM    5  O   UNL     1      -8.313   8.659  65.683  1.00  0.00    -0.127 OA 
ENDROOT
BRANCH   3   6
HETATM    6  C   UNL     1     -10.063   7.350  66.603  1.00  0.00    -0.183 C  
BRANCH   6   7
HETATM    7  C   UNL     1      -9.548   5.984  66.144  1.00  0.00    -0.091 C  
BRANCH   7   8
HETATM    8  C   UNL     1     -10.100   4.875  67.042  1.00  0.00    -0.243 C  
BRANCH   8   9
HETATM    9  C   UNL     1      -9.101   3.730  67.221  1.00  0.00    -0.181 C  
BRANCH   9  10
HETATM   10  C   UNL     1      -7.909   4.131  68.091  1.00  0.00    -0.074 C  
BRANCH  10  11
HETATM   11  N   UNL     1      -8.288   5.022  69.177  1.00  0.00    -0.086 N  
HETATM   12  C   UNL     1      -8.346   4.576  70.478  1.00  0.00    -0.078 C  
HETATM   13  H   UNL     1      -8.516   5.995  68.970  1.00  0.00     0.000 HD 
HETATM   14  O   UNL     1      -8.052   3.435  70.824  1.00  0.00    -0.056 OA 
BRANCH  12  15
HETATM   15  C   UNL     1      -8.796   5.641  71.455  1.00  0.00    -0.141 C  
BRANCH  15  16
HETATM   16  C   UNL     1     -10.248   5.409  71.866  1.00  0.00    -0.258 C  
BRANCH  16  17
HETATM   17  C   UNL     1     -11.208   6.341  71.151  1.00  0.00    -0.305 C  
HETATM   18  O   UNL     1     -11.591   6.103  70.008  1.00  0.00    -0.392 OA 
HETATM   19  N   UNL     1     -11.587   7.463  71.841  1.00  0.00    -0.264 N  
HETATM   20  O   UNL     1     -11.256   7.728  73.182  1.00  0.00    -0.402 OA 
BRANCH  19  21
HETATM   21  C   UNL     1     -12.442   8.501  71.284  1.00  0.00    -0.249 C  
BRANCH  21  22
HETATM   22  C   UNL     1     -11.745   9.863  71.223  1.00  0.00    -0.472 C  
BRANCH  22  23
HETATM   23  C   UNL     1     -12.720  11.044  71.385  1.00  0.00    -0.534 C  
BRANCH  23  24
HETATM   24  C   UNL     1     -12.309  12.281  70.584  1.00  0.00    -0.375 C  
BRANCH  24  25
HETATM   25  C   UNL     1     -11.366  11.920  69.439  1.00  0.00    -0.261 C  
BRANCH  25  26
HETATM   26  N   UNL     1     -11.782  12.528  68.191  1.00  0.00    -0.336 N  
HETATM   27  H   UNL     1     -12.259  13.429  68.214  1.00  0.00     0.000 HD 
HETATM   28  C   UNL     1     -11.553  11.924  66.977  1.00  0.00    -0.291 C  
HETATM   29  O   UNL     1     -10.970  10.851  66.854  1.00  0.00    -0.271 OA 
BRANCH  28  30
HETATM   30  C   UNL     1     -12.084  12.683  65.788  1.00  0.00    -0.484 C  
BRANCH  30  31
HETATM   31  C   UNL     1     -12.466  14.092  66.212  1.00  0.00    -0.439 C  
BRANCH  31  32
HETATM   32  C   UNL     1     -11.338  15.064  65.939  1.00  0.00    -0.273 C  
HETATM   33  N   UNL     1     -10.707  15.651  67.008  1.00  0.00    -0.316 N  
HETATM   34  O   UNL     1     -10.961  15.241  64.778  1.00  0.00    -0.410 OA 
HETATM   35  O   UNL     1     -11.388  15.780  68.234  1.00  0.00    -0.344 OA 
BRANCH  33  36
HETATM   36  C   UNL     1      -9.656  16.658  66.845  1.00  0.00    -0.249 C  
BRANCH  36  37
HETATM   37  C   UNL     1      -8.447  16.380  67.742  1.00  0.00    -0.172 C  
BRANCH  37  38
HETATM   38  C   UNL     1      -7.383  15.537  67.031  1.00  0.00    -0.172 C  
BRANCH  38  39
HETATM   39  C   UNL     1      -7.060  14.259  67.812  1.00  0.00    -0.190 C  
BRANCH  39  40
HETATM   40  C   UNL     1      -8.258  13.315  67.917  1.00  0.00    -0.163 C  
HETATM   41  N   UNL     1      -8.647  12.787  66.614  1.00  0.00    -0.420 NA 
HETATM   42  H2  UNL     1      -7.861  12.338  66.145  1.00  0.00     0.000 HD 
HETATM   43  H1  UNL     1      -9.447  12.157  66.684  1.00  0.00     0.000 HD 
ENDBRANCH  39  40
ENDBRANCH  38  39
ENDBRANCH  37  38
ENDBRANCH  36  37
ENDBRANCH  33  36
ENDBRANCH  31  32
ENDBRANCH  30  31
ENDBRANCH  28  30
ENDBRANCH  25  26
ENDBRANCH  24  25
ENDBRANCH  23  24
ENDBRANCH  22  23
ENDBRANCH  21  22
ENDBRANCH  19  21
ENDBRANCH  16  17
ENDBRANCH  15  16
ENDBRANCH  12  15
ENDBRANCH  10  11
ENDBRANCH   9  10
ENDBRANCH   8   9
ENDBRANCH   7   8
ENDBRANCH   6   7
ENDBRANCH   3   6
TORSDOF 23
ENDMDL
MODEL      159
REMARK 921   NORMALIZED FREE ENERGY PREDICTED BY IDOCK:   -4.42 KCAL/MOL
REMARK 922        TOTAL FREE ENERGY PREDICTED BY IDOCK:  -13.12 KCAL/MOL
REMARK 923 INTER-LIGAND FREE ENERGY PREDICTED BY IDOCK:  -10.37 KCAL/MOL
REMARK 924 INTRA-LIGAND FREE ENERGY PREDICTED BY IDOCK:   -2.76 KCAL/MOL
REMARK 927      BINDING AFFINITY PREDICTED BY RF-SCORE:    0.00 PKD
ROOT
HETATM    1  C   UNL     1     -12.730   7.641  71.533  1.00  0.00    -0.373 C  
HETATM    2  C   UNL     1     -11.428   7.605  72.291  1.00  0.00    -0.317 C  
HETATM    3  N   UNL     1     -11.142   6.452  72.974  1.00  0.00    -0.233 N  
HETATM    4  O   UNL     1     -10.689   8.590  72.304  1.00  0.00    -0.323 OA 
HETATM    5  O   UNL     1     -11.881   5.262  72.860  1.00  0.00    -0.271 OA 
ENDROOT
BRANCH   3   6
HETATM    6  C   UNL     1      -9.933   6.267  73.765  1.00  0.00    -0.224 C  
BRANCH   6   7
HETATM    7  C   UNL     1      -9.225   4.948  73.448  1.00  0.00    -0.126 C  
BRANCH   7   8
HETATM    8  C   UNL     1      -8.433   5.066  72.144  1.00  0.00    -0.125 C  
BRANCH   8   9
HETATM    9  C   UNL     1      -9.013   4.184  71.037  1.00  0.00    -0.163 C  
BRANCH   9  10
HETATM   10  C   UNL     1      -9.861   4.982  70.045  1.00  0.00    -0.228 C  
BRANCH  10  11
HETATM   11  N   UNL     1      -9.134   5.306  68.827  1.00  0.00    -0.110 N  
HETATM   12  C   UNL     1      -8.450   6.495  68.702  1.00  0.00    -0.121 C  
HETATM   13  H   UNL     1      -9.131   4.642  68.054  1.00  0.00     0.000 HD 
HETATM   14  O   UNL     1      -8.366   7.334  69.594  1.00  0.00    -0.129 OA 
BRANCH  12  15
HETATM   15  C   UNL     1      -7.791   6.664  67.349  1.00  0.00    -0.113 C  
BRANCH  15  16
HETATM   16  C   UNL     1      -8.840   6.938  66.274  1.00  0.00    -0.161 C  
BRANCH  16  17
HETATM   17  C   UNL     1     -10.017   7.733  66.804  1.00  0.00    -0.261 C  
HETATM   18  O   UNL     1     -11.073   7.181  67.107  1.00  0.00    -0.326 OA 
HETATM   19  N   UNL     1      -9.840   9.090  66.891  1.00  0.00    -0.203 N  
HETATM   20  O   UNL     1      -8.625   9.755  66.653  1.00  0.00    -0.126 OA 
BRANCH  19  21
HETATM   21  C   UNL     1     -10.885  10.014  67.308  1.00  0.00    -0.217 C  
BRANCH  21  22
HETATM   22  C   UNL     1     -10.911  10.222  68.824  1.00  0.00    -0.285 C  
BRANCH  22  23
HETATM   23  C   UNL     1     -11.875  11.342  69.260  1.00  0.00    -0.417 C  
BRANCH  23  24
HETATM   24  C   UNL     1     -12.369  11.189  70.699  1.00  0.00    -0.482 C  
BRANCH  24  25
HETATM   25  C   UNL     1     -12.814  12.527  71.285  1.00  0.00    -0.241 C  
BRANCH  25  26
HETATM   26  N   UNL     1     -12.139  13.641  70.649  1.00  0.00    -0.448 N  
HETATM   27  H   UNL     1     -11.243  13.479  70.188  1.00  0.00     0.000 HD 
HETATM   28  C   UNL     1     -12.672  14.908  70.649  1.00  0.00    -0.367 C  
HETATM   29  O   UNL     1     -13.751  15.189  71.160  1.00  0.00    -0.447 OA 
BRANCH  28  30
HETATM   30  C   UNL     1     -11.817  15.948  69.970  1.00  0.00    -0.322 C  
BRANCH  30  31
HETATM   31  C   UNL     1     -10.375  15.470  69.922  1.00  0.00    -0.322 C  
BRANCH  31  32
HETATM   32  C   UNL     1      -9.846  15.487  68.503  1.00  0.00    -0.202 C  
HETATM   33  N   UNL     1      -8.487  15.524  68.312  1.00  0.00    -0.153 N  
HETATM   34  O   UNL     1     -10.637  15.386  67.563  1.00  0.00    -0.270 OA 
HETATM   35  O   UNL     1      -7.656  16.053  69.318  1.00  0.00    -0.221 OA 
BRANCH  33  36
HETATM   36  C   UNL     1      -7.882  15.616  66.982  1.00  0.00    -0.231 C  
BRANCH  36  37
HETATM   37  C   UNL     1      -7.079  16.906  66.801  1.00  0.00    -0.273 C  
BRANCH  37  38
HETATM   38  C   UNL     1      -7.868  17.973  66.035  1.00  0.00    -0.177 C  
BRANCH  38  39
HETATM   39  C   UNL     1      -8.843  18.721  66.949  1.00  0.00    -0.299 C  
BRANCH  39  40
HETATM   40  C   UNL     1     -10.283  18.674  66.436  1.00  0.00    -0.425 C  
HETATM   41  N   UNL     1     -10.489  17.574  65.500  1.00  0.00    -0.637 NA 
HETATM   42  H2  UNL     1     -10.210  16.682  65.908  1.00  0.00     0.000 HD 
HETATM   43  H1  UNL     1     -11.449  17.542  65.158  1.00  0.00     0.000 HD 
ENDBRANCH  39  40
ENDBRANCH  38  39
ENDBRANCH  37  38
ENDBRANCH  36  37
ENDBRANCH  33  36
ENDBRANCH  31  32
ENDBRANCH  30  31
ENDBRANCH  28  30
ENDBRANCH  25  26
ENDBRANCH  24  25
ENDBRANCH  23  24
ENDBRANCH  22  23
ENDBRANCH  21  22
ENDBRANCH  19  21
ENDBRANCH  16  17
ENDBRANCH  15  16
ENDBRANCH  12  15
ENDBRANCH  10  11
ENDBRANCH   9  10
ENDBRANCH   8   9
ENDBRANCH   7   8
ENDBRANCH   6   7
ENDBRANCH   3   6
TORSDOF 23
ENDMDL
MODEL      160
REMARK 921   NORMALIZED FREE ENERGY PREDICTED BY IDOCK:   -4.42 KCAL/MOL
REMARK 922        TOTAL FREE ENERGY PREDICTED BY IDOCK:  -13.11 KCAL/MOL
REMARK 923 INTER-LIGAND FREE ENERGY PREDICTED BY IDOCK:   -9.93 KCAL/MOL
REMARK 924 INTRA-LIGAND FREE ENERGY PREDICTED BY IDOCK:   -3.18 KCAL/MOL
REMARK 927      BINDING AFFINITY PREDICTED BY RF-SCORE:    0.00 PKD
ROOT
HETATM    1  C   UNL     1      -9.423   3.370  66.323  1.00  0.00    -0.128 C  
HETATM    2  C   UNL     1      -8.486   4.136  67.219  1.00  0.00    -0.100 C  
HETATM    3  N   UNL     1      -7.954   5.293  66.713  1.00  0.00    -0.104 N  
HETATM    4  O   UNL     1      -8.201   3.702  68.336  1.00  0.00    -0.076 OA 
HETATM    5  O   UNL     1      -8.369   5.894  65.513  1.00  0.00    -0.133 OA 
ENDROOT
BRANCH   3   6
HETATM    6  C   UNL     1      -7.022   6.136  67.449  1.00  0.00    -0.069 C  
BRANCH   6   7
HETATM    7  C   UNL     1      -7.180   7.619  67.106  1.00  0.00    -0.090 C  
BRANCH   7   8
HETATM    8  C   UNL     1      -6.495   8.487  68.163  1.00  0.00    -0.057 C  
BRANCH   8   9
HETATM    9  C   UNL     1      -6.926   8.114  69.582  1.00  0.00    -0.049 C  
BRANCH   9  10
HETATM   10  C   UNL     1      -8.322   8.636  69.921  1.00  0.00    -0.123 C  
BRANCH  10  11
HETATM   11  N   UNL     1      -9.274   7.562  70.165  1.00  0.00    -0.154 N  
HETATM   12  C   UNL     1     -10.325   7.333  69.305  1.00  0.00    -0.205 C  
HETATM   13  H   UNL     1      -9.160   6.969  70.986  1.00  0.00     0.000 HD 
HETATM   14  O   UNL     1     -10.517   7.971  68.274  1.00  0.00    -0.204 OA 
BRANCH  12  15
HETATM   15  C   UNL     1     -11.223   6.199  69.750  1.00  0.00    -0.494 C  
BRANCH  15  16
HETATM   16  C   UNL     1     -11.615   6.371  71.216  1.00  0.00    -0.370 C  
BRANCH  16  17
HETATM   17  C   UNL     1     -12.654   7.458  71.413  1.00  0.00    -0.370 C  
HETATM   18  O   UNL     1     -13.832   7.274  71.113  1.00  0.00    -0.319 OA 
HETATM   19  N   UNL     1     -12.194   8.651  71.909  1.00  0.00    -0.330 N  
HETATM   20  O   UNL     1     -10.881   8.876  72.359  1.00  0.00    -0.272 OA 
BRANCH  19  21
HETATM   21  C   UNL     1     -13.034   9.825  72.093  1.00  0.00    -0.394 C  
BRANCH  21  22
HETATM   22  C   UNL     1     -13.099  10.700  70.838  1.00  0.00    -0.342 C  
BRANCH  22  23
HETATM   23  C   UNL     1     -11.766  10.744  70.067  1.00  0.00    -0.417 C  
BRANCH  23  24
HETATM   24  C   UNL     1     -11.928  11.153  68.603  1.00  0.00    -0.289 C  
BRANCH  24  25
HETATM   25  C   UNL     1     -10.600  11.601  67.996  1.00  0.00    -0.202 C  
BRANCH  25  26
HETATM   26  N   UNL     1     -10.792  12.620  66.983  1.00  0.00    -0.249 N  
HETATM   27  H   UNL     1     -11.174  13.526  67.258  1.00  0.00     0.000 HD 
HETATM   28  C   UNL     1     -10.474  12.402  65.664  1.00  0.00    -0.261 C  
HETATM   29  O   UNL     1      -9.992  11.353  65.248  1.00  0.00    -0.235 OA 
BRANCH  28  30
HETATM   30  C   UNL     1     -10.771  13.560  64.746  1.00  0.00    -0.412 C  
BRANCH  30  31
HETATM   31  C   UNL     1     -11.695  14.542  65.449  1.00  0.00    -0.354 C  
BRANCH  31  32
HETATM   32  C   UNL     1     -11.089  15.930  65.476  1.00  0.00    -0.146 C  
HETATM   33  N   UNL     1     -10.330  16.289  66.563  1.00  0.00    -0.300 N  
HETATM   34  O   UNL     1     -11.220  16.666  64.497  1.00  0.00    -0.909 OA 
HETATM   35  O   UNL     1     -10.536  15.649  67.800  1.00  0.00    -0.267 OA 
BRANCH  33  36
HETATM   36  C   UNL     1      -9.762  17.631  66.717  1.00  0.00    -0.300 C  
BRANCH  36  37
HETATM   37  C   UNL     1      -8.358  17.597  67.324  1.00  0.00    -0.225 C  
BRANCH  37  38
HETATM   38  C   UNL     1      -7.517  16.443  66.770  1.00  0.00    -0.278 C  
BRANCH  38  39
HETATM   39  C   UNL     1      -6.496  15.944  67.797  1.00  0.00    -0.177 C  
BRANCH  39  40
HETATM   40  C   UNL     1      -6.473  14.419  67.911  1.00  0.00    -0.164 C  
HETATM   41  N   UNL     1      -7.585  13.806  67.191  1.00  0.00    -0.360 NA 
HETATM   42  H2  UNL     1      -7.607  14.106  66.217  1.00  0.00     0.000 HD 
HETATM   43  H1  UNL     1      -7.569  12.789  67.267  1.00  0.00     0.000 HD 
ENDBRANCH  39  40
ENDBRANCH  38  39
ENDBRANCH  37  38
ENDBRANCH  36  37
ENDBRANCH  33  36
ENDBRANCH  31  32
ENDBRANCH  30  31
ENDBRANCH  28  30
ENDBRANCH  25  26
ENDBRANCH  24  25
ENDBRANCH  23  24
ENDBRANCH  22  23
ENDBRANCH  21  22
ENDBRANCH  19  21
ENDBRANCH  16  17
ENDBRANCH  15  16
ENDBRANCH  12  15
ENDBRANCH  10  11
ENDBRANCH   9  10
ENDBRANCH   8   9
ENDBRANCH   7   8
ENDBRANCH   6   7
ENDBRANCH   3   6
TORSDOF 23
ENDMDL
MODEL      161
REMARK 921   NORMALIZED FREE ENERGY PREDICTED BY IDOCK:   -4.41 KCAL/MOL
REMARK 922        TOTAL FREE ENERGY PREDICTED BY IDOCK:  -13.10 KCAL/MOL
REMARK 923 INTER-LIGAND FREE ENERGY PREDICTED BY IDOCK:  -10.19 KCAL/MOL
REMARK 924 INTRA-LIGAND FREE ENERGY PREDICTED BY IDOCK:   -2.91 KCAL/MOL
REMARK 927      BINDING AFFINITY PREDICTED BY RF-SCORE:    0.00 PKD
ROOT
HETATM    1  C   UNL     1      -8.190   9.958  67.849  1.00  0.00    -0.113 C  
HETATM    2  C   UNL     1      -9.017   8.704  67.961  1.00  0.00    -0.141 C  
HETATM    3  N   UNL     1      -9.797   8.379  66.882  1.00  0.00    -0.220 N  
HETATM    4  O   UNL     1      -8.999   8.038  68.997  1.00  0.00    -0.144 OA 
HETATM    5  O   UNL     1      -9.730   9.025  65.636  1.00  0.00    -0.243 OA 
ENDROOT
BRANCH   3   6
HETATM    6  C   UNL     1     -10.664   7.209  66.842  1.00  0.00    -0.293 C  
BRANCH   6   7
HETATM    7  C   UNL     1      -9.980   5.999  66.203  1.00  0.00    -0.003 C  
BRANCH   7   8
HETATM    8  C   UNL     1      -9.725   4.914  67.250  1.00  0.00    -0.194 C  
BRANCH   8   9
HETATM    9  C   UNL     1      -8.414   4.168  66.999  1.00  0.00    -0.100 C  
BRANCH   9  10
HETATM   10  C   UNL     1      -7.353   4.487  68.053  1.00  0.00    -0.065 C  
BRANCH  10  11
HETATM   11  N   UNL     1      -7.898   5.224  69.183  1.00  0.00    -0.084 N  
HETATM   12  C   UNL     1      -7.896   4.687  70.451  1.00  0.00    -0.054 C  
HETATM   13  H   UNL     1      -8.287   6.155  69.033  1.00  0.00     0.000 HD 
HETATM   14  O   UNL     1      -7.414   3.593  70.731  1.00  0.00    -0.040 OA 
BRANCH  12  15
HETATM   15  C   UNL     1      -8.539   5.590  71.482  1.00  0.00    -0.132 C  
BRANCH  15  16
HETATM   16  C   UNL     1      -9.979   5.157  71.748  1.00  0.00    -0.244 C  
BRANCH  16  17
HETATM   17  C   UNL     1     -10.990   6.102  71.129  1.00  0.00    -0.284 C  
HETATM   18  O   UNL     1     -11.433   5.909  69.999  1.00  0.00    -0.300 OA 
HETATM   19  N   UNL     1     -11.348   7.186  71.889  1.00  0.00    -0.252 N  
HETATM   20  O   UNL     1     -10.947   7.397  73.220  1.00  0.00    -0.376 OA 
BRANCH  19  21
HETATM   21  C   UNL     1     -12.248   8.233  71.427  1.00  0.00    -0.299 C  
BRANCH  21  22
HETATM   22  C   UNL     1     -11.713   9.637  71.724  1.00  0.00    -0.356 C  
BRANCH  22  23
HETATM   23  C   UNL     1     -12.754  10.742  71.466  1.00  0.00    -0.536 C  
BRANCH  23  24
HETATM   24  C   UNL     1     -12.239  11.857  70.554  1.00  0.00    -0.426 C  
BRANCH  24  25
HETATM   25  C   UNL     1     -11.449  11.296  69.374  1.00  0.00    -0.301 C  
BRANCH  25  26
HETATM   26  N   UNL     1     -11.078  12.337  68.436  1.00  0.00    -0.225 N  
HETATM   27  H   UNL     1     -10.598  13.168  68.783  1.00  0.00     0.000 HD 
HETATM   28  C   UNL     1     -11.355  12.236  67.093  1.00  0.00    -0.335 C  
HETATM   29  O   UNL     1     -11.910  11.266  66.587  1.00  0.00    -0.311 OA 
BRANCH  28  30
HETATM   30  C   UNL     1     -10.927  13.426  66.273  1.00  0.00    -0.296 C  
BRANCH  30  31
HETATM   31  C   UNL     1     -11.741  14.645  66.680  1.00  0.00    -0.345 C  
BRANCH  31  32
HETATM   32  C   UNL     1     -10.871  15.667  67.380  1.00  0.00    -0.315 C  
HETATM   33  N   UNL     1     -10.502  16.795  66.688  1.00  0.00    -0.290 N  
HETATM   34  O   UNL     1     -10.586  15.506  68.568  1.00  0.00    -0.234 OA 
HETATM   35  O   UNL     1     -10.462  16.766  65.281  1.00  0.00    -0.630 OA 
BRANCH  33  36
HETATM   36  C   UNL     1      -9.604  17.805  67.252  1.00  0.00    -0.272 C  
BRANCH  36  37
HETATM   37  C   UNL     1      -9.723  19.149  66.531  1.00  0.00    -0.411 C  
BRANCH  37  38
HETATM   38  C   UNL     1      -8.353  19.733  66.169  1.00  0.00    -0.368 C  
BRANCH  38  39
HETATM   39  C   UNL     1      -7.886  20.763  67.203  1.00  0.00    -0.288 C  
BRANCH  39  40
HETATM   40  C   UNL     1      -6.386  21.049  67.112  1.00  0.00    -0.329 C  
HETATM   41  N   UNL     1      -5.742  20.977  68.420  1.00  0.00    -0.344 NA 
HETATM   42  H2  UNL     1      -5.923  20.082  68.874  1.00  0.00     0.000 HD 
HETATM   43  H1  UNL     1      -4.742  21.168  68.359  1.00  0.00     0.000 HD 
ENDBRANCH  39  40
ENDBRANCH  38  39
ENDBRANCH  37  38
ENDBRANCH  36  37
ENDBRANCH  33  36
ENDBRANCH  31  32
ENDBRANCH  30  31
ENDBRANCH  28  30
ENDBRANCH  25  26
ENDBRANCH  24  25
ENDBRANCH  23  24
ENDBRANCH  22  23
ENDBRANCH  21  22
ENDBRANCH  19  21
ENDBRANCH  16  17
ENDBRANCH  15  16
ENDBRANCH  12  15
ENDBRANCH  10  11
ENDBRANCH   9  10
ENDBRANCH   8   9
ENDBRANCH   7   8
ENDBRANCH   6   7
ENDBRANCH   3   6
TORSDOF 23
ENDMDL
MODEL      162
REMARK 921   NORMALIZED FREE ENERGY PREDICTED BY IDOCK:   -4.41 KCAL/MOL
REMARK 922        TOTAL FREE ENERGY PREDICTED BY IDOCK:  -13.10 KCAL/MOL
REMARK 923 INTER-LIGAND FREE ENERGY PREDICTED BY IDOCK:  -11.14 KCAL/MOL
REMARK 924 INTRA-LIGAND FREE ENERGY PREDICTED BY IDOCK:   -1.96 KCAL/MOL
REMARK 927      BINDING AFFINITY PREDICTED BY RF-SCORE:    0.00 PKD
ROOT
HETATM    1  C   UNL     1      -8.724   2.380  69.688  1.00  0.00    -0.125 C  
HETATM    2  C   UNL     1      -9.395   3.025  70.872  1.00  0.00    -0.150 C  
HETATM    3  N   UNL     1      -9.935   4.269  70.675  1.00  0.00    -0.188 N  
HETATM    4  O   UNL     1      -9.414   2.453  71.963  1.00  0.00    -0.094 OA 
HETATM    5  O   UNL     1     -10.066   4.883  69.419  1.00  0.00    -0.218 OA 
ENDROOT
BRANCH   3   6
HETATM    6  C   UNL     1     -10.603   5.028  71.724  1.00  0.00    -0.134 C  
BRANCH   6   7
HETATM    7  C   UNL     1     -10.659   6.525  71.413  1.00  0.00    -0.266 C  
BRANCH   7   8
HETATM    8  C   UNL     1     -11.899   7.157  72.049  1.00  0.00    -0.333 C  
BRANCH   8   9
HETATM    9  C   UNL     1     -12.262   8.493  71.400  1.00  0.00    -0.343 C  
BRANCH   9  10
HETATM   10  C   UNL     1     -11.082   9.465  71.375  1.00  0.00    -0.380 C  
BRANCH  10  11
HETATM   11  N   UNL     1     -10.851  10.025  70.052  1.00  0.00    -0.280 N  
HETATM   12  C   UNL     1     -11.544  11.132  69.616  1.00  0.00    -0.326 C  
HETATM   13  H   UNL     1     -10.164   9.590  69.437  1.00  0.00     0.000 HD 
HETATM   14  O   UNL     1     -12.359  11.744  70.301  1.00  0.00    -0.294 OA 
BRANCH  12  15
HETATM   15  C   UNL     1     -11.191  11.538  68.201  1.00  0.00    -0.335 C  
BRANCH  15  16
HETATM   16  C   UNL     1      -9.748  11.157  67.879  1.00  0.00    -0.184 C  
BRANCH  16  17
HETATM   17  C   UNL     1      -9.332  11.591  66.487  1.00  0.00    -0.197 C  
HETATM   18  O   UNL     1      -8.830  12.695  66.289  1.00  0.00    -0.064 OA 
HETATM   19  N   UNL     1      -9.577  10.697  65.476  1.00  0.00    -0.205 N  
HETATM   20  O   UNL     1     -10.055   9.388  65.665  1.00  0.00    -0.261 OA 
BRANCH  19  21
HETATM   21  C   UNL     1      -9.311  10.975  64.073  1.00  0.00    -0.207 C  
BRANCH  21  22
HETATM   22  C   UNL     1     -10.320  11.956  63.469  1.00  0.00    -0.495 C  
BRANCH  22  23
HETATM   23  C   UNL     1     -11.780  11.592  63.795  1.00  0.00    -0.403 C  
BRANCH  23  24
HETATM   24  C   UNL     1     -12.645  12.806  64.137  1.00  0.00    -0.390 C  
BRANCH  24  25
HETATM   25  C   UNL     1     -12.484  13.215  65.600  1.00  0.00    -0.425 C  
BRANCH  25  26
HETATM   26  N   UNL     1     -11.462  14.229  65.763  1.00  0.00    -0.329 N  
HETATM   27  H   UNL     1     -10.825  14.420  64.989  1.00  0.00     0.000 HD 
HETATM   28  C   UNL     1     -11.325  14.940  66.931  1.00  0.00    -0.337 C  
HETATM   29  O   UNL     1     -12.057  14.791  67.905  1.00  0.00    -0.288 OA 
BRANCH  28  30
HETATM   30  C   UNL     1     -10.187  15.929  66.935  1.00  0.00    -0.277 C  
BRANCH  30  31
HETATM   31  C   UNL     1     -10.579  17.154  67.745  1.00  0.00    -0.360 C  
BRANCH  31  32
HETATM   32  C   UNL     1     -10.201  18.427  67.018  1.00  0.00    -0.379 C  
HETATM   33  N   UNL     1      -9.512  19.395  67.709  1.00  0.00    -0.316 N  
HETATM   34  O   UNL     1     -10.445  18.531  65.814  1.00  0.00    -0.598 OA 
HETATM   35  O   UNL     1      -9.619  19.458  69.111  1.00  0.00    -0.389 OA 
BRANCH  33  36
HETATM   36  C   UNL     1      -9.166  20.688  67.116  1.00  0.00    -0.292 C  
BRANCH  36  37
HETATM   37  C   UNL     1      -7.696  21.050  67.340  1.00  0.00    -0.170 C  
BRANCH  37  38
HETATM   38  C   UNL     1      -6.747  19.998  66.756  1.00  0.00    -0.241 C  
BRANCH  38  39
HETATM   39  C   UNL     1      -6.906  19.873  65.238  1.00  0.00    -0.312 C  
BRANCH  39  40
HETATM   40  C   UNL     1      -5.990  18.807  64.636  1.00  0.00    -0.179 C  
HETATM   41  N   UNL     1      -5.659  19.101  63.245  1.00  0.00    -0.372 NA 
HETATM   42  H2  UNL     1      -5.259  20.034  63.148  1.00  0.00     0.000 HD 
HETATM   43  H1  UNL     1      -5.048  18.390  62.844  1.00  0.00     0.000 HD 
ENDBRANCH  39  40
ENDBRANCH  38  39
ENDBRANCH  37  38
ENDBRANCH  36  37
ENDBRANCH  33  36
ENDBRANCH  31  32
ENDBRANCH  30  31
ENDBRANCH  28  30
ENDBRANCH  25  26
ENDBRANCH  24  25
ENDBRANCH  23  24
ENDBRANCH  22  23
ENDBRANCH  21  22
ENDBRANCH  19  21
ENDBRANCH  16  17
ENDBRANCH  15  16
ENDBRANCH  12  15
ENDBRANCH  10  11
ENDBRANCH   9  10
ENDBRANCH   8   9
ENDBRANCH   7   8
ENDBRANCH   6   7
ENDBRANCH   3   6
TORSDOF 23
ENDMDL
MODEL      163
REMARK 921   NORMALIZED FREE ENERGY PREDICTED BY IDOCK:   -4.41 KCAL/MOL
REMARK 922        TOTAL FREE ENERGY PREDICTED BY IDOCK:  -13.09 KCAL/MOL
REMARK 923 INTER-LIGAND FREE ENERGY PREDICTED BY IDOCK:  -10.27 KCAL/MOL
REMARK 924 INTRA-LIGAND FREE ENERGY PREDICTED BY IDOCK:   -2.82 KCAL/MOL
REMARK 927      BINDING AFFINITY PREDICTED BY RF-SCORE:    0.00 PKD
ROOT
HETATM    1  C   UNL     1      -8.368   5.013  72.042  1.00  0.00    -0.124 C  
HETATM    2  C   UNL     1      -9.256   5.974  71.296  1.00  0.00    -0.146 C  
HETATM    3  N   UNL     1      -9.353   7.244  71.800  1.00  0.00    -0.149 N  
HETATM    4  O   UNL     1      -9.879   5.600  70.302  1.00  0.00    -0.175 OA 
HETATM    5  O   UNL     1      -8.547   7.748  72.835  1.00  0.00    -0.129 OA 
ENDROOT
BRANCH   3   6
HETATM    6  C   UNL     1     -10.182   8.283  71.202  1.00  0.00    -0.198 C  
BRANCH   6   7
HETATM    7  C   UNL     1      -9.431   9.089  70.140  1.00  0.00    -0.217 C  
BRANCH   7   8
HETATM    8  C   UNL     1     -10.353   9.411  68.963  1.00  0.00    -0.224 C  
BRANCH   8   9
HETATM    9  C   UNL     1     -10.352  10.902  68.623  1.00  0.00    -0.206 C  
BRANCH   9  10
HETATM   10  C   UNL     1      -8.970  11.535  68.792  1.00  0.00    -0.047 C  
BRANCH  10  11
HETATM   11  N   UNL     1      -8.903  12.880  68.241  1.00  0.00    -0.233 N  
HETATM   12  C   UNL     1      -7.777  13.658  68.396  1.00  0.00    -0.138 C  
HETATM   13  H   UNL     1      -9.704  13.253  67.732  1.00  0.00     0.000 HD 
HETATM   14  O   UNL     1      -6.754  13.277  68.959  1.00  0.00    -0.103 OA 
BRANCH  12  15
HETATM   15  C   UNL     1      -7.916  15.036  67.787  1.00  0.00    -0.155 C  
BRANCH  15  16
HETATM   16  C   UNL     1      -6.596  15.797  67.881  1.00  0.00    -0.165 C  
BRANCH  16  17
HETATM   17  C   UNL     1      -6.788  17.238  68.312  1.00  0.00    -0.184 C  
HETATM   18  O   UNL     1      -6.775  17.553  69.500  1.00  0.00    -0.223 OA 
HETATM   19  N   UNL     1      -7.007  18.146  67.308  1.00  0.00    -0.191 N  
HETATM   20  O   UNL     1      -6.933  17.853  65.935  1.00  0.00    -0.291 OA 
BRANCH  19  21
HETATM   21  C   UNL     1      -7.284  19.556  67.543  1.00  0.00    -0.224 C  
BRANCH  21  22
HETATM   22  C   UNL     1      -8.579  20.017  66.869  1.00  0.00    -0.402 C  
BRANCH  22  23
HETATM   23  C   UNL     1      -9.832  19.733  67.719  1.00  0.00    -0.520 C  
BRANCH  23  24
HETATM   24  C   UNL     1     -10.633  18.525  67.230  1.00  0.00    -0.453 C  
BRANCH  24  25
HETATM   25  C   UNL     1     -10.641  17.401  68.264  1.00  0.00    -0.366 C  
BRANCH  25  26
HETATM   26  N   UNL     1     -11.160  16.167  67.710  1.00  0.00    -0.297 N  
HETATM   27  H   UNL     1     -11.157  16.039  66.697  1.00  0.00     0.000 HD 
HETATM   28  C   UNL     1     -11.655  15.164  68.509  1.00  0.00    -0.335 C  
HETATM   29  O   UNL     1     -11.678  15.224  69.734  1.00  0.00    -0.280 OA 
BRANCH  28  30
HETATM   30  C   UNL     1     -12.183  13.968  67.760  1.00  0.00    -0.209 C  
BRANCH  30  31
HETATM   31  C   UNL     1     -12.387  14.332  66.297  1.00  0.00    -0.399 C  
BRANCH  31  32
HETATM   32  C   UNL     1     -11.348  13.661  65.424  1.00  0.00    -0.301 C  
HETATM   33  N   UNL     1     -11.778  12.916  64.352  1.00  0.00    -0.349 N  
HETATM   34  O   UNL     1     -10.152  13.863  65.643  1.00  0.00    -0.310 OA 
HETATM   35  O   UNL     1     -13.071  12.359  64.364  1.00  0.00    -0.786 OA 
BRANCH  33  36
HETATM   36  C   UNL     1     -10.856  12.171  63.492  1.00  0.00    -0.458 C  
BRANCH  36  37
HETATM   37  C   UNL     1     -10.522  10.791  64.063  1.00  0.00    -0.287 C  
BRANCH  37  38
HETATM   38  C   UNL     1      -9.293  10.171  63.391  1.00  0.00    -0.334 C  
BRANCH  38  39
HETATM   39  C   UNL     1      -8.179   9.887  64.403  1.00  0.00    -0.164 C  
BRANCH  39  40
HETATM   40  C   UNL     1      -6.784   9.975  63.782  1.00  0.00    -0.128 C  
HETATM   41  N   UNL     1      -5.878  10.777  64.598  1.00  0.00    -0.368 NA 
HETATM   42  H2  UNL     1      -5.837  10.432  65.557  1.00  0.00     0.000 HD 
HETATM   43  H1  UNL     1      -4.948  10.836  64.184  1.00  0.00     0.000 HD 
ENDBRANCH  39  40
ENDBRANCH  38  39
ENDBRANCH  37  38
ENDBRANCH  36  37
ENDBRANCH  33  36
ENDBRANCH  31  32
ENDBRANCH  30  31
ENDBRANCH  28  30
ENDBRANCH  25  26
ENDBRANCH  24  25
ENDBRANCH  23  24
ENDBRANCH  22  23
ENDBRANCH  21  22
ENDBRANCH  19  21
ENDBRANCH  16  17
ENDBRANCH  15  16
ENDBRANCH  12  15
ENDBRANCH  10  11
ENDBRANCH   9  10
ENDBRANCH   8   9
ENDBRANCH   7   8
ENDBRANCH   6   7
ENDBRANCH   3   6
TORSDOF 23
ENDMDL
MODEL      164
REMARK 921   NORMALIZED FREE ENERGY PREDICTED BY IDOCK:   -4.40 KCAL/MOL
REMARK 922        TOTAL FREE ENERGY PREDICTED BY IDOCK:  -13.07 KCAL/MOL
REMARK 923 INTER-LIGAND FREE ENERGY PREDICTED BY IDOCK:  -10.03 KCAL/MOL
REMARK 924 INTRA-LIGAND FREE ENERGY PREDICTED BY IDOCK:   -3.04 KCAL/MOL
REMARK 927      BINDING AFFINITY PREDICTED BY RF-SCORE:    0.00 PKD
ROOT
HETATM    1  C   UNL     1     -10.438  13.424  68.718  1.00  0.00    -0.203 C  
HETATM    2  C   UNL     1     -10.592  14.891  68.416  1.00  0.00    -0.244 C  
HETATM    3  N   UNL     1      -9.565  15.494  67.739  1.00  0.00    -0.209 N  
HETATM    4  O   UNL     1     -11.589  15.504  68.801  1.00  0.00    -0.342 OA 
HETATM    5  O   UNL     1      -8.490  14.803  67.156  1.00  0.00    -0.199 OA 
ENDROOT
BRANCH   3   6
HETATM    6  C   UNL     1      -9.557  16.908  67.387  1.00  0.00    -0.241 C  
BRANCH   6   7
HETATM    7  C   UNL     1      -9.857  17.141  65.904  1.00  0.00    -0.178 C  
BRANCH   7   8
HETATM    8  C   UNL     1     -11.269  16.662  65.563  1.00  0.00     0.229 C  
BRANCH   8   9
HETATM    9  C   UNL     1     -11.302  15.841  64.272  1.00  0.00    -0.189 C  
BRANCH   9  10
HETATM   10  C   UNL     1     -12.151  14.577  64.409  1.00  0.00    -0.472 C  
BRANCH  10  11
HETATM   11  N   UNL     1     -11.590  13.449  63.680  1.00  0.00    -0.660 N  
HETATM   12  C   UNL     1     -10.708  12.580  64.281  1.00  0.00    -0.369 C  
HETATM   13  H   UNL     1     -11.856  13.301  62.707  1.00  0.00     0.000 HD 
HETATM   14  O   UNL     1     -10.364  12.658  65.458  1.00  0.00    -0.276 OA 
BRANCH  12  15
HETATM   15  C   UNL     1     -10.208  11.497  63.349  1.00  0.00    -0.462 C  
BRANCH  15  16
HETATM   16  C   UNL     1      -9.908  10.218  64.128  1.00  0.00    -0.319 C  
BRANCH  16  17
HETATM   17  C   UNL     1      -8.733   9.453  63.551  1.00  0.00    -0.204 C  
HETATM   18  O   UNL     1      -8.873   8.703  62.587  1.00  0.00    -0.114 OA 
HETATM   19  N   UNL     1      -7.529   9.625  64.185  1.00  0.00    -0.122 N  
HETATM   20  O   UNL     1      -7.297  10.544  65.224  1.00  0.00    -0.134 OA 
BRANCH  19  21
HETATM   21  C   UNL     1      -6.314   8.915  63.815  1.00  0.00    -0.087 C  
BRANCH  21  22
HETATM   22  C   UNL     1      -5.320   8.812  64.974  1.00  0.00    -0.039 C  
BRANCH  22  23
HETATM   23  C   UNL     1      -5.743   7.783  66.039  1.00  0.00    -0.037 C  
BRANCH  23  24
HETATM   24  C   UNL     1      -6.812   6.807  65.546  1.00  0.00    -0.052 C  
BRANCH  24  25
HETATM   25  C   UNL     1      -8.028   6.792  66.470  1.00  0.00    -0.105 C  
BRANCH  25  26
HETATM   26  N   UNL     1      -8.277   8.097  67.048  1.00  0.00    -0.114 N  
HETATM   27  H   UNL     1      -7.483   8.681  67.313  1.00  0.00     0.000 HD 
HETATM   28  C   UNL     1      -9.551   8.570  67.251  1.00  0.00    -0.171 C  
HETATM   29  O   UNL     1     -10.562   7.945  66.944  1.00  0.00    -0.341 OA 
BRANCH  28  30
HETATM   30  C   UNL     1      -9.621   9.931  67.893  1.00  0.00    -0.157 C  
BRANCH  30  31
HETATM   31  C   UNL     1      -9.945   9.781  69.371  1.00  0.00    -0.217 C  
BRANCH  31  32
HETATM   32  C   UNL     1     -11.388  10.148  69.649  1.00  0.00    -0.235 C  
HETATM   33  N   UNL     1     -11.863  10.010  70.931  1.00  0.00    -0.339 N  
HETATM   34  O   UNL     1     -12.072  10.634  68.746  1.00  0.00    -0.389 OA 
HETATM   35  O   UNL     1     -11.248   9.095  71.806  1.00  0.00    -0.355 OA 
BRANCH  33  36
HETATM   36  C   UNL     1     -13.260  10.269  71.284  1.00  0.00    -0.356 C  
BRANCH  36  37
HETATM   37  C   UNL     1     -13.403  11.452  72.243  1.00  0.00    -0.080 C  
BRANCH  37  38
HETATM   38  C   UNL     1     -13.072  12.787  71.566  1.00  0.00    -0.380 C  
BRANCH  38  39
HETATM   39  C   UNL     1     -13.294  13.971  72.512  1.00  0.00    -0.639 C  
BRANCH  39  40
HETATM   40  C   UNL     1     -13.107  15.321  71.818  1.00  0.00    -0.403 C  
HETATM   41  N   UNL     1     -14.090  15.525  70.759  1.00  0.00    -0.829 NA 
HETATM   42  H2  UNL     1     -15.041  15.415  71.108  1.00  0.00     0.000 HD 
HETATM   43  H1  UNL     1     -13.965  16.425  70.296  1.00  0.00     0.000 HD 
ENDBRANCH  39  40
ENDBRANCH  38  39
ENDBRANCH  37  38
ENDBRANCH  36  37
ENDBRANCH  33  36
ENDBRANCH  31  32
ENDBRANCH  30  31
ENDBRANCH  28  30
ENDBRANCH  25  26
ENDBRANCH  24  25
ENDBRANCH  23  24
ENDBRANCH  22  23
ENDBRANCH  21  22
ENDBRANCH  19  21
ENDBRANCH  16  17
ENDBRANCH  15  16
ENDBRANCH  12  15
ENDBRANCH  10  11
ENDBRANCH   9  10
ENDBRANCH   8   9
ENDBRANCH   7   8
ENDBRANCH   6   7
ENDBRANCH   3   6
TORSDOF 23
ENDMDL
MODEL      165
REMARK 921   NORMALIZED FREE ENERGY PREDICTED BY IDOCK:   -4.40 KCAL/MOL
REMARK 922        TOTAL FREE ENERGY PREDICTED BY IDOCK:  -13.06 KCAL/MOL
REMARK 923 INTER-LIGAND FREE ENERGY PREDICTED BY IDOCK:  -10.21 KCAL/MOL
REMARK 924 INTRA-LIGAND FREE ENERGY PREDICTED BY IDOCK:   -2.86 KCAL/MOL
REMARK 927      BINDING AFFINITY PREDICTED BY RF-SCORE:    0.00 PKD
ROOT
HETATM    1  C   UNL     1     -13.272  10.102  72.016  1.00  0.00    -0.534 C  
HETATM    2  C   UNL     1     -13.332   8.607  71.847  1.00  0.00    -0.382 C  
HETATM    3  N   UNL     1     -12.168   7.913  72.049  1.00  0.00    -0.307 N  
HETATM    4  O   UNL     1     -14.385   8.062  71.510  1.00  0.00    -0.424 OA 
HETATM    5  O   UNL     1     -10.994   8.477  72.577  1.00  0.00    -0.353 OA 
ENDROOT
BRANCH   3   6
HETATM    6  C   UNL     1     -12.061   6.467  71.908  1.00  0.00    -0.339 C  
BRANCH   6   7
HETATM    7  C   UNL     1     -10.998   6.058  70.887  1.00  0.00    -0.355 C  
BRANCH   7   8
HETATM    8  C   UNL     1     -11.370   6.569  69.494  1.00  0.00    -0.419 C  
BRANCH   8   9
HETATM    9  C   UNL     1     -10.761   5.711  68.384  1.00  0.00    -0.229 C  
BRANCH   9  10
HETATM   10  C   UNL     1     -10.860   6.381  67.012  1.00  0.00    -0.392 C  
BRANCH  10  11
HETATM   11  N   UNL     1      -9.677   6.153  66.196  1.00  0.00    -0.361 N  
HETATM   12  C   UNL     1      -9.542   5.008  65.442  1.00  0.00    -0.049 C  
HETATM   13  H   UNL     1      -8.936   6.853  66.182  1.00  0.00     0.000 HD 
HETATM   14  O   UNL     1     -10.399   4.132  65.368  1.00  0.00    -0.215 OA 
BRANCH  12  15
HETATM   15  C   UNL     1      -8.228   4.938  64.694  1.00  0.00    -0.124 C  
BRANCH  15  16
HETATM   16  C   UNL     1      -7.470   3.665  65.062  1.00  0.00    -0.073 C  
BRANCH  16  17
HETATM   17  C   UNL     1      -7.324   3.493  66.562  1.00  0.00    -0.075 C  
HETATM   18  O   UNL     1      -7.927   2.604  67.161  1.00  0.00    -0.073 OA 
HETATM   19  N   UNL     1      -6.515   4.398  67.198  1.00  0.00    -0.041 N  
HETATM   20  O   UNL     1      -5.730   5.365  66.547  1.00  0.00    -0.016 OA 
BRANCH  19  21
HETATM   21  C   UNL     1      -6.318   4.428  68.640  1.00  0.00    -0.036 C  
BRANCH  21  22
HETATM   22  C   UNL     1      -7.557   4.925  69.389  1.00  0.00    -0.060 C  
BRANCH  22  23
HETATM   23  C   UNL     1      -7.348   6.300  70.050  1.00  0.00    -0.082 C  
BRANCH  23  24
HETATM   24  C   UNL     1      -6.140   7.058  69.499  1.00  0.00    -0.030 C  
BRANCH  24  25
HETATM   25  C   UNL     1      -6.565   8.292  68.707  1.00  0.00    -0.054 C  
BRANCH  25  26
HETATM   26  N   UNL     1      -7.972   8.587  68.890  1.00  0.00    -0.116 N  
HETATM   27  H   UNL     1      -8.667   7.968  68.473  1.00  0.00     0.000 HD 
HETATM   28  C   UNL     1      -8.397   9.678  69.611  1.00  0.00    -0.168 C  
HETATM   29  O   UNL     1      -7.633  10.464  70.164  1.00  0.00    -0.144 OA 
BRANCH  28  30
HETATM   30  C   UNL     1      -9.893   9.848  69.669  1.00  0.00    -0.255 C  
BRANCH  30  31
HETATM   31  C   UNL     1     -10.459   9.872  68.258  1.00  0.00    -0.246 C  
BRANCH  31  32
HETATM   32  C   UNL     1     -11.361  11.071  68.058  1.00  0.00    -0.306 C  
HETATM   33  N   UNL     1     -11.065  11.950  67.044  1.00  0.00    -0.284 N  
HETATM   34  O   UNL     1     -12.376  11.186  68.748  1.00  0.00    -0.539 OA 
HETATM   35  O   UNL     1      -9.742  12.051  66.574  1.00  0.00    -0.206 OA 
BRANCH  33  36
HETATM   36  C   UNL     1     -11.833  13.176  66.817  1.00  0.00    -0.385 C  
BRANCH  36  37
HETATM   37  C   UNL     1     -10.962  14.311  66.276  1.00  0.00    -0.317 C  
BRANCH  37  38
HETATM   38  C   UNL     1     -11.313  14.668  64.828  1.00  0.00    -0.398 C  
BRANCH  38  39
HETATM   39  C   UNL     1     -12.258  13.636  64.204  1.00  0.00    -0.450 C  
BRANCH  39  40
HETATM   40  C   UNL     1     -11.522  12.608  63.344  1.00  0.00    -0.435 C  
HETATM   41  N   UNL     1     -12.381  11.481  62.994  1.00  0.00    -0.935 NA 
HETATM   42  H2  UNL     1     -13.240  11.796  62.544  1.00  0.00     0.000 HD 
HETATM   43  H1  UNL     1     -11.890  10.795  62.420  1.00  0.00     0.000 HD 
ENDBRANCH  39  40
ENDBRANCH  38  39
ENDBRANCH  37  38
ENDBRANCH  36  37
ENDBRANCH  33  36
ENDBRANCH  31  32
ENDBRANCH  30  31
ENDBRANCH  28  30
ENDBRANCH  25  26
ENDBRANCH  24  25
ENDBRANCH  23  24
ENDBRANCH  22  23
ENDBRANCH  21  22
ENDBRANCH  19  21
ENDBRANCH  16  17
ENDBRANCH  15  16
ENDBRANCH  12  15
ENDBRANCH  10  11
ENDBRANCH   9  10
ENDBRANCH   8   9
ENDBRANCH   7   8
ENDBRANCH   6   7
ENDBRANCH   3   6
TORSDOF 23
ENDMDL
MODEL      166
REMARK 921   NORMALIZED FREE ENERGY PREDICTED BY IDOCK:   -4.38 KCAL/MOL
REMARK 922        TOTAL FREE ENERGY PREDICTED BY IDOCK:  -13.03 KCAL/MOL
REMARK 923 INTER-LIGAND FREE ENERGY PREDICTED BY IDOCK:  -10.03 KCAL/MOL
REMARK 924 INTRA-LIGAND FREE ENERGY PREDICTED BY IDOCK:   -2.99 KCAL/MOL
REMARK 927      BINDING AFFINITY PREDICTED BY RF-SCORE:    0.00 PKD
ROOT
HETATM    1  C   UNL     1     -10.594   4.758  66.408  1.00  0.00    -0.203 C  
HETATM    2  C   UNL     1      -9.574   5.799  66.029  1.00  0.00    -0.050 C  
HETATM    3  N   UNL     1      -8.622   5.429  65.116  1.00  0.00    -0.150 N  
HETATM    4  O   UNL     1      -9.598   6.913  66.554  1.00  0.00    -0.177 OA 
HETATM    5  O   UNL     1      -8.651   4.228  64.387  1.00  0.00    -0.110 OA 
ENDROOT
BRANCH   3   6
HETATM    6  C   UNL     1      -7.560   6.315  64.659  1.00  0.00    -0.098 C  
BRANCH   6   7
HETATM    7  C   UNL     1      -8.066   7.375  63.679  1.00  0.00    -0.012 C  
BRANCH   7   8
HETATM    8  C   UNL     1      -7.843   8.778  64.247  1.00  0.00    -0.133 C  
BRANCH   8   9
HETATM    9  C   UNL     1      -9.099   9.646  64.149  1.00  0.00    -0.256 C  
BRANCH   9  10
HETATM   10  C   UNL     1      -8.918  11.007  64.821  1.00  0.00    -0.087 C  
BRANCH  10  11
HETATM   11  N   UNL     1     -10.096  11.419  65.569  1.00  0.00    -0.236 N  
HETATM   12  C   UNL     1     -10.671  12.654  65.368  1.00  0.00    -0.280 C  
HETATM   13  H   UNL     1     -10.503  10.782  66.253  1.00  0.00     0.000 HD 
HETATM   14  O   UNL     1     -10.273  13.468  64.539  1.00  0.00    -0.396 OA 
BRANCH  12  15
HETATM   15  C   UNL     1     -11.862  12.911  66.266  1.00  0.00    -0.477 C  
BRANCH  15  16
HETATM   16  C   UNL     1     -11.666  14.201  67.058  1.00  0.00    -0.430 C  
BRANCH  16  17
HETATM   17  C   UNL     1     -11.432  13.944  68.534  1.00  0.00    -0.311 C  
HETATM   18  O   UNL     1     -11.167  12.817  68.949  1.00  0.00    -0.256 OA 
HETATM   19  N   UNL     1     -11.565  15.026  69.366  1.00  0.00    -0.296 N  
HETATM   20  O   UNL     1     -11.768  16.347  68.931  1.00  0.00    -0.261 OA 
BRANCH  19  21
HETATM   21  C   UNL     1     -11.449  14.948  70.814  1.00  0.00    -0.267 C  
BRANCH  21  22
HETATM   22  C   UNL     1     -12.666  15.539  71.531  1.00  0.00    -0.501 C  
BRANCH  22  23
HETATM   23  C   UNL     1     -13.800  14.517  71.732  1.00  0.00    -0.525 C  
BRANCH  23  24
HETATM   24  C   UNL     1     -13.335  13.221  72.398  1.00  0.00    -0.616 C  
BRANCH  24  25
HETATM   25  C   UNL     1     -13.394  12.041  71.430  1.00  0.00     0.095 C  
BRANCH  25  26
HETATM   26  N   UNL     1     -13.022  10.799  72.078  1.00  0.00    -0.443 N  
HETATM   27  H   UNL     1     -13.324  10.631  73.038  1.00  0.00     0.000 HD 
HETATM   28  C   UNL     1     -12.275   9.841  71.435  1.00  0.00    -0.397 C  
HETATM   29  O   UNL     1     -11.886   9.949  70.276  1.00  0.00    -0.249 OA 
BRANCH  28  30
HETATM   30  C   UNL     1     -11.954   8.629  72.273  1.00  0.00    -0.438 C  
BRANCH  30  31
HETATM   31  C   UNL     1     -12.595   7.398  71.653  1.00  0.00    -0.391 C  
BRANCH  31  32
HETATM   32  C   UNL     1     -11.636   6.226  71.664  1.00  0.00    -0.297 C  
HETATM   33  N   UNL     1     -11.016   5.877  70.489  1.00  0.00    -0.303 N  
HETATM   34  O   UNL     1     -11.373   5.670  72.733  1.00  0.00    -0.289 OA 
HETATM   35  O   UNL     1     -11.617   6.209  69.259  1.00  0.00    -0.329 OA 
BRANCH  33  36
HETATM   36  C   UNL     1     -10.130   4.716  70.382  1.00  0.00    -0.205 C  
BRANCH  36  37
HETATM   37  C   UNL     1      -8.789   5.071  69.737  1.00  0.00    -0.125 C  
BRANCH  37  38
HETATM   38  C   UNL     1      -8.122   6.272  70.416  1.00  0.00    -0.116 C  
BRANCH  38  39
HETATM   39  C   UNL     1      -8.009   7.468  69.466  1.00  0.00    -0.126 C  
BRANCH  39  40
HETATM   40  C   UNL     1      -8.908   8.634  69.879  1.00  0.00    -0.144 C  
HETATM   41  N   UNL     1      -9.487   9.308  68.721  1.00  0.00    -0.148 NA 
HETATM   42  H2  UNL     1      -9.982   8.651  68.119  1.00  0.00     0.000 HD 
HETATM   43  H1  UNL     1     -10.086  10.086  68.996  1.00  0.00     0.000 HD 
ENDBRANCH  39  40
ENDBRANCH  38  39
ENDBRANCH  37  38
ENDBRANCH  36  37
ENDBRANCH  33  36
ENDBRANCH  31  32
ENDBRANCH  30  31
ENDBRANCH  28  30
ENDBRANCH  25  26
ENDBRANCH  24  25
ENDBRANCH  23  24
ENDBRANCH  22  23
ENDBRANCH  21  22
ENDBRANCH  19  21
ENDBRANCH  16  17
ENDBRANCH  15  16
ENDBRANCH  12  15
ENDBRANCH  10  11
ENDBRANCH   9  10
ENDBRANCH   8   9
ENDBRANCH   7   8
ENDBRANCH   6   7
ENDBRANCH   3   6
TORSDOF 23
ENDMDL
MODEL      167
REMARK 921   NORMALIZED FREE ENERGY PREDICTED BY IDOCK:   -4.37 KCAL/MOL
REMARK 922        TOTAL FREE ENERGY PREDICTED BY IDOCK:  -12.99 KCAL/MOL
REMARK 923 INTER-LIGAND FREE ENERGY PREDICTED BY IDOCK:   -9.84 KCAL/MOL
REMARK 924 INTRA-LIGAND FREE ENERGY PREDICTED BY IDOCK:   -3.15 KCAL/MOL
REMARK 927      BINDING AFFINITY PREDICTED BY RF-SCORE:    0.00 PKD
ROOT
HETATM    1  C   UNL     1      -5.815  10.893  66.131  1.00  0.00    -0.145 C  
HETATM    2  C   UNL     1      -6.759   9.724  66.230  1.00  0.00    -0.087 C  
HETATM    3  N   UNL     1      -7.815   9.706  65.357  1.00  0.00    -0.113 N  
HETATM    4  O   UNL     1      -6.585   8.856  67.086  1.00  0.00    -0.060 OA 
HETATM    5  O   UNL     1      -7.960  10.590  64.275  1.00  0.00    -0.117 OA 
ENDROOT
BRANCH   3   6
HETATM    6  C   UNL     1      -8.821   8.653  65.337  1.00  0.00    -0.155 C  
BRANCH   6   7
HETATM    7  C   UNL     1     -10.015   8.971  66.240  1.00  0.00    -0.352 C  
BRANCH   7   8
HETATM    8  C   UNL     1     -10.495   7.708  66.956  1.00  0.00    -0.419 C  
BRANCH   8   9
HETATM    9  C   UNL     1      -9.708   6.468  66.526  1.00  0.00    -0.177 C  
BRANCH   9  10
HETATM   10  C   UNL     1     -10.406   5.169  66.930  1.00  0.00    -0.240 C  
BRANCH  10  11
HETATM   11  N   UNL     1      -9.983   4.695  68.239  1.00  0.00    -0.105 N  
HETATM   12  C   UNL     1      -9.086   3.658  68.365  1.00  0.00    -0.147 C  
HETATM   13  H   UNL     1     -10.358   5.138  69.078  1.00  0.00     0.000 HD 
HETATM   14  O   UNL     1      -8.555   3.093  67.414  1.00  0.00    -0.097 OA 
BRANCH  12  15
HETATM   15  C   UNL     1      -8.802   3.287  69.805  1.00  0.00    -0.154 C  
BRANCH  15  16
HETATM   16  C   UNL     1      -9.810   3.953  70.738  1.00  0.00    -0.211 C  
BRANCH  16  17
HETATM   17  C   UNL     1      -9.140   4.808  71.797  1.00  0.00    -0.135 C  
HETATM   18  O   UNL     1      -8.821   4.337  72.886  1.00  0.00    -0.103 OA 
HETATM   19  N   UNL     1      -8.948   6.127  71.476  1.00  0.00    -0.143 N  
HETATM   20  O   UNL     1      -9.204   6.688  70.212  1.00  0.00    -0.155 OA 
BRANCH  19  21
HETATM   21  C   UNL     1      -8.388   7.107  72.396  1.00  0.00    -0.108 C  
BRANCH  21  22
HETATM   22  C   UNL     1      -9.443   8.085  72.920  1.00  0.00    -0.346 C  
BRANCH  22  23
HETATM   23  C   UNL     1     -10.786   7.405  73.244  1.00  0.00    -0.441 C  
BRANCH  23  24
HETATM   24  C   UNL     1     -11.994   8.147  72.670  1.00  0.00    -0.353 C  
BRANCH  24  25
HETATM   25  C   UNL     1     -12.226   7.790  71.203  1.00  0.00    -0.268 C  
BRANCH  25  26
HETATM   26  N   UNL     1     -11.533   8.701  70.315  1.00  0.00    -0.448 N  
HETATM   27  H   UNL     1     -10.748   8.354  69.763  1.00  0.00     0.000 HD 
HETATM   28  C   UNL     1     -11.902  10.020  70.195  1.00  0.00    -0.173 C  
HETATM   29  O   UNL     1     -12.844  10.518  70.804  1.00  0.00    -0.360 OA 
BRANCH  28  30
HETATM   30  C   UNL     1     -11.048  10.828  69.252  1.00  0.00    -0.312 C  
BRANCH  30  31
HETATM   31  C   UNL     1     -11.617  12.232  69.126  1.00  0.00    -0.373 C  
BRANCH  31  32
HETATM   32  C   UNL     1     -11.783  12.620  67.671  1.00  0.00    -0.361 C  
HETATM   33  N   UNL     1     -11.708  13.950  67.336  1.00  0.00    -0.366 N  
HETATM   34  O   UNL     1     -11.898  11.736  66.820  1.00  0.00    -0.586 OA 
HETATM   35  O   UNL     1     -12.002  14.929  68.304  1.00  0.00    -0.299 OA 
BRANCH  33  36
HETATM   36  C   UNL     1     -11.928  14.431  65.971  1.00  0.00    -0.367 C  
BRANCH  36  37
HETATM   37  C   UNL     1     -10.642  14.958  65.331  1.00  0.00    -0.391 C  
BRANCH  37  38
HETATM   38  C   UNL     1      -9.453  14.903  66.296  1.00  0.00    -0.339 C  
BRANCH  38  39
HETATM   39  C   UNL     1      -8.862  16.293  66.546  1.00  0.00    -0.318 C  
BRANCH  39  40
HETATM   40  C   UNL     1      -8.858  16.674  68.027  1.00  0.00    -0.206 C  
HETATM   41  N   UNL     1     -10.034  17.460  68.387  1.00  0.00    -0.309 NA 
HETATM   42  H2  UNL     1     -10.895  16.979  68.128  1.00  0.00     0.000 HD 
HETATM   43  H1  UNL     1     -10.031  17.713  69.375  1.00  0.00     0.000 HD 
ENDBRANCH  39  40
ENDBRANCH  38  39
ENDBRANCH  37  38
ENDBRANCH  36  37
ENDBRANCH  33  36
ENDBRANCH  31  32
ENDBRANCH  30  31
ENDBRANCH  28  30
ENDBRANCH  25  26
ENDBRANCH  24  25
ENDBRANCH  23  24
ENDBRANCH  22  23
ENDBRANCH  21  22
ENDBRANCH  19  21
ENDBRANCH  16  17
ENDBRANCH  15  16
ENDBRANCH  12  15
ENDBRANCH  10  11
ENDBRANCH   9  10
ENDBRANCH   8   9
ENDBRANCH   7   8
ENDBRANCH   6   7
ENDBRANCH   3   6
TORSDOF 23
ENDMDL
MODEL      168
REMARK 921   NORMALIZED FREE ENERGY PREDICTED BY IDOCK:   -4.36 KCAL/MOL
REMARK 922        TOTAL FREE ENERGY PREDICTED BY IDOCK:  -12.98 KCAL/MOL
REMARK 923 INTER-LIGAND FREE ENERGY PREDICTED BY IDOCK:  -10.08 KCAL/MOL
REMARK 924 INTRA-LIGAND FREE ENERGY PREDICTED BY IDOCK:   -2.90 KCAL/MOL
REMARK 927      BINDING AFFINITY PREDICTED BY RF-SCORE:    0.00 PKD
ROOT
HETATM    1  C   UNL     1     -11.871   7.073  70.815  1.00  0.00    -0.401 C  
HETATM    2  C   UNL     1     -11.315   6.571  72.121  1.00  0.00    -0.282 C  
HETATM    3  N   UNL     1     -10.362   7.348  72.728  1.00  0.00    -0.232 N  
HETATM    4  O   UNL     1     -11.692   5.494  72.584  1.00  0.00    -0.293 OA 
HETATM    5  O   UNL     1     -10.020   8.645  72.312  1.00  0.00    -0.308 OA 
ENDROOT
BRANCH   3   6
HETATM    6  C   UNL     1      -9.718   6.992  73.984  1.00  0.00    -0.296 C  
BRANCH   6   7
HETATM    7  C   UNL     1      -8.743   5.823  73.829  1.00  0.00    -0.121 C  
BRANCH   7   8
HETATM    8  C   UNL     1      -7.642   6.175  72.827  1.00  0.00    -0.101 C  
BRANCH   8   9
HETATM    9  C   UNL     1      -6.708   7.264  73.357  1.00  0.00    -0.065 C  
BRANCH   9  10
HETATM   10  C   UNL     1      -6.542   8.418  72.367  1.00  0.00    -0.088 C  
BRANCH  10  11
HETATM   11  N   UNL     1      -7.055   8.094  71.045  1.00  0.00    -0.053 N  
HETATM   12  C   UNL     1      -7.282   9.077  70.108  1.00  0.00    -0.062 C  
HETATM   13  H   UNL     1      -7.250   7.121  70.808  1.00  0.00     0.000 HD 
HETATM   14  O   UNL     1      -7.039  10.266  70.291  1.00  0.00    -0.155 OA 
BRANCH  12  15
HETATM   15  C   UNL     1      -7.852   8.545  68.810  1.00  0.00    -0.110 C  
BRANCH  15  16
HETATM   16  C   UNL     1      -9.075   9.356  68.391  1.00  0.00    -0.128 C  
BRANCH  16  17
HETATM   17  C   UNL     1      -9.519   9.043  66.975  1.00  0.00    -0.163 C  
HETATM   18  O   UNL     1     -10.348   8.164  66.749  1.00  0.00    -0.311 OA 
HETATM   19  N   UNL     1      -8.921   9.771  65.979  1.00  0.00    -0.149 N  
HETATM   20  O   UNL     1      -8.045  10.850  66.193  1.00  0.00    -0.161 OA 
BRANCH  19  21
HETATM   21  C   UNL     1      -9.171   9.555  64.562  1.00  0.00    -0.162 C  
BRANCH  21  22
HETATM   22  C   UNL     1      -8.264  10.408  63.671  1.00  0.00    -0.129 C  
BRANCH  22  23
HETATM   23  C   UNL     1      -9.051  11.336  62.727  1.00  0.00    -0.327 C  
BRANCH  23  24
HETATM   24  C   UNL     1     -10.456  11.664  63.234  1.00  0.00    -0.438 C  
BRANCH  24  25
HETATM   25  C   UNL     1     -10.462  12.929  64.091  1.00  0.00    -0.406 C  
BRANCH  25  26
HETATM   26  N   UNL     1     -10.466  12.616  65.506  1.00  0.00    -0.276 N  
HETATM   27  H   UNL     1      -9.581  12.405  65.969  1.00  0.00     0.000 HD 
HETATM   28  C   UNL     1     -11.627  12.596  66.241  1.00  0.00    -0.386 C  
HETATM   29  O   UNL     1     -12.730  12.856  65.772  1.00  0.00    -0.492 OA 
BRANCH  28  30
HETATM   30  C   UNL     1     -11.446  12.218  67.689  1.00  0.00    -0.401 C  
BRANCH  30  31
HETATM   31  C   UNL     1     -10.397  13.118  68.324  1.00  0.00    -0.256 C  
BRANCH  31  32
HETATM   32  C   UNL     1     -10.969  14.487  68.624  1.00  0.00    -0.251 C  
HETATM   33  N   UNL     1     -10.279  15.593  68.191  1.00  0.00    -0.226 N  
HETATM   34  O   UNL     1     -12.070  14.575  69.171  1.00  0.00    -0.308 OA 
HETATM   35  O   UNL     1      -8.891  15.507  67.971  1.00  0.00    -0.164 OA 
BRANCH  33  36
HETATM   36  C   UNL     1     -10.713  16.959  68.494  1.00  0.00    -0.359 C  
BRANCH  36  37
HETATM   37  C   UNL     1      -9.842  18.008  67.800  1.00  0.00    -0.306 C  
BRANCH  37  38
HETATM   38  C   UNL     1     -10.333  18.320  66.382  1.00  0.00    -0.418 C  
BRANCH  38  39
HETATM   39  C   UNL     1     -10.073  19.780  66.001  1.00  0.00    -0.574 C  
BRANCH  39  40
HETATM   40  C   UNL     1      -8.793  20.333  66.631  1.00  0.00    -0.233 C  
HETATM   41  N   UNL     1      -7.644  20.180  65.744  1.00  0.00    -0.489 NA 
HETATM   42  H2  UNL     1      -7.821  20.599  64.832  1.00  0.00     0.000 HD 
HETATM   43  H1  UNL     1      -6.791  20.548  66.165  1.00  0.00     0.000 HD 
ENDBRANCH  39  40
ENDBRANCH  38  39
ENDBRANCH  37  38
ENDBRANCH  36  37
ENDBRANCH  33  36
ENDBRANCH  31  32
ENDBRANCH  30  31
ENDBRANCH  28  30
ENDBRANCH  25  26
ENDBRANCH  24  25
ENDBRANCH  23  24
ENDBRANCH  22  23
ENDBRANCH  21  22
ENDBRANCH  19  21
ENDBRANCH  16  17
ENDBRANCH  15  16
ENDBRANCH  12  15
ENDBRANCH  10  11
ENDBRANCH   9  10
ENDBRANCH   8   9
ENDBRANCH   7   8
ENDBRANCH   6   7
ENDBRANCH   3   6
TORSDOF 23
ENDMDL
MODEL      169
REMARK 921   NORMALIZED FREE ENERGY PREDICTED BY IDOCK:   -4.36 KCAL/MOL
REMARK 922        TOTAL FREE ENERGY PREDICTED BY IDOCK:  -12.98 KCAL/MOL
REMARK 923 INTER-LIGAND FREE ENERGY PREDICTED BY IDOCK:   -9.90 KCAL/MOL
REMARK 924 INTRA-LIGAND FREE ENERGY PREDICTED BY IDOCK:   -3.08 KCAL/MOL
REMARK 927      BINDING AFFINITY PREDICTED BY RF-SCORE:    0.00 PKD
ROOT
HETATM    1  C   UNL     1      -5.558  11.532  67.003  1.00  0.00    -0.117 C  
HETATM    2  C   UNL     1      -6.666  10.522  66.866  1.00  0.00    -0.086 C  
HETATM    3  N   UNL     1      -6.978  10.114  65.596  1.00  0.00    -0.118 N  
HETATM    4  O   UNL     1      -7.270  10.122  67.863  1.00  0.00    -0.084 OA 
HETATM    5  O   UNL     1      -6.218  10.429  64.456  1.00  0.00    -0.128 OA 
ENDROOT
BRANCH   3   6
HETATM    6  C   UNL     1      -8.033   9.155  65.297  1.00  0.00    -0.111 C  
BRANCH   6   7
HETATM    7  C   UNL     1      -9.428   9.777  65.389  1.00  0.00    -0.333 C  
BRANCH   7   8
HETATM    8  C   UNL     1     -10.281   9.027  66.414  1.00  0.00    -0.297 C  
BRANCH   8   9
HETATM    9  C   UNL     1      -9.768   7.607  66.661  1.00  0.00    -0.283 C  
BRANCH   9  10
HETATM   10  C   UNL     1     -10.894   6.638  67.024  1.00  0.00    -0.397 C  
BRANCH  10  11
HETATM   11  N   UNL     1     -10.497   5.682  68.047  1.00  0.00    -0.210 N  
HETATM   12  C   UNL     1      -9.936   4.471  67.710  1.00  0.00    -0.066 C  
HETATM   13  H   UNL     1     -10.636   5.915  69.030  1.00  0.00     0.000 HD 
HETATM   14  O   UNL     1      -9.695   4.124  66.557  1.00  0.00    -0.196 OA 
BRANCH  12  15
HETATM   15  C   UNL     1      -9.627   3.602  68.911  1.00  0.00    -0.157 C  
BRANCH  15  16
HETATM   16  C   UNL     1      -9.950   4.344  70.205  1.00  0.00    -0.248 C  
BRANCH  16  17
HETATM   17  C   UNL     1      -8.708   4.667  71.012  1.00  0.00    -0.115 C  
HETATM   18  O   UNL     1      -8.161   3.813  71.707  1.00  0.00    -0.065 OA 
HETATM   19  N   UNL     1      -8.261   5.962  70.943  1.00  0.00    -0.123 N  
HETATM   20  O   UNL     1      -8.791   6.946  70.089  1.00  0.00    -0.144 OA 
BRANCH  19  21
HETATM   21  C   UNL     1      -7.130   6.466  71.707  1.00  0.00    -0.085 C  
BRANCH  21  22
HETATM   22  C   UNL     1      -7.565   7.275  72.932  1.00  0.00    -0.085 C  
BRANCH  22  23
HETATM   23  C   UNL     1      -8.787   6.668  73.648  1.00  0.00    -0.143 C  
BRANCH  23  24
HETATM   24  C   UNL     1      -9.997   7.603  73.676  1.00  0.00    -0.288 C  
BRANCH  24  25
HETATM   25  C   UNL     1     -11.068   7.165  72.679  1.00  0.00    -0.292 C  
BRANCH  25  26
HETATM   26  N   UNL     1     -11.524   8.272  71.863  1.00  0.00    -0.288 N  
HETATM   27  H   UNL     1     -10.988   8.531  71.035  1.00  0.00     0.000 HD 
HETATM   28  C   UNL     1     -12.659   8.983  72.174  1.00  0.00    -0.391 C  
HETATM   29  O   UNL     1     -13.375   8.729  73.138  1.00  0.00    -0.214 OA 
BRANCH  28  30
HETATM   30  C   UNL     1     -12.964  10.121  71.235  1.00  0.00    -0.510 C  
BRANCH  30  31
HETATM   31  C   UNL     1     -11.664  10.739  70.743  1.00  0.00    -0.400 C  
BRANCH  31  32
HETATM   32  C   UNL     1     -11.914  12.088  70.104  1.00  0.00    -0.321 C  
HETATM   33  N   UNL     1     -11.247  12.394  68.942  1.00  0.00    -0.264 N  
HETATM   34  O   UNL     1     -12.762  12.839  70.589  1.00  0.00    -0.200 OA 
HETATM   35  O   UNL     1     -10.026  11.757  68.650  1.00  0.00    -0.212 OA 
BRANCH  33  36
HETATM   36  C   UNL     1     -11.366  13.699  68.288  1.00  0.00    -0.289 C  
BRANCH  36  37
HETATM   37  C   UNL     1     -12.241  13.639  67.034  1.00  0.00    -0.373 C  
BRANCH  37  38
HETATM   38  C   UNL     1     -11.566  12.864  65.897  1.00  0.00    -0.423 C  
BRANCH  38  39
HETATM   39  C   UNL     1     -12.013  13.373  64.523  1.00  0.00    -0.452 C  
BRANCH  39  40
HETATM   40  C   UNL     1     -12.395  12.239  63.571  1.00  0.00    -0.565 C  
HETATM   41  N   UNL     1     -11.217  11.564  63.035  1.00  0.00    -0.823 NA 
HETATM   42  H2  UNL     1     -10.606  11.234  63.781  1.00  0.00     0.000 HD 
HETATM   43  H1  UNL     1     -11.471  10.807  62.399  1.00  0.00     0.000 HD 
ENDBRANCH  39  40
ENDBRANCH  38  39
ENDBRANCH  37  38
ENDBRANCH  36  37
ENDBRANCH  33  36
ENDBRANCH  31  32
ENDBRANCH  30  31
ENDBRANCH  28  30
ENDBRANCH  25  26
ENDBRANCH  24  25
ENDBRANCH  23  24
ENDBRANCH  22  23
ENDBRANCH  21  22
ENDBRANCH  19  21
ENDBRANCH  16  17
ENDBRANCH  15  16
ENDBRANCH  12  15
ENDBRANCH  10  11
ENDBRANCH   9  10
ENDBRANCH   8   9
ENDBRANCH   7   8
ENDBRANCH   6   7
ENDBRANCH   3   6
TORSDOF 23
ENDMDL
MODEL      170
REMARK 921   NORMALIZED FREE ENERGY PREDICTED BY IDOCK:   -4.35 KCAL/MOL
REMARK 922        TOTAL FREE ENERGY PREDICTED BY IDOCK:  -12.96 KCAL/MOL
REMARK 923 INTER-LIGAND FREE ENERGY PREDICTED BY IDOCK:   -9.57 KCAL/MOL
REMARK 924 INTRA-LIGAND FREE ENERGY PREDICTED BY IDOCK:   -3.39 KCAL/MOL
REMARK 927      BINDING AFFINITY PREDICTED BY RF-SCORE:    0.00 PKD
ROOT
HETATM    1  C   UNL     1     -10.250   8.731  67.451  1.00  0.00    -0.318 C  
HETATM    2  C   UNL     1      -8.751   8.664  67.583  1.00  0.00    -0.136 C  
HETATM    3  N   UNL     1      -8.126   9.765  68.106  1.00  0.00    -0.108 N  
HETATM    4  O   UNL     1      -8.138   7.667  67.200  1.00  0.00    -0.114 OA 
HETATM    5  O   UNL     1      -8.798  10.853  68.689  1.00  0.00    -0.146 OA 
ENDROOT
BRANCH   3   6
HETATM    6  C   UNL     1      -6.683   9.860  68.281  1.00  0.00    -0.060 C  
BRANCH   6   7
HETATM    7  C   UNL     1      -6.243   9.491  69.699  1.00  0.00    -0.040 C  
BRANCH   7   8
HETATM    8  C   UNL     1      -6.042  10.752  70.542  1.00  0.00    -0.109 C  
BRANCH   8   9
HETATM    9  C   UNL     1      -5.137  11.771  69.847  1.00  0.00    -0.074 C  
BRANCH   9  10
HETATM   10  C   UNL     1      -5.631  13.206  70.033  1.00  0.00    -0.120 C  
BRANCH  10  11
HETATM   11  N   UNL     1      -6.947  13.422  69.451  1.00  0.00    -0.303 N  
HETATM   12  C   UNL     1      -7.092  14.043  68.231  1.00  0.00    -0.110 C  
HETATM   13  H   UNL     1      -7.775  13.106  69.955  1.00  0.00     0.000 HD 
HETATM   14  O   UNL     1      -6.151  14.419  67.537  1.00  0.00    -0.327 OA 
BRANCH  12  15
HETATM   15  C   UNL     1      -8.538  14.209  67.814  1.00  0.00    -0.184 C  
BRANCH  15  16
HETATM   16  C   UNL     1      -8.683  15.374  66.838  1.00  0.00    -0.285 C  
BRANCH  16  17
HETATM   17  C   UNL     1     -10.120  15.588  66.403  1.00  0.00    -0.288 C  
HETATM   18  O   UNL     1     -10.878  16.311  67.047  1.00  0.00    -0.283 OA 
HETATM   19  N   UNL     1     -10.520  14.908  65.281  1.00  0.00    -0.374 N  
HETATM   20  O   UNL     1      -9.667  14.152  64.458  1.00  0.00     0.052 OA 
BRANCH  19  21
HETATM   21  C   UNL     1     -11.880  14.938  64.764  1.00  0.00    -0.384 C  
BRANCH  21  22
HETATM   22  C   UNL     1     -12.796  13.932  65.467  1.00  0.00    -0.471 C  
BRANCH  22  23
HETATM   23  C   UNL     1     -12.322  12.475  65.308  1.00  0.00    -0.469 C  
BRANCH  23  24
HETATM   24  C   UNL     1     -11.417  12.006  66.448  1.00  0.00    -0.417 C  
BRANCH  24  25
HETATM   25  C   UNL     1     -11.862  12.581  67.791  1.00  0.00    -0.313 C  
BRANCH  25  26
HETATM   26  N   UNL     1     -12.079  11.539  68.774  1.00  0.00    -0.263 N  
HETATM   27  H   UNL     1     -12.134  10.569  68.463  1.00  0.00     0.000 HD 
HETATM   28  C   UNL     1     -12.212  11.820  70.113  1.00  0.00    -0.263 C  
HETATM   29  O   UNL     1     -12.139  12.954  70.577  1.00  0.00    -0.356 OA 
BRANCH  28  30
HETATM   30  C   UNL     1     -12.466  10.617  70.985  1.00  0.00    -0.515 C  
BRANCH  30  31
HETATM   31  C   UNL     1     -11.235   9.724  70.991  1.00  0.00    -0.451 C  
BRANCH  31  32
HETATM   32  C   UNL     1     -11.536   8.394  71.650  1.00  0.00    -0.289 C  
HETATM   33  N   UNL     1     -10.711   7.963  72.660  1.00  0.00    -0.319 N  
HETATM   34  O   UNL     1     -12.551   7.775  71.324  1.00  0.00    -0.311 OA 
HETATM   35  O   UNL     1      -9.385   8.430  72.723  1.00  0.00    -0.265 OA 
BRANCH  33  36
HETATM   36  C   UNL     1     -10.876   6.661  73.309  1.00  0.00    -0.261 C  
BRANCH  36  37
HETATM   37  C   UNL     1      -9.589   5.834  73.278  1.00  0.00    -0.145 C  
BRANCH  37  38
HETATM   38  C   UNL     1      -9.130   5.534  71.847  1.00  0.00    -0.149 C  
BRANCH  38  39
HETATM   39  C   UNL     1     -10.141   4.659  71.101  1.00  0.00    -0.243 C  
BRANCH  39  40
HETATM   40  C   UNL     1     -10.408   5.152  69.677  1.00  0.00    -0.246 C  
HETATM   41  N   UNL     1      -9.171   5.305  68.918  1.00  0.00    -0.115 NA 
HETATM   42  H2  UNL     1      -8.627   4.443  68.917  1.00  0.00     0.000 HD 
HETATM   43  H1  UNL     1      -9.349   5.634  67.968  1.00  0.00     0.000 HD 
ENDBRANCH  39  40
ENDBRANCH  38  39
ENDBRANCH  37  38
ENDBRANCH  36  37
ENDBRANCH  33  36
ENDBRANCH  31  32
ENDBRANCH  30  31
ENDBRANCH  28  30
ENDBRANCH  25  26
ENDBRANCH  24  25
ENDBRANCH  23  24
ENDBRANCH  22  23
ENDBRANCH  21  22
ENDBRANCH  19  21
ENDBRANCH  16  17
ENDBRANCH  15  16
ENDBRANCH  12  15
ENDBRANCH  10  11
ENDBRANCH   9  10
ENDBRANCH   8   9
ENDBRANCH   7   8
ENDBRANCH   6   7
ENDBRANCH   3   6
TORSDOF 23
ENDMDL
MODEL      171
REMARK 921   NORMALIZED FREE ENERGY PREDICTED BY IDOCK:   -4.29 KCAL/MOL
REMARK 922        TOTAL FREE ENERGY PREDICTED BY IDOCK:  -12.82 KCAL/MOL
REMARK 923 INTER-LIGAND FREE ENERGY PREDICTED BY IDOCK:   -9.61 KCAL/MOL
REMARK 924 INTRA-LIGAND FREE ENERGY PREDICTED BY IDOCK:   -3.21 KCAL/MOL
REMARK 927      BINDING AFFINITY PREDICTED BY RF-SCORE:    0.00 PKD
ROOT
HETATM    1  C   UNL     1      -6.670  11.750  68.678  1.00  0.00    -0.073 C  
HETATM    2  C   UNL     1      -6.552  10.652  67.653  1.00  0.00    -0.061 C  
HETATM    3  N   UNL     1      -7.514  10.608  66.679  1.00  0.00    -0.122 N  
HETATM    4  O   UNL     1      -5.640   9.827  67.730  1.00  0.00    -0.040 OA 
HETATM    5  O   UNL     1      -8.474  11.613  66.472  1.00  0.00    -0.172 OA 
ENDROOT
BRANCH   3   6
HETATM    6  C   UNL     1      -7.547   9.600  65.628  1.00  0.00    -0.107 C  
BRANCH   6   7
HETATM    7  C   UNL     1      -6.666   9.974  64.435  1.00  0.00    -0.128 C  
BRANCH   7   8
HETATM    8  C   UNL     1      -7.434   9.790  63.125  1.00  0.00    -0.120 C  
BRANCH   8   9
HETATM    9  C   UNL     1      -8.936  10.026  63.301  1.00  0.00    -0.275 C  
BRANCH   9  10
HETATM   10  C   UNL     1      -9.352  11.440  62.893  1.00  0.00    -0.323 C  
BRANCH  10  11
HETATM   11  N   UNL     1      -9.805  12.235  64.025  1.00  0.00    -0.568 N  
HETATM   12  C   UNL     1     -11.144  12.479  64.233  1.00  0.00    -0.356 C  
HETATM   13  H   UNL     1      -9.119  12.617  64.675  1.00  0.00     0.000 HD 
HETATM   14  O   UNL     1     -12.041  12.027  63.526  1.00  0.00    -0.504 OA 
BRANCH  12  15
HETATM   15  C   UNL     1     -11.410  13.355  65.438  1.00  0.00    -0.309 C  
BRANCH  15  16
HETATM   16  C   UNL     1     -11.306  14.830  65.060  1.00  0.00    -0.391 C  
BRANCH  16  17
HETATM   17  C   UNL     1     -10.314  15.581  65.927  1.00  0.00    -0.347 C  
HETATM   18  O   UNL     1      -9.610  14.991  66.745  1.00  0.00    -0.225 OA 
HETATM   19  N   UNL     1     -10.278  16.942  65.765  1.00  0.00    -0.306 N  
HETATM   20  O   UNL     1     -10.988  17.649  64.779  1.00  0.00    -0.917 OA 
BRANCH  19  21
HETATM   21  C   UNL     1      -9.441  17.826  66.563  1.00  0.00    -0.290 C  
BRANCH  21  22
HETATM   22  C   UNL     1     -10.153  18.323  67.825  1.00  0.00    -0.369 C  
BRANCH  22  23
HETATM   23  C   UNL     1      -9.614  17.673  69.113  1.00  0.00    -0.039 C  
BRANCH  23  24
HETATM   24  C   UNL     1     -10.650  16.809  69.833  1.00  0.00    -0.104 C  
BRANCH  24  25
HETATM   25  C   UNL     1     -10.070  15.454  70.233  1.00  0.00    -0.031 C  
BRANCH  25  26
HETATM   26  N   UNL     1     -11.085  14.578  70.783  1.00  0.00    -0.492 N  
HETATM   27  H   UNL     1     -11.228  14.560  71.793  1.00  0.00     0.000 HD 
HETATM   28  C   UNL     1     -11.860  13.772  69.983  1.00  0.00    -0.307 C  
HETATM   29  O   UNL     1     -11.770  13.745  68.760  1.00  0.00    -0.309 OA 
BRANCH  28  30
HETATM   30  C   UNL     1     -12.840  12.904  70.729  1.00  0.00    -0.128 C  
BRANCH  30  31
HETATM   31  C   UNL     1     -12.113  11.708  71.323  1.00  0.00     0.043 C  
BRANCH  31  32
HETATM   32  C   UNL     1     -12.238  10.497  70.423  1.00  0.00    -0.328 C  
HETATM   33  N   UNL     1     -11.114  10.043  69.777  1.00  0.00    -0.261 N  
HETATM   34  O   UNL     1     -13.316   9.903  70.356  1.00  0.00    -0.059 OA 
HETATM   35  O   UNL     1     -10.051  10.931  69.523  1.00  0.00    -0.155 OA 
BRANCH  33  36
HETATM   36  C   UNL     1     -11.148   8.926  68.831  1.00  0.00     0.199 C  
BRANCH  36  37
HETATM   37  C   UNL     1     -10.036   7.910  69.098  1.00  0.00    -0.197 C  
BRANCH  37  38
HETATM   38  C   UNL     1     -10.549   6.466  69.043  1.00  0.00    -0.305 C  
BRANCH  38  39
HETATM   39  C   UNL     1      -9.551   5.538  68.344  1.00  0.00    -0.155 C  
BRANCH  39  40
HETATM   40  C   UNL     1     -10.074   5.014  67.006  1.00  0.00    -0.214 C  
HETATM   41  N   UNL     1     -11.113   5.878  66.455  1.00  0.00    -0.760 NA 
HETATM   42  H2  UNL     1     -10.791   6.842  66.376  1.00  0.00     0.000 HD 
HETATM   43  H1  UNL     1     -11.462   5.528  65.563  1.00  0.00     0.000 HD 
ENDBRANCH  39  40
ENDBRANCH  38  39
ENDBRANCH  37  38
ENDBRANCH  36  37
ENDBRANCH  33  36
ENDBRANCH  31  32
ENDBRANCH  30  31
ENDBRANCH  28  30
ENDBRANCH  25  26
ENDBRANCH  24  25
ENDBRANCH  23  24
ENDBRANCH  22  23
ENDBRANCH  21  22
ENDBRANCH  19  21
ENDBRANCH  16  17
ENDBRANCH  15  16
ENDBRANCH  12  15
ENDBRANCH  10  11
ENDBRANCH   9  10
ENDBRANCH   8   9
ENDBRANCH   7   8
ENDBRANCH   6   7
ENDBRANCH   3   6
TORSDOF 23
ENDMDL
MODEL      172
REMARK 921   NORMALIZED FREE ENERGY PREDICTED BY IDOCK:   -4.29 KCAL/MOL
REMARK 922        TOTAL FREE ENERGY PREDICTED BY IDOCK:  -12.81 KCAL/MOL
REMARK 923 INTER-LIGAND FREE ENERGY PREDICTED BY IDOCK:  -10.39 KCAL/MOL
REMARK 924 INTRA-LIGAND FREE ENERGY PREDICTED BY IDOCK:   -2.42 KCAL/MOL
REMARK 927      BINDING AFFINITY PREDICTED BY RF-SCORE:    0.00 PKD
ROOT
HETATM    1  C   UNL     1      -6.695   7.054  73.779  1.00  0.00    -0.070 C  
HETATM    2  C   UNL     1      -7.280   5.739  73.336  1.00  0.00    -0.087 C  
HETATM    3  N   UNL     1      -7.689   5.651  72.031  1.00  0.00    -0.100 N  
HETATM    4  O   UNL     1      -7.404   4.813  74.139  1.00  0.00    -0.076 OA 
HETATM    5  O   UNL     1      -7.427   6.626  71.054  1.00  0.00    -0.081 OA 
ENDROOT
BRANCH   3   6
HETATM    6  C   UNL     1      -8.288   4.453  71.458  1.00  0.00    -0.097 C  
BRANCH   6   7
HETATM    7  C   UNL     1      -9.789   4.361  71.737  1.00  0.00    -0.253 C  
BRANCH   7   8
HETATM    8  C   UNL     1     -10.525   5.539  71.095  1.00  0.00    -0.304 C  
BRANCH   8   9
HETATM    9  C   UNL     1     -11.228   6.414  72.134  1.00  0.00    -0.319 C  
BRANCH   9  10
HETATM   10  C   UNL     1     -12.647   6.794  71.708  1.00  0.00    -0.325 C  
BRANCH  10  11
HETATM   11  N   UNL     1     -12.708   8.111  71.093  1.00  0.00    -0.494 N  
HETATM   12  C   UNL     1     -13.466   9.120  71.644  1.00  0.00    -0.391 C  
HETATM   13  H   UNL     1     -12.181   8.289  70.238  1.00  0.00     0.000 HD 
HETATM   14  O   UNL     1     -14.100   9.008  72.689  1.00  0.00    -0.516 OA 
BRANCH  12  15
HETATM   15  C   UNL     1     -13.431  10.401  70.837  1.00  0.00    -0.044 C  
BRANCH  15  16
HETATM   16  C   UNL     1     -12.074  11.085  70.980  1.00  0.00    -0.406 C  
BRANCH  16  17
HETATM   17  C   UNL     1     -11.135  10.752  69.836  1.00  0.00    -0.271 C  
HETATM   18  O   UNL     1     -10.503   9.698  69.819  1.00  0.00    -0.207 OA 
HETATM   19  N   UNL     1     -11.016  11.703  68.855  1.00  0.00    -0.221 N  
HETATM   20  O   UNL     1     -11.789  12.874  68.779  1.00  0.00    -0.306 OA 
BRANCH  19  21
HETATM   21  C   UNL     1     -10.108  11.583  67.724  1.00  0.00    -0.182 C  
BRANCH  21  22
HETATM   22  C   UNL     1      -8.691  12.054  68.060  1.00  0.00    -0.175 C  
BRANCH  22  23
HETATM   23  C   UNL     1      -8.407  13.492  67.585  1.00  0.00    -0.179 C  
BRANCH  23  24
HETATM   24  C   UNL     1      -7.799  14.379  68.673  1.00  0.00    -0.140 C  
BRANCH  24  25
HETATM   25  C   UNL     1      -7.113  15.607  68.077  1.00  0.00    -0.122 C  
BRANCH  25  26
HETATM   26  N   UNL     1      -7.865  16.818  68.337  1.00  0.00    -0.203 N  
HETATM   27  H   UNL     1      -8.539  16.828  69.103  1.00  0.00     0.000 HD 
HETATM   28  C   UNL     1      -7.696  17.953  67.580  1.00  0.00    -0.213 C  
HETATM   29  O   UNL     1      -6.895  18.037  66.655  1.00  0.00    -0.179 OA 
BRANCH  28  30
HETATM   30  C   UNL     1      -8.585  19.106  67.971  1.00  0.00    -0.345 C  
BRANCH  30  31
HETATM   31  C   UNL     1     -10.042  18.685  67.862  1.00  0.00    -0.407 C  
BRANCH  31  32
HETATM   32  C   UNL     1     -10.353  18.168  66.473  1.00  0.00    -0.386 C  
HETATM   33  N   UNL     1     -10.892  16.910  66.349  1.00  0.00    -0.062 N  
HETATM   34  O   UNL     1     -10.194  18.910  65.502  1.00  0.00    -0.442 OA 
HETATM   35  O   UNL     1     -10.672  15.956  67.361  1.00  0.00    -0.312 OA 
BRANCH  33  36
HETATM   36  C   UNL     1     -11.159  16.294  65.048  1.00  0.00    -0.254 C  
BRANCH  36  37
HETATM   37  C   UNL     1     -11.579  14.829  65.179  1.00  0.00    -0.358 C  
BRANCH  37  38
HETATM   38  C   UNL     1     -10.498  13.870  64.669  1.00  0.00    -0.419 C  
BRANCH  38  39
HETATM   39  C   UNL     1     -11.103  12.572  64.127  1.00  0.00    -0.426 C  
BRANCH  39  40
HETATM   40  C   UNL     1     -10.118  11.402  64.167  1.00  0.00    -0.309 C  
HETATM   41  N   UNL     1     -10.156  10.621  62.935  1.00  0.00    -0.709 NA 
HETATM   42  H2  UNL     1     -10.001  11.210  62.117  1.00  0.00     0.000 HD 
HETATM   43  H1  UNL     1      -9.499   9.841  62.962  1.00  0.00     0.000 HD 
ENDBRANCH  39  40
ENDBRANCH  38  39
ENDBRANCH  37  38
ENDBRANCH  36  37
ENDBRANCH  33  36
ENDBRANCH  31  32
ENDBRANCH  30  31
ENDBRANCH  28  30
ENDBRANCH  25  26
ENDBRANCH  24  25
ENDBRANCH  23  24
ENDBRANCH  22  23
ENDBRANCH  21  22
ENDBRANCH  19  21
ENDBRANCH  16  17
ENDBRANCH  15  16
ENDBRANCH  12  15
ENDBRANCH  10  11
ENDBRANCH   9  10
ENDBRANCH   8   9
ENDBRANCH   7   8
ENDBRANCH   6   7
ENDBRANCH   3   6
TORSDOF 23
ENDMDL
MODEL      173
REMARK 921   NORMALIZED FREE ENERGY PREDICTED BY IDOCK:   -4.28 KCAL/MOL
REMARK 922        TOTAL FREE ENERGY PREDICTED BY IDOCK:  -12.80 KCAL/MOL
REMARK 923 INTER-LIGAND FREE ENERGY PREDICTED BY IDOCK:  -10.72 KCAL/MOL
REMARK 924 INTRA-LIGAND FREE ENERGY PREDICTED BY IDOCK:   -2.07 KCAL/MOL
REMARK 927      BINDING AFFINITY PREDICTED BY RF-SCORE:    0.00 PKD
ROOT
HETATM    1  C   UNL     1      -8.759  19.649  67.021  1.00  0.00    -0.369 C  
HETATM    2  C   UNL     1      -9.954  18.737  66.924  1.00  0.00    -0.346 C  
HETATM    3  N   UNL     1      -9.805  17.600  66.174  1.00  0.00    -0.276 N  
HETATM    4  O   UNL     1     -11.013  19.039  67.477  1.00  0.00    -0.443 OA 
HETATM    5  O   UNL     1      -8.579  17.149  65.658  1.00  0.00    -0.470 OA 
ENDROOT
BRANCH   3   6
HETATM    6  C   UNL     1     -10.871  16.627  65.971  1.00  0.00    -0.041 C  
BRANCH   6   7
HETATM    7  C   UNL     1     -11.045  16.251  64.499  1.00  0.00    -0.174 C  
BRANCH   7   8
HETATM    8  C   UNL     1     -12.220  15.287  64.329  1.00  0.00    -0.205 C  
BRANCH   8   9
HETATM    9  C   UNL     1     -12.398  14.376  65.545  1.00  0.00    -0.352 C  
BRANCH   9  10
HETATM   10  C   UNL     1     -12.672  12.925  65.147  1.00  0.00    -0.374 C  
BRANCH  10  11
HETATM   11  N   UNL     1     -11.547  12.048  65.433  1.00  0.00    -0.323 N  
HETATM   12  C   UNL     1     -11.365  11.508  66.687  1.00  0.00    -0.214 C  
HETATM   13  H   UNL     1     -10.882  11.829  64.692  1.00  0.00     0.000 HD 
HETATM   14  O   UNL     1     -12.135  11.685  67.627  1.00  0.00    -0.615 OA 
BRANCH  12  15
HETATM   15  C   UNL     1     -10.119  10.655  66.794  1.00  0.00    -0.272 C  
BRANCH  15  16
HETATM   16  C   UNL     1      -8.884  11.459  66.392  1.00  0.00    -0.193 C  
BRANCH  16  17
HETATM   17  C   UNL     1      -8.961  12.903  66.848  1.00  0.00    -0.210 C  
HETATM   18  O   UNL     1      -9.040  13.823  66.036  1.00  0.00    -0.004 OA 
HETATM   19  N   UNL     1      -8.905  13.114  68.202  1.00  0.00    -0.191 N  
HETATM   20  O   UNL     1      -8.915  12.095  69.170  1.00  0.00     0.304 OA 
BRANCH  19  21
HETATM   21  C   UNL     1      -8.892  14.436  68.811  1.00  0.00    -0.131 C  
BRANCH  21  22
HETATM   22  C   UNL     1     -10.258  15.124  68.746  1.00  0.00    -0.235 C  
BRANCH  22  23
HETATM   23  C   UNL     1     -10.651  15.807  70.069  1.00  0.00    -0.333 C  
BRANCH  23  24
HETATM   24  C   UNL     1     -11.440  14.895  71.009  1.00  0.00    -0.307 C  
BRANCH  24  25
HETATM   25  C   UNL     1     -12.396  13.988  70.239  1.00  0.00    -0.358 C  
BRANCH  25  26
HETATM   26  N   UNL     1     -11.983  12.600  70.301  1.00  0.00    -0.502 N  
HETATM   27  H   UNL     1     -11.252  12.272  69.671  1.00  0.00     0.000 HD 
HETATM   28  C   UNL     1     -12.550  11.713  71.186  1.00  0.00    -0.335 C  
HETATM   29  O   UNL     1     -13.421  12.025  71.993  1.00  0.00    -0.447 OA 
BRANCH  28  30
HETATM   30  C   UNL     1     -12.023  10.305  71.088  1.00  0.00    -0.472 C  
BRANCH  30  31
HETATM   31  C   UNL     1     -12.809   9.400  72.023  1.00  0.00    -0.496 C  
BRANCH  31  32
HETATM   32  C   UNL     1     -12.575   7.942  71.687  1.00  0.00    -0.321 C  
HETATM   33  N   UNL     1     -11.581   7.269  72.355  1.00  0.00    -0.281 N  
HETATM   34  O   UNL     1     -13.328   7.377  70.891  1.00  0.00    -0.158 OA 
HETATM   35  O   UNL     1     -10.503   7.986  72.906  1.00  0.00    -0.329 OA 
BRANCH  33  36
HETATM   36  C   UNL     1     -11.231   5.880  72.051  1.00  0.00    -0.273 C  
BRANCH  36  37
HETATM   37  C   UNL     1      -9.892   5.770  71.318  1.00  0.00    -0.223 C  
BRANCH  37  38
HETATM   38  C   UNL     1      -9.848   4.562  70.376  1.00  0.00    -0.302 C  
BRANCH  38  39
HETATM   39  C   UNL     1     -10.010   4.981  68.911  1.00  0.00    -0.236 C  
BRANCH  39  40
HETATM   40  C   UNL     1      -8.683   4.986  68.150  1.00  0.00    -0.102 C  
HETATM   41  N   UNL     1      -8.801   4.329  66.853  1.00  0.00    -0.113 NA 
HETATM   42  H2  UNL     1      -9.551   4.738  66.296  1.00  0.00     0.000 HD 
HETATM   43  H1  UNL     1      -7.916   4.332  66.345  1.00  0.00     0.000 HD 
ENDBRANCH  39  40
ENDBRANCH  38  39
ENDBRANCH  37  38
ENDBRANCH  36  37
ENDBRANCH  33  36
ENDBRANCH  31  32
ENDBRANCH  30  31
ENDBRANCH  28  30
ENDBRANCH  25  26
ENDBRANCH  24  25
ENDBRANCH  23  24
ENDBRANCH  22  23
ENDBRANCH  21  22
ENDBRANCH  19  21
ENDBRANCH  16  17
ENDBRANCH  15  16
ENDBRANCH  12  15
ENDBRANCH  10  11
ENDBRANCH   9  10
ENDBRANCH   8   9
ENDBRANCH   7   8
ENDBRANCH   6   7
ENDBRANCH   3   6
TORSDOF 23
ENDMDL
MODEL      174
REMARK 921   NORMALIZED FREE ENERGY PREDICTED BY IDOCK:   -4.27 KCAL/MOL
REMARK 922        TOTAL FREE ENERGY PREDICTED BY IDOCK:  -12.77 KCAL/MOL
REMARK 923 INTER-LIGAND FREE ENERGY PREDICTED BY IDOCK:  -10.05 KCAL/MOL
REMARK 924 INTRA-LIGAND FREE ENERGY PREDICTED BY IDOCK:   -2.72 KCAL/MOL
REMARK 927      BINDING AFFINITY PREDICTED BY RF-SCORE:    0.00 PKD
ROOT
HETATM    1  C   UNL     1     -11.843  15.003  70.750  1.00  0.00    -0.372 C  
HETATM    2  C   UNL     1     -11.904  13.895  69.730  1.00  0.00    -0.329 C  
HETATM    3  N   UNL     1     -11.803  14.260  68.413  1.00  0.00    -0.339 N  
HETATM    4  O   UNL     1     -12.070  12.729  70.089  1.00  0.00    -0.342 OA 
HETATM    5  O   UNL     1     -11.463  15.552  67.976  1.00  0.00    -0.342 OA 
ENDROOT
BRANCH   3   6
HETATM    6  C   UNL     1     -11.859  13.310  67.311  1.00  0.00    -0.372 C  
BRANCH   6   7
HETATM    7  C   UNL     1     -12.416  13.935  66.030  1.00  0.00    -0.501 C  
BRANCH   7   8
HETATM    8  C   UNL     1     -12.346  12.936  64.874  1.00  0.00    -0.532 C  
BRANCH   8   9
HETATM    9  C   UNL     1     -11.011  13.010  64.130  1.00  0.00    -0.438 C  
BRANCH   9  10
HETATM   10  C   UNL     1     -10.624  11.672  63.499  1.00  0.00    -0.435 C  
BRANCH  10  11
HETATM   11  N   UNL     1      -9.220  11.346  63.705  1.00  0.00    -0.428 N  
HETATM   12  C   UNL     1      -8.667  10.208  63.163  1.00  0.00    -0.211 C  
HETATM   13  H   UNL     1      -8.637  11.971  64.261  1.00  0.00     0.000 HD 
HETATM   14  O   UNL     1      -9.282   9.420  62.449  1.00  0.00    -0.258 OA 
BRANCH  12  15
HETATM   15  C   UNL     1      -7.208  10.025  63.521  1.00  0.00    -0.135 C  
BRANCH  15  16
HETATM   16  C   UNL     1      -7.063   9.061  64.696  1.00  0.00    -0.089 C  
BRANCH  16  17
HETATM   17  C   UNL     1      -7.171   9.763  66.036  1.00  0.00    -0.101 C  
HETATM   18  O   UNL     1      -7.085  10.986  66.122  1.00  0.00    -0.124 OA 
HETATM   19  N   UNL     1      -7.336   8.953  67.131  1.00  0.00    -0.083 N  
HETATM   20  O   UNL     1      -7.538   7.563  67.074  1.00  0.00    -0.098 OA 
BRANCH  19  21
HETATM   21  C   UNL     1      -7.385   9.449  68.499  1.00  0.00    -0.079 C  
BRANCH  21  22
HETATM   22  C   UNL     1      -8.097   8.479  69.447  1.00  0.00    -0.112 C  
BRANCH  22  23
HETATM   23  C   UNL     1      -8.895   9.196  70.551  1.00  0.00    -0.263 C  
BRANCH  23  24
HETATM   24  C   UNL     1     -10.292   9.627  70.105  1.00  0.00    -0.315 C  
BRANCH  24  25
HETATM   25  C   UNL     1     -11.373   9.070  71.029  1.00  0.00    -0.297 C  
BRANCH  25  26
HETATM   26  N   UNL     1     -10.805   8.498  72.233  1.00  0.00    -0.352 N  
HETATM   27  H   UNL     1     -10.107   9.030  72.752  1.00  0.00     0.000 HD 
HETATM   28  C   UNL     1     -11.181   7.259  72.695  1.00  0.00    -0.313 C  
HETATM   29  O   UNL     1     -12.027   6.560  72.146  1.00  0.00    -0.316 OA 
BRANCH  28  30
HETATM   30  C   UNL     1     -10.462   6.809  73.941  1.00  0.00    -0.356 C  
BRANCH  30  31
HETATM   31  C   UNL     1     -10.323   5.295  73.930  1.00  0.00    -0.288 C  
BRANCH  31  32
HETATM   32  C   UNL     1      -9.261   4.857  72.943  1.00  0.00    -0.130 C  
HETATM   33  N   UNL     1      -9.558   3.836  72.073  1.00  0.00    -0.137 N  
HETATM   34  O   UNL     1      -8.196   5.475  72.887  1.00  0.00    -0.108 OA 
HETATM   35  O   UNL     1     -10.550   2.897  72.414  1.00  0.00    -0.078 OA 
BRANCH  33  36
HETATM   36  C   UNL     1      -8.576   3.294  71.132  1.00  0.00    -0.068 C  
BRANCH  36  37
HETATM   37  C   UNL     1      -8.856   3.726  69.692  1.00  0.00    -0.148 C  
BRANCH  37  38
HETATM   38  C   UNL     1      -9.482   5.123  69.620  1.00  0.00    -0.203 C  
BRANCH  38  39
HETATM   39  C   UNL     1     -10.094   5.399  68.244  1.00  0.00    -0.225 C  
BRANCH  39  40
HETATM   40  C   UNL     1     -11.193   6.462  68.291  1.00  0.00    -0.176 C  
HETATM   41  N   UNL     1     -11.039   7.446  67.224  1.00  0.00    -0.558 NA 
HETATM   42  H2  UNL     1     -10.993   6.999  66.309  1.00  0.00     0.000 HD 
HETATM   43  H1  UNL     1     -11.772   8.155  67.256  1.00  0.00     0.000 HD 
ENDBRANCH  39  40
ENDBRANCH  38  39
ENDBRANCH  37  38
ENDBRANCH  36  37
ENDBRANCH  33  36
ENDBRANCH  31  32
ENDBRANCH  30  31
ENDBRANCH  28  30
ENDBRANCH  25  26
ENDBRANCH  24  25
ENDBRANCH  23  24
ENDBRANCH  22  23
ENDBRANCH  21  22
ENDBRANCH  19  21
ENDBRANCH  16  17
ENDBRANCH  15  16
ENDBRANCH  12  15
ENDBRANCH  10  11
ENDBRANCH   9  10
ENDBRANCH   8   9
ENDBRANCH   7   8
ENDBRANCH   6   7
ENDBRANCH   3   6
TORSDOF 23
ENDMDL
MODEL      175
REMARK 921   NORMALIZED FREE ENERGY PREDICTED BY IDOCK:   -4.27 KCAL/MOL
REMARK 922        TOTAL FREE ENERGY PREDICTED BY IDOCK:  -12.76 KCAL/MOL
REMARK 923 INTER-LIGAND FREE ENERGY PREDICTED BY IDOCK:  -10.67 KCAL/MOL
REMARK 924 INTRA-LIGAND FREE ENERGY PREDICTED BY IDOCK:   -2.09 KCAL/MOL
REMARK 927      BINDING AFFINITY PREDICTED BY RF-SCORE:    0.00 PKD
ROOT
HETATM    1  C   UNL     1     -13.651   9.152  72.278  1.00  0.00    -0.548 C  
HETATM    2  C   UNL     1     -13.154   7.903  71.599  1.00  0.00    -0.332 C  
HETATM    3  N   UNL     1     -11.825   7.866  71.268  1.00  0.00    -0.293 N  
HETATM    4  O   UNL     1     -13.933   6.986  71.338  1.00  0.00    -0.319 OA 
HETATM    5  O   UNL     1     -10.881   8.821  71.682  1.00  0.00    -0.276 OA 
ENDROOT
BRANCH   3   6
HETATM    6  C   UNL     1     -11.197   6.737  70.595  1.00  0.00    -0.312 C  
BRANCH   6   7
HETATM    7  C   UNL     1     -10.285   7.176  69.448  1.00  0.00    -0.194 C  
BRANCH   7   8
HETATM    8  C   UNL     1     -10.799   6.627  68.116  1.00  0.00    -0.334 C  
BRANCH   8   9
HETATM    9  C   UNL     1      -9.832   5.616  67.497  1.00  0.00    -0.156 C  
BRANCH   9  10
HETATM   10  C   UNL     1     -10.526   4.681  66.506  1.00  0.00    -0.123 C  
BRANCH  10  11
HETATM   11  N   UNL     1     -10.166   4.968  65.126  1.00  0.00    -0.387 N  
HETATM   12  C   UNL     1      -9.540   4.024  64.342  1.00  0.00    -0.170 C  
HETATM   13  H   UNL     1     -10.381   5.883  64.732  1.00  0.00     0.000 HD 
HETATM   14  O   UNL     1      -9.278   2.885  64.719  1.00  0.00    -0.138 OA 
BRANCH  12  15
HETATM   15  C   UNL     1      -9.213   4.524  62.951  1.00  0.00    -0.110 C  
BRANCH  15  16
HETATM   16  C   UNL     1      -7.781   5.049  62.895  1.00  0.00    -0.067 C  
BRANCH  16  17
HETATM   17  C   UNL     1      -7.513   6.112  63.943  1.00  0.00    -0.078 C  
HETATM   18  O   UNL     1      -6.977   5.829  65.012  1.00  0.00    -0.056 OA 
HETATM   19  N   UNL     1      -7.930   7.382  63.637  1.00  0.00    -0.110 N  
HETATM   20  O   UNL     1      -8.455   7.773  62.393  1.00  0.00    -0.117 OA 
BRANCH  19  21
HETATM   21  C   UNL     1      -7.821   8.508  64.552  1.00  0.00    -0.138 C  
BRANCH  21  22
HETATM   22  C   UNL     1      -9.060   8.665  65.437  1.00  0.00    -0.150 C  
BRANCH  22  23
HETATM   23  C   UNL     1      -9.668  10.079  65.374  1.00  0.00    -0.368 C  
BRANCH  23  24
HETATM   24  C   UNL     1      -9.661  10.678  63.966  1.00  0.00    -0.373 C  
BRANCH  24  25
HETATM   25  C   UNL     1     -10.906  11.524  63.711  1.00  0.00    -0.416 C  
BRANCH  25  26
HETATM   26  N   UNL     1     -11.112  12.505  64.758  1.00  0.00    -0.291 N  
HETATM   27  H   UNL     1     -10.309  12.826  65.299  1.00  0.00     0.000 HD 
HETATM   28  C   UNL     1     -12.357  13.013  65.041  1.00  0.00    -0.473 C  
HETATM   29  O   UNL     1     -13.373  12.699  64.429  1.00  0.00    -0.568 OA 
BRANCH  28  30
HETATM   30  C   UNL     1     -12.388  13.997  66.183  1.00  0.00    -0.491 C  
BRANCH  30  31
HETATM   31  C   UNL     1     -11.457  13.523  67.289  1.00  0.00    -0.369 C  
BRANCH  31  32
HETATM   32  C   UNL     1     -11.104  14.662  68.223  1.00  0.00    -0.271 C  
HETATM   33  N   UNL     1     -10.054  15.481  67.887  1.00  0.00    -0.223 N  
HETATM   34  O   UNL     1     -11.811  14.875  69.210  1.00  0.00    -0.299 OA 
HETATM   35  O   UNL     1      -9.036  14.999  67.042  1.00  0.00    -0.206 OA 
BRANCH  33  36
HETATM   36  C   UNL     1      -9.590  16.563  68.759  1.00  0.00    -0.248 C  
BRANCH  36  37
HETATM   37  C   UNL     1     -10.407  17.843  68.575  1.00  0.00    -0.365 C  
BRANCH  37  38
HETATM   38  C   UNL     1      -9.646  18.902  67.770  1.00  0.00    -0.357 C  
BRANCH  38  39
HETATM   39  C   UNL     1      -8.147  18.878  68.079  1.00  0.00    -0.321 C  
BRANCH  39  40
HETATM   40  C   UNL     1      -7.291  18.663  66.829  1.00  0.00    -0.217 C  
HETATM   41  N   UNL     1      -7.640  17.424  66.142  1.00  0.00    -0.403 NA 
HETATM   42  H2  UNL     1      -8.635  17.389  65.922  1.00  0.00     0.000 HD 
HETATM   43  H1  UNL     1      -7.070  17.281  65.308  1.00  0.00     0.000 HD 
ENDBRANCH  39  40
ENDBRANCH  38  39
ENDBRANCH  37  38
ENDBRANCH  36  37
ENDBRANCH  33  36
ENDBRANCH  31  32
ENDBRANCH  30  31
ENDBRANCH  28  30
ENDBRANCH  25  26
ENDBRANCH  24  25
ENDBRANCH  23  24
ENDBRANCH  22  23
ENDBRANCH  21  22
ENDBRANCH  19  21
ENDBRANCH  16  17
ENDBRANCH  15  16
ENDBRANCH  12  15
ENDBRANCH  10  11
ENDBRANCH   9  10
ENDBRANCH   8   9
ENDBRANCH   7   8
ENDBRANCH   6   7
ENDBRANCH   3   6
TORSDOF 23
ENDMDL
MODEL      176
REMARK 921   NORMALIZED FREE ENERGY PREDICTED BY IDOCK:   -4.26 KCAL/MOL
REMARK 922        TOTAL FREE ENERGY PREDICTED BY IDOCK:  -12.75 KCAL/MOL
REMARK 923 INTER-LIGAND FREE ENERGY PREDICTED BY IDOCK:  -10.44 KCAL/MOL
REMARK 924 INTRA-LIGAND FREE ENERGY PREDICTED BY IDOCK:   -2.31 KCAL/MOL
REMARK 927      BINDING AFFINITY PREDICTED BY RF-SCORE:    0.00 PKD
ROOT
HETATM    1  C   UNL     1      -6.032   6.562  73.362  1.00  0.00    -0.058 C  
HETATM    2  C   UNL     1      -7.362   5.865  73.239  1.00  0.00    -0.090 C  
HETATM    3  N   UNL     1      -7.820   5.625  71.970  1.00  0.00    -0.105 N  
HETATM    4  O   UNL     1      -8.003   5.567  74.248  1.00  0.00    -0.105 OA 
HETATM    5  O   UNL     1      -7.055   5.811  70.806  1.00  0.00    -0.065 OA 
ENDROOT
BRANCH   3   6
HETATM    6  C   UNL     1      -9.093   4.976  71.686  1.00  0.00    -0.140 C  
BRANCH   6   7
HETATM    7  C   UNL     1     -10.275   5.942  71.786  1.00  0.00    -0.248 C  
BRANCH   7   8
HETATM    8  C   UNL     1     -11.011   6.025  70.448  1.00  0.00    -0.399 C  
BRANCH   8   9
HETATM    9  C   UNL     1     -10.429   7.107  69.537  1.00  0.00    -0.236 C  
BRANCH   9  10
HETATM   10  C   UNL     1     -10.773   8.517  70.018  1.00  0.00    -0.232 C  
BRANCH  10  11
HETATM   11  N   UNL     1     -10.086   9.548  69.254  1.00  0.00    -0.188 N  
HETATM   12  C   UNL     1      -8.895  10.083  69.691  1.00  0.00    -0.199 C  
HETATM   13  H   UNL     1     -10.494   9.879  68.381  1.00  0.00     0.000 HD 
HETATM   14  O   UNL     1      -8.313   9.718  70.709  1.00  0.00    -0.229 OA 
BRANCH  12  15
HETATM   15  C   UNL     1      -8.358  11.167  68.781  1.00  0.00    -0.136 C  
BRANCH  15  16
HETATM   16  C   UNL     1      -9.085  11.146  67.439  1.00  0.00    -0.143 C  
BRANCH  16  17
HETATM   17  C   UNL     1      -8.335  10.351  66.388  1.00  0.00    -0.139 C  
HETATM   18  O   UNL     1      -7.199  10.668  66.041  1.00  0.00    -0.132 OA 
HETATM   19  N   UNL     1      -9.010   9.292  65.835  1.00  0.00    -0.171 N  
HETATM   20  O   UNL     1     -10.266   8.832  66.267  1.00  0.00    -0.271 OA 
BRANCH  19  21
HETATM   21  C   UNL     1      -8.474   8.467  64.763  1.00  0.00    -0.101 C  
BRANCH  21  22
HETATM   22  C   UNL     1      -8.219   9.265  63.482  1.00  0.00    -0.173 C  
BRANCH  22  23
HETATM   23  C   UNL     1      -9.490   9.940  62.932  1.00  0.00    -0.126 C  
BRANCH  23  24
HETATM   24  C   UNL     1      -9.428  11.467  62.971  1.00  0.00    -0.380 C  
BRANCH  24  25
HETATM   25  C   UNL     1     -10.762  12.072  63.401  1.00  0.00    -0.417 C  
BRANCH  25  26
HETATM   26  N   UNL     1     -10.611  13.444  63.842  1.00  0.00    -0.469 N  
HETATM   27  H   UNL     1      -9.693  13.886  63.780  1.00  0.00     0.000 HD 
HETATM   28  C   UNL     1     -11.668  14.167  64.341  1.00  0.00    -0.392 C  
HETATM   29  O   UNL     1     -12.809  13.723  64.434  1.00  0.00    -0.635 OA 
BRANCH  28  30
HETATM   30  C   UNL     1     -11.320  15.565  64.782  1.00  0.00    -0.362 C  
BRANCH  30  31
HETATM   31  C   UNL     1     -10.167  15.515  65.772  1.00  0.00    -0.390 C  
BRANCH  31  32
HETATM   32  C   UNL     1     -10.521  16.243  67.052  1.00  0.00    -0.306 C  
HETATM   33  N   UNL     1     -10.721  15.501  68.191  1.00  0.00    -0.273 N  
HETATM   34  O   UNL     1     -10.541  17.475  67.061  1.00  0.00    -0.321 OA 
HETATM   35  O   UNL     1     -11.109  14.152  68.085  1.00  0.00    -0.244 OA 
BRANCH  33  36
HETATM   36  C   UNL     1     -11.137  16.105  69.459  1.00  0.00    -0.344 C  
BRANCH  36  37
HETATM   37  C   UNL     1     -12.099  15.205  70.237  1.00  0.00    -0.385 C  
BRANCH  37  38
HETATM   38  C   UNL     1     -12.756  15.942  71.410  1.00  0.00    -0.403 C  
BRANCH  38  39
HETATM   39  C   UNL     1     -13.178  14.975  72.520  1.00  0.00    -0.500 C  
BRANCH  39  40
HETATM   40  C   UNL     1     -13.940  13.761  71.984  1.00  0.00    -0.470 C  
HETATM   41  N   UNL     1     -13.201  12.521  72.199  1.00  0.00    -0.467 NA 
HETATM   42  H2  UNL     1     -12.953  12.401  73.181  1.00  0.00     0.000 HD 
HETATM   43  H1  UNL     1     -13.708  11.711  71.842  1.00  0.00     0.000 HD 
ENDBRANCH  39  40
ENDBRANCH  38  39
ENDBRANCH  37  38
ENDBRANCH  36  37
ENDBRANCH  33  36
ENDBRANCH  31  32
ENDBRANCH  30  31
ENDBRANCH  28  30
ENDBRANCH  25  26
ENDBRANCH  24  25
ENDBRANCH  23  24
ENDBRANCH  22  23
ENDBRANCH  21  22
ENDBRANCH  19  21
ENDBRANCH  16  17
ENDBRANCH  15  16
ENDBRANCH  12  15
ENDBRANCH  10  11
ENDBRANCH   9  10
ENDBRANCH   8   9
ENDBRANCH   7   8
ENDBRANCH   6   7
ENDBRANCH   3   6
TORSDOF 23
ENDMDL
MODEL      177
REMARK 921   NORMALIZED FREE ENERGY PREDICTED BY IDOCK:   -4.24 KCAL/MOL
REMARK 922        TOTAL FREE ENERGY PREDICTED BY IDOCK:  -12.70 KCAL/MOL
REMARK 923 INTER-LIGAND FREE ENERGY PREDICTED BY IDOCK:  -10.05 KCAL/MOL
REMARK 924 INTRA-LIGAND FREE ENERGY PREDICTED BY IDOCK:   -2.65 KCAL/MOL
REMARK 927      BINDING AFFINITY PREDICTED BY RF-SCORE:    0.00 PKD
ROOT
HETATM    1  C   UNL     1     -13.166  10.105  71.962  1.00  0.00    -0.534 C  
HETATM    2  C   UNL     1     -12.273  10.480  70.808  1.00  0.00    -0.369 C  
HETATM    3  N   UNL     1     -12.350  11.772  70.360  1.00  0.00    -0.306 N  
HETATM    4  O   UNL     1     -11.541   9.636  70.290  1.00  0.00    -0.252 OA 
HETATM    5  O   UNL     1     -13.055  12.795  71.017  1.00  0.00    -0.146 OA 
ENDROOT
BRANCH   3   6
HETATM    6  C   UNL     1     -11.564  12.283  69.246  1.00  0.00    -0.324 C  
BRANCH   6   7
HETATM    7  C   UNL     1     -11.772  13.782  69.023  1.00  0.00    -0.372 C  
BRANCH   7   8
HETATM    8  C   UNL     1     -11.692  14.118  67.533  1.00  0.00    -0.418 C  
BRANCH   8   9
HETATM    9  C   UNL     1     -10.983  15.450  67.280  1.00  0.00    -0.317 C  
BRANCH   9  10
HETATM   10  C   UNL     1     -11.406  16.529  68.278  1.00  0.00    -0.180 C  
BRANCH  10  11
HETATM   11  N   UNL     1     -10.297  17.386  68.671  1.00  0.00    -0.353 N  
HETATM   12  C   UNL     1     -10.122  18.629  68.106  1.00  0.00    -0.378 C  
HETATM   13  H   UNL     1      -9.639  17.059  69.378  1.00  0.00     0.000 HD 
HETATM   14  O   UNL     1     -10.886  19.119  67.279  1.00  0.00    -0.476 OA 
BRANCH  12  15
HETATM   15  C   UNL     1      -8.893  19.350  68.618  1.00  0.00    -0.417 C  
BRANCH  15  16
HETATM   16  C   UNL     1      -7.798  19.361  67.554  1.00  0.00    -0.292 C  
BRANCH  16  17
HETATM   17  C   UNL     1      -7.624  18.008  66.891  1.00  0.00    -0.213 C  
HETATM   18  O   UNL     1      -7.950  17.828  65.719  1.00  0.00    -0.544 OA 
HETATM   19  N   UNL     1      -7.117  17.008  67.680  1.00  0.00    -0.142 N  
HETATM   20  O   UNL     1      -6.638  17.189  68.990  1.00  0.00    -0.194 OA 
BRANCH  19  21
HETATM   21  C   UNL     1      -6.951  15.634  67.232  1.00  0.00    -0.189 C  
BRANCH  21  22
HETATM   22  C   UNL     1      -6.874  14.644  68.398  1.00  0.00    -0.102 C  
BRANCH  22  23
HETATM   23  C   UNL     1      -8.057  13.657  68.427  1.00  0.00    -0.146 C  
BRANCH  23  24
HETATM   24  C   UNL     1      -8.068  12.692  67.241  1.00  0.00    -0.178 C  
BRANCH  24  25
HETATM   25  C   UNL     1      -6.779  11.876  67.170  1.00  0.00    -0.142 C  
BRANCH  25  26
HETATM   26  N   UNL     1      -6.980  10.618  66.478  1.00  0.00    -0.117 N  
HETATM   27  H   UNL     1      -7.024  10.616  65.458  1.00  0.00     0.000 HD 
HETATM   28  C   UNL     1      -7.111   9.430  67.155  1.00  0.00    -0.086 C  
HETATM   29  O   UNL     1      -7.050   9.336  68.377  1.00  0.00    -0.071 OA 
BRANCH  28  30
HETATM   30  C   UNL     1      -7.347   8.229  66.276  1.00  0.00    -0.078 C  
BRANCH  30  31
HETATM   31  C   UNL     1      -8.743   8.301  65.677  1.00  0.00    -0.188 C  
BRANCH  31  32
HETATM   32  C   UNL     1      -9.770   7.728  66.631  1.00  0.00    -0.222 C  
HETATM   33  N   UNL     1      -9.746   6.378  66.884  1.00  0.00    -0.147 N  
HETATM   34  O   UNL     1     -10.543   8.491  67.216  1.00  0.00    -0.295 OA 
HETATM   35  O   UNL     1      -9.184   5.502  65.937  1.00  0.00    -0.160 OA 
BRANCH  33  36
HETATM   36  C   UNL     1     -10.741   5.720  67.734  1.00  0.00    -0.223 C  
BRANCH  36  37
HETATM   37  C   UNL     1     -10.221   5.481  69.152  1.00  0.00    -0.309 C  
BRANCH  37  38
HETATM   38  C   UNL     1     -11.088   6.174  70.209  1.00  0.00    -0.436 C  
BRANCH  38  39
HETATM   39  C   UNL     1     -10.781   5.658  71.618  1.00  0.00    -0.313 C  
BRANCH  39  40
HETATM   40  C   UNL     1      -9.814   6.566  72.379  1.00  0.00    -0.159 C  
HETATM   41  N   UNL     1     -10.361   7.907  72.563  1.00  0.00    -0.260 NA 
HETATM   42  H2  UNL     1     -11.275   7.876  73.014  1.00  0.00     0.000 HD 
HETATM   43  H1  UNL     1      -9.716   8.512  73.070  1.00  0.00     0.000 HD 
ENDBRANCH  39  40
ENDBRANCH  38  39
ENDBRANCH  37  38
ENDBRANCH  36  37
ENDBRANCH  33  36
ENDBRANCH  31  32
ENDBRANCH  30  31
ENDBRANCH  28  30
ENDBRANCH  25  26
ENDBRANCH  24  25
ENDBRANCH  23  24
ENDBRANCH  22  23
ENDBRANCH  21  22
ENDBRANCH  19  21
ENDBRANCH  16  17
ENDBRANCH  15  16
ENDBRANCH  12  15
ENDBRANCH  10  11
ENDBRANCH   9  10
ENDBRANCH   8   9
ENDBRANCH   7   8
ENDBRANCH   6   7
ENDBRANCH   3   6
TORSDOF 23
ENDMDL
MODEL      178
REMARK 921   NORMALIZED FREE ENERGY PREDICTED BY IDOCK:   -4.24 KCAL/MOL
REMARK 922        TOTAL FREE ENERGY PREDICTED BY IDOCK:  -12.70 KCAL/MOL
REMARK 923 INTER-LIGAND FREE ENERGY PREDICTED BY IDOCK:  -10.10 KCAL/MOL
REMARK 924 INTRA-LIGAND FREE ENERGY PREDICTED BY IDOCK:   -2.59 KCAL/MOL
REMARK 927      BINDING AFFINITY PREDICTED BY RF-SCORE:    0.00 PKD
ROOT
HETATM    1  C   UNL     1      -8.925  20.407  66.975  1.00  0.00    -0.423 C  
HETATM    2  C   UNL     1      -9.898  19.258  66.995  1.00  0.00    -0.340 C  
HETATM    3  N   UNL     1      -9.498  18.098  66.386  1.00  0.00    -0.297 N  
HETATM    4  O   UNL     1     -11.007  19.392  67.513  1.00  0.00    -0.464 OA 
HETATM    5  O   UNL     1      -8.194  17.859  65.922  1.00  0.00    -0.522 OA 
ENDROOT
BRANCH   3   6
HETATM    6  C   UNL     1     -10.330  16.904  66.308  1.00  0.00    -0.308 C  
BRANCH   6   7
HETATM    7  C   UNL     1     -10.041  15.917  67.441  1.00  0.00    -0.252 C  
BRANCH   7   8
HETATM    8  C   UNL     1     -10.813  14.615  67.224  1.00  0.00    -0.305 C  
BRANCH   8   9
HETATM    9  C   UNL     1     -11.813  14.723  66.071  1.00  0.00    -0.201 C  
BRANCH   9  10
HETATM   10  C   UNL     1     -12.518  13.396  65.788  1.00  0.00    -0.439 C  
BRANCH  10  11
HETATM   11  N   UNL     1     -11.590  12.348  65.389  1.00  0.00    -0.366 N  
HETATM   12  C   UNL     1     -11.364  12.065  64.061  1.00  0.00    -0.403 C  
HETATM   13  H   UNL     1     -11.100  11.814  66.106  1.00  0.00     0.000 HD 
HETATM   14  O   UNL     1     -11.878  12.682  63.132  1.00  0.00    -0.470 OA 
BRANCH  12  15
HETATM   15  C   UNL     1     -10.397  10.919  63.851  1.00  0.00    -0.397 C  
BRANCH  15  16
HETATM   16  C   UNL     1      -9.352  10.891  64.963  1.00  0.00    -0.260 C  
BRANCH  16  17
HETATM   17  C   UNL     1      -9.405   9.612  65.776  1.00  0.00    -0.228 C  
HETATM   18  O   UNL     1     -10.397   9.323  66.443  1.00  0.00    -0.251 OA 
HETATM   19  N   UNL     1      -8.281   8.827  65.743  1.00  0.00    -0.115 N  
HETATM   20  O   UNL     1      -7.166   9.063  64.920  1.00  0.00    -0.093 OA 
BRANCH  19  21
HETATM   21  C   UNL     1      -8.129   7.605  66.518  1.00  0.00    -0.119 C  
BRANCH  21  22
HETATM   22  C   UNL     1      -8.314   6.345  65.667  1.00  0.00    -0.147 C  
BRANCH  22  23
HETATM   23  C   UNL     1      -7.022   5.517  65.531  1.00  0.00    -0.065 C  
BRANCH  23  24
HETATM   24  C   UNL     1      -6.869   4.453  66.618  1.00  0.00    -0.055 C  
BRANCH  24  25
HETATM   25  C   UNL     1      -8.009   3.438  66.573  1.00  0.00    -0.084 C  
BRANCH  25  26
HETATM   26  N   UNL     1      -8.384   2.995  67.901  1.00  0.00    -0.078 N  
HETATM   27  H   UNL     1      -7.900   2.197  68.313  1.00  0.00     0.000 HD 
HETATM   28  C   UNL     1      -9.374   3.620  68.621  1.00  0.00    -0.164 C  
HETATM   29  O   UNL     1      -9.994   4.598  68.214  1.00  0.00    -0.136 OA 
BRANCH  28  30
HETATM   30  C   UNL     1      -9.655   3.005  69.968  1.00  0.00    -0.143 C  
BRANCH  30  31
HETATM   31  C   UNL     1      -8.989   3.833  71.056  1.00  0.00    -0.158 C  
BRANCH  31  32
HETATM   32  C   UNL     1      -9.971   4.809  71.670  1.00  0.00    -0.190 C  
HETATM   33  N   UNL     1      -9.978   6.104  71.213  1.00  0.00    -0.180 N  
HETATM   34  O   UNL     1     -10.789   4.402  72.498  1.00  0.00    -0.140 OA 
HETATM   35  O   UNL     1      -8.818   6.641  70.622  1.00  0.00    -0.145 OA 
BRANCH  33  36
HETATM   36  C   UNL     1     -10.839   7.138  71.793  1.00  0.00    -0.225 C  
BRANCH  36  37
HETATM   37  C   UNL     1     -10.323   8.548  71.501  1.00  0.00    -0.321 C  
BRANCH  37  38
HETATM   38  C   UNL     1     -10.979   9.156  70.256  1.00  0.00    -0.279 C  
BRANCH  38  39
HETATM   39  C   UNL     1     -11.295  10.641  70.452  1.00  0.00    -0.389 C  
BRANCH  39  40
HETATM   40  C   UNL     1     -12.361  11.149  69.479  1.00  0.00    -0.194 C  
HETATM   41  N   UNL     1     -12.047  10.794  68.099  1.00  0.00    -0.759 NA 
HETATM   42  H2  UNL     1     -11.899   9.790  67.998  1.00  0.00     0.000 HD 
HETATM   43  H1  UNL     1     -12.757  11.133  67.450  1.00  0.00     0.000 HD 
ENDBRANCH  39  40
ENDBRANCH  38  39
ENDBRANCH  37  38
ENDBRANCH  36  37
ENDBRANCH  33  36
ENDBRANCH  31  32
ENDBRANCH  30  31
ENDBRANCH  28  30
ENDBRANCH  25  26
ENDBRANCH  24  25
ENDBRANCH  23  24
ENDBRANCH  22  23
ENDBRANCH  21  22
ENDBRANCH  19  21
ENDBRANCH  16  17
ENDBRANCH  15  16
ENDBRANCH  12  15
ENDBRANCH  10  11
ENDBRANCH   9  10
ENDBRANCH   8   9
ENDBRANCH   7   8
ENDBRANCH   6   7
ENDBRANCH   3   6
TORSDOF 23
ENDMDL
MODEL      179
REMARK 921   NORMALIZED FREE ENERGY PREDICTED BY IDOCK:   -4.20 KCAL/MOL
REMARK 922        TOTAL FREE ENERGY PREDICTED BY IDOCK:  -12.61 KCAL/MOL
REMARK 923 INTER-LIGAND FREE ENERGY PREDICTED BY IDOCK:  -10.62 KCAL/MOL
REMARK 924 INTRA-LIGAND FREE ENERGY PREDICTED BY IDOCK:   -1.99 KCAL/MOL
REMARK 927      BINDING AFFINITY PREDICTED BY RF-SCORE:    0.00 PKD
ROOT
HETATM    1  C   UNL     1      -8.241   3.854  66.300  1.00  0.00    -0.104 C  
HETATM    2  C   UNL     1      -9.045   4.981  66.894  1.00  0.00    -0.117 C  
HETATM    3  N   UNL     1      -8.829   5.266  68.216  1.00  0.00    -0.105 N  
HETATM    4  O   UNL     1      -9.876   5.579  66.208  1.00  0.00    -0.158 OA 
HETATM    5  O   UNL     1      -7.791   4.712  68.984  1.00  0.00    -0.070 OA 
ENDROOT
BRANCH   3   6
HETATM    6  C   UNL     1      -9.538   6.314  68.937  1.00  0.00    -0.126 C  
BRANCH   6   7
HETATM    7  C   UNL     1     -10.783   5.789  69.655  1.00  0.00    -0.416 C  
BRANCH   7   8
HETATM    8  C   UNL     1     -10.457   5.453  71.112  1.00  0.00    -0.295 C  
BRANCH   8   9
HETATM    9  C   UNL     1     -10.035   6.690  71.907  1.00  0.00    -0.189 C  
BRANCH   9  10
HETATM   10  C   UNL     1     -11.081   7.098  72.944  1.00  0.00    -0.298 C  
BRANCH  10  11
HETATM   11  N   UNL     1     -11.919   8.197  72.486  1.00  0.00    -0.503 N  
HETATM   12  C   UNL     1     -13.158   7.965  71.932  1.00  0.00    -0.289 C  
HETATM   13  H   UNL     1     -11.582   9.155  72.578  1.00  0.00     0.000 HD 
HETATM   14  O   UNL     1     -13.659   6.850  71.819  1.00  0.00    -0.312 OA 
BRANCH  12  15
HETATM   15  C   UNL     1     -13.857   9.230  71.484  1.00  0.00    -0.330 C  
BRANCH  15  16
HETATM   16  C   UNL     1     -12.958  10.445  71.702  1.00  0.00    -0.581 C  
BRANCH  16  17
HETATM   17  C   UNL     1     -12.132  10.781  70.475  1.00  0.00    -0.366 C  
HETATM   18  O   UNL     1     -11.626   9.896  69.787  1.00  0.00    -0.191 OA 
HETATM   19  N   UNL     1     -11.964  12.115  70.206  1.00  0.00    -0.344 N  
HETATM   20  O   UNL     1     -12.602  13.157  70.902  1.00  0.00    -0.346 OA 
BRANCH  19  21
HETATM   21  C   UNL     1     -11.144  12.620  69.115  1.00  0.00    -0.195 C  
BRANCH  21  22
HETATM   22  C   UNL     1     -11.163  14.148  69.028  1.00  0.00    -0.303 C  
BRANCH  22  23
HETATM   23  C   UNL     1     -10.471  14.686  67.761  1.00  0.00    -0.246 C  
BRANCH  23  24
HETATM   24  C   UNL     1      -9.884  16.087  67.941  1.00  0.00    -0.226 C  
BRANCH  24  25
HETATM   25  C   UNL     1     -10.927  17.170  67.671  1.00  0.00    -0.148 C  
BRANCH  25  26
HETATM   26  N   UNL     1     -10.328  18.356  67.092  1.00  0.00    -0.376 N  
HETATM   27  H   UNL     1     -10.183  18.395  66.083  1.00  0.00     0.000 HD 
HETATM   28  C   UNL     1      -9.950  19.429  67.863  1.00  0.00    -0.380 C  
HETATM   29  O   UNL     1     -10.104  19.476  69.080  1.00  0.00    -0.442 OA 
BRANCH  28  30
HETATM   30  C   UNL     1      -9.313  20.560  67.097  1.00  0.00    -0.513 C  
BRANCH  30  31
HETATM   31  C   UNL     1      -7.800  20.417  67.141  1.00  0.00    -0.378 C  
BRANCH  31  32
HETATM   32  C   UNL     1      -7.370  19.058  66.631  1.00  0.00    -0.223 C  
HETATM   33  N   UNL     1      -6.811  18.173  67.521  1.00  0.00    -0.194 N  
HETATM   34  O   UNL     1      -7.604  18.749  65.461  1.00  0.00    -0.476 OA 
HETATM   35  O   UNL     1      -6.179  18.658  68.682  1.00  0.00    -0.208 OA 
BRANCH  33  36
HETATM   36  C   UNL     1      -6.298  16.864  67.111  1.00  0.00    -0.186 C  
BRANCH  36  37
HETATM   37  C   UNL     1      -5.657  16.105  68.274  1.00  0.00    -0.107 C  
BRANCH  37  38
HETATM   38  C   UNL     1      -6.666  15.216  69.009  1.00  0.00    -0.120 C  
BRANCH  38  39
HETATM   39  C   UNL     1      -6.495  13.740  68.636  1.00  0.00    -0.093 C  
BRANCH  39  40
HETATM   40  C   UNL     1      -6.113  12.871  69.835  1.00  0.00    -0.126 C  
HETATM   41  N   UNL     1      -6.245  13.598  71.094  1.00  0.00    -0.537 NA 
HETATM   42  H2  UNL     1      -7.180  13.989  71.201  1.00  0.00     0.000 HD 
HETATM   43  H1  UNL     1      -5.990  13.018  71.894  1.00  0.00     0.000 HD 
ENDBRANCH  39  40
ENDBRANCH  38  39
ENDBRANCH  37  38
ENDBRANCH  36  37
ENDBRANCH  33  36
ENDBRANCH  31  32
ENDBRANCH  30  31
ENDBRANCH  28  30
ENDBRANCH  25  26
ENDBRANCH  24  25
ENDBRANCH  23  24
ENDBRANCH  22  23
ENDBRANCH  21  22
ENDBRANCH  19  21
ENDBRANCH  16  17
ENDBRANCH  15  16
ENDBRANCH  12  15
ENDBRANCH  10  11
ENDBRANCH   9  10
ENDBRANCH   8   9
ENDBRANCH   7   8
ENDBRANCH   6   7
ENDBRANCH   3   6
TORSDOF 23
ENDMDL
MODEL      180
REMARK 921   NORMALIZED FREE ENERGY PREDICTED BY IDOCK:   -4.20 KCAL/MOL
REMARK 922        TOTAL FREE ENERGY PREDICTED BY IDOCK:  -12.59 KCAL/MOL
REMARK 923 INTER-LIGAND FREE ENERGY PREDICTED BY IDOCK:   -9.73 KCAL/MOL
REMARK 924 INTRA-LIGAND FREE ENERGY PREDICTED BY IDOCK:   -2.87 KCAL/MOL
REMARK 927      BINDING AFFINITY PREDICTED BY RF-SCORE:    0.00 PKD
ROOT
HETATM    1  C   UNL     1     -10.055   4.180  65.215  1.00  0.00    -0.213 C  
HETATM    2  C   UNL     1      -9.108   5.320  65.483  1.00  0.00    -0.139 C  
HETATM    3  N   UNL     1      -7.930   5.324  64.782  1.00  0.00    -0.101 N  
HETATM    4  O   UNL     1      -9.389   6.177  66.322  1.00  0.00    -0.157 OA 
HETATM    5  O   UNL     1      -7.643   4.455  63.716  1.00  0.00    -0.064 OA 
ENDROOT
BRANCH   3   6
HETATM    6  C   UNL     1      -6.907   6.348  64.940  1.00  0.00    -0.050 C  
BRANCH   6   7
HETATM    7  C   UNL     1      -6.969   7.410  63.840  1.00  0.00    -0.058 C  
BRANCH   7   8
HETATM    8  C   UNL     1      -5.758   8.341  63.927  1.00  0.00    -0.065 C  
BRANCH   8   9
HETATM    9  C   UNL     1      -6.154   9.813  63.798  1.00  0.00    -0.114 C  
BRANCH   9  10
HETATM   10  C   UNL     1      -5.854  10.607  65.070  1.00  0.00    -0.072 C  
BRANCH  10  11
HETATM   11  N   UNL     1      -6.861  10.406  66.101  1.00  0.00    -0.117 N  
HETATM   12  C   UNL     1      -7.037  11.323  67.113  1.00  0.00    -0.125 C  
HETATM   13  H   UNL     1      -7.446   9.571  66.073  1.00  0.00     0.000 HD 
HETATM   14  O   UNL     1      -6.407  12.372  67.204  1.00  0.00    -0.158 OA 
BRANCH  12  15
HETATM   15  C   UNL     1      -8.104  10.916  68.107  1.00  0.00    -0.119 C  
BRANCH  15  16
HETATM   16  C   UNL     1      -7.480  10.182  69.291  1.00  0.00    -0.111 C  
BRANCH  16  17
HETATM   17  C   UNL     1      -7.688   8.681  69.215  1.00  0.00    -0.096 C  
HETATM   18  O   UNL     1      -7.092   7.998  68.385  1.00  0.00    -0.079 OA 
HETATM   19  N   UNL     1      -8.595   8.151  70.097  1.00  0.00    -0.127 N  
HETATM   20  O   UNL     1      -9.225   8.873  71.126  1.00  0.00    -0.211 OA 
BRANCH  19  21
HETATM   21  C   UNL     1      -8.973   6.746  70.117  1.00  0.00    -0.149 C  
BRANCH  21  22
HETATM   22  C   UNL     1      -8.914   6.144  71.523  1.00  0.00    -0.143 C  
BRANCH  22  23
HETATM   23  C   UNL     1     -10.303   5.764  72.072  1.00  0.00    -0.254 C  
BRANCH  23  24
HETATM   24  C   UNL     1     -11.449   6.150  71.136  1.00  0.00    -0.314 C  
BRANCH  24  25
HETATM   25  C   UNL     1     -12.383   7.170  71.785  1.00  0.00    -0.350 C  
BRANCH  25  26
HETATM   26  N   UNL     1     -12.415   8.414  71.042  1.00  0.00    -0.488 N  
HETATM   27  H   UNL     1     -11.761   8.547  70.270  1.00  0.00     0.000 HD 
HETATM   28  C   UNL     1     -13.300   9.420  71.350  1.00  0.00    -0.346 C  
HETATM   29  O   UNL     1     -14.133   9.338  72.247  1.00  0.00    -0.413 OA 
BRANCH  28  30
HETATM   30  C   UNL     1     -13.169  10.655  70.495  1.00  0.00    -0.037 C  
BRANCH  30  31
HETATM   31  C   UNL     1     -11.697  10.984  70.299  1.00  0.00    -0.445 C  
BRANCH  31  32
HETATM   32  C   UNL     1     -11.526  12.149  69.347  1.00  0.00    -0.290 C  
HETATM   33  N   UNL     1     -11.665  11.919  68.000  1.00  0.00    -0.326 N  
HETATM   34  O   UNL     1     -11.350  13.281  69.803  1.00  0.00    -0.183 OA 
HETATM   35  O   UNL     1     -11.441  10.627  67.488  1.00  0.00    -0.460 OA 
BRANCH  33  36
HETATM   36  C   UNL     1     -11.448  12.963  66.997  1.00  0.00    -0.339 C  
BRANCH  36  37
HETATM   37  C   UNL     1     -12.149  12.648  65.674  1.00  0.00    -0.502 C  
BRANCH  37  38
HETATM   38  C   UNL     1     -11.433  13.282  64.477  1.00  0.00    -0.399 C  
BRANCH  38  39
HETATM   39  C   UNL     1     -10.417  14.338  64.919  1.00  0.00    -0.454 C  
BRANCH  39  40
HETATM   40  C   UNL     1     -10.948  15.765  64.771  1.00  0.00    -0.393 C  
HETATM   41  N   UNL     1     -11.944  15.862  63.708  1.00  0.00    -1.266 NA 
HETATM   42  H2  UNL     1     -12.703  15.195  63.848  1.00  0.00     0.000 HD 
HETATM   43  H1  UNL     1     -12.299  16.814  63.609  1.00  0.00     0.000 HD 
ENDBRANCH  39  40
ENDBRANCH  38  39
ENDBRANCH  37  38
ENDBRANCH  36  37
ENDBRANCH  33  36
ENDBRANCH  31  32
ENDBRANCH  30  31
ENDBRANCH  28  30
ENDBRANCH  25  26
ENDBRANCH  24  25
ENDBRANCH  23  24
ENDBRANCH  22  23
ENDBRANCH  21  22
ENDBRANCH  19  21
ENDBRANCH  16  17
ENDBRANCH  15  16
ENDBRANCH  12  15
ENDBRANCH  10  11
ENDBRANCH   9  10
ENDBRANCH   8   9
ENDBRANCH   7   8
ENDBRANCH   6   7
ENDBRANCH   3   6
TORSDOF 23
ENDMDL
MODEL      181
REMARK 921   NORMALIZED FREE ENERGY PREDICTED BY IDOCK:   -4.20 KCAL/MOL
REMARK 922        TOTAL FREE ENERGY PREDICTED BY IDOCK:  -12.59 KCAL/MOL
REMARK 923 INTER-LIGAND FREE ENERGY PREDICTED BY IDOCK:  -10.30 KCAL/MOL
REMARK 924 INTRA-LIGAND FREE ENERGY PREDICTED BY IDOCK:   -2.29 KCAL/MOL
REMARK 927      BINDING AFFINITY PREDICTED BY RF-SCORE:    0.00 PKD
ROOT
HETATM    1  C   UNL     1     -13.619   9.519  72.186  1.00  0.00    -0.500 C  
HETATM    2  C   UNL     1     -13.304   8.087  71.840  1.00  0.00    -0.306 C  
HETATM    3  N   UNL     1     -11.999   7.691  71.973  1.00  0.00    -0.293 N  
HETATM    4  O   UNL     1     -14.191   7.338  71.429  1.00  0.00    -0.422 OA 
HETATM    5  O   UNL     1     -10.996   8.466  72.578  1.00  0.00    -0.356 OA 
ENDROOT
BRANCH   3   6
HETATM    6  C   UNL     1     -11.534   6.346  71.664  1.00  0.00    -0.303 C  
BRANCH   6   7
HETATM    7  C   UNL     1     -10.449   6.337  70.585  1.00  0.00    -0.276 C  
BRANCH   7   8
HETATM    8  C   UNL     1     -11.081   6.336  69.192  1.00  0.00    -0.457 C  
BRANCH   8   9
HETATM    9  C   UNL     1     -10.259   5.527  68.187  1.00  0.00    -0.232 C  
BRANCH   9  10
HETATM   10  C   UNL     1     -10.854   5.574  66.779  1.00  0.00    -0.169 C  
BRANCH  10  11
HETATM   11  N   UNL     1      -9.832   5.643  65.746  1.00  0.00    -0.372 N  
HETATM   12  C   UNL     1      -9.262   4.500  65.230  1.00  0.00    -0.156 C  
HETATM   13  H   UNL     1      -9.533   6.553  65.397  1.00  0.00     0.000 HD 
HETATM   14  O   UNL     1      -9.588   3.364  65.561  1.00  0.00    -0.154 OA 
BRANCH  12  15
HETATM   15  C   UNL     1      -8.194   4.781  64.195  1.00  0.00    -0.118 C  
BRANCH  15  16
HETATM   16  C   UNL     1      -6.810   4.776  64.840  1.00  0.00    -0.049 C  
BRANCH  16  17
HETATM   17  C   UNL     1      -6.743   5.657  66.072  1.00  0.00    -0.056 C  
HETATM   18  O   UNL     1      -6.836   5.179  67.201  1.00  0.00    -0.057 OA 
HETATM   19  N   UNL     1      -6.609   7.003  65.847  1.00  0.00    -0.050 N  
HETATM   20  O   UNL     1      -6.400   7.585  64.584  1.00  0.00    -0.040 OA 
BRANCH  19  21
HETATM   21  C   UNL     1      -6.601   8.000  66.906  1.00  0.00    -0.057 C  
BRANCH  21  22
HETATM   22  C   UNL     1      -8.013   8.390  67.352  1.00  0.00    -0.106 C  
BRANCH  22  23
HETATM   23  C   UNL     1      -8.273   9.906  67.267  1.00  0.00    -0.121 C  
BRANCH  23  24
HETATM   24  C   UNL     1      -7.354  10.622  66.276  1.00  0.00    -0.137 C  
BRANCH  24  25
HETATM   25  C   UNL     1      -7.977  10.691  64.883  1.00  0.00     0.012 C  
BRANCH  25  26
HETATM   26  N   UNL     1      -9.200  11.468  64.882  1.00  0.00    -0.412 N  
HETATM   27  H   UNL     1      -9.542  11.855  65.761  1.00  0.00     0.000 HD 
HETATM   28  C   UNL     1      -9.911  11.699  63.728  1.00  0.00    -0.349 C  
HETATM   29  O   UNL     1      -9.564  11.290  62.625  1.00  0.00    -0.316 OA 
BRANCH  28  30
HETATM   30  C   UNL     1     -11.175  12.498  63.919  1.00  0.00    -0.496 C  
BRANCH  30  31
HETATM   31  C   UNL     1     -11.710  12.277  65.325  1.00  0.00    -0.413 C  
BRANCH  31  32
HETATM   32  C   UNL     1     -11.953  13.597  66.025  1.00  0.00    -0.413 C  
HETATM   33  N   UNL     1     -11.324  13.827  67.224  1.00  0.00    -0.307 N  
HETATM   34  O   UNL     1     -12.638  14.459  65.469  1.00  0.00    -0.413 OA 
HETATM   35  O   UNL     1     -10.922  12.738  68.021  1.00  0.00    -0.222 OA 
BRANCH  33  36
HETATM   36  C   UNL     1     -11.552  15.041  68.012  1.00  0.00    -0.338 C  
BRANCH  36  37
HETATM   37  C   UNL     1     -10.765  15.033  69.324  1.00  0.00    -0.250 C  
BRANCH  37  38
HETATM   38  C   UNL     1     -11.656  15.339  70.533  1.00  0.00    -0.340 C  
BRANCH  38  39
HETATM   39  C   UNL     1     -12.928  14.485  70.528  1.00  0.00    -0.303 C  
BRANCH  39  40
HETATM   40  C   UNL     1     -12.819  13.263  71.441  1.00  0.00    -0.322 C  
HETATM   41  N   UNL     1     -13.416  13.510  72.749  1.00  0.00    -0.627 NA 
HETATM   42  H2  UNL     1     -14.382  13.826  72.664  1.00  0.00     0.000 HD 
HETATM   43  H1  UNL     1     -13.344  12.695  73.358  1.00  0.00     0.000 HD 
ENDBRANCH  39  40
ENDBRANCH  38  39
ENDBRANCH  37  38
ENDBRANCH  36  37
ENDBRANCH  33  36
ENDBRANCH  31  32
ENDBRANCH  30  31
ENDBRANCH  28  30
ENDBRANCH  25  26
ENDBRANCH  24  25
ENDBRANCH  23  24
ENDBRANCH  22  23
ENDBRANCH  21  22
ENDBRANCH  19  21
ENDBRANCH  16  17
ENDBRANCH  15  16
ENDBRANCH  12  15
ENDBRANCH  10  11
ENDBRANCH   9  10
ENDBRANCH   8   9
ENDBRANCH   7   8
ENDBRANCH   6   7
ENDBRANCH   3   6
TORSDOF 23
ENDMDL
MODEL      182
REMARK 921   NORMALIZED FREE ENERGY PREDICTED BY IDOCK:   -4.19 KCAL/MOL
REMARK 922        TOTAL FREE ENERGY PREDICTED BY IDOCK:  -12.59 KCAL/MOL
REMARK 923 INTER-LIGAND FREE ENERGY PREDICTED BY IDOCK:  -10.53 KCAL/MOL
REMARK 924 INTRA-LIGAND FREE ENERGY PREDICTED BY IDOCK:   -2.06 KCAL/MOL
REMARK 927      BINDING AFFINITY PREDICTED BY RF-SCORE:    0.00 PKD
ROOT
HETATM    1  C   UNL     1      -9.648   3.794  66.357  1.00  0.00    -0.179 C  
HETATM    2  C   UNL     1      -9.237   4.548  67.594  1.00  0.00    -0.137 C  
HETATM    3  N   UNL     1      -9.356   3.887  68.789  1.00  0.00    -0.156 N  
HETATM    4  O   UNL     1      -8.846   5.712  67.511  1.00  0.00    -0.108 OA 
HETATM    5  O   UNL     1      -9.651   2.519  68.910  1.00  0.00    -0.140 OA 
ENDROOT
BRANCH   3   6
HETATM    6  C   UNL     1      -9.014   4.485  70.073  1.00  0.00    -0.094 C  
BRANCH   6   7
HETATM    7  C   UNL     1     -10.249   4.953  70.845  1.00  0.00    -0.272 C  
BRANCH   7   8
HETATM    8  C   UNL     1     -10.044   4.757  72.349  1.00  0.00    -0.235 C  
BRANCH   8   9
HETATM    9  C   UNL     1      -9.486   6.013  73.022  1.00  0.00    -0.143 C  
BRANCH   9  10
HETATM   10  C   UNL     1     -10.591   6.947  73.515  1.00  0.00    -0.348 C  
BRANCH  10  11
HETATM   11  N   UNL     1     -10.782   8.093  72.638  1.00  0.00    -0.350 N  
HETATM   12  C   UNL     1     -11.863   8.166  71.788  1.00  0.00    -0.300 C  
HETATM   13  H   UNL     1     -10.104   8.854  72.654  1.00  0.00     0.000 HD 
HETATM   14  O   UNL     1     -12.747   7.317  71.729  1.00  0.00    -0.332 OA 
BRANCH  12  15
HETATM   15  C   UNL     1     -11.864   9.414  70.931  1.00  0.00    -0.365 C  
BRANCH  15  16
HETATM   16  C   UNL     1     -12.794  10.469  71.526  1.00  0.00    -0.568 C  
BRANCH  16  17
HETATM   17  C   UNL     1     -12.615  11.829  70.878  1.00  0.00    -0.289 C  
HETATM   18  O   UNL     1     -11.972  11.958  69.839  1.00  0.00    -0.316 OA 
HETATM   19  N   UNL     1     -13.180  12.891  71.536  1.00  0.00    -0.314 N  
HETATM   20  O   UNL     1     -14.005  12.782  72.669  1.00  0.00    -0.503 OA 
BRANCH  19  21
HETATM   21  C   UNL     1     -13.046  14.273  71.099  1.00  0.00    -0.343 C  
BRANCH  21  22
HETATM   22  C   UNL     1     -11.684  14.871  71.462  1.00  0.00    -0.394 C  
BRANCH  22  23
HETATM   23  C   UNL     1     -11.523  16.328  70.988  1.00  0.00    -0.343 C  
BRANCH  23  24
HETATM   24  C   UNL     1     -10.812  16.448  69.639  1.00  0.00    -0.346 C  
BRANCH  24  25
HETATM   25  C   UNL     1     -10.459  17.899  69.319  1.00  0.00     0.117 C  
BRANCH  25  26
HETATM   26  N   UNL     1      -9.815  18.021  68.026  1.00  0.00    -0.307 N  
HETATM   27  H   UNL     1     -10.313  17.707  67.193  1.00  0.00     0.000 HD 
HETATM   28  C   UNL     1      -8.552  18.547  67.892  1.00  0.00    -0.287 C  
HETATM   29  O   UNL     1      -7.889  18.967  68.835  1.00  0.00    -0.329 OA 
BRANCH  28  30
HETATM   30  C   UNL     1      -8.027  18.565  66.479  1.00  0.00    -0.295 C  
BRANCH  30  31
HETATM   31  C   UNL     1      -7.470  17.195  66.125  1.00  0.00    -0.295 C  
BRANCH  31  32
HETATM   32  C   UNL     1      -8.570  16.155  66.092  1.00  0.00    -0.296 C  
HETATM   33  N   UNL     1      -8.409  15.010  66.833  1.00  0.00    -0.230 N  
HETATM   34  O   UNL     1      -9.610  16.395  65.475  1.00  0.00    -0.491 OA 
HETATM   35  O   UNL     1      -7.113  14.569  67.162  1.00  0.00    -0.164 OA 
BRANCH  33  36
HETATM   36  C   UNL     1      -9.381  13.915  66.810  1.00  0.00    -0.275 C  
BRANCH  36  37
HETATM   37  C   UNL     1      -9.286  13.032  68.055  1.00  0.00    -0.212 C  
BRANCH  37  38
HETATM   38  C   UNL     1      -9.198  11.543  67.701  1.00  0.00    -0.171 C  
BRANCH  38  39
HETATM   39  C   UNL     1      -7.756  11.030  67.767  1.00  0.00    -0.108 C  
BRANCH  39  40
HETATM   40  C   UNL     1      -7.132  10.850  66.382  1.00  0.00    -0.133 C  
HETATM   41  N   UNL     1      -5.930  11.661  66.220  1.00  0.00    -0.479 NA 
HETATM   42  H2  UNL     1      -5.254  11.474  66.960  1.00  0.00     0.000 HD 
HETATM   43  H1  UNL     1      -5.514  11.540  65.296  1.00  0.00     0.000 HD 
ENDBRANCH  39  40
ENDBRANCH  38  39
ENDBRANCH  37  38
ENDBRANCH  36  37
ENDBRANCH  33  36
ENDBRANCH  31  32
ENDBRANCH  30  31
ENDBRANCH  28  30
ENDBRANCH  25  26
ENDBRANCH  24  25
ENDBRANCH  23  24
ENDBRANCH  22  23
ENDBRANCH  21  22
ENDBRANCH  19  21
ENDBRANCH  16  17
ENDBRANCH  15  16
ENDBRANCH  12  15
ENDBRANCH  10  11
ENDBRANCH   9  10
ENDBRANCH   8   9
ENDBRANCH   7   8
ENDBRANCH   6   7
ENDBRANCH   3   6
TORSDOF 23
ENDMDL
MODEL      183
REMARK 921   NORMALIZED FREE ENERGY PREDICTED BY IDOCK:   -4.19 KCAL/MOL
REMARK 922        TOTAL FREE ENERGY PREDICTED BY IDOCK:  -12.59 KCAL/MOL
REMARK 923 INTER-LIGAND FREE ENERGY PREDICTED BY IDOCK:  -10.67 KCAL/MOL
REMARK 924 INTRA-LIGAND FREE ENERGY PREDICTED BY IDOCK:   -1.92 KCAL/MOL
REMARK 927      BINDING AFFINITY PREDICTED BY RF-SCORE:    0.00 PKD
ROOT
HETATM    1  C   UNL     1     -12.768  12.806  64.642  1.00  0.00    -0.439 C  
HETATM    2  C   UNL     1     -11.743  12.147  65.527  1.00  0.00    -0.324 C  
HETATM    3  N   UNL     1     -10.587  11.723  64.925  1.00  0.00    -0.282 N  
HETATM    4  O   UNL     1     -11.972  11.980  66.725  1.00  0.00    -0.616 OA 
HETATM    5  O   UNL     1     -10.228  12.029  63.602  1.00  0.00    -0.381 OA 
ENDROOT
BRANCH   3   6
HETATM    6  C   UNL     1      -9.509  11.055  65.641  1.00  0.00    -0.217 C  
BRANCH   6   7
HETATM    7  C   UNL     1      -9.952   9.725  66.254  1.00  0.00    -0.331 C  
BRANCH   7   8
HETATM    8  C   UNL     1      -8.741   8.945  66.768  1.00  0.00    -0.130 C  
BRANCH   8   9
HETATM    9  C   UNL     1      -7.496   9.182  65.911  1.00  0.00    -0.094 C  
BRANCH   9  10
HETATM   10  C   UNL     1      -6.287   9.602  66.748  1.00  0.00    -0.066 C  
BRANCH  10  11
HETATM   11  N   UNL     1      -6.627  10.593  67.757  1.00  0.00    -0.060 N  
HETATM   12  C   UNL     1      -6.031  10.579  68.998  1.00  0.00    -0.040 C  
HETATM   13  H   UNL     1      -7.318  11.311  67.541  1.00  0.00     0.000 HD 
HETATM   14  O   UNL     1      -5.163   9.778  69.332  1.00  0.00    -0.035 OA 
BRANCH  12  15
HETATM   15  C   UNL     1      -6.545  11.666  69.919  1.00  0.00    -0.030 C  
BRANCH  15  16
HETATM   16  C   UNL     1      -6.734  12.972  69.151  1.00  0.00    -0.087 C  
BRANCH  16  17
HETATM   17  C   UNL     1      -6.190  14.170  69.906  1.00  0.00    -0.146 C  
HETATM   18  O   UNL     1      -6.272  14.240  71.131  1.00  0.00    -0.169 OA 
HETATM   19  N   UNL     1      -5.641  15.167  69.142  1.00  0.00    -0.097 N  
HETATM   20  O   UNL     1      -5.436  15.090  67.753  1.00  0.00    -0.225 OA 
BRANCH  19  21
HETATM   21  C   UNL     1      -5.139  16.418  69.691  1.00  0.00    -0.129 C  
BRANCH  21  22
HETATM   22  C   UNL     1      -6.189  17.533  69.660  1.00  0.00    -0.227 C  
BRANCH  22  23
HETATM   23  C   UNL     1      -5.796  18.702  68.738  1.00  0.00    -0.214 C  
BRANCH  23  24
HETATM   24  C   UNL     1      -6.685  19.934  68.911  1.00  0.00    -0.357 C  
BRANCH  24  25
HETATM   25  C   UNL     1      -7.384  20.311  67.606  1.00  0.00    -0.305 C  
BRANCH  25  26
HETATM   26  N   UNL     1      -8.105  19.188  67.043  1.00  0.00    -0.256 N  
HETATM   27  H   UNL     1      -7.581  18.378  66.711  1.00  0.00     0.000 HD 
HETATM   28  C   UNL     1      -9.476  19.183  66.942  1.00  0.00    -0.320 C  
HETATM   29  O   UNL     1     -10.187  20.104  67.334  1.00  0.00    -0.411 OA 
BRANCH  28  30
HETATM   30  C   UNL     1     -10.055  17.948  66.300  1.00  0.00    -0.351 C  
BRANCH  30  31
HETATM   31  C   UNL     1      -9.279  16.724  66.760  1.00  0.00    -0.263 C  
BRANCH  31  32
HETATM   32  C   UNL     1     -10.218  15.636  67.237  1.00  0.00    -0.266 C  
HETATM   33  N   UNL     1     -10.913  15.839  68.405  1.00  0.00    -0.306 N  
HETATM   34  O   UNL     1     -10.399  14.641  66.532  1.00  0.00    -0.272 OA 
HETATM   35  O   UNL     1     -10.403  16.725  69.373  1.00  0.00    -0.302 OA 
BRANCH  33  36
HETATM   36  C   UNL     1     -11.788  14.819  68.986  1.00  0.00    -0.302 C  
BRANCH  36  37
HETATM   37  C   UNL     1     -12.154  15.132  70.438  1.00  0.00    -0.373 C  
BRANCH  37  38
HETATM   38  C   UNL     1     -13.238  14.191  70.976  1.00  0.00    -0.337 C  
BRANCH  38  39
HETATM   39  C   UNL     1     -13.146  14.034  72.497  1.00  0.00    -0.547 C  
BRANCH  39  40
HETATM   40  C   UNL     1     -12.420  15.202  73.166  1.00  0.00    -0.448 C  
HETATM   41  N   UNL     1     -13.355  16.141  73.777  1.00  0.00    -0.916 NA 
HETATM   42  H2  UNL     1     -13.982  15.669  74.429  1.00  0.00     0.000 HD 
HETATM   43  H1  UNL     1     -12.871  16.920  74.224  1.00  0.00     0.000 HD 
ENDBRANCH  39  40
ENDBRANCH  38  39
ENDBRANCH  37  38
ENDBRANCH  36  37
ENDBRANCH  33  36
ENDBRANCH  31  32
ENDBRANCH  30  31
ENDBRANCH  28  30
ENDBRANCH  25  26
ENDBRANCH  24  25
ENDBRANCH  23  24
ENDBRANCH  22  23
ENDBRANCH  21  22
ENDBRANCH  19  21
ENDBRANCH  16  17
ENDBRANCH  15  16
ENDBRANCH  12  15
ENDBRANCH  10  11
ENDBRANCH   9  10
ENDBRANCH   8   9
ENDBRANCH   7   8
ENDBRANCH   6   7
ENDBRANCH   3   6
TORSDOF 23
ENDMDL
MODEL      184
REMARK 921   NORMALIZED FREE ENERGY PREDICTED BY IDOCK:   -4.19 KCAL/MOL
REMARK 922        TOTAL FREE ENERGY PREDICTED BY IDOCK:  -12.59 KCAL/MOL
REMARK 923 INTER-LIGAND FREE ENERGY PREDICTED BY IDOCK:   -9.33 KCAL/MOL
REMARK 924 INTRA-LIGAND FREE ENERGY PREDICTED BY IDOCK:   -3.25 KCAL/MOL
REMARK 927      BINDING AFFINITY PREDICTED BY RF-SCORE:    0.00 PKD
ROOT
HETATM    1  C   UNL     1      -8.656   6.369  65.552  1.00  0.00    -0.115 C  
HETATM    2  C   UNL     1      -9.309   5.243  66.309  1.00  0.00    -0.153 C  
HETATM    3  N   UNL     1      -8.667   4.033  66.294  1.00  0.00    -0.114 N  
HETATM    4  O   UNL     1     -10.387   5.420  66.879  1.00  0.00    -0.209 OA 
HETATM    5  O   UNL     1      -7.371   3.833  65.787  1.00  0.00    -0.070 OA 
ENDROOT
BRANCH   3   6
HETATM    6  C   UNL     1      -9.177   2.845  66.964  1.00  0.00    -0.149 C  
BRANCH   6   7
HETATM    7  C   UNL     1      -8.193   2.287  67.994  1.00  0.00    -0.071 C  
BRANCH   7   8
HETATM    8  C   UNL     1      -8.073   3.238  69.187  1.00  0.00    -0.072 C  
BRANCH   8   9
HETATM    9  C   UNL     1      -9.324   3.217  70.067  1.00  0.00    -0.238 C  
BRANCH   9  10
HETATM   10  C   UNL     1     -10.054   4.561  70.069  1.00  0.00    -0.134 C  
BRANCH  10  11
HETATM   11  N   UNL     1      -9.890   5.281  71.324  1.00  0.00    -0.165 N  
HETATM   12  C   UNL     1      -8.840   6.151  71.514  1.00  0.00    -0.135 C  
HETATM   13  H   UNL     1     -10.565   5.137  72.075  1.00  0.00     0.000 HD 
HETATM   14  O   UNL     1      -8.005   6.414  70.654  1.00  0.00    -0.108 OA 
BRANCH  12  15
HETATM   15  C   UNL     1      -8.822   6.771  72.895  1.00  0.00    -0.136 C  
BRANCH  15  16
HETATM   16  C   UNL     1      -8.989   8.285  72.804  1.00  0.00    -0.323 C  
BRANCH  16  17
HETATM   17  C   UNL     1     -10.084   8.689  71.836  1.00  0.00    -0.328 C  
HETATM   18  O   UNL     1      -9.845   9.409  70.869  1.00  0.00    -0.276 OA 
HETATM   19  N   UNL     1     -11.344   8.232  72.125  1.00  0.00    -0.325 N  
HETATM   20  O   UNL     1     -11.650   7.329  73.158  1.00  0.00    -0.134 OA 
BRANCH  19  21
HETATM   21  C   UNL     1     -12.525   8.581  71.349  1.00  0.00    -0.297 C  
BRANCH  21  22
HETATM   22  C   UNL     1     -13.337   9.708  71.993  1.00  0.00    -0.547 C  
BRANCH  22  23
HETATM   23  C   UNL     1     -12.907  11.107  71.512  1.00  0.00    -0.542 C  
BRANCH  23  24
HETATM   24  C   UNL     1     -12.634  11.173  70.009  1.00  0.00    -0.213 C  
BRANCH  24  25
HETATM   25  C   UNL     1     -11.731  12.352  69.654  1.00  0.00    -0.307 C  
BRANCH  25  26
HETATM   26  N   UNL     1     -10.412  11.912  69.246  1.00  0.00    -0.435 N  
HETATM   27  H   UNL     1     -10.027  11.059  69.651  1.00  0.00     0.000 HD 
HETATM   28  C   UNL     1      -9.665  12.613  68.329  1.00  0.00    -0.216 C  
HETATM   29  O   UNL     1     -10.056  13.637  67.778  1.00  0.00    -0.233 OA 
BRANCH  28  30
HETATM   30  C   UNL     1      -8.304  12.028  68.050  1.00  0.00    -0.162 C  
BRANCH  30  31
HETATM   31  C   UNL     1      -8.436  10.539  67.773  1.00  0.00    -0.114 C  
BRANCH  31  32
HETATM   32  C   UNL     1      -9.163  10.295  66.467  1.00  0.00    -0.153 C  
HETATM   33  N   UNL     1      -8.417  10.116  65.327  1.00  0.00    -0.151 N  
HETATM   34  O   UNL     1     -10.391  10.181  66.471  1.00  0.00    -0.231 OA 
HETATM   35  O   UNL     1      -7.118  10.653  65.253  1.00  0.00    -0.089 OA 
BRANCH  33  36
HETATM   36  C   UNL     1      -9.028   9.947  64.007  1.00  0.00    -0.243 C  
BRANCH  36  37
HETATM   37  C   UNL     1      -9.185  11.277  63.269  1.00  0.00    -0.235 C  
BRANCH  37  38
HETATM   38  C   UNL     1     -10.597  11.854  63.414  1.00  0.00    -0.485 C  
BRANCH  38  39
HETATM   39  C   UNL     1     -10.610  13.101  64.304  1.00  0.00    -0.432 C  
BRANCH  39  40
HETATM   40  C   UNL     1     -11.966  13.335  64.971  1.00  0.00    -0.371 C  
HETATM   41  N   UNL     1     -12.213  12.377  66.044  1.00  0.00    -0.624 NA 
HETATM   42  H2  UNL     1     -11.457  12.382  66.728  1.00  0.00     0.000 HD 
HETATM   43  H1  UNL     1     -13.118  12.533  66.489  1.00  0.00     0.000 HD 
ENDBRANCH  39  40
ENDBRANCH  38  39
ENDBRANCH  37  38
ENDBRANCH  36  37
ENDBRANCH  33  36
ENDBRANCH  31  32
ENDBRANCH  30  31
ENDBRANCH  28  30
ENDBRANCH  25  26
ENDBRANCH  24  25
ENDBRANCH  23  24
ENDBRANCH  22  23
ENDBRANCH  21  22
ENDBRANCH  19  21
ENDBRANCH  16  17
ENDBRANCH  15  16
ENDBRANCH  12  15
ENDBRANCH  10  11
ENDBRANCH   9  10
ENDBRANCH   8   9
ENDBRANCH   7   8
ENDBRANCH   6   7
ENDBRANCH   3   6
TORSDOF 23
ENDMDL
MODEL      185
REMARK 921   NORMALIZED FREE ENERGY PREDICTED BY IDOCK:   -4.16 KCAL/MOL
REMARK 922        TOTAL FREE ENERGY PREDICTED BY IDOCK:  -12.51 KCAL/MOL
REMARK 923 INTER-LIGAND FREE ENERGY PREDICTED BY IDOCK:   -9.38 KCAL/MOL
REMARK 924 INTRA-LIGAND FREE ENERGY PREDICTED BY IDOCK:   -3.13 KCAL/MOL
REMARK 927      BINDING AFFINITY PREDICTED BY RF-SCORE:    0.00 PKD
ROOT
HETATM    1  C   UNL     1     -11.600   9.432  71.336  1.00  0.00    -0.451 C  
HETATM    2  C   UNL     1     -11.034   8.300  72.154  1.00  0.00    -0.326 C  
HETATM    3  N   UNL     1     -11.639   7.078  72.019  1.00  0.00    -0.276 N  
HETATM    4  O   UNL     1     -10.093   8.499  72.922  1.00  0.00    -0.211 OA 
HETATM    5  O   UNL     1     -12.608   6.778  71.048  1.00  0.00    -0.347 OA 
ENDROOT
BRANCH   3   6
HETATM    6  C   UNL     1     -11.219   5.891  72.752  1.00  0.00    -0.276 C  
BRANCH   6   7
HETATM    7  C   UNL     1      -9.771   5.500  72.448  1.00  0.00    -0.177 C  
BRANCH   7   8
HETATM    8  C   UNL     1      -9.727   4.352  71.439  1.00  0.00    -0.248 C  
BRANCH   8   9
HETATM    9  C   UNL     1      -9.278   4.819  70.054  1.00  0.00    -0.178 C  
BRANCH   9  10
HETATM   10  C   UNL     1     -10.450   5.289  69.192  1.00  0.00    -0.157 C  
BRANCH  10  11
HETATM   11  N   UNL     1     -10.314   6.678  68.777  1.00  0.00    -0.180 N  
HETATM   12  C   UNL     1     -10.733   7.094  67.534  1.00  0.00    -0.274 C  
HETATM   13  H   UNL     1      -9.901   7.353  69.419  1.00  0.00     0.000 HD 
HETATM   14  O   UNL     1     -11.276   6.360  66.713  1.00  0.00    -0.327 OA 
BRANCH  12  15
HETATM   15  C   UNL     1     -10.471   8.563  67.276  1.00  0.00    -0.366 C  
BRANCH  15  16
HETATM   16  C   UNL     1      -8.987   8.803  67.012  1.00  0.00    -0.151 C  
BRANCH  16  17
HETATM   17  C   UNL     1      -8.350   9.695  68.061  1.00  0.00    -0.117 C  
HETATM   18  O   UNL     1      -8.562   9.519  69.259  1.00  0.00    -0.132 OA 
HETATM   19  N   UNL     1      -7.561  10.713  67.590  1.00  0.00    -0.092 N  
HETATM   20  O   UNL     1      -7.210  10.893  66.240  1.00  0.00    -0.138 OA 
BRANCH  19  21
HETATM   21  C   UNL     1      -6.932  11.706  68.447  1.00  0.00    -0.079 C  
BRANCH  21  22
HETATM   22  C   UNL     1      -5.791  12.447  67.743  1.00  0.00    -0.110 C  
BRANCH  22  23
HETATM   23  C   UNL     1      -5.890  13.977  67.887  1.00  0.00    -0.129 C  
BRANCH  23  24
HETATM   24  C   UNL     1      -5.859  14.451  69.341  1.00  0.00    -0.098 C  
BRANCH  24  25
HETATM   25  C   UNL     1      -6.669  15.733  69.530  1.00  0.00    -0.187 C  
BRANCH  25  26
HETATM   26  N   UNL     1      -7.428  16.066  68.342  1.00  0.00    -0.138 N  
HETATM   27  H   UNL     1      -7.779  15.313  67.750  1.00  0.00     0.000 HD 
HETATM   28  C   UNL     1      -7.688  17.369  67.990  1.00  0.00    -0.202 C  
HETATM   29  O   UNL     1      -7.323  18.336  68.652  1.00  0.00    -0.275 OA 
BRANCH  28  30
HETATM   30  C   UNL     1      -8.462  17.530  66.706  1.00  0.00    -0.275 C  
BRANCH  30  31
HETATM   31  C   UNL     1      -8.749  16.161  66.110  1.00  0.00    -0.358 C  
BRANCH  31  32
HETATM   32  C   UNL     1     -10.197  15.771  66.324  1.00  0.00    -0.303 C  
HETATM   33  N   UNL     1     -10.676  14.658  65.677  1.00  0.00    -0.313 N  
HETATM   34  O   UNL     1     -10.881  16.407  67.128  1.00  0.00    -0.279 OA 
HETATM   35  O   UNL     1     -10.058  14.221  64.490  1.00  0.00    -0.254 OA 
BRANCH  33  36
HETATM   36  C   UNL     1     -12.078  14.242  65.762  1.00  0.00    -0.405 C  
BRANCH  36  37
HETATM   37  C   UNL     1     -12.272  13.058  66.710  1.00  0.00    -0.261 C  
BRANCH  37  38
HETATM   38  C   UNL     1     -10.937  12.465  67.174  1.00  0.00    -0.304 C  
BRANCH  38  39
HETATM   39  C   UNL     1     -10.719  12.669  68.676  1.00  0.00    -0.269 C  
BRANCH  39  40
HETATM   40  C   UNL     1     -11.183  14.046  69.156  1.00  0.00    -0.269 C  
HETATM   41  N   UNL     1     -10.080  14.826  69.709  1.00  0.00    -0.443 NA 
HETATM   42  H2  UNL     1      -9.310  14.903  69.045  1.00  0.00     0.000 HD 
HETATM   43  H1  UNL     1     -10.389  15.743  70.029  1.00  0.00     0.000 HD 
ENDBRANCH  39  40
ENDBRANCH  38  39
ENDBRANCH  37  38
ENDBRANCH  36  37
ENDBRANCH  33  36
ENDBRANCH  31  32
ENDBRANCH  30  31
ENDBRANCH  28  30
ENDBRANCH  25  26
ENDBRANCH  24  25
ENDBRANCH  23  24
ENDBRANCH  22  23
ENDBRANCH  21  22
ENDBRANCH  19  21
ENDBRANCH  16  17
ENDBRANCH  15  16
ENDBRANCH  12  15
ENDBRANCH  10  11
ENDBRANCH   9  10
ENDBRANCH   8   9
ENDBRANCH   7   8
ENDBRANCH   6   7
ENDBRANCH   3   6
TORSDOF 23
ENDMDL
MODEL      186
REMARK 921   NORMALIZED FREE ENERGY PREDICTED BY IDOCK:   -4.16 KCAL/MOL
REMARK 922        TOTAL FREE ENERGY PREDICTED BY IDOCK:  -12.50 KCAL/MOL
REMARK 923 INTER-LIGAND FREE ENERGY PREDICTED BY IDOCK:   -9.82 KCAL/MOL
REMARK 924 INTRA-LIGAND FREE ENERGY PREDICTED BY IDOCK:   -2.67 KCAL/MOL
REMARK 927      BINDING AFFINITY PREDICTED BY RF-SCORE:    0.00 PKD
ROOT
HETATM    1  C   UNL     1      -8.613   3.580  62.917  1.00  0.00    -0.085 C  
HETATM    2  C   UNL     1      -9.037   3.851  64.337  1.00  0.00    -0.137 C  
HETATM    3  N   UNL     1      -9.095   2.774  65.182  1.00  0.00    -0.142 N  
HETATM    4  O   UNL     1      -9.342   4.992  64.688  1.00  0.00    -0.053 OA 
HETATM    5  O   UNL     1      -8.613   1.493  64.863  1.00  0.00    -0.088 OA 
ENDROOT
BRANCH   3   6
HETATM    6  C   UNL     1      -9.501   2.870  66.577  1.00  0.00     0.036 C  
BRANCH   6   7
HETATM    7  C   UNL     1      -8.309   3.040  67.521  1.00  0.00    -0.092 C  
BRANCH   7   8
HETATM    8  C   UNL     1      -8.257   4.470  68.063  1.00  0.00    -0.094 C  
BRANCH   8   9
HETATM    9  C   UNL     1      -9.628   5.148  68.029  1.00  0.00    -0.172 C  
BRANCH   9  10
HETATM   10  C   UNL     1      -9.588   6.565  68.603  1.00  0.00    -0.125 C  
BRANCH  10  11
HETATM   11  N   UNL     1     -10.647   6.803  69.572  1.00  0.00    -0.218 N  
HETATM   12  C   UNL     1     -10.477   6.493  70.903  1.00  0.00    -0.223 C  
HETATM   13  H   UNL     1     -11.530   7.206  69.260  1.00  0.00     0.000 HD 
HETATM   14  O   UNL     1      -9.436   6.042  71.373  1.00  0.00    -0.156 OA 
BRANCH  12  15
HETATM   15  C   UNL     1     -11.704   6.777  71.743  1.00  0.00    -0.353 C  
BRANCH  15  16
HETATM   16  C   UNL     1     -11.516   8.063  72.545  1.00  0.00    -0.471 C  
BRANCH  16  17
HETATM   17  C   UNL     1     -11.469   9.294  71.661  1.00  0.00    -0.398 C  
HETATM   18  O   UNL     1     -10.416   9.670  71.150  1.00  0.00    -0.307 OA 
HETATM   19  N   UNL     1     -12.652   9.968  71.499  1.00  0.00    -0.391 N  
HETATM   20  O   UNL     1     -13.897   9.524  71.979  1.00  0.00    -0.363 OA 
BRANCH  19  21
HETATM   21  C   UNL     1     -12.777  11.207  70.747  1.00  0.00    -0.297 C  
BRANCH  21  22
HETATM   22  C   UNL     1     -13.134  12.399  71.639  1.00  0.00    -0.408 C  
BRANCH  22  23
HETATM   23  C   UNL     1     -12.727  13.752  71.025  1.00  0.00    -0.416 C  
BRANCH  23  24
HETATM   24  C   UNL     1     -12.382  13.662  69.538  1.00  0.00    -0.232 C  
BRANCH  24  25
HETATM   25  C   UNL     1     -11.313  14.680  69.148  1.00  0.00    -0.281 C  
BRANCH  25  26
HETATM   26  N   UNL     1     -10.298  14.091  68.298  1.00  0.00    -0.240 N  
HETATM   27  H   UNL     1     -10.574  13.395  67.605  1.00  0.00     0.000 HD 
HETATM   28  C   UNL     1      -8.973  14.444  68.399  1.00  0.00    -0.188 C  
HETATM   29  O   UNL     1      -8.554  15.285  69.188  1.00  0.00    -0.204 OA 
BRANCH  28  30
HETATM   30  C   UNL     1      -8.053  13.706  67.460  1.00  0.00    -0.190 C  
BRANCH  30  31
HETATM   31  C   UNL     1      -8.051  12.226  67.808  1.00  0.00    -0.155 C  
BRANCH  31  32
HETATM   32  C   UNL     1      -8.325  11.382  66.581  1.00  0.00    -0.172 C  
HETATM   33  N   UNL     1      -9.616  11.300  66.118  1.00  0.00    -0.206 N  
HETATM   34  O   UNL     1      -7.381  10.859  65.984  1.00  0.00    -0.142 OA 
HETATM   35  O   UNL     1     -10.688  11.522  67.003  1.00  0.00    -0.233 OA 
BRANCH  33  36
HETATM   36  C   UNL     1      -9.993  10.453  64.985  1.00  0.00    -0.330 C  
BRANCH  36  37
HETATM   37  C   UNL     1     -10.495  11.272  63.794  1.00  0.00    -0.459 C  
BRANCH  37  38
HETATM   38  C   UNL     1     -11.933  11.760  63.995  1.00  0.00    -0.380 C  
BRANCH  38  39
HETATM   39  C   UNL     1     -12.086  13.238  63.626  1.00  0.00    -0.551 C  
BRANCH  39  40
HETATM   40  C   UNL     1     -11.907  14.166  64.828  1.00  0.00    -0.417 C  
HETATM   41  N   UNL     1     -10.552  14.704  64.899  1.00  0.00    -0.488 NA 
HETATM   42  H2  UNL     1     -10.290  15.167  64.030  1.00  0.00     0.000 HD 
HETATM   43  H1  UNL     1     -10.432  15.323  65.702  1.00  0.00     0.000 HD 
ENDBRANCH  39  40
ENDBRANCH  38  39
ENDBRANCH  37  38
ENDBRANCH  36  37
ENDBRANCH  33  36
ENDBRANCH  31  32
ENDBRANCH  30  31
ENDBRANCH  28  30
ENDBRANCH  25  26
ENDBRANCH  24  25
ENDBRANCH  23  24
ENDBRANCH  22  23
ENDBRANCH  21  22
ENDBRANCH  19  21
ENDBRANCH  16  17
ENDBRANCH  15  16
ENDBRANCH  12  15
ENDBRANCH  10  11
ENDBRANCH   9  10
ENDBRANCH   8   9
ENDBRANCH   7   8
ENDBRANCH   6   7
ENDBRANCH   3   6
TORSDOF 23
ENDMDL
MODEL      187
REMARK 921   NORMALIZED FREE ENERGY PREDICTED BY IDOCK:   -4.14 KCAL/MOL
REMARK 922        TOTAL FREE ENERGY PREDICTED BY IDOCK:  -12.47 KCAL/MOL
REMARK 923 INTER-LIGAND FREE ENERGY PREDICTED BY IDOCK:  -10.60 KCAL/MOL
REMARK 924 INTRA-LIGAND FREE ENERGY PREDICTED BY IDOCK:   -1.87 KCAL/MOL
REMARK 927      BINDING AFFINITY PREDICTED BY RF-SCORE:    0.00 PKD
ROOT
HETATM    1  C   UNL     1      -8.727   4.824  63.831  1.00  0.00    -0.132 C  
HETATM    2  C   UNL     1      -9.283   4.099  65.029  1.00  0.00    -0.154 C  
HETATM    3  N   UNL     1      -8.480   3.150  65.605  1.00  0.00    -0.104 N  
HETATM    4  O   UNL     1     -10.421   4.345  65.430  1.00  0.00    -0.264 OA 
HETATM    5  O   UNL     1      -7.130   2.950  65.273  1.00  0.00    -0.052 OA 
ENDROOT
BRANCH   3   6
HETATM    6  C   UNL     1      -8.880   2.355  66.758  1.00  0.00    -0.130 C  
BRANCH   6   7
HETATM    7  C   UNL     1      -7.911   2.503  67.933  1.00  0.00    -0.059 C  
BRANCH   7   8
HETATM    8  C   UNL     1      -8.123   3.846  68.635  1.00  0.00    -0.079 C  
BRANCH   8   9
HETATM    9  C   UNL     1      -9.606   4.156  68.848  1.00  0.00    -0.222 C  
BRANCH   9  10
HETATM   10  C   UNL     1      -9.920   5.642  68.668  1.00  0.00    -0.162 C  
BRANCH  10  11
HETATM   11  N   UNL     1     -10.955   6.105  69.581  1.00  0.00    -0.354 N  
HETATM   12  C   UNL     1     -10.676   6.357  70.905  1.00  0.00    -0.250 C  
HETATM   13  H   UNL     1     -11.903   6.246  69.232  1.00  0.00     0.000 HD 
HETATM   14  O   UNL     1      -9.558   6.253  71.401  1.00  0.00    -0.157 OA 
BRANCH  12  15
HETATM   15  C   UNL     1     -11.890   6.793  71.698  1.00  0.00    -0.370 C  
BRANCH  15  16
HETATM   16  C   UNL     1     -11.551   7.994  72.577  1.00  0.00    -0.464 C  
BRANCH  16  17
HETATM   17  C   UNL     1     -11.489   9.288  71.789  1.00  0.00    -0.378 C  
HETATM   18  O   UNL     1     -10.438   9.674  71.281  1.00  0.00    -0.301 OA 
HETATM   19  N   UNL     1     -12.656  10.004  71.709  1.00  0.00    -0.405 N  
HETATM   20  O   UNL     1     -13.901   9.559  72.186  1.00  0.00    -0.390 OA 
BRANCH  19  21
HETATM   21  C   UNL     1     -12.762  11.301  71.057  1.00  0.00    -0.359 C  
BRANCH  21  22
HETATM   22  C   UNL     1     -13.256  12.395  72.008  1.00  0.00    -0.514 C  
BRANCH  22  23
HETATM   23  C   UNL     1     -12.916  13.815  71.517  1.00  0.00    -0.444 C  
BRANCH  23  24
HETATM   24  C   UNL     1     -12.318  13.842  70.110  1.00  0.00    -0.390 C  
BRANCH  24  25
HETATM   25  C   UNL     1     -11.643  15.179  69.813  1.00  0.00    -0.311 C  
BRANCH  25  26
HETATM   26  N   UNL     1     -10.209  15.110  70.010  1.00  0.00    -0.489 N  
HETATM   27  H   UNL     1      -9.847  14.836  70.923  1.00  0.00     0.000 HD 
HETATM   28  C   UNL     1      -9.323  15.404  69.000  1.00  0.00    -0.232 C  
HETATM   29  O   UNL     1      -9.669  15.722  67.867  1.00  0.00    -0.214 OA 
BRANCH  28  30
HETATM   30  C   UNL     1      -7.871  15.312  69.393  1.00  0.00    -0.227 C  
BRANCH  30  31
HETATM   31  C   UNL     1      -6.999  15.771  68.235  1.00  0.00    -0.120 C  
BRANCH  31  32
HETATM   32  C   UNL     1      -6.409  17.138  68.509  1.00  0.00    -0.157 C  
HETATM   33  N   UNL     1      -6.253  18.006  67.456  1.00  0.00    -0.169 N  
HETATM   34  O   UNL     1      -6.163  17.467  69.672  1.00  0.00    -0.249 OA 
HETATM   35  O   UNL     1      -6.129  17.500  66.148  1.00  0.00    -0.206 OA 
BRANCH  33  36
HETATM   36  C   UNL     1      -5.626  19.321  67.608  1.00  0.00    -0.182 C  
BRANCH  36  37
HETATM   37  C   UNL     1      -6.656  20.428  67.843  1.00  0.00    -0.328 C  
BRANCH  37  38
HETATM   38  C   UNL     1      -7.730  20.458  66.751  1.00  0.00    -0.311 C  
BRANCH  38  39
HETATM   39  C   UNL     1      -9.142  20.434  67.346  1.00  0.00    -0.484 C  
BRANCH  39  40
HETATM   40  C   UNL     1     -10.022  19.347  66.727  1.00  0.00    -0.378 C  
HETATM   41  N   UNL     1     -10.647  18.512  67.748  1.00  0.00    -0.406 NA 
HETATM   42  H2  UNL     1     -11.168  19.074  68.421  1.00  0.00     0.000 HD 
HETATM   43  H1  UNL     1     -11.234  17.787  67.335  1.00  0.00     0.000 HD 
ENDBRANCH  39  40
ENDBRANCH  38  39
ENDBRANCH  37  38
ENDBRANCH  36  37
ENDBRANCH  33  36
ENDBRANCH  31  32
ENDBRANCH  30  31
ENDBRANCH  28  30
ENDBRANCH  25  26
ENDBRANCH  24  25
ENDBRANCH  23  24
ENDBRANCH  22  23
ENDBRANCH  21  22
ENDBRANCH  19  21
ENDBRANCH  16  17
ENDBRANCH  15  16
ENDBRANCH  12  15
ENDBRANCH  10  11
ENDBRANCH   9  10
ENDBRANCH   8   9
ENDBRANCH   7   8
ENDBRANCH   6   7
ENDBRANCH   3   6
TORSDOF 23
ENDMDL
MODEL      188
REMARK 921   NORMALIZED FREE ENERGY PREDICTED BY IDOCK:   -4.14 KCAL/MOL
REMARK 922        TOTAL FREE ENERGY PREDICTED BY IDOCK:  -12.46 KCAL/MOL
REMARK 923 INTER-LIGAND FREE ENERGY PREDICTED BY IDOCK:  -10.62 KCAL/MOL
REMARK 924 INTRA-LIGAND FREE ENERGY PREDICTED BY IDOCK:   -1.85 KCAL/MOL
REMARK 927      BINDING AFFINITY PREDICTED BY RF-SCORE:    0.00 PKD
ROOT
HETATM    1  C   UNL     1     -11.788  12.098  63.456  1.00  0.00    -0.597 C  
HETATM    2  C   UNL     1     -10.817  11.959  64.599  1.00  0.00    -0.311 C  
HETATM    3  N   UNL     1      -9.919  10.926  64.526  1.00  0.00    -0.289 N  
HETATM    4  O   UNL     1     -10.871  12.730  65.558  1.00  0.00    -0.268 OA 
HETATM    5  O   UNL     1      -9.728  10.125  63.388  1.00  0.00    -0.271 OA 
ENDROOT
BRANCH   3   6
HETATM    6  C   UNL     1      -8.928  10.651  65.558  1.00  0.00    -0.191 C  
BRANCH   6   7
HETATM    7  C   UNL     1      -7.600  10.162  64.976  1.00  0.00    -0.141 C  
BRANCH   7   8
HETATM    8  C   UNL     1      -7.089   8.950  65.756  1.00  0.00    -0.084 C  
BRANCH   8   9
HETATM    9  C   UNL     1      -6.666   7.807  64.831  1.00  0.00    -0.051 C  
BRANCH   9  10
HETATM   10  C   UNL     1      -7.844   6.921  64.426  1.00  0.00    -0.112 C  
BRANCH  10  11
HETATM   11  N   UNL     1      -8.990   7.083  65.309  1.00  0.00    -0.355 N  
HETATM   12  C   UNL     1      -9.310   6.125  66.244  1.00  0.00    -0.134 C  
HETATM   13  H   UNL     1      -9.566   7.922  65.233  1.00  0.00     0.000 HD 
HETATM   14  O   UNL     1      -8.653   5.105  66.432  1.00  0.00    -0.112 OA 
BRANCH  12  15
HETATM   15  C   UNL     1     -10.555   6.458  67.038  1.00  0.00    -0.396 C  
BRANCH  15  16
HETATM   16  C   UNL     1     -10.489   7.890  67.561  1.00  0.00    -0.332 C  
BRANCH  16  17
HETATM   17  C   UNL     1     -10.710   7.969  69.059  1.00  0.00    -0.088 C  
HETATM   18  O   UNL     1     -11.125   7.001  69.693  1.00  0.00    -0.254 OA 
HETATM   19  N   UNL     1     -10.451   9.182  69.646  1.00  0.00    -0.217 N  
HETATM   20  O   UNL     1      -9.883  10.284  68.984  1.00  0.00    -0.186 OA 
BRANCH  19  21
HETATM   21  C   UNL     1     -10.678   9.459  71.056  1.00  0.00    -0.337 C  
BRANCH  21  22
HETATM   22  C   UNL     1     -12.166   9.534  71.406  1.00  0.00    -0.455 C  
BRANCH  22  23
HETATM   23  C   UNL     1     -12.660  10.977  71.624  1.00  0.00    -0.402 C  
BRANCH  23  24
HETATM   24  C   UNL     1     -12.658  11.816  70.345  1.00  0.00    -0.186 C  
BRANCH  24  25
HETATM   25  C   UNL     1     -12.528  13.307  70.652  1.00  0.00    -0.298 C  
BRANCH  25  26
HETATM   26  N   UNL     1     -11.243  13.830  70.233  1.00  0.00    -0.465 N  
HETATM   27  H   UNL     1     -10.446  13.752  70.865  1.00  0.00     0.000 HD 
HETATM   28  C   UNL     1     -11.069  14.428  69.007  1.00  0.00    -0.261 C  
HETATM   29  O   UNL     1     -11.965  14.546  68.177  1.00  0.00    -0.316 OA 
BRANCH  28  30
HETATM   30  C   UNL     1      -9.675  14.943  68.753  1.00  0.00    -0.225 C  
BRANCH  30  31
HETATM   31  C   UNL     1      -9.751  16.317  68.105  1.00  0.00    -0.227 C  
BRANCH  31  32
HETATM   32  C   UNL     1      -8.654  17.221  68.628  1.00  0.00    -0.265 C  
HETATM   33  N   UNL     1      -8.810  18.580  68.497  1.00  0.00    -0.327 N  
HETATM   34  O   UNL     1      -7.696  16.727  69.225  1.00  0.00    -0.206 OA 
HETATM   35  O   UNL     1      -9.642  19.092  67.483  1.00  0.00    -0.297 OA 
BRANCH  33  36
HETATM   36  C   UNL     1      -7.775  19.533  68.904  1.00  0.00    -0.334 C  
BRANCH  36  37
HETATM   37  C   UNL     1      -6.611  19.578  67.913  1.00  0.00    -0.260 C  
BRANCH  37  38
HETATM   38  C   UNL     1      -6.430  20.971  67.298  1.00  0.00    -0.418 C  
BRANCH  38  39
HETATM   39  C   UNL     1      -5.578  20.921  66.027  1.00  0.00    -0.255 C  
BRANCH  39  40
HETATM   40  C   UNL     1      -6.357  20.402  64.817  1.00  0.00    -0.298 C  
HETATM   41  N   UNL     1      -7.771  20.217  65.123  1.00  0.00    -0.400 NA 
HETATM   42  H2  UNL     1      -8.186  21.072  65.493  1.00  0.00     0.000 HD 
HETATM   43  H1  UNL     1      -8.291  19.871  64.316  1.00  0.00     0.000 HD 
ENDBRANCH  39  40
ENDBRANCH  38  39
ENDBRANCH  37  38
ENDBRANCH  36  37
ENDBRANCH  33  36
ENDBRANCH  31  32
ENDBRANCH  30  31
ENDBRANCH  28  30
ENDBRANCH  25  26
ENDBRANCH  24  25
ENDBRANCH  23  24
ENDBRANCH  22  23
ENDBRANCH  21  22
ENDBRANCH  19  21
ENDBRANCH  16  17
ENDBRANCH  15  16
ENDBRANCH  12  15
ENDBRANCH  10  11
ENDBRANCH   9  10
ENDBRANCH   8   9
ENDBRANCH   7   8
ENDBRANCH   6   7
ENDBRANCH   3   6
TORSDOF 23
ENDMDL
MODEL      189
REMARK 921   NORMALIZED FREE ENERGY PREDICTED BY IDOCK:   -4.13 KCAL/MOL
REMARK 922        TOTAL FREE ENERGY PREDICTED BY IDOCK:  -12.43 KCAL/MOL
REMARK 923 INTER-LIGAND FREE ENERGY PREDICTED BY IDOCK:   -9.99 KCAL/MOL
REMARK 924 INTRA-LIGAND FREE ENERGY PREDICTED BY IDOCK:   -2.44 KCAL/MOL
REMARK 927      BINDING AFFINITY PREDICTED BY RF-SCORE:    0.00 PKD
ROOT
HETATM    1  C   UNL     1     -13.632   9.554  72.084  1.00  0.00    -0.500 C  
HETATM    2  C   UNL     1     -13.412   8.107  71.729  1.00  0.00    -0.350 C  
HETATM    3  N   UNL     1     -12.149   7.609  71.915  1.00  0.00    -0.289 N  
HETATM    4  O   UNL     1     -14.334   7.434  71.264  1.00  0.00    -0.421 OA 
HETATM    5  O   UNL     1     -11.119   8.296  72.579  1.00  0.00    -0.353 OA 
ENDROOT
BRANCH   3   6
HETATM    6  C   UNL     1     -11.775   6.236  71.604  1.00  0.00    -0.284 C  
BRANCH   6   7
HETATM    7  C   UNL     1     -10.629   6.158  70.593  1.00  0.00    -0.307 C  
BRANCH   7   8
HETATM    8  C   UNL     1     -11.167   6.280  69.166  1.00  0.00    -0.439 C  
BRANCH   8   9
HETATM    9  C   UNL     1     -10.405   5.385  68.186  1.00  0.00    -0.210 C  
BRANCH   9  10
HETATM   10  C   UNL     1     -10.778   5.671  66.731  1.00  0.00    -0.284 C  
BRANCH  10  11
HETATM   11  N   UNL     1      -9.609   5.828  65.879  1.00  0.00    -0.348 N  
HETATM   12  C   UNL     1      -8.998   4.738  65.300  1.00  0.00    -0.151 C  
HETATM   13  H   UNL     1      -9.236   6.761  65.707  1.00  0.00     0.000 HD 
HETATM   14  O   UNL     1      -9.400   3.584  65.420  1.00  0.00    -0.149 OA 
BRANCH  12  15
HETATM   15  C   UNL     1      -7.777   5.101  64.482  1.00  0.00    -0.087 C  
BRANCH  15  16
HETATM   16  C   UNL     1      -6.517   5.029  65.341  1.00  0.00    -0.036 C  
BRANCH  16  17
HETATM   17  C   UNL     1      -6.662   5.787  66.646  1.00  0.00    -0.058 C  
HETATM   18  O   UNL     1      -6.948   5.205  67.691  1.00  0.00    -0.062 OA 
HETATM   19  N   UNL     1      -6.489   7.145  66.579  1.00  0.00    -0.050 N  
HETATM   20  O   UNL     1      -6.066   7.841  65.433  1.00  0.00    -0.038 OA 
BRANCH  19  21
HETATM   21  C   UNL     1      -6.663   8.037  67.716  1.00  0.00    -0.068 C  
BRANCH  21  22
HETATM   22  C   UNL     1      -8.133   8.383  67.968  1.00  0.00    -0.123 C  
BRANCH  22  23
HETATM   23  C   UNL     1      -8.388   9.900  68.044  1.00  0.00    -0.113 C  
BRANCH  23  24
HETATM   24  C   UNL     1      -7.352  10.726  67.280  1.00  0.00    -0.097 C  
BRANCH  24  25
HETATM   25  C   UNL     1      -7.695  10.820  65.795  1.00  0.00    -0.094 C  
BRANCH  25  26
HETATM   26  N   UNL     1      -8.911  11.576  65.572  1.00  0.00    -0.398 N  
HETATM   27  H   UNL     1      -9.065  12.433  66.103  1.00  0.00     0.000 HD 
HETATM   28  C   UNL     1      -9.862  11.170  64.667  1.00  0.00    -0.280 C  
HETATM   29  O   UNL     1      -9.751  10.164  63.972  1.00  0.00    -0.306 OA 
BRANCH  28  30
HETATM   30  C   UNL     1     -11.077  12.059  64.592  1.00  0.00    -0.375 C  
BRANCH  30  31
HETATM   31  C   UNL     1     -11.676  12.222  65.979  1.00  0.00    -0.451 C  
BRANCH  31  32
HETATM   32  C   UNL     1     -11.836  13.686  66.331  1.00  0.00    -0.398 C  
HETATM   33  N   UNL     1     -10.830  14.303  67.035  1.00  0.00    -0.293 N  
HETATM   34  O   UNL     1     -12.816  14.305  65.912  1.00  0.00    -0.434 OA 
HETATM   35  O   UNL     1      -9.973  13.533  67.844  1.00  0.00    -0.231 OA 
BRANCH  33  36
HETATM   36  C   UNL     1     -10.924  15.693  67.484  1.00  0.00    -0.309 C  
BRANCH  36  37
HETATM   37  C   UNL     1      -9.764  16.082  68.404  1.00  0.00    -0.213 C  
BRANCH  37  38
HETATM   38  C   UNL     1      -9.362  17.551  68.237  1.00  0.00    -0.281 C  
BRANCH  38  39
HETATM   39  C   UNL     1      -9.043  17.887  66.777  1.00  0.00    -0.276 C  
BRANCH  39  40
HETATM   40  C   UNL     1      -9.787  19.128  66.283  1.00  0.00    -0.383 C  
HETATM   41  N   UNL     1     -10.971  19.406  67.089  1.00  0.00    -0.449 NA 
HETATM   42  H2  UNL     1     -10.737  19.482  68.079  1.00  0.00     0.000 HD 
HETATM   43  H1  UNL     1     -11.468  20.234  66.760  1.00  0.00     0.000 HD 
ENDBRANCH  39  40
ENDBRANCH  38  39
ENDBRANCH  37  38
ENDBRANCH  36  37
ENDBRANCH  33  36
ENDBRANCH  31  32
ENDBRANCH  30  31
ENDBRANCH  28  30
ENDBRANCH  25  26
ENDBRANCH  24  25
ENDBRANCH  23  24
ENDBRANCH  22  23
ENDBRANCH  21  22
ENDBRANCH  19  21
ENDBRANCH  16  17
ENDBRANCH  15  16
ENDBRANCH  12  15
ENDBRANCH  10  11
ENDBRANCH   9  10
ENDBRANCH   8   9
ENDBRANCH   7   8
ENDBRANCH   6   7
ENDBRANCH   3   6
TORSDOF 23
ENDMDL
MODEL      190
REMARK 921   NORMALIZED FREE ENERGY PREDICTED BY IDOCK:   -4.11 KCAL/MOL
REMARK 922        TOTAL FREE ENERGY PREDICTED BY IDOCK:  -12.39 KCAL/MOL
REMARK 923 INTER-LIGAND FREE ENERGY PREDICTED BY IDOCK:  -10.12 KCAL/MOL
REMARK 924 INTRA-LIGAND FREE ENERGY PREDICTED BY IDOCK:   -2.28 KCAL/MOL
REMARK 927      BINDING AFFINITY PREDICTED BY RF-SCORE:    0.00 PKD
ROOT
HETATM    1  C   UNL     1     -12.174   8.777  71.316  1.00  0.00    -0.332 C  
HETATM    2  C   UNL     1     -11.848  10.189  70.904  1.00  0.00    -0.374 C  
HETATM    3  N   UNL     1     -12.705  11.171  71.329  1.00  0.00    -0.422 N  
HETATM    4  O   UNL     1     -10.870  10.418  70.192  1.00  0.00    -0.283 OA 
HETATM    5  O   UNL     1     -13.737  10.969  72.260  1.00  0.00    -0.133 OA 
ENDROOT
BRANCH   3   6
HETATM    6  C   UNL     1     -12.535  12.580  71.002  1.00  0.00    -0.258 C  
BRANCH   6   7
HETATM    7  C   UNL     1     -13.561  13.470  71.706  1.00  0.00    -0.431 C  
BRANCH   7   8
HETATM    8  C   UNL     1     -12.911  14.215  72.873  1.00  0.00    -0.433 C  
BRANCH   8   9
HETATM    9  C   UNL     1     -11.659  14.980  72.441  1.00  0.00    -0.369 C  
BRANCH   9  10
HETATM   10  C   UNL     1     -11.996  16.322  71.788  1.00  0.00    -0.406 C  
BRANCH  10  11
HETATM   11  N   UNL     1     -11.128  16.624  70.659  1.00  0.00    -0.354 N  
HETATM   12  C   UNL     1     -11.478  16.267  69.377  1.00  0.00    -0.238 C  
HETATM   13  H   UNL     1     -10.246  17.110  70.822  1.00  0.00     0.000 HD 
HETATM   14  O   UNL     1     -12.536  15.716  69.083  1.00  0.00    -0.126 OA 
BRANCH  12  15
HETATM   15  C   UNL     1     -10.430  16.633  68.348  1.00  0.00    -0.323 C  
BRANCH  15  16
HETATM   16  C   UNL     1      -9.487  15.458  68.103  1.00  0.00    -0.202 C  
BRANCH  16  17
HETATM   17  C   UNL     1     -10.233  14.176  67.782  1.00  0.00    -0.242 C  
HETATM   18  O   UNL     1     -10.230  13.226  68.562  1.00  0.00    -0.239 OA 
HETATM   19  N   UNL     1     -10.872  14.137  66.569  1.00  0.00    -0.295 N  
HETATM   20  O   UNL     1     -10.988  15.228  65.690  1.00  0.00    -0.334 OA 
BRANCH  19  21
HETATM   21  C   UNL     1     -11.573  12.964  66.066  1.00  0.00    -0.375 C  
BRANCH  21  22
HETATM   22  C   UNL     1     -12.276  13.231  64.733  1.00  0.00    -0.466 C  
BRANCH  22  23
HETATM   23  C   UNL     1     -11.694  12.404  63.571  1.00  0.00    -0.592 C  
BRANCH  23  24
HETATM   24  C   UNL     1     -10.208  12.086  63.741  1.00  0.00    -0.447 C  
BRANCH  24  25
HETATM   25  C   UNL     1      -9.837  10.764  63.071  1.00  0.00    -0.303 C  
BRANCH  25  26
HETATM   26  N   UNL     1      -8.848  10.034  63.840  1.00  0.00    -0.208 N  
HETATM   27  H   UNL     1      -7.924   9.878  63.437  1.00  0.00     0.000 HD 
HETATM   28  C   UNL     1      -9.121   9.547  65.096  1.00  0.00    -0.228 C  
HETATM   29  O   UNL     1     -10.197   9.705  65.665  1.00  0.00    -0.253 OA 
BRANCH  28  30
HETATM   30  C   UNL     1      -7.988   8.784  65.733  1.00  0.00    -0.105 C  
BRANCH  30  31
HETATM   31  C   UNL     1      -8.495   7.439  66.229  1.00  0.00    -0.138 C  
BRANCH  31  32
HETATM   32  C   UNL     1      -7.883   7.092  67.570  1.00  0.00    -0.112 C  
HETATM   33  N   UNL     1      -8.723   6.877  68.635  1.00  0.00    -0.123 N  
HETATM   34  O   UNL     1      -6.664   6.931  67.654  1.00  0.00    -0.062 OA 
HETATM   35  O   UNL     1     -10.005   7.459  68.641  1.00  0.00    -0.160 OA 
BRANCH  33  36
HETATM   36  C   UNL     1      -8.226   6.608  69.987  1.00  0.00    -0.130 C  
BRANCH  36  37
HETATM   37  C   UNL     1      -9.031   7.349  71.056  1.00  0.00    -0.151 C  
BRANCH  37  38
HETATM   38  C   UNL     1      -8.297   8.589  71.576  1.00  0.00    -0.210 C  
BRANCH  38  39
HETATM   39  C   UNL     1      -6.972   8.812  70.839  1.00  0.00    -0.072 C  
BRANCH  39  40
HETATM   40  C   UNL     1      -6.856  10.218  70.250  1.00  0.00    -0.141 C  
HETATM   41  N   UNL     1      -6.195  10.206  68.949  1.00  0.00    -0.043 NA 
HETATM   42  H2  UNL     1      -6.659   9.569  68.302  1.00  0.00     0.000 HD 
HETATM   43  H1  UNL     1      -6.118  11.145  68.555  1.00  0.00     0.000 HD 
ENDBRANCH  39  40
ENDBRANCH  38  39
ENDBRANCH  37  38
ENDBRANCH  36  37
ENDBRANCH  33  36
ENDBRANCH  31  32
ENDBRANCH  30  31
ENDBRANCH  28  30
ENDBRANCH  25  26
ENDBRANCH  24  25
ENDBRANCH  23  24
ENDBRANCH  22  23
ENDBRANCH  21  22
ENDBRANCH  19  21
ENDBRANCH  16  17
ENDBRANCH  15  16
ENDBRANCH  12  15
ENDBRANCH  10  11
ENDBRANCH   9  10
ENDBRANCH   8   9
ENDBRANCH   7   8
ENDBRANCH   6   7
ENDBRANCH   3   6
TORSDOF 23
ENDMDL
MODEL      191
REMARK 921   NORMALIZED FREE ENERGY PREDICTED BY IDOCK:   -4.09 KCAL/MOL
REMARK 922        TOTAL FREE ENERGY PREDICTED BY IDOCK:  -12.35 KCAL/MOL
REMARK 923 INTER-LIGAND FREE ENERGY PREDICTED BY IDOCK:   -9.85 KCAL/MOL
REMARK 924 INTRA-LIGAND FREE ENERGY PREDICTED BY IDOCK:   -2.49 KCAL/MOL
REMARK 927      BINDING AFFINITY PREDICTED BY RF-SCORE:    0.00 PKD
ROOT
HETATM    1  C   UNL     1     -10.393   8.925  67.423  1.00  0.00    -0.337 C  
HETATM    2  C   UNL     1      -9.080   8.191  67.503  1.00  0.00    -0.137 C  
HETATM    3  N   UNL     1      -8.487   7.853  66.314  1.00  0.00    -0.128 N  
HETATM    4  O   UNL     1      -8.600   7.892  68.597  1.00  0.00    -0.128 OA 
HETATM    5  O   UNL     1      -8.923   8.305  65.057  1.00  0.00    -0.010 OA 
ENDROOT
BRANCH   3   6
HETATM    6  C   UNL     1      -7.226   7.129  66.224  1.00  0.00    -0.075 C  
BRANCH   6   7
HETATM    7  C   UNL     1      -7.400   5.724  65.644  1.00  0.00    -0.076 C  
BRANCH   7   8
HETATM    8  C   UNL     1      -8.477   4.958  66.415  1.00  0.00    -0.111 C  
BRANCH   8   9
HETATM    9  C   UNL     1      -7.880   3.876  67.316  1.00  0.00    -0.087 C  
BRANCH   9  10
HETATM   10  C   UNL     1      -8.346   4.008  68.767  1.00  0.00    -0.078 C  
BRANCH  10  11
HETATM   11  N   UNL     1      -9.531   4.843  68.896  1.00  0.00    -0.133 N  
HETATM   12  C   UNL     1      -9.991   5.240  70.132  1.00  0.00    -0.243 C  
HETATM   13  H   UNL     1     -10.028   5.140  68.057  1.00  0.00     0.000 HD 
HETATM   14  O   UNL     1      -9.434   4.964  71.191  1.00  0.00    -0.143 OA 
BRANCH  12  15
HETATM   15  C   UNL     1     -11.255   6.070  70.060  1.00  0.00    -0.425 C  
BRANCH  15  16
HETATM   16  C   UNL     1     -11.953   6.099  71.417  1.00  0.00    -0.086 C  
BRANCH  16  17
HETATM   17  C   UNL     1     -12.856   7.307  71.577  1.00  0.00    -0.388 C  
HETATM   18  O   UNL     1     -14.042   7.261  71.258  1.00  0.00    -0.384 OA 
HETATM   19  N   UNL     1     -12.263   8.445  72.061  1.00  0.00    -0.339 N  
HETATM   20  O   UNL     1     -10.940   8.519  72.531  1.00  0.00    -0.353 OA 
BRANCH  19  21
HETATM   21  C   UNL     1     -12.959   9.715  72.210  1.00  0.00    -0.356 C  
BRANCH  21  22
HETATM   22  C   UNL     1     -13.143  10.440  70.874  1.00  0.00    -0.412 C  
BRANCH  22  23
HETATM   23  C   UNL     1     -11.859  11.141  70.389  1.00  0.00    -0.462 C  
BRANCH  23  24
HETATM   24  C   UNL     1     -12.029  11.852  69.046  1.00  0.00    -0.321 C  
BRANCH  24  25
HETATM   25  C   UNL     1     -10.781  12.648  68.671  1.00  0.00    -0.242 C  
BRANCH  25  26
HETATM   26  N   UNL     1     -11.096  14.032  68.379  1.00  0.00    -0.243 N  
HETATM   27  H   UNL     1     -11.277  14.305  67.412  1.00  0.00     0.000 HD 
HETATM   28  C   UNL     1     -11.158  14.987  69.366  1.00  0.00    -0.278 C  
HETATM   29  O   UNL     1     -10.974  14.744  70.555  1.00  0.00    -0.154 OA 
BRANCH  28  30
HETATM   30  C   UNL     1     -11.465  16.378  68.875  1.00  0.00    -0.216 C  
BRANCH  30  31
HETATM   31  C   UNL     1     -10.670  16.660  67.610  1.00  0.00    -0.306 C  
BRANCH  31  32
HETATM   32  C   UNL     1      -9.196  16.817  67.922  1.00  0.00    -0.225 C  
HETATM   33  N   UNL     1      -8.767  18.000  68.473  1.00  0.00    -0.302 N  
HETATM   34  O   UNL     1      -8.437  15.861  67.751  1.00  0.00    -0.155 OA 
HETATM   35  O   UNL     1      -9.514  19.175  68.268  1.00  0.00    -0.317 OA 
BRANCH  33  36
HETATM   36  C   UNL     1      -7.355  18.275  68.743  1.00  0.00    -0.284 C  
BRANCH  36  37
HETATM   37  C   UNL     1      -7.132  19.700  69.255  1.00  0.00    -0.366 C  
BRANCH  37  38
HETATM   38  C   UNL     1      -5.918  20.365  68.598  1.00  0.00    -0.348 C  
BRANCH  38  39
HETATM   39  C   UNL     1      -6.328  21.256  67.422  1.00  0.00    -0.426 C  
BRANCH  39  40
HETATM   40  C   UNL     1      -6.711  20.450  66.179  1.00  0.00    -0.242 C  
HETATM   41  N   UNL     1      -8.158  20.396  65.994  1.00  0.00    -0.541 NA 
HETATM   42  H2  UNL     1      -8.564  21.331  65.970  1.00  0.00     0.000 HD 
HETATM   43  H1  UNL     1      -8.413  19.859  65.165  1.00  0.00     0.000 HD 
ENDBRANCH  39  40
ENDBRANCH  38  39
ENDBRANCH  37  38
ENDBRANCH  36  37
ENDBRANCH  33  36
ENDBRANCH  31  32
ENDBRANCH  30  31
ENDBRANCH  28  30
ENDBRANCH  25  26
ENDBRANCH  24  25
ENDBRANCH  23  24
ENDBRANCH  22  23
ENDBRANCH  21  22
ENDBRANCH  19  21
ENDBRANCH  16  17
ENDBRANCH  15  16
ENDBRANCH  12  15
ENDBRANCH  10  11
ENDBRANCH   9  10
ENDBRANCH   8   9
ENDBRANCH   7   8
ENDBRANCH   6   7
ENDBRANCH   3   6
TORSDOF 23
ENDMDL
MODEL      192
REMARK 921   NORMALIZED FREE ENERGY PREDICTED BY IDOCK:   -4.09 KCAL/MOL
REMARK 922        TOTAL FREE ENERGY PREDICTED BY IDOCK:  -12.34 KCAL/MOL
REMARK 923 INTER-LIGAND FREE ENERGY PREDICTED BY IDOCK:   -9.18 KCAL/MOL
REMARK 924 INTRA-LIGAND FREE ENERGY PREDICTED BY IDOCK:   -3.16 KCAL/MOL
REMARK 927      BINDING AFFINITY PREDICTED BY RF-SCORE:    0.00 PKD
ROOT
HETATM    1  C   UNL     1     -11.541  11.997  64.198  1.00  0.00    -0.460 C  
HETATM    2  C   UNL     1     -10.253  12.040  64.977  1.00  0.00    -0.276 C  
HETATM    3  N   UNL     1      -9.389  10.990  64.803  1.00  0.00    -0.215 N  
HETATM    4  O   UNL     1     -10.026  12.969  65.753  1.00  0.00    -0.279 OA 
HETATM    5  O   UNL     1      -9.542   9.996  63.822  1.00  0.00    -0.280 OA 
ENDROOT
BRANCH   3   6
HETATM    6  C   UNL     1      -8.113  10.878  65.497  1.00  0.00    -0.025 C  
BRANCH   6   7
HETATM    7  C   UNL     1      -7.122   9.981  64.752  1.00  0.00    -0.137 C  
BRANCH   7   8
HETATM    8  C   UNL     1      -6.618   8.865  65.669  1.00  0.00    -0.064 C  
BRANCH   8   9
HETATM    9  C   UNL     1      -6.429   7.545  64.918  1.00  0.00    -0.037 C  
BRANCH   9  10
HETATM   10  C   UNL     1      -7.755   6.827  64.664  1.00  0.00    -0.112 C  
BRANCH  10  11
HETATM   11  N   UNL     1      -8.834   7.343  65.494  1.00  0.00    -0.364 N  
HETATM   12  C   UNL     1      -9.515   6.523  66.365  1.00  0.00    -0.126 C  
HETATM   13  H   UNL     1      -9.089   8.328  65.428  1.00  0.00     0.000 HD 
HETATM   14  O   UNL     1      -9.251   5.337  66.539  1.00  0.00    -0.130 OA 
BRANCH  12  15
HETATM   15  C   UNL     1     -10.625   7.235  67.109  1.00  0.00    -0.416 C  
BRANCH  15  16
HETATM   16  C   UNL     1     -10.457   8.748  67.001  1.00  0.00    -0.338 C  
BRANCH  16  17
HETATM   17  C   UNL     1     -10.238   9.404  68.351  1.00  0.00    -0.197 C  
HETATM   18  O   UNL     1      -9.385   8.984  69.131  1.00  0.00    -0.146 OA 
HETATM   19  N   UNL     1     -11.062  10.458  68.652  1.00  0.00    -0.258 N  
HETATM   20  O   UNL     1     -11.980  11.035  67.758  1.00  0.00    -0.609 OA 
BRANCH  19  21
HETATM   21  C   UNL     1     -11.042  11.156  69.929  1.00  0.00    -0.162 C  
BRANCH  21  22
HETATM   22  C   UNL     1     -11.588  10.298  71.073  1.00  0.00    -0.430 C  
BRANCH  22  23
HETATM   23  C   UNL     1     -13.112  10.090  70.994  1.00  0.00    -0.435 C  
BRANCH  23  24
HETATM   24  C   UNL     1     -13.645   9.119  72.049  1.00  0.00    -0.520 C  
BRANCH  24  25
HETATM   25  C   UNL     1     -13.972   7.756  71.442  1.00  0.00    -0.322 C  
BRANCH  25  26
HETATM   26  N   UNL     1     -12.839   7.202  70.729  1.00  0.00    -0.591 N  
HETATM   27  H   UNL     1     -12.763   7.357  69.723  1.00  0.00     0.000 HD 
HETATM   28  C   UNL     1     -11.864   6.475  71.369  1.00  0.00    -0.329 C  
HETATM   29  O   UNL     1     -11.864   6.257  72.576  1.00  0.00    -0.253 OA 
BRANCH  28  30
HETATM   30  C   UNL     1     -10.779   5.948  70.465  1.00  0.00    -0.363 C  
BRANCH  30  31
HETATM   31  C   UNL     1      -9.432   6.076  71.158  1.00  0.00    -0.182 C  
BRANCH  31  32
HETATM   32  C   UNL     1      -8.836   4.713  71.440  1.00  0.00    -0.123 C  
HETATM   33  N   UNL     1      -7.765   4.299  70.686  1.00  0.00    -0.052 N  
HETATM   34  O   UNL     1      -9.270   4.048  72.383  1.00  0.00    -0.112 OA 
HETATM   35  O   UNL     1      -7.568   4.837  69.400  1.00  0.00    -0.055 OA 
BRANCH  33  36
HETATM   36  C   UNL     1      -7.167   2.970  70.834  1.00  0.00    -0.033 C  
BRANCH  36  37
HETATM   37  C   UNL     1      -8.074   1.865  70.288  1.00  0.00    -0.055 C  
BRANCH  37  38
HETATM   38  C   UNL     1      -7.860   1.631  68.789  1.00  0.00    -0.050 C  
BRANCH  38  39
HETATM   39  C   UNL     1      -9.075   2.072  67.969  1.00  0.00    -0.210 C  
BRANCH  39  40
HETATM   40  C   UNL     1      -9.003   1.608  66.513  1.00  0.00    -0.089 C  
HETATM   41  N   UNL     1      -9.665   2.546  65.612  1.00  0.00    -0.343 NA 
HETATM   42  H2  UNL     1      -9.294   3.490  65.721  1.00  0.00     0.000 HD 
HETATM   43  H1  UNL     1      -9.617   2.236  64.642  1.00  0.00     0.000 HD 
ENDBRANCH  39  40
ENDBRANCH  38  39
ENDBRANCH  37  38
ENDBRANCH  36  37
ENDBRANCH  33  36
ENDBRANCH  31  32
ENDBRANCH  30  31
ENDBRANCH  28  30
ENDBRANCH  25  26
ENDBRANCH  24  25
ENDBRANCH  23  24
ENDBRANCH  22  23
ENDBRANCH  21  22
ENDBRANCH  19  21
ENDBRANCH  16  17
ENDBRANCH  15  16
ENDBRANCH  12  15
ENDBRANCH  10  11
ENDBRANCH   9  10
ENDBRANCH   8   9
ENDBRANCH   7   8
ENDBRANCH   6   7
ENDBRANCH   3   6
TORSDOF 23
ENDMDL
MODEL      193
REMARK 921   NORMALIZED FREE ENERGY PREDICTED BY IDOCK:   -4.08 KCAL/MOL
REMARK 922        TOTAL FREE ENERGY PREDICTED BY IDOCK:  -12.33 KCAL/MOL
REMARK 923 INTER-LIGAND FREE ENERGY PREDICTED BY IDOCK:  -10.47 KCAL/MOL
REMARK 924 INTRA-LIGAND FREE ENERGY PREDICTED BY IDOCK:   -1.86 KCAL/MOL
REMARK 927      BINDING AFFINITY PREDICTED BY RF-SCORE:    0.00 PKD
ROOT
HETATM    1  C   UNL     1      -8.836  19.907  66.757  1.00  0.00    -0.422 C  
HETATM    2  C   UNL     1      -9.893  18.834  66.757  1.00  0.00    -0.343 C  
HETATM    3  N   UNL     1      -9.586  17.662  66.116  1.00  0.00    -0.235 N  
HETATM    4  O   UNL     1     -10.986  19.039  67.286  1.00  0.00    -0.459 OA 
HETATM    5  O   UNL     1      -8.307  17.337  65.635  1.00  0.00    -0.475 OA 
ENDROOT
BRANCH   3   6
HETATM    6  C   UNL     1     -10.507  16.538  66.015  1.00  0.00    -0.310 C  
BRANCH   6   7
HETATM    7  C   UNL     1     -11.083  16.381  64.607  1.00  0.00    -0.202 C  
BRANCH   7   8
HETATM    8  C   UNL     1     -12.371  15.556  64.646  1.00  0.00     0.107 C  
BRANCH   8   9
HETATM    9  C   UNL     1     -12.335  14.484  65.736  1.00  0.00    -0.249 C  
BRANCH   9  10
HETATM   10  C   UNL     1     -12.738  13.106  65.208  1.00  0.00    -0.394 C  
BRANCH  10  11
HETATM   11  N   UNL     1     -11.659  12.136  65.308  1.00  0.00    -0.342 N  
HETATM   12  C   UNL     1     -11.400  11.477  66.490  1.00  0.00    -0.193 C  
HETATM   13  H   UNL     1     -11.084  11.940  64.489  1.00  0.00     0.000 HD 
HETATM   14  O   UNL     1     -12.064  11.620  67.513  1.00  0.00    -0.611 OA 
BRANCH  12  15
HETATM   15  C   UNL     1     -10.216  10.538  66.403  1.00  0.00    -0.296 C  
BRANCH  15  16
HETATM   16  C   UNL     1      -8.927  11.323  66.175  1.00  0.00    -0.210 C  
BRANCH  16  17
HETATM   17  C   UNL     1      -8.985  12.716  66.772  1.00  0.00    -0.197 C  
HETATM   18  O   UNL     1      -9.126  13.708  66.059  1.00  0.00     0.010 OA 
HETATM   19  N   UNL     1      -8.839  12.797  68.133  1.00  0.00    -0.192 N  
HETATM   20  O   UNL     1      -8.775  11.690  68.997  1.00  0.00     0.018 OA 
BRANCH  19  21
HETATM   21  C   UNL     1      -8.796  14.054  68.865  1.00  0.00     0.062 C  
BRANCH  21  22
HETATM   22  C   UNL     1     -10.163  14.741  68.929  1.00  0.00    -0.237 C  
BRANCH  22  23
HETATM   23  C   UNL     1     -10.439  15.402  70.293  1.00  0.00    -0.264 C  
BRANCH  23  24
HETATM   24  C   UNL     1     -11.598  14.756  71.054  1.00  0.00    -0.313 C  
BRANCH  24  25
HETATM   25  C   UNL     1     -12.405  13.820  70.157  1.00  0.00    -0.323 C  
BRANCH  25  26
HETATM   26  N   UNL     1     -12.245  12.434  70.549  1.00  0.00    -0.391 N  
HETATM   27  H   UNL     1     -11.543  11.864  70.078  1.00  0.00     0.000 HD 
HETATM   28  C   UNL     1     -13.013  11.866  71.537  1.00  0.00    -0.323 C  
HETATM   29  O   UNL     1     -13.867  12.481  72.170  1.00  0.00    -0.343 OA 
BRANCH  28  30
HETATM   30  C   UNL     1     -12.734  10.406  71.789  1.00  0.00    -0.525 C  
BRANCH  30  31
HETATM   31  C   UNL     1     -11.789   9.877  70.722  1.00  0.00    -0.415 C  
BRANCH  31  32
HETATM   32  C   UNL     1     -10.912   8.773  71.275  1.00  0.00    -0.275 C  
HETATM   33  N   UNL     1     -11.313   7.471  71.101  1.00  0.00    -0.262 N  
HETATM   34  O   UNL     1      -9.831   9.062  71.791  1.00  0.00    -0.310 OA 
HETATM   35  O   UNL     1     -12.678   7.181  70.915  1.00  0.00    -0.314 OA 
BRANCH  33  36
HETATM   36  C   UNL     1     -10.573   6.339  71.662  1.00  0.00    -0.227 C  
BRANCH  36  37
HETATM   37  C   UNL     1     -11.255   5.760  72.903  1.00  0.00    -0.319 C  
BRANCH  37  38
HETATM   38  C   UNL     1     -10.344   4.792  73.664  1.00  0.00    -0.254 C  
BRANCH  38  39
HETATM   39  C   UNL     1     -11.005   3.424  73.854  1.00  0.00    -0.275 C  
BRANCH  39  40
HETATM   40  C   UNL     1     -10.047   2.264  73.578  1.00  0.00    -0.102 C  
HETATM   41  N   UNL     1      -8.652   2.685  73.655  1.00  0.00    -0.071 NA 
HETATM   42  H2  UNL     1      -8.448   3.130  74.550  1.00  0.00     0.000 HD 
HETATM   43  H1  UNL     1      -8.013   1.911  73.471  1.00  0.00     0.000 HD 
ENDBRANCH  39  40
ENDBRANCH  38  39
ENDBRANCH  37  38
ENDBRANCH  36  37
ENDBRANCH  33  36
ENDBRANCH  31  32
ENDBRANCH  30  31
ENDBRANCH  28  30
ENDBRANCH  25  26
ENDBRANCH  24  25
ENDBRANCH  23  24
ENDBRANCH  22  23
ENDBRANCH  21  22
ENDBRANCH  19  21
ENDBRANCH  16  17
ENDBRANCH  15  16
ENDBRANCH  12  15
ENDBRANCH  10  11
ENDBRANCH   9  10
ENDBRANCH   8   9
ENDBRANCH   7   8
ENDBRANCH   6   7
ENDBRANCH   3   6
TORSDOF 23
ENDMDL
MODEL      194
REMARK 921   NORMALIZED FREE ENERGY PREDICTED BY IDOCK:   -4.08 KCAL/MOL
REMARK 922        TOTAL FREE ENERGY PREDICTED BY IDOCK:  -12.32 KCAL/MOL
REMARK 923 INTER-LIGAND FREE ENERGY PREDICTED BY IDOCK:  -10.37 KCAL/MOL
REMARK 924 INTRA-LIGAND FREE ENERGY PREDICTED BY IDOCK:   -1.95 KCAL/MOL
REMARK 927      BINDING AFFINITY PREDICTED BY RF-SCORE:    0.00 PKD
ROOT
HETATM    1  C   UNL     1     -11.309   5.171  72.769  1.00  0.00    -0.311 C  
HETATM    2  C   UNL     1     -11.140   6.436  71.969  1.00  0.00    -0.265 C  
HETATM    3  N   UNL     1     -10.443   7.456  72.562  1.00  0.00    -0.219 N  
HETATM    4  O   UNL     1     -11.642   6.534  70.848  1.00  0.00    -0.327 OA 
HETATM    5  O   UNL     1      -9.731   7.329  73.767  1.00  0.00    -0.254 OA 
ENDROOT
BRANCH   3   6
HETATM    6  C   UNL     1     -10.208   8.744  71.925  1.00  0.00    -0.345 C  
BRANCH   6   7
HETATM    7  C   UNL     1      -8.817   8.838  71.294  1.00  0.00    -0.288 C  
BRANCH   7   8
HETATM    8  C   UNL     1      -8.818   8.204  69.902  1.00  0.00    -0.139 C  
BRANCH   8   9
HETATM    9  C   UNL     1      -7.418   7.763  69.470  1.00  0.00    -0.094 C  
BRANCH   9  10
HETATM   10  C   UNL     1      -7.172   6.276  69.729  1.00  0.00    -0.074 C  
BRANCH  10  11
HETATM   11  N   UNL     1      -7.603   5.440  68.619  1.00  0.00    -0.082 N  
HETATM   12  C   UNL     1      -8.687   4.599  68.739  1.00  0.00    -0.093 C  
HETATM   13  H   UNL     1      -7.092   5.477  67.737  1.00  0.00     0.000 HD 
HETATM   14  O   UNL     1      -9.382   4.519  69.748  1.00  0.00    -0.122 OA 
BRANCH  12  15
HETATM   15  C   UNL     1      -8.952   3.785  67.491  1.00  0.00    -0.157 C  
BRANCH  15  16
HETATM   16  C   UNL     1      -9.945   4.507  66.583  1.00  0.00    -0.253 C  
BRANCH  16  17
HETATM   17  C   UNL     1      -9.328   5.705  65.888  1.00  0.00    -0.103 C  
HETATM   18  O   UNL     1      -8.504   5.562  64.987  1.00  0.00    -0.145 OA 
HETATM   19  N   UNL     1      -9.719   6.937  66.344  1.00  0.00    -0.116 N  
HETATM   20  O   UNL     1     -10.728   7.152  67.300  1.00  0.00    -0.286 OA 
BRANCH  19  21
HETATM   21  C   UNL     1      -9.176   8.191  65.845  1.00  0.00    -0.097 C  
BRANCH  21  22
HETATM   22  C   UNL     1      -9.842   9.413  66.483  1.00  0.00    -0.325 C  
BRANCH  22  23
HETATM   23  C   UNL     1     -10.464  10.368  65.446  1.00  0.00    -0.187 C  
BRANCH  23  24
HETATM   24  C   UNL     1      -9.610  10.535  64.189  1.00  0.00    -0.369 C  
BRANCH  24  25
HETATM   25  C   UNL     1     -10.062  11.735  63.359  1.00  0.00    -0.446 C  
BRANCH  25  26
HETATM   26  N   UNL     1     -10.237  12.917  64.179  1.00  0.00    -0.569 N  
HETATM   27  H   UNL     1      -9.443  13.271  64.713  1.00  0.00     0.000 HD 
HETATM   28  C   UNL     1     -11.441  13.575  64.256  1.00  0.00    -0.383 C  
HETATM   29  O   UNL     1     -12.442  13.232  63.633  1.00  0.00    -0.699 OA 
BRANCH  28  30
HETATM   30  C   UNL     1     -11.449  14.764  65.183  1.00  0.00    -0.371 C  
BRANCH  30  31
HETATM   31  C   UNL     1     -10.021  15.225  65.432  1.00  0.00    -0.364 C  
BRANCH  31  32
HETATM   32  C   UNL     1      -9.902  15.912  66.776  1.00  0.00    -0.244 C  
HETATM   33  N   UNL     1      -8.725  15.784  67.472  1.00  0.00    -0.172 N  
HETATM   34  O   UNL     1     -10.823  16.629  67.172  1.00  0.00    -0.253 OA 
HETATM   35  O   UNL     1      -7.893  14.673  67.238  1.00  0.00    -0.192 OA 
BRANCH  33  36
HETATM   36  C   UNL     1      -8.538  16.349  68.811  1.00  0.00    -0.250 C  
BRANCH  36  37
HETATM   37  C   UNL     1      -7.291  17.232  68.895  1.00  0.00    -0.243 C  
BRANCH  37  38
HETATM   38  C   UNL     1      -7.617  18.713  68.671  1.00  0.00    -0.341 C  
BRANCH  38  39
HETATM   39  C   UNL     1      -6.426  19.469  68.074  1.00  0.00    -0.260 C  
BRANCH  39  40
HETATM   40  C   UNL     1      -6.773  20.911  67.698  1.00  0.00    -0.349 C  
HETATM   41  N   UNL     1      -8.051  20.994  66.999  1.00  0.00    -0.583 NA 
HETATM   42  H2  UNL     1      -8.799  20.560  67.539  1.00  0.00     0.000 HD 
HETATM   43  H1  UNL     1      -8.283  21.956  66.748  1.00  0.00     0.000 HD 
ENDBRANCH  39  40
ENDBRANCH  38  39
ENDBRANCH  37  38
ENDBRANCH  36  37
ENDBRANCH  33  36
ENDBRANCH  31  32
ENDBRANCH  30  31
ENDBRANCH  28  30
ENDBRANCH  25  26
ENDBRANCH  24  25
ENDBRANCH  23  24
ENDBRANCH  22  23
ENDBRANCH  21  22
ENDBRANCH  19  21
ENDBRANCH  16  17
ENDBRANCH  15  16
ENDBRANCH  12  15
ENDBRANCH  10  11
ENDBRANCH   9  10
ENDBRANCH   8   9
ENDBRANCH   7   8
ENDBRANCH   6   7
ENDBRANCH   3   6
TORSDOF 23
ENDMDL
MODEL      195
REMARK 921   NORMALIZED FREE ENERGY PREDICTED BY IDOCK:   -4.08 KCAL/MOL
REMARK 922        TOTAL FREE ENERGY PREDICTED BY IDOCK:  -12.31 KCAL/MOL
REMARK 923 INTER-LIGAND FREE ENERGY PREDICTED BY IDOCK:  -10.27 KCAL/MOL
REMARK 924 INTRA-LIGAND FREE ENERGY PREDICTED BY IDOCK:   -2.04 KCAL/MOL
REMARK 927      BINDING AFFINITY PREDICTED BY RF-SCORE:    0.00 PKD
ROOT
HETATM    1  C   UNL     1      -7.310   4.677  70.058  1.00  0.00    -0.054 C  
HETATM    2  C   UNL     1      -8.413   4.303  71.013  1.00  0.00    -0.084 C  
HETATM    3  N   UNL     1      -9.365   5.256  71.262  1.00  0.00    -0.145 N  
HETATM    4  O   UNL     1      -8.415   3.198  71.556  1.00  0.00    -0.063 OA 
HETATM    5  O   UNL     1      -9.480   6.463  70.553  1.00  0.00    -0.161 OA 
ENDROOT
BRANCH   3   6
HETATM    6  C   UNL     1     -10.484   5.052  72.172  1.00  0.00    -0.210 C  
BRANCH   6   7
HETATM    7  C   UNL     1     -11.084   6.371  72.663  1.00  0.00    -0.294 C  
BRANCH   7   8
HETATM    8  C   UNL     1     -12.523   6.521  72.166  1.00  0.00    -0.205 C  
BRANCH   8   9
HETATM    9  C   UNL     1     -12.761   7.873  71.490  1.00  0.00    -0.342 C  
BRANCH   9  10
HETATM   10  C   UNL     1     -11.835   8.963  72.032  1.00  0.00    -0.368 C  
BRANCH  10  11
HETATM   11  N   UNL     1     -10.867   9.413  71.043  1.00  0.00    -0.308 N  
HETATM   12  C   UNL     1     -11.173  10.420  70.155  1.00  0.00    -0.321 C  
HETATM   13  H   UNL     1      -9.947   8.975  71.008  1.00  0.00     0.000 HD 
HETATM   14  O   UNL     1     -12.239  11.029  70.150  1.00  0.00    -0.305 OA 
BRANCH  12  15
HETATM   15  C   UNL     1     -10.052  10.718  69.182  1.00  0.00    -0.224 C  
BRANCH  15  16
HETATM   16  C   UNL     1      -9.318   9.434  68.802  1.00  0.00    -0.146 C  
BRANCH  16  17
HETATM   17  C   UNL     1      -8.499   9.590  67.535  1.00  0.00    -0.126 C  
HETATM   18  O   UNL     1      -7.455  10.239  67.529  1.00  0.00    -0.089 OA 
HETATM   19  N   UNL     1      -9.008   8.995  66.409  1.00  0.00    -0.147 N  
HETATM   20  O   UNL     1     -10.141   8.163  66.388  1.00  0.00    -0.241 OA 
BRANCH  19  21
HETATM   21  C   UNL     1      -8.395   9.103  65.094  1.00  0.00    -0.154 C  
BRANCH  21  22
HETATM   22  C   UNL     1      -8.685  10.449  64.422  1.00  0.00    -0.209 C  
BRANCH  22  23
HETATM   23  C   UNL     1     -10.137  10.570  63.922  1.00  0.00    -0.288 C  
BRANCH  23  24
HETATM   24  C   UNL     1     -10.659  12.007  63.925  1.00  0.00    -0.447 C  
BRANCH  24  25
HETATM   25  C   UNL     1     -11.411  12.328  65.215  1.00  0.00    -0.351 C  
BRANCH  25  26
HETATM   26  N   UNL     1     -11.094  13.655  65.704  1.00  0.00    -0.293 N  
HETATM   27  H   UNL     1     -10.616  14.310  65.084  1.00  0.00     0.000 HD 
HETATM   28  C   UNL     1     -11.417  14.056  66.978  1.00  0.00    -0.351 C  
HETATM   29  O   UNL     1     -12.008  13.342  67.783  1.00  0.00    -0.351 OA 
BRANCH  28  30
HETATM   30  C   UNL     1     -10.981  15.456  67.326  1.00  0.00    -0.317 C  
BRANCH  30  31
HETATM   31  C   UNL     1     -10.383  16.123  66.098  1.00  0.00    -0.350 C  
BRANCH  31  32
HETATM   32  C   UNL     1      -9.290  17.095  66.489  1.00  0.00    -0.265 C  
HETATM   33  N   UNL     1      -9.590  18.435  66.527  1.00  0.00    -0.318 N  
HETATM   34  O   UNL     1      -8.191  16.660  66.840  1.00  0.00    -0.174 OA 
HETATM   35  O   UNL     1     -10.651  18.934  65.747  1.00  0.00    -0.532 OA 
BRANCH  33  36
HETATM   36  C   UNL     1      -8.585  19.458  66.822  1.00  0.00    -0.311 C  
BRANCH  36  37
HETATM   37  C   UNL     1      -8.655  19.934  68.275  1.00  0.00    -0.259 C  
BRANCH  37  38
HETATM   38  C   UNL     1      -7.498  19.388  69.117  1.00  0.00    -0.342 C  
BRANCH  38  39
HETATM   39  C   UNL     1      -6.199  20.159  68.862  1.00  0.00    -0.351 C  
BRANCH  39  40
HETATM   40  C   UNL     1      -5.269  20.163  70.077  1.00  0.00    -0.224 C  
HETATM   41  N   UNL     1      -6.011  20.301  71.326  1.00  0.00    -0.550 NA 
HETATM   42  H2  UNL     1      -6.731  19.584  71.411  1.00  0.00     0.000 HD 
HETATM   43  H1  UNL     1      -5.391  20.304  72.136  1.00  0.00     0.000 HD 
ENDBRANCH  39  40
ENDBRANCH  38  39
ENDBRANCH  37  38
ENDBRANCH  36  37
ENDBRANCH  33  36
ENDBRANCH  31  32
ENDBRANCH  30  31
ENDBRANCH  28  30
ENDBRANCH  25  26
ENDBRANCH  24  25
ENDBRANCH  23  24
ENDBRANCH  22  23
ENDBRANCH  21  22
ENDBRANCH  19  21
ENDBRANCH  16  17
ENDBRANCH  15  16
ENDBRANCH  12  15
ENDBRANCH  10  11
ENDBRANCH   9  10
ENDBRANCH   8   9
ENDBRANCH   7   8
ENDBRANCH   6   7
ENDBRANCH   3   6
TORSDOF 23
ENDMDL
MODEL      196
REMARK 921   NORMALIZED FREE ENERGY PREDICTED BY IDOCK:   -4.07 KCAL/MOL
REMARK 922        TOTAL FREE ENERGY PREDICTED BY IDOCK:  -12.29 KCAL/MOL
REMARK 923 INTER-LIGAND FREE ENERGY PREDICTED BY IDOCK:   -9.53 KCAL/MOL
REMARK 924 INTRA-LIGAND FREE ENERGY PREDICTED BY IDOCK:   -2.76 KCAL/MOL
REMARK 927      BINDING AFFINITY PREDICTED BY RF-SCORE:    0.00 PKD
ROOT
HETATM    1  C   UNL     1     -12.314   6.472  71.695  1.00  0.00    -0.315 C  
HETATM    2  C   UNL     1     -11.449   5.885  72.779  1.00  0.00    -0.230 C  
HETATM    3  N   UNL     1     -10.542   6.726  73.370  1.00  0.00    -0.305 N  
HETATM    4  O   UNL     1     -11.550   4.695  73.079  1.00  0.00    -0.218 OA 
HETATM    5  O   UNL     1     -10.501   8.115  73.163  1.00  0.00    -0.285 OA 
ENDROOT
BRANCH   3   6
HETATM    6  C   UNL     1      -9.625   6.306  74.420  1.00  0.00    -0.241 C  
BRANCH   6   7
HETATM    7  C   UNL     1      -8.233   5.971  73.880  1.00  0.00    -0.110 C  
BRANCH   7   8
HETATM    8  C   UNL     1      -7.174   6.844  74.555  1.00  0.00    -0.102 C  
BRANCH   8   9
HETATM    9  C   UNL     1      -6.325   7.609  73.538  1.00  0.00    -0.067 C  
BRANCH   9  10
HETATM   10  C   UNL     1      -7.179   8.336  72.499  1.00  0.00    -0.103 C  
BRANCH  10  11
HETATM   11  N   UNL     1      -6.761   8.047  71.135  1.00  0.00    -0.041 N  
HETATM   12  C   UNL     1      -6.361   9.053  70.285  1.00  0.00    -0.044 C  
HETATM   13  H   UNL     1      -6.765   7.082  70.804  1.00  0.00     0.000 HD 
HETATM   14  O   UNL     1      -6.288  10.235  70.609  1.00  0.00    -0.163 OA 
BRANCH  12  15
HETATM   15  C   UNL     1      -6.003   8.557  68.900  1.00  0.00    -0.044 C  
BRANCH  15  16
HETATM   16  C   UNL     1      -7.026   7.531  68.418  1.00  0.00    -0.079 C  
BRANCH  16  17
HETATM   17  C   UNL     1      -8.322   8.176  67.966  1.00  0.00    -0.129 C  
HETATM   18  O   UNL     1      -8.375   8.839  66.932  1.00  0.00    -0.107 OA 
HETATM   19  N   UNL     1      -9.404   8.000  68.789  1.00  0.00    -0.147 N  
HETATM   20  O   UNL     1      -9.418   7.171  69.925  1.00  0.00    -0.154 OA 
BRANCH  19  21
HETATM   21  C   UNL     1     -10.705   8.607  68.550  1.00  0.00    -0.043 C  
BRANCH  21  22
HETATM   22  C   UNL     1     -10.771  10.058  69.033  1.00  0.00    -0.244 C  
BRANCH  22  23
HETATM   23  C   UNL     1     -11.235  10.184  70.496  1.00  0.00    -0.411 C  
BRANCH  23  24
HETATM   24  C   UNL     1     -12.714  10.547  70.632  1.00  0.00    -0.441 C  
BRANCH  24  25
HETATM   25  C   UNL     1     -12.938  11.589  71.726  1.00  0.00    -0.394 C  
BRANCH  25  26
HETATM   26  N   UNL     1     -12.717  12.935  71.237  1.00  0.00    -0.340 N  
HETATM   27  H   UNL     1     -12.140  13.072  70.407  1.00  0.00     0.000 HD 
HETATM   28  C   UNL     1     -13.263  14.032  71.859  1.00  0.00    -0.395 C  
HETATM   29  O   UNL     1     -13.985  13.960  72.849  1.00  0.00    -0.627 OA 
BRANCH  28  30
HETATM   30  C   UNL     1     -12.901  15.354  71.233  1.00  0.00    -0.519 C  
BRANCH  30  31
HETATM   31  C   UNL     1     -11.394  15.433  71.046  1.00  0.00    -0.411 C  
BRANCH  31  32
HETATM   32  C   UNL     1     -11.047  15.969  69.673  1.00  0.00    -0.331 C  
HETATM   33  N   UNL     1     -10.987  15.086  68.622  1.00  0.00    -0.247 N  
HETATM   34  O   UNL     1     -10.909  17.184  69.516  1.00  0.00    -0.202 OA 
HETATM   35  O   UNL     1     -10.725  13.725  68.870  1.00  0.00    -0.248 OA 
BRANCH  33  36
HETATM   36  C   UNL     1     -10.590  15.495  67.273  1.00  0.00    -0.299 C  
BRANCH  36  37
HETATM   37  C   UNL     1      -9.206  16.148  67.252  1.00  0.00    -0.218 C  
BRANCH  37  38
HETATM   38  C   UNL     1      -9.166  17.384  66.347  1.00  0.00    -0.272 C  
BRANCH  38  39
HETATM   39  C   UNL     1      -8.383  18.532  66.993  1.00  0.00    -0.259 C  
BRANCH  39  40
HETATM   40  C   UNL     1      -9.280  19.706  67.388  1.00  0.00    -0.325 C  
HETATM   41  N   UNL     1     -10.599  19.257  67.823  1.00  0.00    -0.425 NA 
HETATM   42  H2  UNL     1     -10.528  18.573  68.576  1.00  0.00     0.000 HD 
HETATM   43  H1  UNL     1     -11.197  20.040  68.087  1.00  0.00     0.000 HD 
ENDBRANCH  39  40
ENDBRANCH  38  39
ENDBRANCH  37  38
ENDBRANCH  36  37
ENDBRANCH  33  36
ENDBRANCH  31  32
ENDBRANCH  30  31
ENDBRANCH  28  30
ENDBRANCH  25  26
ENDBRANCH  24  25
ENDBRANCH  23  24
ENDBRANCH  22  23
ENDBRANCH  21  22
ENDBRANCH  19  21
ENDBRANCH  16  17
ENDBRANCH  15  16
ENDBRANCH  12  15
ENDBRANCH  10  11
ENDBRANCH   9  10
ENDBRANCH   8   9
ENDBRANCH   7   8
ENDBRANCH   6   7
ENDBRANCH   3   6
TORSDOF 23
ENDMDL
MODEL      197
REMARK 921   NORMALIZED FREE ENERGY PREDICTED BY IDOCK:   -4.07 KCAL/MOL
REMARK 922        TOTAL FREE ENERGY PREDICTED BY IDOCK:  -12.29 KCAL/MOL
REMARK 923 INTER-LIGAND FREE ENERGY PREDICTED BY IDOCK:   -9.13 KCAL/MOL
REMARK 924 INTRA-LIGAND FREE ENERGY PREDICTED BY IDOCK:   -3.16 KCAL/MOL
REMARK 927      BINDING AFFINITY PREDICTED BY RF-SCORE:    0.00 PKD
ROOT
HETATM    1  C   UNL     1     -11.804  15.835  69.757  1.00  0.00    -0.352 C  
HETATM    2  C   UNL     1     -11.437  15.944  68.300  1.00  0.00    -0.320 C  
HETATM    3  N   UNL     1     -10.605  16.973  67.947  1.00  0.00    -0.358 N  
HETATM    4  O   UNL     1     -11.904  15.151  67.482  1.00  0.00    -0.283 OA 
HETATM    5  O   UNL     1      -9.937  17.800  68.866  1.00  0.00    -0.351 OA 
ENDROOT
BRANCH   3   6
HETATM    6  C   UNL     1     -10.172  17.221  66.579  1.00  0.00    -0.325 C  
BRANCH   6   7
HETATM    7  C   UNL     1      -8.660  17.063  66.408  1.00  0.00    -0.311 C  
BRANCH   7   8
HETATM    8  C   UNL     1      -8.245  15.609  66.643  1.00  0.00    -0.284 C  
BRANCH   8   9
HETATM    9  C   UNL     1      -6.897  15.504  67.359  1.00  0.00    -0.224 C  
BRANCH   9  10
HETATM   10  C   UNL     1      -6.449  14.054  67.542  1.00  0.00    -0.047 C  
BRANCH  10  11
HETATM   11  N   UNL     1      -7.446  13.101  67.076  1.00  0.00    -0.366 N  
HETATM   12  C   UNL     1      -7.207  11.746  67.110  1.00  0.00    -0.147 C  
HETATM   13  H   UNL     1      -8.337  13.444  66.718  1.00  0.00     0.000 HD 
HETATM   14  O   UNL     1      -6.181  11.243  67.560  1.00  0.00    -0.056 OA 
BRANCH  12  15
HETATM   15  C   UNL     1      -8.347  10.924  66.548  1.00  0.00    -0.155 C  
BRANCH  15  16
HETATM   16  C   UNL     1      -9.541  11.818  66.224  1.00  0.00    -0.242 C  
BRANCH  16  17
HETATM   17  C   UNL     1     -10.724  11.556  67.135  1.00  0.00    -0.254 C  
HETATM   18  O   UNL     1     -11.617  10.777  66.810  1.00  0.00    -0.178 OA 
HETATM   19  N   UNL     1     -10.747  12.259  68.313  1.00  0.00    -0.213 N  
HETATM   20  O   UNL     1      -9.705  13.082  68.773  1.00  0.00    -0.095 OA 
BRANCH  19  21
HETATM   21  C   UNL     1     -11.840  12.188  69.272  1.00  0.00    -0.313 C  
BRANCH  21  22
HETATM   22  C   UNL     1     -11.651  11.061  70.291  1.00  0.00    -0.414 C  
BRANCH  22  23
HETATM   23  C   UNL     1     -12.694  11.095  71.424  1.00  0.00    -0.524 C  
BRANCH  23  24
HETATM   24  C   UNL     1     -13.689   9.935  71.366  1.00  0.00    -0.203 C  
BRANCH  24  25
HETATM   25  C   UNL     1     -13.623   9.077  72.627  1.00  0.00    -0.352 C  
BRANCH  25  26
HETATM   26  N   UNL     1     -12.559   8.096  72.553  1.00  0.00    -0.575 N  
HETATM   27  H   UNL     1     -11.726   8.225  73.127  1.00  0.00     0.000 HD 
HETATM   28  C   UNL     1     -12.641   6.998  71.730  1.00  0.00    -0.350 C  
HETATM   29  O   UNL     1     -13.612   6.753  71.021  1.00  0.00    -0.051 OA 
BRANCH  28  30
HETATM   30  C   UNL     1     -11.428   6.103  71.755  1.00  0.00    -0.342 C  
BRANCH  30  31
HETATM   31  C   UNL     1     -10.613   6.385  73.007  1.00  0.00    -0.267 C  
BRANCH  31  32
HETATM   32  C   UNL     1      -9.427   7.271  72.691  1.00  0.00    -0.150 C  
HETATM   33  N   UNL     1      -8.207   6.678  72.471  1.00  0.00    -0.106 N  
HETATM   34  O   UNL     1      -9.597   8.485  72.560  1.00  0.00    -0.282 OA 
HETATM   35  O   UNL     1      -7.939   5.411  73.023  1.00  0.00    -0.101 OA 
BRANCH  33  36
HETATM   36  C   UNL     1      -6.988   7.453  72.231  1.00  0.00    -0.063 C  
BRANCH  36  37
HETATM   37  C   UNL     1      -6.473   7.289  70.799  1.00  0.00    -0.043 C  
BRANCH  37  38
HETATM   38  C   UNL     1      -7.083   8.320  69.845  1.00  0.00    -0.055 C  
BRANCH  38  39
HETATM   39  C   UNL     1      -7.804   7.648  68.672  1.00  0.00    -0.121 C  
BRANCH  39  40
HETATM   40  C   UNL     1      -9.219   7.194  69.033  1.00  0.00    -0.135 C  
HETATM   41  N   UNL     1      -9.334   5.739  69.039  1.00  0.00    -0.121 NA 
HETATM   42  H2  UNL     1      -8.639   5.313  69.651  1.00  0.00     0.000 HD 
HETATM   43  H1  UNL     1     -10.278   5.435  69.280  1.00  0.00     0.000 HD 
ENDBRANCH  39  40
ENDBRANCH  38  39
ENDBRANCH  37  38
ENDBRANCH  36  37
ENDBRANCH  33  36
ENDBRANCH  31  32
ENDBRANCH  30  31
ENDBRANCH  28  30
ENDBRANCH  25  26
ENDBRANCH  24  25
ENDBRANCH  23  24
ENDBRANCH  22  23
ENDBRANCH  21  22
ENDBRANCH  19  21
ENDBRANCH  16  17
ENDBRANCH  15  16
ENDBRANCH  12  15
ENDBRANCH  10  11
ENDBRANCH   9  10
ENDBRANCH   8   9
ENDBRANCH   7   8
ENDBRANCH   6   7
ENDBRANCH   3   6
TORSDOF 23
ENDMDL
MODEL      198
REMARK 921   NORMALIZED FREE ENERGY PREDICTED BY IDOCK:   -4.07 KCAL/MOL
REMARK 922        TOTAL FREE ENERGY PREDICTED BY IDOCK:  -12.29 KCAL/MOL
REMARK 923 INTER-LIGAND FREE ENERGY PREDICTED BY IDOCK:   -9.82 KCAL/MOL
REMARK 924 INTRA-LIGAND FREE ENERGY PREDICTED BY IDOCK:   -2.47 KCAL/MOL
REMARK 927      BINDING AFFINITY PREDICTED BY RF-SCORE:    0.00 PKD
ROOT
HETATM    1  C   UNL     1      -6.542   3.626  70.017  1.00  0.00    -0.033 C  
HETATM    2  C   UNL     1      -7.544   3.013  70.959  1.00  0.00    -0.036 C  
HETATM    3  N   UNL     1      -8.555   3.825  71.402  1.00  0.00    -0.082 N  
HETATM    4  O   UNL     1      -7.419   1.843  71.323  1.00  0.00    -0.032 OA 
HETATM    5  O   UNL     1      -8.816   5.109  70.894  1.00  0.00    -0.129 OA 
ENDROOT
BRANCH   3   6
HETATM    6  C   UNL     1      -9.592   3.385  72.326  1.00  0.00    -0.135 C  
BRANCH   6   7
HETATM    7  C   UNL     1     -10.041   4.500  73.272  1.00  0.00    -0.206 C  
BRANCH   7   8
HETATM    8  C   UNL     1     -11.550   4.722  73.157  1.00  0.00    -0.288 C  
BRANCH   8   9
HETATM    9  C   UNL     1     -11.887   5.977  72.349  1.00  0.00    -0.283 C  
BRANCH   9  10
HETATM   10  C   UNL     1     -11.107   7.202  72.828  1.00  0.00    -0.300 C  
BRANCH  10  11
HETATM   11  N   UNL     1     -10.270   7.772  71.783  1.00  0.00    -0.187 N  
HETATM   12  C   UNL     1     -10.573   8.987  71.212  1.00  0.00    -0.308 C  
HETATM   13  H   UNL     1      -9.446   7.261  71.468  1.00  0.00     0.000 HD 
HETATM   14  O   UNL     1     -11.521   9.688  71.555  1.00  0.00    -0.377 OA 
BRANCH  12  15
HETATM   15  C   UNL     1      -9.606   9.390  70.119  1.00  0.00    -0.275 C  
BRANCH  15  16
HETATM   16  C   UNL     1      -9.351   8.219  69.173  1.00  0.00    -0.151 C  
BRANCH  16  17
HETATM   17  C   UNL     1      -8.365   8.568  68.074  1.00  0.00    -0.127 C  
HETATM   18  O   UNL     1      -7.316   9.157  68.325  1.00  0.00    -0.078 OA 
HETATM   19  N   UNL     1      -8.731   8.217  66.800  1.00  0.00    -0.129 N  
HETATM   20  O   UNL     1      -9.869   7.458  66.475  1.00  0.00    -0.197 OA 
BRANCH  19  21
HETATM   21  C   UNL     1      -7.944   8.538  65.619  1.00  0.00    -0.107 C  
BRANCH  21  22
HETATM   22  C   UNL     1      -8.375   9.856  64.968  1.00  0.00    -0.151 C  
BRANCH  22  23
HETATM   23  C   UNL     1      -8.992   9.661  63.570  1.00  0.00    -0.247 C  
BRANCH  23  24
HETATM   24  C   UNL     1      -9.085  10.958  62.765  1.00  0.00    -0.351 C  
BRANCH  24  25
HETATM   25  C   UNL     1     -10.329  11.761  63.137  1.00  0.00    -0.317 C  
BRANCH  25  26
HETATM   26  N   UNL     1     -10.015  12.844  64.047  1.00  0.00    -0.570 N  
HETATM   27  H   UNL     1      -9.361  13.569  63.748  1.00  0.00     0.000 HD 
HETATM   28  C   UNL     1     -10.571  12.923  65.301  1.00  0.00    -0.297 C  
HETATM   29  O   UNL     1     -11.380  12.109  65.736  1.00  0.00    -0.330 OA 
BRANCH  28  30
HETATM   30  C   UNL     1     -10.104  14.097  66.123  1.00  0.00    -0.324 C  
BRANCH  30  31
HETATM   31  C   UNL     1     -11.051  15.270  65.919  1.00  0.00    -0.287 C  
BRANCH  31  32
HETATM   32  C   UNL     1     -10.403  16.569  66.351  1.00  0.00    -0.311 C  
HETATM   33  N   UNL     1     -10.410  16.891  67.686  1.00  0.00    -0.308 N  
HETATM   34  O   UNL     1      -9.817  17.259  65.514  1.00  0.00    -0.541 OA 
HETATM   35  O   UNL     1     -11.404  16.354  68.527  1.00  0.00    -0.371 OA 
BRANCH  33  36
HETATM   36  C   UNL     1      -9.875  18.157  68.192  1.00  0.00    -0.343 C  
BRANCH  36  37
HETATM   37  C   UNL     1      -8.502  17.983  68.844  1.00  0.00    -0.128 C  
BRANCH  37  38
HETATM   38  C   UNL     1      -7.416  18.792  68.127  1.00  0.00    -0.289 C  
BRANCH  38  39
HETATM   39  C   UNL     1      -8.015  19.932  67.297  1.00  0.00    -0.337 C  
BRANCH  39  40
HETATM   40  C   UNL     1      -7.500  19.945  65.857  1.00  0.00    -0.328 C  
HETATM   41  N   UNL     1      -7.154  18.605  65.394  1.00  0.00    -0.524 NA 
HETATM   42  H2  UNL     1      -7.937  17.961  65.503  1.00  0.00     0.000 HD 
HETATM   43  H1  UNL     1      -6.810  18.614  64.434  1.00  0.00     0.000 HD 
ENDBRANCH  39  40
ENDBRANCH  38  39
ENDBRANCH  37  38
ENDBRANCH  36  37
ENDBRANCH  33  36
ENDBRANCH  31  32
ENDBRANCH  30  31
ENDBRANCH  28  30
ENDBRANCH  25  26
ENDBRANCH  24  25
ENDBRANCH  23  24
ENDBRANCH  22  23
ENDBRANCH  21  22
ENDBRANCH  19  21
ENDBRANCH  16  17
ENDBRANCH  15  16
ENDBRANCH  12  15
ENDBRANCH  10  11
ENDBRANCH   9  10
ENDBRANCH   8   9
ENDBRANCH   7   8
ENDBRANCH   6   7
ENDBRANCH   3   6
TORSDOF 23
ENDMDL
MODEL      199
REMARK 921   NORMALIZED FREE ENERGY PREDICTED BY IDOCK:   -4.06 KCAL/MOL
REMARK 922        TOTAL FREE ENERGY PREDICTED BY IDOCK:  -12.28 KCAL/MOL
REMARK 923 INTER-LIGAND FREE ENERGY PREDICTED BY IDOCK:   -9.53 KCAL/MOL
REMARK 924 INTRA-LIGAND FREE ENERGY PREDICTED BY IDOCK:   -2.75 KCAL/MOL
REMARK 927      BINDING AFFINITY PREDICTED BY RF-SCORE:    0.00 PKD
ROOT
HETATM    1  C   UNL     1     -10.802   3.414  63.685  1.00  0.00    -0.206 C  
HETATM    2  C   UNL     1      -9.838   3.946  64.713  1.00  0.00    -0.197 C  
HETATM    3  N   UNL     1      -8.504   3.750  64.470  1.00  0.00    -0.097 N  
HETATM    4  O   UNL     1     -10.258   4.499  65.730  1.00  0.00    -0.243 OA 
HETATM    5  O   UNL     1      -7.985   3.263  63.259  1.00  0.00    -0.071 OA 
ENDROOT
BRANCH   3   6
HETATM    6  C   UNL     1      -7.451   4.191  65.374  1.00  0.00    -0.077 C  
BRANCH   6   7
HETATM    7  C   UNL     1      -6.777   5.480  64.899  1.00  0.00    -0.044 C  
BRANCH   7   8
HETATM    8  C   UNL     1      -5.379   5.607  65.507  1.00  0.00    -0.010 C  
BRANCH   8   9
HETATM    9  C   UNL     1      -5.133   6.996  66.100  1.00  0.00    -0.022 C  
BRANCH   9  10
HETATM   10  C   UNL     1      -5.768   7.158  67.481  1.00  0.00    -0.025 C  
BRANCH  10  11
HETATM   11  N   UNL     1      -6.994   7.942  67.440  1.00  0.00    -0.073 N  
HETATM   12  C   UNL     1      -6.962   9.317  67.483  1.00  0.00    -0.078 C  
HETATM   13  H   UNL     1      -7.892   7.463  67.378  1.00  0.00     0.000 HD 
HETATM   14  O   UNL     1      -5.927   9.977  67.518  1.00  0.00    -0.053 OA 
BRANCH  12  15
HETATM   15  C   UNL     1      -8.338   9.948  67.469  1.00  0.00    -0.114 C  
BRANCH  15  16
HETATM   16  C   UNL     1      -8.610  10.668  68.788  1.00  0.00    -0.150 C  
BRANCH  16  17
HETATM   17  C   UNL     1      -8.387   9.773  69.992  1.00  0.00    -0.192 C  
HETATM   18  O   UNL     1      -7.460   9.978  70.773  1.00  0.00    -0.298 OA 
HETATM   19  N   UNL     1      -9.253   8.720  70.131  1.00  0.00    -0.161 N  
HETATM   20  O   UNL     1     -10.383   8.502  69.324  1.00  0.00    -0.214 OA 
BRANCH  19  21
HETATM   21  C   UNL     1      -9.143   7.720  71.183  1.00  0.00    -0.142 C  
BRANCH  21  22
HETATM   22  C   UNL     1      -9.828   8.158  72.480  1.00  0.00    -0.363 C  
BRANCH  22  23
HETATM   23  C   UNL     1     -10.934   7.187  72.934  1.00  0.00    -0.359 C  
BRANCH  23  24
HETATM   24  C   UNL     1     -11.592   6.436  71.775  1.00  0.00    -0.367 C  
BRANCH  24  25
HETATM   25  C   UNL     1     -12.919   7.077  71.374  1.00  0.00    -0.340 C  
BRANCH  25  26
HETATM   26  N   UNL     1     -12.792   8.510  71.205  1.00  0.00    -0.491 N  
HETATM   27  H   UNL     1     -12.122   8.871  70.525  1.00  0.00     0.000 HD 
HETATM   28  C   UNL     1     -13.549   9.397  71.933  1.00  0.00    -0.410 C  
HETATM   29  O   UNL     1     -14.392   9.052  72.755  1.00  0.00    -0.596 OA 
BRANCH  28  30
HETATM   30  C   UNL     1     -13.260  10.849  71.651  1.00  0.00    -0.471 C  
BRANCH  30  31
HETATM   31  C   UNL     1     -11.858  10.988  71.079  1.00  0.00    -0.212 C  
BRANCH  31  32
HETATM   32  C   UNL     1     -11.889  11.672  69.729  1.00  0.00    -0.357 C  
HETATM   33  N   UNL     1     -11.608  13.015  69.670  1.00  0.00    -0.278 N  
HETATM   34  O   UNL     1     -12.084  10.998  68.715  1.00  0.00    -0.518 OA 
HETATM   35  O   UNL     1     -11.810  13.820  70.807  1.00  0.00    -0.272 OA 
BRANCH  33  36
HETATM   36  C   UNL     1     -11.684  13.780  68.423  1.00  0.00    -0.358 C  
BRANCH  36  37
HETATM   37  C   UNL     1     -10.358  13.772  67.660  1.00  0.00    -0.239 C  
BRANCH  37  38
HETATM   38  C   UNL     1     -10.501  13.160  66.262  1.00  0.00    -0.291 C  
BRANCH  38  39
HETATM   39  C   UNL     1     -11.079  14.165  65.261  1.00  0.00    -0.331 C  
BRANCH  39  40
HETATM   40  C   UNL     1     -12.375  13.674  64.616  1.00  0.00    -0.371 C  
HETATM   41  N   UNL     1     -12.277  12.278  64.199  1.00  0.00    -0.436 NA 
HETATM   42  H2  UNL     1     -11.996  11.678  64.975  1.00  0.00     0.000 HD 
HETATM   43  H1  UNL     1     -13.141  11.950  63.769  1.00  0.00     0.000 HD 
ENDBRANCH  39  40
ENDBRANCH  38  39
ENDBRANCH  37  38
ENDBRANCH  36  37
ENDBRANCH  33  36
ENDBRANCH  31  32
ENDBRANCH  30  31
ENDBRANCH  28  30
ENDBRANCH  25  26
ENDBRANCH  24  25
ENDBRANCH  23  24
ENDBRANCH  22  23
ENDBRANCH  21  22
ENDBRANCH  19  21
ENDBRANCH  16  17
ENDBRANCH  15  16
ENDBRANCH  12  15
ENDBRANCH  10  11
ENDBRANCH   9  10
ENDBRANCH   8   9
ENDBRANCH   7   8
ENDBRANCH   6   7
ENDBRANCH   3   6
TORSDOF 23
ENDMDL
MODEL      200
REMARK 921   NORMALIZED FREE ENERGY PREDICTED BY IDOCK:   -4.05 KCAL/MOL
REMARK 922        TOTAL FREE ENERGY PREDICTED BY IDOCK:  -12.24 KCAL/MOL
REMARK 923 INTER-LIGAND FREE ENERGY PREDICTED BY IDOCK:   -9.95 KCAL/MOL
REMARK 924 INTRA-LIGAND FREE ENERGY PREDICTED BY IDOCK:   -2.29 KCAL/MOL
REMARK 927      BINDING AFFINITY PREDICTED BY RF-SCORE:    0.00 PKD
ROOT
HETATM    1  C   UNL     1      -9.900   2.763  71.628  1.00  0.00    -0.211 C  
HETATM    2  C   UNL     1      -9.076   4.023  71.656  1.00  0.00    -0.123 C  
HETATM    3  N   UNL     1      -7.843   3.943  72.248  1.00  0.00    -0.074 N  
HETATM    4  O   UNL     1      -9.527   5.071  71.191  1.00  0.00    -0.143 OA 
HETATM    5  O   UNL     1      -7.236   2.741  72.651  1.00  0.00    -0.037 OA 
ENDROOT
BRANCH   3   6
HETATM    6  C   UNL     1      -6.935   5.076  72.367  1.00  0.00    -0.071 C  
BRANCH   6   7
HETATM    7  C   UNL     1      -6.928   5.672  73.777  1.00  0.00    -0.082 C  
BRANCH   7   8
HETATM    8  C   UNL     1      -6.933   7.200  73.711  1.00  0.00    -0.078 C  
BRANCH   8   9
HETATM    9  C   UNL     1      -8.185   7.799  74.355  1.00  0.00    -0.279 C  
BRANCH   9  10
HETATM   10  C   UNL     1      -9.452   7.492  73.555  1.00  0.00    -0.273 C  
BRANCH  10  11
HETATM   11  N   UNL     1      -9.679   8.451  72.484  1.00  0.00    -0.293 N  
HETATM   12  C   UNL     1     -10.946   8.696  72.004  1.00  0.00    -0.362 C  
HETATM   13  H   UNL     1      -8.886   8.951  72.083  1.00  0.00     0.000 HD 
HETATM   14  O   UNL     1     -11.962   8.171  72.453  1.00  0.00    -0.352 OA 
BRANCH  12  15
HETATM   15  C   UNL     1     -10.971   9.695  70.867  1.00  0.00    -0.412 C  
BRANCH  15  16
HETATM   16  C   UNL     1     -12.301  10.445  70.844  1.00  0.00    -0.480 C  
BRANCH  16  17
HETATM   17  C   UNL     1     -12.189  11.799  70.171  1.00  0.00    -0.263 C  
HETATM   18  O   UNL     1     -12.368  12.840  70.801  1.00  0.00    -0.368 OA 
HETATM   19  N   UNL     1     -11.912  11.786  68.828  1.00  0.00    -0.304 N  
HETATM   20  O   UNL     1     -11.602  10.631  68.087  1.00  0.00    -0.429 OA 
BRANCH  19  21
HETATM   21  C   UNL     1     -11.842  12.986  68.007  1.00  0.00    -0.347 C  
BRANCH  21  22
HETATM   22  C   UNL     1     -11.872  12.673  66.509  1.00  0.00    -0.463 C  
BRANCH  22  23
HETATM   23  C   UNL     1     -12.650  13.721  65.692  1.00  0.00    -0.551 C  
BRANCH  23  24
HETATM   24  C   UNL     1     -11.927  14.150  64.414  1.00  0.00    -0.478 C  
BRANCH  24  25
HETATM   25  C   UNL     1     -11.394  15.577  64.523  1.00  0.00    -0.314 C  
BRANCH  25  26
HETATM   26  N   UNL     1     -10.978  15.892  65.875  1.00  0.00    -0.214 N  
HETATM   27  H   UNL     1     -11.053  15.173  66.596  1.00  0.00     0.000 HD 
HETATM   28  C   UNL     1     -10.486  17.130  66.214  1.00  0.00    -0.260 C  
HETATM   29  O   UNL     1     -10.343  18.045  65.409  1.00  0.00    -0.558 OA 
BRANCH  28  30
HETATM   30  C   UNL     1     -10.135  17.289  67.671  1.00  0.00    -0.313 C  
BRANCH  30  31
HETATM   31  C   UNL     1      -8.630  17.451  67.817  1.00  0.00    -0.227 C  
BRANCH  31  32
HETATM   32  C   UNL     1      -7.917  16.140  67.559  1.00  0.00    -0.150 C  
HETATM   33  N   UNL     1      -8.274  15.044  68.305  1.00  0.00    -0.140 N  
HETATM   34  O   UNL     1      -7.100  16.068  66.638  1.00  0.00    -0.193 OA 
HETATM   35  O   UNL     1      -8.855  15.224  69.575  1.00  0.00    -0.243 OA 
BRANCH  33  36
HETATM   36  C   UNL     1      -7.594  13.752  68.180  1.00  0.00    -0.128 C  
BRANCH  36  37
HETATM   37  C   UNL     1      -8.204  12.883  67.079  1.00  0.00    -0.086 C  
BRANCH  37  38
HETATM   38  C   UNL     1      -8.129  11.390  67.414  1.00  0.00    -0.142 C  
BRANCH  38  39
HETATM   39  C   UNL     1      -8.152  11.148  68.926  1.00  0.00    -0.115 C  
BRANCH  39  40
HETATM   40  C   UNL     1      -7.739   9.723  69.300  1.00  0.00    -0.101 C  
HETATM   41  N   UNL     1      -7.373   9.619  70.709  1.00  0.00    -0.295 NA 
HETATM   42  H2  UNL     1      -8.120   9.960  71.313  1.00  0.00     0.000 HD 
HETATM   43  H1  UNL     1      -7.097   8.668  70.958  1.00  0.00     0.000 HD 
ENDBRANCH  39  40
ENDBRANCH  38  39
ENDBRANCH  37  38
ENDBRANCH  36  37
ENDBRANCH  33  36
ENDBRANCH  31  32
ENDBRANCH  30  31
ENDBRANCH  28  30
ENDBRANCH  25  26
ENDBRANCH  24  25
ENDBRANCH  23  24
ENDBRANCH  22  23
ENDBRANCH  21  22
ENDBRANCH  19  21
ENDBRANCH  16  17
ENDBRANCH  15  16
ENDBRANCH  12  15
ENDBRANCH  10  11
ENDBRANCH   9  10
ENDBRANCH   8   9
ENDBRANCH   7   8
ENDBRANCH   6   7
ENDBRANCH   3   6
TORSDOF 23
ENDMDL
MODEL      201
REMARK 921   NORMALIZED FREE ENERGY PREDICTED BY IDOCK:   -4.03 KCAL/MOL
REMARK 922        TOTAL FREE ENERGY PREDICTED BY IDOCK:  -12.21 KCAL/MOL
REMARK 923 INTER-LIGAND FREE ENERGY PREDICTED BY IDOCK:  -10.36 KCAL/MOL
REMARK 924 INTRA-LIGAND FREE ENERGY PREDICTED BY IDOCK:   -1.86 KCAL/MOL
REMARK 927      BINDING AFFINITY PREDICTED BY RF-SCORE:    0.00 PKD
ROOT
HETATM    1  C   UNL     1      -8.659  20.119  66.709  1.00  0.00    -0.378 C  
HETATM    2  C   UNL     1      -9.715  19.058  66.879  1.00  0.00    -0.324 C  
HETATM    3  N   UNL     1      -9.439  17.821  66.358  1.00  0.00    -0.281 N  
HETATM    4  O   UNL     1     -10.781  19.326  67.435  1.00  0.00    -0.463 OA 
HETATM    5  O   UNL     1      -8.184  17.438  65.855  1.00  0.00    -0.537 OA 
ENDROOT
BRANCH   3   6
HETATM    6  C   UNL     1     -10.362  16.697  66.427  1.00  0.00    -0.306 C  
BRANCH   6   7
HETATM    7  C   UNL     1     -10.252  15.932  67.748  1.00  0.00    -0.260 C  
BRANCH   7   8
HETATM    8  C   UNL     1     -11.306  14.826  67.814  1.00  0.00    -0.344 C  
BRANCH   8   9
HETATM    9  C   UNL     1     -11.951  14.562  66.452  1.00  0.00    -0.350 C  
BRANCH   9  10
HETATM   10  C   UNL     1     -12.369  13.101  66.281  1.00  0.00    -0.276 C  
BRANCH  10  11
HETATM   11  N   UNL     1     -11.563  12.405  65.290  1.00  0.00    -0.359 N  
HETATM   12  C   UNL     1     -12.069  12.102  64.046  1.00  0.00    -0.443 C  
HETATM   13  H   UNL     1     -10.607  12.136  65.521  1.00  0.00     0.000 HD 
HETATM   14  O   UNL     1     -13.194  12.420  63.668  1.00  0.00    -0.655 OA 
BRANCH  12  15
HETATM   15  C   UNL     1     -11.093  11.343  63.172  1.00  0.00    -0.077 C  
BRANCH  15  16
HETATM   16  C   UNL     1      -9.665  11.530  63.680  1.00  0.00    -0.329 C  
BRANCH  16  17
HETATM   17  C   UNL     1      -9.178  10.341  64.485  1.00  0.00    -0.250 C  
HETATM   18  O   UNL     1      -9.855   9.868  65.395  1.00  0.00    -0.293 OA 
HETATM   19  N   UNL     1      -7.937   9.858  64.158  1.00  0.00    -0.144 N  
HETATM   20  O   UNL     1      -7.169  10.299  63.066  1.00  0.00    -0.140 OA 
BRANCH  19  21
HETATM   21  C   UNL     1      -7.281   8.772  64.872  1.00  0.00    -0.084 C  
BRANCH  21  22
HETATM   22  C   UNL     1      -7.322   7.453  64.096  1.00  0.00    -0.091 C  
BRANCH  22  23
HETATM   23  C   UNL     1      -6.116   6.542  64.395  1.00  0.00    -0.034 C  
BRANCH  23  24
HETATM   24  C   UNL     1      -6.258   5.760  65.701  1.00  0.00    -0.037 C  
BRANCH  24  25
HETATM   25  C   UNL     1      -7.346   4.693  65.600  1.00  0.00    -0.077 C  
BRANCH  25  26
HETATM   26  N   UNL     1      -7.924   4.393  66.895  1.00  0.00    -0.101 N  
HETATM   27  H   UNL     1      -7.316   4.060  67.644  1.00  0.00     0.000 HD 
HETATM   28  C   UNL     1      -9.268   4.546  67.143  1.00  0.00    -0.135 C  
HETATM   29  O   UNL     1     -10.067   4.959  66.309  1.00  0.00    -0.206 OA 
BRANCH  28  30
HETATM   30  C   UNL     1      -9.698   4.156  68.534  1.00  0.00    -0.148 C  
BRANCH  30  31
HETATM   31  C   UNL     1      -9.345   5.269  69.507  1.00  0.00    -0.176 C  
BRANCH  31  32
HETATM   32  C   UNL     1     -10.245   6.470  69.304  1.00  0.00    -0.187 C  
HETATM   33  N   UNL     1      -9.663   7.685  69.034  1.00  0.00    -0.158 N  
HETATM   34  O   UNL     1     -11.468   6.315  69.304  1.00  0.00    -0.411 OA 
HETATM   35  O   UNL     1      -8.340   7.930  69.448  1.00  0.00    -0.128 OA 
BRANCH  33  36
HETATM   36  C   UNL     1     -10.443   8.916  68.894  1.00  0.00    -0.205 C  
BRANCH  36  37
HETATM   37  C   UNL     1     -11.062   9.361  70.221  1.00  0.00    -0.299 C  
BRANCH  37  38
HETATM   38  C   UNL     1     -10.090   9.197  71.395  1.00  0.00    -0.392 C  
BRANCH  38  39
HETATM   39  C   UNL     1     -10.632   8.223  72.445  1.00  0.00    -0.408 C  
BRANCH  39  40
HETATM   40  C   UNL     1     -12.157   8.109  72.411  1.00  0.00    -0.348 C  
HETATM   41  N   UNL     1     -12.590   6.756  72.078  1.00  0.00    -0.522 NA 
HETATM   42  H2  UNL     1     -12.180   6.068  72.710  1.00  0.00     0.000 HD 
HETATM   43  H1  UNL     1     -13.608   6.680  72.055  1.00  0.00     0.000 HD 
ENDBRANCH  39  40
ENDBRANCH  38  39
ENDBRANCH  37  38
ENDBRANCH  36  37
ENDBRANCH  33  36
ENDBRANCH  31  32
ENDBRANCH  30  31
ENDBRANCH  28  30
ENDBRANCH  25  26
ENDBRANCH  24  25
ENDBRANCH  23  24
ENDBRANCH  22  23
ENDBRANCH  21  22
ENDBRANCH  19  21
ENDBRANCH  16  17
ENDBRANCH  15  16
ENDBRANCH  12  15
ENDBRANCH  10  11
ENDBRANCH   9  10
ENDBRANCH   8   9
ENDBRANCH   7   8
ENDBRANCH   6   7
ENDBRANCH   3   6
TORSDOF 23
ENDMDL
MODEL      202
REMARK 921   NORMALIZED FREE ENERGY PREDICTED BY IDOCK:   -4.02 KCAL/MOL
REMARK 922        TOTAL FREE ENERGY PREDICTED BY IDOCK:  -12.18 KCAL/MOL
REMARK 923 INTER-LIGAND FREE ENERGY PREDICTED BY IDOCK:   -9.63 KCAL/MOL
REMARK 924 INTRA-LIGAND FREE ENERGY PREDICTED BY IDOCK:   -2.55 KCAL/MOL
REMARK 927      BINDING AFFINITY PREDICTED BY RF-SCORE:    0.00 PKD
ROOT
HETATM    1  C   UNL     1      -8.785   5.010  74.004  1.00  0.00    -0.114 C  
HETATM    2  C   UNL     1      -7.951   3.825  73.596  1.00  0.00    -0.086 C  
HETATM    3  N   UNL     1      -7.644   3.712  72.266  1.00  0.00    -0.057 N  
HETATM    4  O   UNL     1      -7.601   2.993  74.435  1.00  0.00    -0.053 OA 
HETATM    5  O   UNL     1      -7.894   4.712  71.310  1.00  0.00    -0.082 OA 
ENDROOT
BRANCH   3   6
HETATM    6  C   UNL     1      -6.860   2.616  71.713  1.00  0.00    -0.026 C  
BRANCH   6   7
HETATM    7  C   UNL     1      -7.737   1.478  71.189  1.00  0.00    -0.032 C  
BRANCH   7   8
HETATM    8  C   UNL     1      -7.822   1.529  69.662  1.00  0.00    -0.047 C  
BRANCH   8   9
HETATM    9  C   UNL     1      -9.194   2.003  69.177  1.00  0.00    -0.193 C  
BRANCH   9  10
HETATM   10  C   UNL     1      -9.086   3.033  68.052  1.00  0.00    -0.179 C  
BRANCH  10  11
HETATM   11  N   UNL     1      -9.811   4.259  68.350  1.00  0.00    -0.086 N  
HETATM   12  C   UNL     1     -10.280   5.072  67.343  1.00  0.00    -0.148 C  
HETATM   13  H   UNL     1      -9.974   4.521  69.322  1.00  0.00     0.000 HD 
HETATM   14  O   UNL     1     -10.164   4.817  66.147  1.00  0.00    -0.235 OA 
BRANCH  12  15
HETATM   15  C   UNL     1     -10.972   6.318  67.854  1.00  0.00    -0.421 C  
BRANCH  15  16
HETATM   16  C   UNL     1     -10.987   6.332  69.381  1.00  0.00    -0.440 C  
BRANCH  16  17
HETATM   17  C   UNL     1     -10.808   7.728  69.947  1.00  0.00    -0.226 C  
HETATM   18  O   UNL     1      -9.850   8.427  69.625  1.00  0.00    -0.179 OA 
HETATM   19  N   UNL     1     -11.753   8.138  70.853  1.00  0.00    -0.273 N  
HETATM   20  O   UNL     1     -12.915   7.417  71.177  1.00  0.00    -0.319 OA 
BRANCH  19  21
HETATM   21  C   UNL     1     -11.699   9.414  71.550  1.00  0.00    -0.394 C  
BRANCH  21  22
HETATM   22  C   UNL     1     -12.889  10.316  71.213  1.00  0.00    -0.522 C  
BRANCH  22  23
HETATM   23  C   UNL     1     -12.483  11.781  70.970  1.00  0.00    -0.411 C  
BRANCH  23  24
HETATM   24  C   UNL     1     -13.054  12.747  72.009  1.00  0.00    -0.474 C  
BRANCH  24  25
HETATM   25  C   UNL     1     -13.436  14.086  71.381  1.00  0.00    -0.288 C  
BRANCH  25  26
HETATM   26  N   UNL     1     -12.674  14.348  70.176  1.00  0.00    -0.500 N  
HETATM   27  H   UNL     1     -12.875  13.807  69.335  1.00  0.00     0.000 HD 
HETATM   28  C   UNL     1     -11.689  15.306  70.135  1.00  0.00    -0.312 C  
HETATM   29  O   UNL     1     -11.395  16.016  71.092  1.00  0.00    -0.387 OA 
BRANCH  28  30
HETATM   30  C   UNL     1     -10.978  15.419  68.811  1.00  0.00    -0.264 C  
BRANCH  30  31
HETATM   31  C   UNL     1     -11.758  14.661  67.748  1.00  0.00    -0.386 C  
BRANCH  31  32
HETATM   32  C   UNL     1     -10.824  14.048  66.726  1.00  0.00    -0.294 C  
HETATM   33  N   UNL     1     -11.297  13.029  65.936  1.00  0.00    -0.303 N  
HETATM   34  O   UNL     1      -9.698  14.528  66.572  1.00  0.00    -0.261 OA 
HETATM   35  O   UNL     1     -12.370  12.237  66.388  1.00  0.00    -0.531 OA 
BRANCH  33  36
HETATM   36  C   UNL     1     -10.450  12.325  64.970  1.00  0.00    -0.290 C  
BRANCH  36  37
HETATM   37  C   UNL     1      -9.854  11.043  65.554  1.00  0.00    -0.292 C  
BRANCH  37  38
HETATM   38  C   UNL     1      -8.638  11.326  66.444  1.00  0.00    -0.174 C  
BRANCH  38  39
HETATM   39  C   UNL     1      -8.949  11.072  67.923  1.00  0.00    -0.144 C  
BRANCH  39  40
HETATM   40  C   UNL     1      -7.694  11.080  68.797  1.00  0.00    -0.135 C  
HETATM   41  N   UNL     1      -7.232   9.728  69.092  1.00  0.00    -0.070 NA 
HETATM   42  H2  UNL     1      -7.087   9.190  68.237  1.00  0.00     0.000 HD 
HETATM   43  H1  UNL     1      -6.395   9.733  69.675  1.00  0.00     0.000 HD 
ENDBRANCH  39  40
ENDBRANCH  38  39
ENDBRANCH  37  38
ENDBRANCH  36  37
ENDBRANCH  33  36
ENDBRANCH  31  32
ENDBRANCH  30  31
ENDBRANCH  28  30
ENDBRANCH  25  26
ENDBRANCH  24  25
ENDBRANCH  23  24
ENDBRANCH  22  23
ENDBRANCH  21  22
ENDBRANCH  19  21
ENDBRANCH  16  17
ENDBRANCH  15  16
ENDBRANCH  12  15
ENDBRANCH  10  11
ENDBRANCH   9  10
ENDBRANCH   8   9
ENDBRANCH   7   8
ENDBRANCH   6   7
ENDBRANCH   3   6
TORSDOF 23
ENDMDL
MODEL      203
REMARK 921   NORMALIZED FREE ENERGY PREDICTED BY IDOCK:   -4.01 KCAL/MOL
REMARK 922        TOTAL FREE ENERGY PREDICTED BY IDOCK:  -12.15 KCAL/MOL
REMARK 923 INTER-LIGAND FREE ENERGY PREDICTED BY IDOCK:  -10.41 KCAL/MOL
REMARK 924 INTRA-LIGAND FREE ENERGY PREDICTED BY IDOCK:   -1.74 KCAL/MOL
REMARK 927      BINDING AFFINITY PREDICTED BY RF-SCORE:    0.00 PKD
ROOT
HETATM    1  C   UNL     1      -9.141  10.941  65.581  1.00  0.00    -0.223 C  
HETATM    2  C   UNL     1     -10.187  11.288  64.554  1.00  0.00    -0.314 C  
HETATM    3  N   UNL     1     -11.405  11.700  65.027  1.00  0.00    -0.223 N  
HETATM    4  O   UNL     1      -9.943  11.166  63.353  1.00  0.00    -0.314 OA 
HETATM    5  O   UNL     1     -11.671  11.994  66.375  1.00  0.00    -0.518 OA 
ENDROOT
BRANCH   3   6
HETATM    6  C   UNL     1     -12.523  12.055  64.163  1.00  0.00    -0.333 C  
BRANCH   6   7
HETATM    7  C   UNL     1     -12.523  13.539  63.791  1.00  0.00    -0.296 C  
BRANCH   7   8
HETATM    8  C   UNL     1     -12.179  14.396  65.011  1.00  0.00    -0.418 C  
BRANCH   8   9
HETATM    9  C   UNL     1     -11.064  15.400  64.713  1.00  0.00    -0.416 C  
BRANCH   9  10
HETATM   10  C   UNL     1     -10.048  15.493  65.852  1.00  0.00    -0.349 C  
BRANCH  10  11
HETATM   11  N   UNL     1     -10.662  15.879  67.114  1.00  0.00    -0.316 N  
HETATM   12  C   UNL     1      -9.994  16.675  68.017  1.00  0.00    -0.258 C  
HETATM   13  H   UNL     1     -11.603  15.553  67.333  1.00  0.00     0.000 HD 
HETATM   14  O   UNL     1      -8.876  17.144  67.820  1.00  0.00    -0.219 OA 
BRANCH  12  15
HETATM   15  C   UNL     1     -10.782  16.933  69.283  1.00  0.00    -0.288 C  
BRANCH  15  16
HETATM   16  C   UNL     1     -11.910  15.914  69.427  1.00  0.00    -0.325 C  
BRANCH  16  17
HETATM   17  C   UNL     1     -11.859  15.177  70.751  1.00  0.00    -0.324 C  
HETATM   18  O   UNL     1     -10.786  14.919  71.294  1.00  0.00    -0.070 OA 
HETATM   19  N   UNL     1     -13.066  14.796  71.278  1.00  0.00    -0.346 N  
HETATM   20  O   UNL     1     -14.318  15.153  70.748  1.00  0.00    -0.115 OA 
BRANCH  19  21
HETATM   21  C   UNL     1     -13.201  14.018  72.501  1.00  0.00    -0.505 C  
BRANCH  21  22
HETATM   22  C   UNL     1     -13.594  12.563  72.228  1.00  0.00    -0.443 C  
BRANCH  22  23
HETATM   23  C   UNL     1     -12.523  11.792  71.433  1.00  0.00    -0.281 C  
BRANCH  23  24
HETATM   24  C   UNL     1     -12.718  10.275  71.471  1.00  0.00    -0.557 C  
BRANCH  24  25
HETATM   25  C   UNL     1     -11.384   9.541  71.582  1.00  0.00    -0.341 C  
BRANCH  25  26
HETATM   26  N   UNL     1     -11.361   8.345  70.764  1.00  0.00    -0.268 N  
HETATM   27  H   UNL     1     -11.729   7.475  71.148  1.00  0.00     0.000 HD 
HETATM   28  C   UNL     1     -10.858   8.351  69.485  1.00  0.00    -0.117 C  
HETATM   29  O   UNL     1     -10.414   9.355  68.936  1.00  0.00    -0.208 OA 
BRANCH  28  30
HETATM   30  C   UNL     1     -10.883   7.011  68.794  1.00  0.00    -0.198 C  
BRANCH  30  31
HETATM   31  C   UNL     1     -10.790   7.212  67.290  1.00  0.00    -0.382 C  
BRANCH  31  32
HETATM   32  C   UNL     1      -9.400   6.887  66.786  1.00  0.00    -0.158 C  
HETATM   33  N   UNL     1      -9.262   5.906  65.834  1.00  0.00    -0.133 N  
HETATM   34  O   UNL     1      -8.443   7.560  67.176  1.00  0.00    -0.119 OA 
HETATM   35  O   UNL     1     -10.241   4.901  65.723  1.00  0.00    -0.207 OA 
BRANCH  33  36
HETATM   36  C   UNL     1      -7.955   5.470  65.338  1.00  0.00    -0.109 C  
BRANCH  36  37
HETATM   37  C   UNL     1      -7.692   3.991  65.627  1.00  0.00    -0.089 C  
BRANCH  37  38
HETATM   38  C   UNL     1      -6.720   3.795  66.795  1.00  0.00    -0.046 C  
BRANCH  38  39
HETATM   39  C   UNL     1      -7.311   2.886  67.877  1.00  0.00    -0.053 C  
BRANCH  39  40
HETATM   40  C   UNL     1      -8.793   3.166  68.136  1.00  0.00    -0.123 C  
HETATM   41  N   UNL     1      -9.642   2.088  67.640  1.00  0.00    -0.410 NA 
HETATM   42  H2  UNL     1      -9.361   1.187  68.025  1.00  0.00     0.000 HD 
HETATM   43  H1  UNL     1     -10.630   2.275  67.813  1.00  0.00     0.000 HD 
ENDBRANCH  39  40
ENDBRANCH  38  39
ENDBRANCH  37  38
ENDBRANCH  36  37
ENDBRANCH  33  36
ENDBRANCH  31  32
ENDBRANCH  30  31
ENDBRANCH  28  30
ENDBRANCH  25  26
ENDBRANCH  24  25
ENDBRANCH  23  24
ENDBRANCH  22  23
ENDBRANCH  21  22
ENDBRANCH  19  21
ENDBRANCH  16  17
ENDBRANCH  15  16
ENDBRANCH  12  15
ENDBRANCH  10  11
ENDBRANCH   9  10
ENDBRANCH   8   9
ENDBRANCH   7   8
ENDBRANCH   6   7
ENDBRANCH   3   6
TORSDOF 23
ENDMDL
MODEL      204
REMARK 921   NORMALIZED FREE ENERGY PREDICTED BY IDOCK:   -4.00 KCAL/MOL
REMARK 922        TOTAL FREE ENERGY PREDICTED BY IDOCK:  -12.13 KCAL/MOL
REMARK 923 INTER-LIGAND FREE ENERGY PREDICTED BY IDOCK:   -8.81 KCAL/MOL
REMARK 924 INTRA-LIGAND FREE ENERGY PREDICTED BY IDOCK:   -3.32 KCAL/MOL
REMARK 927      BINDING AFFINITY PREDICTED BY RF-SCORE:    0.00 PKD
ROOT
HETATM    1  C   UNL     1      -6.362  10.516  68.170  1.00  0.00    -0.058 C  
HETATM    2  C   UNL     1      -6.343   9.211  67.418  1.00  0.00    -0.059 C  
HETATM    3  N   UNL     1      -6.741   9.246  66.107  1.00  0.00    -0.073 N  
HETATM    4  O   UNL     1      -6.013   8.171  67.988  1.00  0.00    -0.040 OA 
HETATM    5  O   UNL     1      -6.978  10.428  65.385  1.00  0.00    -0.138 OA 
ENDROOT
BRANCH   3   6
HETATM    6  C   UNL     1      -6.793   8.067  65.253  1.00  0.00    -0.058 C  
BRANCH   6   7
HETATM    7  C   UNL     1      -8.211   7.764  64.763  1.00  0.00    -0.100 C  
BRANCH   7   8
HETATM    8  C   UNL     1      -8.989   6.986  65.826  1.00  0.00    -0.037 C  
BRANCH   8   9
HETATM    9  C   UNL     1      -8.730   5.481  65.742  1.00  0.00    -0.151 C  
BRANCH   9  10
HETATM   10  C   UNL     1      -9.852   4.662  66.381  1.00  0.00    -0.225 C  
BRANCH  10  11
HETATM   11  N   UNL     1      -9.664   4.484  67.813  1.00  0.00    -0.160 N  
HETATM   12  C   UNL     1      -9.405   3.242  68.348  1.00  0.00    -0.180 C  
HETATM   13  H   UNL     1      -9.724   5.293  68.430  1.00  0.00     0.000 HD 
HETATM   14  O   UNL     1      -9.275   2.221  67.678  1.00  0.00    -0.165 OA 
BRANCH  12  15
HETATM   15  C   UNL     1      -9.278   3.256  69.856  1.00  0.00    -0.222 C  
BRANCH  15  16
HETATM   16  C   UNL     1      -9.983   4.478  70.440  1.00  0.00    -0.284 C  
BRANCH  16  17
HETATM   17  C   UNL     1      -9.047   5.352  71.253  1.00  0.00    -0.142 C  
HETATM   18  O   UNL     1      -8.764   5.072  72.416  1.00  0.00    -0.122 OA 
HETATM   19  N   UNL     1      -8.570   6.474  70.625  1.00  0.00    -0.138 N  
HETATM   20  O   UNL     1      -8.784   6.785  69.271  1.00  0.00    -0.134 OA 
BRANCH  19  21
HETATM   21  C   UNL     1      -7.722   7.462  71.276  1.00  0.00    -0.087 C  
BRANCH  21  22
HETATM   22  C   UNL     1      -8.424   8.812  71.448  1.00  0.00    -0.245 C  
BRANCH  22  23
HETATM   23  C   UNL     1      -9.884   8.674  71.918  1.00  0.00    -0.384 C  
BRANCH  23  24
HETATM   24  C   UNL     1     -10.850   9.591  71.166  1.00  0.00    -0.425 C  
BRANCH  24  25
HETATM   25  C   UNL     1     -11.520   8.865  70.001  1.00  0.00     0.033 C  
BRANCH  25  26
HETATM   26  N   UNL     1     -10.890   9.187  68.737  1.00  0.00    -0.420 N  
HETATM   27  H   UNL     1     -10.125   8.601  68.401  1.00  0.00     0.000 HD 
HETATM   28  C   UNL     1     -11.293  10.259  67.977  1.00  0.00    -0.146 C  
HETATM   29  O   UNL     1     -12.216  11.004  68.293  1.00  0.00    -0.582 OA 
BRANCH  28  30
HETATM   30  C   UNL     1     -10.503  10.463  66.710  1.00  0.00    -0.287 C  
BRANCH  30  31
HETATM   31  C   UNL     1     -10.967  11.736  66.020  1.00  0.00    -0.355 C  
BRANCH  31  32
HETATM   32  C   UNL     1     -10.186  12.935  66.515  1.00  0.00    -0.259 C  
HETATM   33  N   UNL     1     -10.882  14.007  67.019  1.00  0.00    -0.288 N  
HETATM   34  O   UNL     1      -8.954  12.889  66.532  1.00  0.00    -0.183 OA 
HETATM   35  O   UNL     1     -12.213  14.224  66.614  1.00  0.00    -0.449 OA 
BRANCH  33  36
HETATM   36  C   UNL     1     -10.222  15.239  67.454  1.00  0.00    -0.243 C  
BRANCH  36  37
HETATM   37  C   UNL     1     -10.128  16.272  66.329  1.00  0.00    -0.340 C  
BRANCH  37  38
HETATM   38  C   UNL     1      -9.618  17.627  66.832  1.00  0.00    -0.286 C  
BRANCH  38  39
HETATM   39  C   UNL     1     -10.653  18.736  66.615  1.00  0.00    -0.446 C  
BRANCH  39  40
HETATM   40  C   UNL     1     -10.029  20.026  66.081  1.00  0.00    -0.468 C  
HETATM   41  N   UNL     1      -8.577  19.924  65.981  1.00  0.00    -0.464 NA 
HETATM   42  H2  UNL     1      -8.299  19.117  65.422  1.00  0.00     0.000 HD 
HETATM   43  H1  UNL     1      -8.161  20.784  65.624  1.00  0.00     0.000 HD 
ENDBRANCH  39  40
ENDBRANCH  38  39
ENDBRANCH  37  38
ENDBRANCH  36  37
ENDBRANCH  33  36
ENDBRANCH  31  32
ENDBRANCH  30  31
ENDBRANCH  28  30
ENDBRANCH  25  26
ENDBRANCH  24  25
ENDBRANCH  23  24
ENDBRANCH  22  23
ENDBRANCH  21  22
ENDBRANCH  19  21
ENDBRANCH  16  17
ENDBRANCH  15  16
ENDBRANCH  12  15
ENDBRANCH  10  11
ENDBRANCH   9  10
ENDBRANCH   8   9
ENDBRANCH   7   8
ENDBRANCH   6   7
ENDBRANCH   3   6
TORSDOF 23
ENDMDL
MODEL      205
REMARK 921   NORMALIZED FREE ENERGY PREDICTED BY IDOCK:   -3.98 KCAL/MOL
REMARK 922        TOTAL FREE ENERGY PREDICTED BY IDOCK:  -12.09 KCAL/MOL
REMARK 923 INTER-LIGAND FREE ENERGY PREDICTED BY IDOCK:   -9.98 KCAL/MOL
REMARK 924 INTRA-LIGAND FREE ENERGY PREDICTED BY IDOCK:   -2.11 KCAL/MOL
REMARK 927      BINDING AFFINITY PREDICTED BY RF-SCORE:    0.00 PKD
ROOT
HETATM    1  C   UNL     1      -6.628  11.529  68.735  1.00  0.00    -0.070 C  
HETATM    2  C   UNL     1      -6.425  10.554  67.605  1.00  0.00    -0.057 C  
HETATM    3  N   UNL     1      -7.341  10.586  66.587  1.00  0.00    -0.113 N  
HETATM    4  O   UNL     1      -5.489   9.754  67.637  1.00  0.00    -0.036 OA 
HETATM    5  O   UNL     1      -8.326  11.578  66.442  1.00  0.00    -0.172 OA 
ENDROOT
BRANCH   3   6
HETATM    6  C   UNL     1      -7.290   9.698  65.434  1.00  0.00    -0.108 C  
BRANCH   6   7
HETATM    7  C   UNL     1      -6.428  10.260  64.302  1.00  0.00    -0.083 C  
BRANCH   7   8
HETATM    8  C   UNL     1      -6.996   9.848  62.943  1.00  0.00    -0.122 C  
BRANCH   8   9
HETATM    9  C   UNL     1      -8.524   9.773  62.956  1.00  0.00    -0.180 C  
BRANCH   9  10
HETATM   10  C   UNL     1      -9.174  11.122  62.646  1.00  0.00    -0.323 C  
BRANCH  10  11
HETATM   11  N   UNL     1      -9.795  11.722  63.817  1.00  0.00    -0.443 N  
HETATM   12  C   UNL     1     -11.162  11.853  63.910  1.00  0.00    -0.420 C  
HETATM   13  H   UNL     1      -9.207  12.052  64.582  1.00  0.00     0.000 HD 
HETATM   14  O   UNL     1     -11.948  11.450  63.057  1.00  0.00    -0.022 OA 
BRANCH  12  15
HETATM   15  C   UNL     1     -11.612  12.535  65.184  1.00  0.00    -0.395 C  
BRANCH  15  16
HETATM   16  C   UNL     1     -11.983  13.990  64.910  1.00  0.00    -0.416 C  
BRANCH  16  17
HETATM   17  C   UNL     1     -10.986  14.964  65.507  1.00  0.00    -0.350 C  
HETATM   18  O   UNL     1     -10.299  14.655  66.479  1.00  0.00    -0.272 OA 
HETATM   19  N   UNL     1     -10.926  16.203  64.923  1.00  0.00    -0.417 N  
HETATM   20  O   UNL     1     -11.616  16.570  63.754  1.00  0.00    -1.109 OA 
BRANCH  19  21
HETATM   21  C   UNL     1     -10.082  17.284  65.410  1.00  0.00     0.235 C  
BRANCH  21  22
HETATM   22  C   UNL     1     -10.664  17.966  66.651  1.00  0.00    -0.137 C  
BRANCH  22  23
HETATM   23  C   UNL     1      -9.781  17.794  67.901  1.00  0.00    -0.294 C  
BRANCH  23  24
HETATM   24  C   UNL     1     -10.584  17.579  69.184  1.00  0.00    -0.091 C  
BRANCH  24  25
HETATM   25  C   UNL     1     -10.374  16.176  69.749  1.00  0.00    -0.244 C  
BRANCH  25  26
HETATM   26  N   UNL     1     -11.301  15.888  70.826  1.00  0.00    -0.373 N  
HETATM   27  H   UNL     1     -10.966  15.915  71.789  1.00  0.00     0.000 HD 
HETATM   28  C   UNL     1     -12.619  15.581  70.585  1.00  0.00    -0.443 C  
HETATM   29  O   UNL     1     -13.113  15.546  69.462  1.00  0.00     0.334 OA 
BRANCH  28  30
HETATM   30  C   UNL     1     -13.429  15.278  71.820  1.00  0.00    -0.558 C  
BRANCH  30  31
HETATM   31  C   UNL     1     -12.758  14.162  72.607  1.00  0.00    -0.363 C  
BRANCH  31  32
HETATM   32  C   UNL     1     -13.307  12.810  72.203  1.00  0.00    -0.492 C  
HETATM   33  N   UNL     1     -12.536  12.004  71.401  1.00  0.00    -0.285 N  
HETATM   34  O   UNL     1     -14.387  12.434  72.665  1.00  0.00     0.046 OA 
HETATM   35  O   UNL     1     -11.560  12.582  70.567  1.00  0.00    -0.043 OA 
BRANCH  33  36
HETATM   36  C   UNL     1     -13.008  10.713  70.898  1.00  0.00    -0.340 C  
BRANCH  36  37
HETATM   37  C   UNL     1     -13.338   9.738  72.030  1.00  0.00    -0.547 C  
BRANCH  37  38
HETATM   38  C   UNL     1     -13.664   8.335  71.507  1.00  0.00    -0.354 C  
BRANCH  38  39
HETATM   39  C   UNL     1     -12.573   7.326  71.876  1.00  0.00    -0.326 C  
BRANCH  39  40
HETATM   40  C   UNL     1     -11.707   6.931  70.679  1.00  0.00    -0.367 C  
HETATM   41  N   UNL     1     -10.722   7.959  70.361  1.00  0.00    -0.229 NA 
HETATM   42  H2  UNL     1     -10.150   8.189  71.174  1.00  0.00     0.000 HD 
HETATM   43  H1  UNL     1     -10.145   7.696  69.562  1.00  0.00     0.000 HD 
ENDBRANCH  39  40
ENDBRANCH  38  39
ENDBRANCH  37  38
ENDBRANCH  36  37
ENDBRANCH  33  36
ENDBRANCH  31  32
ENDBRANCH  30  31
ENDBRANCH  28  30
ENDBRANCH  25  26
ENDBRANCH  24  25
ENDBRANCH  23  24
ENDBRANCH  22  23
ENDBRANCH  21  22
ENDBRANCH  19  21
ENDBRANCH  16  17
ENDBRANCH  15  16
ENDBRANCH  12  15
ENDBRANCH  10  11
ENDBRANCH   9  10
ENDBRANCH   8   9
ENDBRANCH   7   8
ENDBRANCH   6   7
ENDBRANCH   3   6
TORSDOF 23
ENDMDL
MODEL      206
REMARK 921   NORMALIZED FREE ENERGY PREDICTED BY IDOCK:   -3.97 KCAL/MOL
REMARK 922        TOTAL FREE ENERGY PREDICTED BY IDOCK:  -12.06 KCAL/MOL
REMARK 923 INTER-LIGAND FREE ENERGY PREDICTED BY IDOCK:   -8.92 KCAL/MOL
REMARK 924 INTRA-LIGAND FREE ENERGY PREDICTED BY IDOCK:   -3.14 KCAL/MOL
REMARK 927      BINDING AFFINITY PREDICTED BY RF-SCORE:    0.00 PKD
ROOT
HETATM    1  C   UNL     1     -11.933  15.363  70.443  1.00  0.00    -0.387 C  
HETATM    2  C   UNL     1     -11.977  14.195  69.494  1.00  0.00    -0.340 C  
HETATM    3  N   UNL     1     -11.811  14.474  68.162  1.00  0.00    -0.329 N  
HETATM    4  O   UNL     1     -12.187  13.058  69.917  1.00  0.00    -0.277 OA 
HETATM    5  O   UNL     1     -11.422  15.727  67.660  1.00  0.00    -0.254 OA 
ENDROOT
BRANCH   3   6
HETATM    6  C   UNL     1     -11.843  13.457  67.120  1.00  0.00    -0.382 C  
BRANCH   6   7
HETATM    7  C   UNL     1     -12.535  13.948  65.847  1.00  0.00    -0.519 C  
BRANCH   7   8
HETATM    8  C   UNL     1     -12.441  12.891  64.746  1.00  0.00    -0.517 C  
BRANCH   8   9
HETATM    9  C   UNL     1     -11.008  12.712  64.240  1.00  0.00    -0.404 C  
BRANCH   9  10
HETATM   10  C   UNL     1     -10.586  11.242  64.201  1.00  0.00    -0.373 C  
BRANCH  10  11
HETATM   11  N   UNL     1      -9.144  11.081  64.094  1.00  0.00    -0.340 N  
HETATM   12  C   UNL     1      -8.589  10.231  63.164  1.00  0.00    -0.194 C  
HETATM   13  H   UNL     1      -8.534  11.607  64.720  1.00  0.00     0.000 HD 
HETATM   14  O   UNL     1      -9.243   9.590  62.346  1.00  0.00    -0.279 OA 
BRANCH  12  15
HETATM   15  C   UNL     1      -7.078  10.172  63.236  1.00  0.00    -0.127 C  
BRANCH  15  16
HETATM   16  C   UNL     1      -6.629   8.962  64.051  1.00  0.00    -0.083 C  
BRANCH  16  17
HETATM   17  C   UNL     1      -6.312   9.320  65.490  1.00  0.00    -0.064 C  
HETATM   18  O   UNL     1      -6.388  10.480  65.889  1.00  0.00    -0.109 OA 
HETATM   19  N   UNL     1      -5.912   8.285  66.296  1.00  0.00    -0.041 N  
HETATM   20  O   UNL     1      -5.905   6.932  65.916  1.00  0.00    -0.032 OA 
BRANCH  19  21
HETATM   21  C   UNL     1      -5.499   8.457  67.682  1.00  0.00    -0.035 C  
BRANCH  21  22
HETATM   22  C   UNL     1      -6.652   8.239  68.666  1.00  0.00    -0.054 C  
BRANCH  22  23
HETATM   23  C   UNL     1      -6.754   6.784  69.159  1.00  0.00    -0.056 C  
BRANCH  23  24
HETATM   24  C   UNL     1      -5.908   6.506  70.403  1.00  0.00    -0.023 C  
BRANCH  24  25
HETATM   25  C   UNL     1      -6.755   6.531  71.674  1.00  0.00    -0.062 C  
BRANCH  25  26
HETATM   26  N   UNL     1      -8.123   6.129  71.414  1.00  0.00    -0.116 N  
HETATM   27  H   UNL     1      -8.621   6.547  70.627  1.00  0.00     0.000 HD 
HETATM   28  C   UNL     1      -8.767   5.201  72.196  1.00  0.00    -0.129 C  
HETATM   29  O   UNL     1      -8.240   4.634  73.148  1.00  0.00    -0.099 OA 
BRANCH  28  30
HETATM   30  C   UNL     1     -10.196   4.930  71.800  1.00  0.00    -0.268 C  
BRANCH  30  31
HETATM   31  C   UNL     1     -11.135   5.624  72.773  1.00  0.00    -0.334 C  
BRANCH  31  32
HETATM   32  C   UNL     1     -11.784   6.832  72.130  1.00  0.00    -0.297 C  
HETATM   33  N   UNL     1     -11.061   7.998  72.051  1.00  0.00    -0.273 N  
HETATM   34  O   UNL     1     -12.902   6.720  71.624  1.00  0.00    -0.358 OA 
HETATM   35  O   UNL     1     -10.019   8.234  72.968  1.00  0.00    -0.269 OA 
BRANCH  33  36
HETATM   36  C   UNL     1     -11.625   9.238  71.514  1.00  0.00    -0.382 C  
BRANCH  36  37
HETATM   37  C   UNL     1     -10.951   9.660  70.208  1.00  0.00    -0.337 C  
BRANCH  37  38
HETATM   38  C   UNL     1     -10.761   8.480  69.248  1.00  0.00    -0.147 C  
BRANCH  38  39
HETATM   39  C   UNL     1     -10.401   8.951  67.836  1.00  0.00    -0.286 C  
BRANCH  39  40
HETATM   40  C   UNL     1     -10.347  10.475  67.721  1.00  0.00    -0.212 C  
HETATM   41  N   UNL     1      -9.014  10.942  67.353  1.00  0.00    -0.136 NA 
HETATM   42  H2  UNL     1      -8.685  10.493  66.499  1.00  0.00     0.000 HD 
HETATM   43  H1  UNL     1      -8.978  11.959  67.276  1.00  0.00     0.000 HD 
ENDBRANCH  39  40
ENDBRANCH  38  39
ENDBRANCH  37  38
ENDBRANCH  36  37
ENDBRANCH  33  36
ENDBRANCH  31  32
ENDBRANCH  30  31
ENDBRANCH  28  30
ENDBRANCH  25  26
ENDBRANCH  24  25
ENDBRANCH  23  24
ENDBRANCH  22  23
ENDBRANCH  21  22
ENDBRANCH  19  21
ENDBRANCH  16  17
ENDBRANCH  15  16
ENDBRANCH  12  15
ENDBRANCH  10  11
ENDBRANCH   9  10
ENDBRANCH   8   9
ENDBRANCH   7   8
ENDBRANCH   6   7
ENDBRANCH   3   6
TORSDOF 23
ENDMDL
MODEL      207
REMARK 921   NORMALIZED FREE ENERGY PREDICTED BY IDOCK:   -3.96 KCAL/MOL
REMARK 922        TOTAL FREE ENERGY PREDICTED BY IDOCK:  -12.04 KCAL/MOL
REMARK 923 INTER-LIGAND FREE ENERGY PREDICTED BY IDOCK:   -9.81 KCAL/MOL
REMARK 924 INTRA-LIGAND FREE ENERGY PREDICTED BY IDOCK:   -2.23 KCAL/MOL
REMARK 927      BINDING AFFINITY PREDICTED BY RF-SCORE:    0.00 PKD
ROOT
HETATM    1  C   UNL     1      -6.662   3.604  69.947  1.00  0.00    -0.034 C  
HETATM    2  C   UNL     1      -7.528   3.095  71.069  1.00  0.00    -0.036 C  
HETATM    3  N   UNL     1      -8.788   3.624  71.167  1.00  0.00    -0.078 N  
HETATM    4  O   UNL     1      -7.088   2.267  71.867  1.00  0.00    -0.032 OA 
HETATM    5  O   UNL     1      -9.375   4.451  70.195  1.00  0.00    -0.122 OA 
ENDROOT
BRANCH   3   6
HETATM    6  C   UNL     1      -9.738   3.247  72.206  1.00  0.00    -0.153 C  
BRANCH   6   7
HETATM    7  C   UNL     1      -9.975   4.372  73.215  1.00  0.00    -0.183 C  
BRANCH   7   8
HETATM    8  C   UNL     1     -11.452   4.773  73.231  1.00  0.00    -0.361 C  
BRANCH   8   9
HETATM    9  C   UNL     1     -11.717   6.023  72.389  1.00  0.00    -0.322 C  
BRANCH   9  10
HETATM   10  C   UNL     1     -11.029   7.263  72.959  1.00  0.00    -0.344 C  
BRANCH  10  11
HETATM   11  N   UNL     1     -10.811   8.291  71.952  1.00  0.00    -0.262 N  
HETATM   12  C   UNL     1     -11.799   9.195  71.631  1.00  0.00    -0.372 C  
HETATM   13  H   UNL     1      -9.911   8.342  71.475  1.00  0.00     0.000 HD 
HETATM   14  O   UNL     1     -12.897   9.233  72.180  1.00  0.00    -0.379 OA 
BRANCH  12  15
HETATM   15  C   UNL     1     -11.394  10.157  70.535  1.00  0.00    -0.416 C  
BRANCH  15  16
HETATM   16  C   UNL     1     -10.857   9.396  69.326  1.00  0.00    -0.190 C  
BRANCH  16  17
HETATM   17  C   UNL     1      -9.935  10.244  68.471  1.00  0.00    -0.164 C  
HETATM   18  O   UNL     1      -9.185  11.076  68.978  1.00  0.00    -0.151 OA 
HETATM   19  N   UNL     1     -10.015  10.047  67.117  1.00  0.00    -0.191 N  
HETATM   20  O   UNL     1     -10.780   9.042  66.499  1.00  0.00    -0.113 OA 
BRANCH  19  21
HETATM   21  C   UNL     1      -9.259  10.822  66.144  1.00  0.00    -0.180 C  
BRANCH  21  22
HETATM   22  C   UNL     1      -9.817  12.236  65.963  1.00  0.00    -0.263 C  
BRANCH  22  23
HETATM   23  C   UNL     1     -11.180  12.257  65.247  1.00  0.00    -0.372 C  
BRANCH  23  24
HETATM   24  C   UNL     1     -12.177  13.234  65.873  1.00  0.00    -0.497 C  
BRANCH  24  25
HETATM   25  C   UNL     1     -11.896  13.446  67.359  1.00  0.00    -0.375 C  
BRANCH  25  26
HETATM   26  N   UNL     1     -11.226  14.708  67.602  1.00  0.00    -0.307 N  
HETATM   27  H   UNL     1     -10.695  15.140  66.846  1.00  0.00     0.000 HD 
HETATM   28  C   UNL     1     -11.287  15.338  68.822  1.00  0.00    -0.308 C  
HETATM   29  O   UNL     1     -11.918  14.901  69.779  1.00  0.00    -0.291 OA 
BRANCH  28  30
HETATM   30  C   UNL     1     -10.503  16.623  68.904  1.00  0.00    -0.322 C  
BRANCH  30  31
HETATM   31  C   UNL     1     -10.976  17.579  67.820  1.00  0.00    -0.126 C  
BRANCH  31  32
HETATM   32  C   UNL     1      -9.887  17.815  66.795  1.00  0.00    -0.320 C  
HETATM   33  N   UNL     1      -8.948  18.785  67.050  1.00  0.00    -0.284 N  
HETATM   34  O   UNL     1      -9.820  17.084  65.805  1.00  0.00    -0.525 OA 
HETATM   35  O   UNL     1      -9.265  19.850  67.915  1.00  0.00    -0.328 OA 
BRANCH  33  36
HETATM   36  C   UNL     1      -7.901  19.138  66.090  1.00  0.00    -0.282 C  
BRANCH  36  37
HETATM   37  C   UNL     1      -6.516  18.681  66.552  1.00  0.00    -0.215 C  
BRANCH  37  38
HETATM   38  C   UNL     1      -6.221  17.233  66.147  1.00  0.00    -0.122 C  
BRANCH  38  39
HETATM   39  C   UNL     1      -6.057  16.326  67.370  1.00  0.00    -0.197 C  
BRANCH  39  40
HETATM   40  C   UNL     1      -7.210  15.332  67.525  1.00  0.00    -0.197 C  
HETATM   41  N   UNL     1      -6.808  13.977  67.165  1.00  0.00    -0.393 NA 
HETATM   42  H2  UNL     1      -5.988  13.680  67.693  1.00  0.00     0.000 HD 
HETATM   43  H1  UNL     1      -7.577  13.314  67.268  1.00  0.00     0.000 HD 
ENDBRANCH  39  40
ENDBRANCH  38  39
ENDBRANCH  37  38
ENDBRANCH  36  37
ENDBRANCH  33  36
ENDBRANCH  31  32
ENDBRANCH  30  31
ENDBRANCH  28  30
ENDBRANCH  25  26
ENDBRANCH  24  25
ENDBRANCH  23  24
ENDBRANCH  22  23
ENDBRANCH  21  22
ENDBRANCH  19  21
ENDBRANCH  16  17
ENDBRANCH  15  16
ENDBRANCH  12  15
ENDBRANCH  10  11
ENDBRANCH   9  10
ENDBRANCH   8   9
ENDBRANCH   7   8
ENDBRANCH   6   7
ENDBRANCH   3   6
TORSDOF 23
ENDMDL
MODEL      208
REMARK 921   NORMALIZED FREE ENERGY PREDICTED BY IDOCK:   -3.96 KCAL/MOL
REMARK 922        TOTAL FREE ENERGY PREDICTED BY IDOCK:  -12.04 KCAL/MOL
REMARK 923 INTER-LIGAND FREE ENERGY PREDICTED BY IDOCK:  -10.65 KCAL/MOL
REMARK 924 INTRA-LIGAND FREE ENERGY PREDICTED BY IDOCK:   -1.39 KCAL/MOL
REMARK 927      BINDING AFFINITY PREDICTED BY RF-SCORE:    0.00 PKD
ROOT
HETATM    1  C   UNL     1      -6.315  20.088  70.287  1.00  0.00    -0.354 C  
HETATM    2  C   UNL     1      -6.365  20.220  68.788  1.00  0.00    -0.312 C  
HETATM    3  N   UNL     1      -7.474  19.717  68.159  1.00  0.00    -0.302 N  
HETATM    4  O   UNL     1      -5.425  20.730  68.177  1.00  0.00    -0.242 OA 
HETATM    5  O   UNL     1      -8.626  19.269  68.828  1.00  0.00    -0.357 OA 
ENDROOT
BRANCH   3   6
HETATM    6  C   UNL     1      -7.664  19.755  66.716  1.00  0.00    -0.281 C  
BRANCH   6   7
HETATM    7  C   UNL     1      -7.056  18.537  66.016  1.00  0.00    -0.306 C  
BRANCH   7   8
HETATM    8  C   UNL     1      -8.006  17.341  66.103  1.00  0.00    -0.292 C  
BRANCH   8   9
HETATM    9  C   UNL     1      -7.430  16.210  66.956  1.00  0.00    -0.264 C  
BRANCH   9  10
HETATM   10  C   UNL     1      -8.330  14.974  66.965  1.00  0.00    -0.222 C  
BRANCH  10  11
HETATM   11  N   UNL     1      -9.286  14.975  65.867  1.00  0.00    -0.489 N  
HETATM   12  C   UNL     1     -10.628  15.179  66.093  1.00  0.00    -0.313 C  
HETATM   13  H   UNL     1      -8.955  14.822  64.915  1.00  0.00     0.000 HD 
HETATM   14  O   UNL     1     -11.110  15.410  67.199  1.00  0.00    -0.327 OA 
BRANCH  12  15
HETATM   15  C   UNL     1     -11.464  15.106  64.833  1.00  0.00    -0.374 C  
BRANCH  15  16
HETATM   16  C   UNL     1     -12.553  14.046  64.974  1.00  0.00    -0.416 C  
BRANCH  16  17
HETATM   17  C   UNL     1     -11.994  12.689  65.355  1.00  0.00    -0.446 C  
HETATM   18  O   UNL     1     -12.269  12.168  66.435  1.00  0.00    -0.592 OA 
HETATM   19  N   UNL     1     -11.150  12.106  64.446  1.00  0.00    -0.315 N  
HETATM   20  O   UNL     1     -10.885  12.613  63.162  1.00  0.00    -0.254 OA 
BRANCH  19  21
HETATM   21  C   UNL     1     -10.466  10.842  64.677  1.00  0.00    -0.314 C  
BRANCH  21  22
HETATM   22  C   UNL     1      -9.530  10.897  65.888  1.00  0.00    -0.241 C  
BRANCH  22  23
HETATM   23  C   UNL     1      -8.491   9.760  65.894  1.00  0.00    -0.136 C  
BRANCH  23  24
HETATM   24  C   UNL     1      -8.791   8.672  66.926  1.00  0.00    -0.147 C  
BRANCH  24  25
HETATM   25  C   UNL     1     -10.195   8.823  67.508  1.00  0.00    -0.246 C  
BRANCH  25  26
HETATM   26  N   UNL     1     -10.186   8.742  68.955  1.00  0.00    -0.203 N  
HETATM   27  H   UNL     1      -9.621   8.023  69.407  1.00  0.00     0.000 HD 
HETATM   28  C   UNL     1     -10.917   9.606  69.735  1.00  0.00    -0.240 C  
HETATM   29  O   UNL     1     -11.607  10.512  69.278  1.00  0.00    -0.261 OA 
BRANCH  28  30
HETATM   30  C   UNL     1     -10.815   9.354  71.217  1.00  0.00    -0.431 C  
BRANCH  30  31
HETATM   31  C   UNL     1     -11.426   8.001  71.546  1.00  0.00    -0.303 C  
BRANCH  31  32
HETATM   32  C   UNL     1     -10.713   7.355  72.716  1.00  0.00    -0.314 C  
HETATM   33  N   UNL     1     -10.996   6.044  73.011  1.00  0.00    -0.260 N  
HETATM   34  O   UNL     1      -9.843   7.989  73.317  1.00  0.00    -0.291 OA 
HETATM   35  O   UNL     1     -12.234   5.495  72.626  1.00  0.00    -0.143 OA 
BRANCH  33  36
HETATM   36  C   UNL     1     -10.414   5.354  74.165  1.00  0.00    -0.278 C  
BRANCH  36  37
HETATM   37  C   UNL     1      -9.099   4.654  73.815  1.00  0.00    -0.108 C  
BRANCH  37  38
HETATM   38  C   UNL     1      -7.877   5.479  74.231  1.00  0.00    -0.098 C  
BRANCH  38  39
HETATM   39  C   UNL     1      -6.656   5.157  73.364  1.00  0.00    -0.071 C  
BRANCH  39  40
HETATM   40  C   UNL     1      -6.011   6.409  72.767  1.00  0.00    -0.042 C  
HETATM   41  N   UNL     1      -6.875   7.578  72.900  1.00  0.00    -0.065 NA 
HETATM   42  H2  UNL     1      -7.151   7.728  73.870  1.00  0.00     0.000 HD 
HETATM   43  H1  UNL     1      -6.446   8.413  72.501  1.00  0.00     0.000 HD 
ENDBRANCH  39  40
ENDBRANCH  38  39
ENDBRANCH  37  38
ENDBRANCH  36  37
ENDBRANCH  33  36
ENDBRANCH  31  32
ENDBRANCH  30  31
ENDBRANCH  28  30
ENDBRANCH  25  26
ENDBRANCH  24  25
ENDBRANCH  23  24
ENDBRANCH  22  23
ENDBRANCH  21  22
ENDBRANCH  19  21
ENDBRANCH  16  17
ENDBRANCH  15  16
ENDBRANCH  12  15
ENDBRANCH  10  11
ENDBRANCH   9  10
ENDBRANCH   8   9
ENDBRANCH   7   8
ENDBRANCH   6   7
ENDBRANCH   3   6
TORSDOF 23
ENDMDL
MODEL      209
REMARK 921   NORMALIZED FREE ENERGY PREDICTED BY IDOCK:   -3.94 KCAL/MOL
REMARK 922        TOTAL FREE ENERGY PREDICTED BY IDOCK:  -11.99 KCAL/MOL
REMARK 923 INTER-LIGAND FREE ENERGY PREDICTED BY IDOCK:   -8.78 KCAL/MOL
REMARK 924 INTRA-LIGAND FREE ENERGY PREDICTED BY IDOCK:   -3.22 KCAL/MOL
REMARK 927      BINDING AFFINITY PREDICTED BY RF-SCORE:    0.00 PKD
ROOT
HETATM    1  C   UNL     1     -14.163   7.409  71.732  1.00  0.00    -0.544 C  
HETATM    2  C   UNL     1     -12.829   7.532  71.043  1.00  0.00    -0.135 C  
HETATM    3  N   UNL     1     -12.236   8.767  71.058  1.00  0.00    -0.242 N  
HETATM    4  O   UNL     1     -12.333   6.559  70.472  1.00  0.00    -0.259 OA 
HETATM    5  O   UNL     1     -12.694   9.854  71.821  1.00  0.00    -0.377 OA 
ENDROOT
BRANCH   3   6
HETATM    6  C   UNL     1     -10.956   9.049  70.423  1.00  0.00    -0.247 C  
BRANCH   6   7
HETATM    7  C   UNL     1      -9.769   8.631  71.293  1.00  0.00    -0.305 C  
BRANCH   7   8
HETATM    8  C   UNL     1      -8.515   8.449  70.435  1.00  0.00    -0.130 C  
BRANCH   8   9
HETATM    9  C   UNL     1      -7.997   9.779  69.884  1.00  0.00    -0.184 C  
BRANCH   9  10
HETATM   10  C   UNL     1      -6.545  10.045  70.282  1.00  0.00    -0.127 C  
BRANCH  10  11
HETATM   11  N   UNL     1      -6.249  11.466  70.387  1.00  0.00    -0.221 N  
HETATM   12  C   UNL     1      -5.787  12.180  69.304  1.00  0.00    -0.079 C  
HETATM   13  H   UNL     1      -6.386  11.941  71.279  1.00  0.00     0.000 HD 
HETATM   14  O   UNL     1      -5.630  11.700  68.185  1.00  0.00    -0.043 OA 
BRANCH  12  15
HETATM   15  C   UNL     1      -5.501  13.632  69.624  1.00  0.00    -0.091 C  
BRANCH  15  16
HETATM   16  C   UNL     1      -6.728  14.494  69.336  1.00  0.00    -0.142 C  
BRANCH  16  17
HETATM   17  C   UNL     1      -6.518  15.420  68.153  1.00  0.00    -0.125 C  
HETATM   18  O   UNL     1      -6.910  15.114  67.029  1.00  0.00    -0.230 OA 
HETATM   19  N   UNL     1      -5.845  16.586  68.410  1.00  0.00    -0.117 N  
HETATM   20  O   UNL     1      -5.465  17.024  69.691  1.00  0.00    -0.158 OA 
BRANCH  19  21
HETATM   21  C   UNL     1      -5.491  17.555  67.384  1.00  0.00    -0.136 C  
BRANCH  21  22
HETATM   22  C   UNL     1      -6.333  18.831  67.470  1.00  0.00    -0.192 C  
BRANCH  22  23
HETATM   23  C   UNL     1      -7.610  18.767  66.610  1.00  0.00    -0.259 C  
BRANCH  23  24
HETATM   24  C   UNL     1      -8.896  18.899  67.427  1.00  0.00    -0.293 C  
BRANCH  24  25
HETATM   25  C   UNL     1      -9.041  17.758  68.433  1.00  0.00    -0.278 C  
BRANCH  25  26
HETATM   26  N   UNL     1      -9.780  16.644  67.875  1.00  0.00    -0.240 N  
HETATM   27  H   UNL     1      -9.954  16.618  66.870  1.00  0.00     0.000 HD 
HETATM   28  C   UNL     1     -10.252  15.620  68.661  1.00  0.00    -0.212 C  
HETATM   29  O   UNL     1     -10.072  15.559  69.874  1.00  0.00    -0.286 OA 
BRANCH  28  30
HETATM   30  C   UNL     1     -11.028  14.563  67.917  1.00  0.00    -0.277 C  
BRANCH  30  31
HETATM   31  C   UNL     1     -10.354  14.280  66.584  1.00  0.00    -0.279 C  
BRANCH  31  32
HETATM   32  C   UNL     1      -9.660  12.934  66.604  1.00  0.00    -0.257 C  
HETATM   33  N   UNL     1      -9.691  12.166  65.465  1.00  0.00    -0.218 N  
HETATM   34  O   UNL     1      -9.021  12.598  67.603  1.00  0.00    -0.169 OA 
HETATM   35  O   UNL     1     -10.731  12.345  64.532  1.00  0.00    -0.288 OA 
BRANCH  33  36
HETATM   36  C   UNL     1      -9.114  10.822  65.407  1.00  0.00    -0.194 C  
BRANCH  36  37
HETATM   37  C   UNL     1     -10.159   9.734  65.660  1.00  0.00    -0.282 C  
BRANCH  37  38
HETATM   38  C   UNL     1      -9.926   9.007  66.989  1.00  0.00    -0.295 C  
BRANCH  38  39
HETATM   39  C   UNL     1      -9.628   7.520  66.776  1.00  0.00    -0.265 C  
BRANCH  39  40
HETATM   40  C   UNL     1     -10.830   6.628  67.092  1.00  0.00    -0.401 C  
HETATM   41  N   UNL     1     -10.432   5.241  67.309  1.00  0.00    -0.200 NA 
HETATM   42  H2  UNL     1      -9.716   5.169  68.031  1.00  0.00     0.000 HD 
HETATM   43  H1  UNL     1     -11.234   4.646  67.519  1.00  0.00     0.000 HD 
ENDBRANCH  39  40
ENDBRANCH  38  39
ENDBRANCH  37  38
ENDBRANCH  36  37
ENDBRANCH  33  36
ENDBRANCH  31  32
ENDBRANCH  30  31
ENDBRANCH  28  30
ENDBRANCH  25  26
ENDBRANCH  24  25
ENDBRANCH  23  24
ENDBRANCH  22  23
ENDBRANCH  21  22
ENDBRANCH  19  21
ENDBRANCH  16  17
ENDBRANCH  15  16
ENDBRANCH  12  15
ENDBRANCH  10  11
ENDBRANCH   9  10
ENDBRANCH   8   9
ENDBRANCH   7   8
ENDBRANCH   6   7
ENDBRANCH   3   6
TORSDOF 23
ENDMDL
MODEL      210
REMARK 921   NORMALIZED FREE ENERGY PREDICTED BY IDOCK:   -3.94 KCAL/MOL
REMARK 922        TOTAL FREE ENERGY PREDICTED BY IDOCK:  -11.99 KCAL/MOL
REMARK 923 INTER-LIGAND FREE ENERGY PREDICTED BY IDOCK:  -10.06 KCAL/MOL
REMARK 924 INTRA-LIGAND FREE ENERGY PREDICTED BY IDOCK:   -1.93 KCAL/MOL
REMARK 927      BINDING AFFINITY PREDICTED BY RF-SCORE:    0.00 PKD
ROOT
HETATM    1  C   UNL     1     -11.690  12.040  63.580  1.00  0.00    -0.566 C  
HETATM    2  C   UNL     1     -10.572  11.725  64.539  1.00  0.00    -0.313 C  
HETATM    3  N   UNL     1      -9.691  10.746  64.162  1.00  0.00    -0.281 N  
HETATM    4  O   UNL     1     -10.497  12.312  65.619  1.00  0.00    -0.248 OA 
HETATM    5  O   UNL     1      -9.655  10.165  62.883  1.00  0.00    -0.300 OA 
ENDROOT
BRANCH   3   6
HETATM    6  C   UNL     1      -8.568  10.317  64.985  1.00  0.00    -0.180 C  
BRANCH   6   7
HETATM    7  C   UNL     1      -7.365   9.879  64.147  1.00  0.00    -0.133 C  
BRANCH   7   8
HETATM    8  C   UNL     1      -6.765   8.589  64.709  1.00  0.00    -0.068 C  
BRANCH   8   9
HETATM    9  C   UNL     1      -6.626   7.505  63.638  1.00  0.00    -0.053 C  
BRANCH   9  10
HETATM   10  C   UNL     1      -7.906   6.684  63.475  1.00  0.00    -0.109 C  
BRANCH  10  11
HETATM   11  N   UNL     1      -8.779   6.778  64.635  1.00  0.00    -0.319 N  
HETATM   12  C   UNL     1      -8.829   5.771  65.573  1.00  0.00    -0.113 C  
HETATM   13  H   UNL     1      -9.363   7.605  64.756  1.00  0.00     0.000 HD 
HETATM   14  O   UNL     1      -8.134   4.760  65.529  1.00  0.00    -0.107 OA 
BRANCH  12  15
HETATM   15  C   UNL     1      -9.823   6.038  66.683  1.00  0.00    -0.202 C  
BRANCH  15  16
HETATM   16  C   UNL     1      -9.689   7.472  67.187  1.00  0.00    -0.228 C  
BRANCH  16  17
HETATM   17  C   UNL     1      -9.258   7.536  68.640  1.00  0.00    -0.144 C  
HETATM   18  O   UNL     1      -8.972   6.516  69.264  1.00  0.00    -0.131 OA 
HETATM   19  N   UNL     1      -9.242   8.782  69.212  1.00  0.00    -0.148 N  
HETATM   20  O   UNL     1      -9.464   9.984  68.516  1.00  0.00    -0.142 OA 
BRANCH  19  21
HETATM   21  C   UNL     1      -8.926   9.022  70.612  1.00  0.00    -0.220 C  
BRANCH  21  22
HETATM   22  C   UNL     1      -9.788   8.182  71.558  1.00  0.00    -0.233 C  
BRANCH  22  23
HETATM   23  C   UNL     1     -11.069   8.909  72.009  1.00  0.00    -0.421 C  
BRANCH  23  24
HETATM   24  C   UNL     1     -12.051   9.166  70.866  1.00  0.00    -0.270 C  
BRANCH  24  25
HETATM   25  C   UNL     1     -12.831  10.463  71.078  1.00  0.00    -0.401 C  
BRANCH  25  26
HETATM   26  N   UNL     1     -12.058  11.623  70.681  1.00  0.00    -0.401 N  
HETATM   27  H   UNL     1     -11.614  12.192  71.401  1.00  0.00     0.000 HD 
HETATM   28  C   UNL     1     -11.907  11.976  69.361  1.00  0.00    -0.324 C  
HETATM   29  O   UNL     1     -12.388  11.339  68.429  1.00  0.00    -0.545 OA 
BRANCH  28  30
HETATM   30  C   UNL     1     -11.100  13.229  69.136  1.00  0.00    -0.259 C  
BRANCH  30  31
HETATM   31  C   UNL     1     -11.903  14.207  68.292  1.00  0.00    -0.391 C  
BRANCH  31  32
HETATM   32  C   UNL     1     -11.543  15.638  68.633  1.00  0.00    -0.382 C  
HETATM   33  N   UNL     1     -10.972  16.419  67.658  1.00  0.00    -0.275 N  
HETATM   34  O   UNL     1     -11.843  16.088  69.741  1.00  0.00    -0.312 OA 
HETATM   35  O   UNL     1     -10.269  15.810  66.601  1.00  0.00    -0.269 OA 
BRANCH  33  36
HETATM   36  C   UNL     1     -10.523  17.790  67.912  1.00  0.00    -0.397 C  
BRANCH  36  37
HETATM   37  C   UNL     1      -9.106  17.836  68.487  1.00  0.00    -0.282 C  
BRANCH  37  38
HETATM   38  C   UNL     1      -8.068  18.240  67.434  1.00  0.00    -0.232 C  
BRANCH  38  39
HETATM   39  C   UNL     1      -6.676  17.702  67.776  1.00  0.00    -0.190 C  
BRANCH  39  40
HETATM   40  C   UNL     1      -6.598  17.130  69.192  1.00  0.00    -0.231 C  
HETATM   41  N   UNL     1      -5.807  17.980  70.076  1.00  0.00    -0.239 NA 
HETATM   42  H2  UNL     1      -6.157  18.938  70.081  1.00  0.00     0.000 HD 
HETATM   43  H1  UNL     1      -5.755  17.598  71.021  1.00  0.00     0.000 HD 
ENDBRANCH  39  40
ENDBRANCH  38  39
ENDBRANCH  37  38
ENDBRANCH  36  37
ENDBRANCH  33  36
ENDBRANCH  31  32
ENDBRANCH  30  31
ENDBRANCH  28  30
ENDBRANCH  25  26
ENDBRANCH  24  25
ENDBRANCH  23  24
ENDBRANCH  22  23
ENDBRANCH  21  22
ENDBRANCH  19  21
ENDBRANCH  16  17
ENDBRANCH  15  16
ENDBRANCH  12  15
ENDBRANCH  10  11
ENDBRANCH   9  10
ENDBRANCH   8   9
ENDBRANCH   7   8
ENDBRANCH   6   7
ENDBRANCH   3   6
TORSDOF 23
ENDMDL
MODEL      211
REMARK 921   NORMALIZED FREE ENERGY PREDICTED BY IDOCK:   -3.94 KCAL/MOL
REMARK 922        TOTAL FREE ENERGY PREDICTED BY IDOCK:  -11.98 KCAL/MOL
REMARK 923 INTER-LIGAND FREE ENERGY PREDICTED BY IDOCK:   -9.31 KCAL/MOL
REMARK 924 INTRA-LIGAND FREE ENERGY PREDICTED BY IDOCK:   -2.67 KCAL/MOL
REMARK 927      BINDING AFFINITY PREDICTED BY RF-SCORE:    0.00 PKD
ROOT
HETATM    1  C   UNL     1     -11.463   6.374  69.776  1.00  0.00    -0.468 C  
HETATM    2  C   UNL     1     -11.525   6.812  71.216  1.00  0.00    -0.302 C  
HETATM    3  N   UNL     1     -10.353   7.239  71.783  1.00  0.00    -0.196 N  
HETATM    4  O   UNL     1     -12.584   6.749  71.839  1.00  0.00    -0.345 OA 
HETATM    5  O   UNL     1      -9.166   7.467  71.066  1.00  0.00    -0.151 OA 
ENDROOT
BRANCH   3   6
HETATM    6  C   UNL     1     -10.245   7.679  73.167  1.00  0.00    -0.342 C  
BRANCH   6   7
HETATM    7  C   UNL     1     -10.379   6.522  74.159  1.00  0.00    -0.351 C  
BRANCH   7   8
HETATM    8  C   UNL     1      -9.366   5.422  73.837  1.00  0.00    -0.133 C  
BRANCH   8   9
HETATM    9  C   UNL     1      -7.923   5.924  73.927  1.00  0.00    -0.102 C  
BRANCH   9  10
HETATM   10  C   UNL     1      -6.988   5.173  72.979  1.00  0.00    -0.079 C  
BRANCH  10  11
HETATM   11  N   UNL     1      -7.711   4.373  72.003  1.00  0.00    -0.079 N  
HETATM   12  C   UNL     1      -7.412   4.445  70.661  1.00  0.00    -0.052 C  
HETATM   13  H   UNL     1      -8.453   3.748  72.318  1.00  0.00     0.000 HD 
HETATM   14  O   UNL     1      -6.511   5.138  70.196  1.00  0.00    -0.029 OA 
BRANCH  12  15
HETATM   15  C   UNL     1      -8.299   3.568  69.803  1.00  0.00    -0.080 C  
BRANCH  15  16
HETATM   16  C   UNL     1      -9.166   4.423  68.882  1.00  0.00    -0.199 C  
BRANCH  16  17
HETATM   17  C   UNL     1      -9.355   3.792  67.516  1.00  0.00    -0.197 C  
HETATM   18  O   UNL     1      -9.305   2.573  67.366  1.00  0.00    -0.166 OA 
HETATM   19  N   UNL     1      -9.549   4.659  66.472  1.00  0.00    -0.164 N  
HETATM   20  O   UNL     1      -9.712   6.049  66.606  1.00  0.00    -0.149 OA 
BRANCH  19  21
HETATM   21  C   UNL     1      -9.674   4.235  65.085  1.00  0.00    -0.194 C  
BRANCH  21  22
HETATM   22  C   UNL     1      -8.345   3.753  64.498  1.00  0.00    -0.097 C  
BRANCH  22  23
HETATM   23  C   UNL     1      -7.390   4.909  64.145  1.00  0.00    -0.055 C  
BRANCH  23  24
HETATM   24  C   UNL     1      -8.103   6.117  63.535  1.00  0.00    -0.065 C  
BRANCH  24  25
HETATM   25  C   UNL     1      -7.477   7.430  63.999  1.00  0.00    -0.100 C  
BRANCH  25  26
HETATM   26  N   UNL     1      -8.454   8.293  64.634  1.00  0.00    -0.351 N  
HETATM   27  H   UNL     1      -8.925   7.969  65.479  1.00  0.00     0.000 HD 
HETATM   28  C   UNL     1      -8.763   9.534  64.130  1.00  0.00    -0.215 C  
HETATM   29  O   UNL     1      -8.231  10.011  63.132  1.00  0.00    -0.142 OA 
BRANCH  28  30
HETATM   30  C   UNL     1      -9.824  10.277  64.899  1.00  0.00    -0.404 C  
BRANCH  30  31
HETATM   31  C   UNL     1      -9.324  10.570  66.305  1.00  0.00    -0.202 C  
BRANCH  31  32
HETATM   32  C   UNL     1     -10.406  10.304  67.330  1.00  0.00    -0.232 C  
HETATM   33  N   UNL     1     -11.129  11.370  67.809  1.00  0.00    -0.244 N  
HETATM   34  O   UNL     1     -10.667   9.142  67.646  1.00  0.00    -0.262 OA 
HETATM   35  O   UNL     1     -10.567  12.661  67.780  1.00  0.00    -0.214 OA 
BRANCH  33  36
HETATM   36  C   UNL     1     -12.145  11.226  68.853  1.00  0.00    -0.224 C  
BRANCH  36  37
HETATM   37  C   UNL     1     -11.956  12.237  69.986  1.00  0.00    -0.379 C  
BRANCH  37  38
HETATM   38  C   UNL     1     -12.696  11.820  71.261  1.00  0.00    -0.420 C  
BRANCH  38  39
HETATM   39  C   UNL     1     -12.530  10.324  71.547  1.00  0.00    -0.524 C  
BRANCH  39  40
HETATM   40  C   UNL     1     -13.865   9.624  71.808  1.00  0.00    -0.186 C  
HETATM   41  N   UNL     1     -13.916   9.037  73.143  1.00  0.00    -1.215 NA 
HETATM   42  H2  UNL     1     -13.713   9.731  73.862  1.00  0.00     0.000 HD 
HETATM   43  H1  UNL     1     -14.806   8.570  73.317  1.00  0.00     0.000 HD 
ENDBRANCH  39  40
ENDBRANCH  38  39
ENDBRANCH  37  38
ENDBRANCH  36  37
ENDBRANCH  33  36
ENDBRANCH  31  32
ENDBRANCH  30  31
ENDBRANCH  28  30
ENDBRANCH  25  26
ENDBRANCH  24  25
ENDBRANCH  23  24
ENDBRANCH  22  23
ENDBRANCH  21  22
ENDBRANCH  19  21
ENDBRANCH  16  17
ENDBRANCH  15  16
ENDBRANCH  12  15
ENDBRANCH  10  11
ENDBRANCH   9  10
ENDBRANCH   8   9
ENDBRANCH   7   8
ENDBRANCH   6   7
ENDBRANCH   3   6
TORSDOF 23
ENDMDL
MODEL      212
REMARK 921   NORMALIZED FREE ENERGY PREDICTED BY IDOCK:   -3.93 KCAL/MOL
REMARK 922        TOTAL FREE ENERGY PREDICTED BY IDOCK:  -11.97 KCAL/MOL
REMARK 923 INTER-LIGAND FREE ENERGY PREDICTED BY IDOCK:   -9.17 KCAL/MOL
REMARK 924 INTRA-LIGAND FREE ENERGY PREDICTED BY IDOCK:   -2.80 KCAL/MOL
REMARK 927      BINDING AFFINITY PREDICTED BY RF-SCORE:    0.00 PKD
ROOT
HETATM    1  C   UNL     1     -11.811  15.575  69.858  1.00  0.00    -0.380 C  
HETATM    2  C   UNL     1     -11.455  15.823  68.416  1.00  0.00    -0.365 C  
HETATM    3  N   UNL     1     -10.750  16.965  68.140  1.00  0.00    -0.366 N  
HETATM    4  O   UNL     1     -11.821  15.037  67.542  1.00  0.00    -0.320 OA 
HETATM    5  O   UNL     1     -10.188  17.802  69.119  1.00  0.00    -0.346 OA 
ENDROOT
BRANCH   3   6
HETATM    6  C   UNL     1     -10.345  17.353  66.796  1.00  0.00    -0.305 C  
BRANCH   6   7
HETATM    7  C   UNL     1      -8.827  17.311  66.609  1.00  0.00    -0.280 C  
BRANCH   7   8
HETATM    8  C   UNL     1      -8.322  15.868  66.656  1.00  0.00    -0.328 C  
BRANCH   8   9
HETATM    9  C   UNL     1      -7.016  15.740  67.442  1.00  0.00    -0.235 C  
BRANCH   9  10
HETATM   10  C   UNL     1      -6.569  14.285  67.592  1.00  0.00    -0.153 C  
BRANCH  10  11
HETATM   11  N   UNL     1      -7.496  13.352  66.969  1.00  0.00    -0.341 N  
HETATM   12  C   UNL     1      -7.281  11.993  67.021  1.00  0.00    -0.096 C  
HETATM   13  H   UNL     1      -8.319  13.712  66.486  1.00  0.00     0.000 HD 
HETATM   14  O   UNL     1      -6.341  11.471  67.613  1.00  0.00    -0.056 OA 
BRANCH  12  15
HETATM   15  C   UNL     1      -8.334  11.194  66.283  1.00  0.00    -0.163 C  
BRANCH  15  16
HETATM   16  C   UNL     1      -9.606  12.019  66.107  1.00  0.00    -0.252 C  
BRANCH  16  17
HETATM   17  C   UNL     1     -10.733  11.542  67.003  1.00  0.00    -0.259 C  
HETATM   18  O   UNL     1     -11.658  10.867  66.556  1.00  0.00    -0.118 OA 
HETATM   19  N   UNL     1     -10.670  11.935  68.315  1.00  0.00    -0.213 N  
HETATM   20  O   UNL     1      -9.588  12.621  68.893  1.00  0.00     0.032 OA 
BRANCH  19  21
HETATM   21  C   UNL     1     -11.701  11.632  69.297  1.00  0.00    -0.331 C  
BRANCH  21  22
HETATM   22  C   UNL     1     -11.547  10.230  69.893  1.00  0.00    -0.326 C  
BRANCH  22  23
HETATM   23  C   UNL     1     -12.296  10.059  71.227  1.00  0.00    -0.496 C  
BRANCH  23  24
HETATM   24  C   UNL     1     -12.351   8.609  71.709  1.00  0.00    -0.402 C  
BRANCH  24  25
HETATM   25  C   UNL     1     -11.145   8.260  72.578  1.00  0.00    -0.368 C  
BRANCH  25  26
HETATM   26  N   UNL     1     -10.153   7.505  71.839  1.00  0.00    -0.171 N  
HETATM   27  H   UNL     1     -10.329   6.521  71.637  1.00  0.00     0.000 HD 
HETATM   28  C   UNL     1      -8.982   8.078  71.403  1.00  0.00    -0.141 C  
HETATM   29  O   UNL     1      -8.697   9.258  71.583  1.00  0.00    -0.312 OA 
BRANCH  28  30
HETATM   30  C   UNL     1      -8.053   7.135  70.681  1.00  0.00    -0.113 C  
BRANCH  30  31
HETATM   31  C   UNL     1      -8.668   6.735  69.349  1.00  0.00    -0.136 C  
BRANCH  31  32
HETATM   32  C   UNL     1      -9.488   5.470  69.490  1.00  0.00    -0.141 C  
HETATM   33  N   UNL     1      -8.827   4.282  69.688  1.00  0.00    -0.081 N  
HETATM   34  O   UNL     1     -10.718   5.546  69.506  1.00  0.00    -0.310 OA 
HETATM   35  O   UNL     1      -7.495   4.144  69.253  1.00  0.00    -0.054 OA 
BRANCH  33  36
HETATM   36  C   UNL     1      -9.526   2.997  69.764  1.00  0.00    -0.114 C  
BRANCH  36  37
HETATM   37  C   UNL     1      -9.515   2.416  71.179  1.00  0.00    -0.220 C  
BRANCH  37  38
HETATM   38  C   UNL     1      -9.272   3.493  72.243  1.00  0.00    -0.158 C  
BRANCH  38  39
HETATM   39  C   UNL     1     -10.588   4.080  72.763  1.00  0.00    -0.218 C  
BRANCH  39  40
HETATM   40  C   UNL     1     -10.552   4.363  74.266  1.00  0.00    -0.258 C  
HETATM   41  N   UNL     1     -10.188   5.748  74.547  1.00  0.00    -0.277 NA 
HETATM   42  H2  UNL     1     -10.802   6.400  74.060  1.00  0.00     0.000 HD 
HETATM   43  H1  UNL     1     -10.164   5.937  75.549  1.00  0.00     0.000 HD 
ENDBRANCH  39  40
ENDBRANCH  38  39
ENDBRANCH  37  38
ENDBRANCH  36  37
ENDBRANCH  33  36
ENDBRANCH  31  32
ENDBRANCH  30  31
ENDBRANCH  28  30
ENDBRANCH  25  26
ENDBRANCH  24  25
ENDBRANCH  23  24
ENDBRANCH  22  23
ENDBRANCH  21  22
ENDBRANCH  19  21
ENDBRANCH  16  17
ENDBRANCH  15  16
ENDBRANCH  12  15
ENDBRANCH  10  11
ENDBRANCH   9  10
ENDBRANCH   8   9
ENDBRANCH   7   8
ENDBRANCH   6   7
ENDBRANCH   3   6
TORSDOF 23
ENDMDL
MODEL      213
REMARK 921   NORMALIZED FREE ENERGY PREDICTED BY IDOCK:   -3.93 KCAL/MOL
REMARK 922        TOTAL FREE ENERGY PREDICTED BY IDOCK:  -11.96 KCAL/MOL
REMARK 923 INTER-LIGAND FREE ENERGY PREDICTED BY IDOCK:  -10.24 KCAL/MOL
REMARK 924 INTRA-LIGAND FREE ENERGY PREDICTED BY IDOCK:   -1.73 KCAL/MOL
REMARK 927      BINDING AFFINITY PREDICTED BY RF-SCORE:    0.00 PKD
ROOT
HETATM    1  C   UNL     1     -12.575   8.760  72.199  1.00  0.00    -0.463 C  
HETATM    2  C   UNL     1     -11.980   7.910  71.107  1.00  0.00    -0.285 C  
HETATM    3  N   UNL     1     -10.717   8.236  70.688  1.00  0.00    -0.216 N  
HETATM    4  O   UNL     1     -12.632   6.991  70.610  1.00  0.00    -0.260 OA 
HETATM    5  O   UNL     1      -9.889   9.172  71.329  1.00  0.00    -0.283 OA 
ENDROOT
BRANCH   3   6
HETATM    6  C   UNL     1     -10.012   7.520  69.633  1.00  0.00    -0.184 C  
BRANCH   6   7
HETATM    7  C   UNL     1     -10.152   8.203  68.271  1.00  0.00    -0.230 C  
BRANCH   7   8
HETATM    8  C   UNL     1     -10.723   7.228  67.240  1.00  0.00    -0.391 C  
BRANCH   8   9
HETATM    9  C   UNL     1      -9.839   5.992  67.065  1.00  0.00    -0.179 C  
BRANCH   9  10
HETATM   10  C   UNL     1     -10.502   4.923  66.195  1.00  0.00    -0.302 C  
BRANCH  10  11
HETATM   11  N   UNL     1      -9.691   4.564  65.041  1.00  0.00    -0.269 N  
HETATM   12  C   UNL     1      -8.950   3.404  65.024  1.00  0.00    -0.135 C  
HETATM   13  H   UNL     1      -9.672   5.183  64.231  1.00  0.00     0.000 HD 
HETATM   14  O   UNL     1      -8.944   2.582  65.937  1.00  0.00    -0.129 OA 
BRANCH  12  15
HETATM   15  C   UNL     1      -8.146   3.227  63.754  1.00  0.00    -0.085 C  
BRANCH  15  16
HETATM   16  C   UNL     1      -6.673   3.540  64.006  1.00  0.00    -0.043 C  
BRANCH  16  17
HETATM   17  C   UNL     1      -6.472   4.897  64.652  1.00  0.00    -0.039 C  
HETATM   18  O   UNL     1      -6.126   4.997  65.827  1.00  0.00    -0.028 OA 
HETATM   19  N   UNL     1      -6.729   5.987  63.861  1.00  0.00    -0.036 N  
HETATM   20  O   UNL     1      -7.030   5.926  62.489  1.00  0.00    -0.038 OA 
BRANCH  19  21
HETATM   21  C   UNL     1      -6.660   7.361  64.335  1.00  0.00    -0.040 C  
BRANCH  21  22
HETATM   22  C   UNL     1      -8.020   7.889  64.800  1.00  0.00    -0.140 C  
BRANCH  22  23
HETATM   23  C   UNL     1      -8.092   9.427  64.821  1.00  0.00    -0.131 C  
BRANCH  23  24
HETATM   24  C   UNL     1      -9.396   9.980  64.245  1.00  0.00    -0.345 C  
BRANCH  24  25
HETATM   25  C   UNL     1     -10.339  10.456  65.347  1.00  0.00    -0.200 C  
BRANCH  25  26
HETATM   26  N   UNL     1     -10.973  11.713  65.003  1.00  0.00    -0.293 N  
HETATM   27  H   UNL     1     -10.914  12.051  64.042  1.00  0.00     0.000 HD 
HETATM   28  C   UNL     1     -11.650  12.464  65.935  1.00  0.00    -0.396 C  
HETATM   29  O   UNL     1     -11.787  12.126  67.106  1.00  0.00    -0.543 OA 
BRANCH  28  30
HETATM   30  C   UNL     1     -12.216  13.758  65.408  1.00  0.00    -0.465 C  
BRANCH  30  31
HETATM   31  C   UNL     1     -11.199  14.424  64.494  1.00  0.00    -0.314 C  
BRANCH  31  32
HETATM   32  C   UNL     1     -11.129  15.913  64.759  1.00  0.00    -0.384 C  
HETATM   33  N   UNL     1     -10.274  16.365  65.735  1.00  0.00    -0.356 N  
HETATM   34  O   UNL     1     -11.772  16.685  64.044  1.00  0.00    -1.143 OA 
HETATM   35  O   UNL     1      -9.896  15.504  66.782  1.00  0.00    -0.231 OA 
BRANCH  33  36
HETATM   36  C   UNL     1     -10.189  17.777  66.114  1.00  0.00    -0.339 C  
BRANCH  36  37
HETATM   37  C   UNL     1      -8.882  18.101  66.840  1.00  0.00    -0.273 C  
BRANCH  37  38
HETATM   38  C   UNL     1      -9.012  19.337  67.738  1.00  0.00    -0.354 C  
BRANCH  38  39
HETATM   39  C   UNL     1      -8.185  19.194  69.019  1.00  0.00    -0.256 C  
BRANCH  39  40
HETATM   40  C   UNL     1      -6.765  18.695  68.750  1.00  0.00    -0.270 C  
HETATM   41  N   UNL     1      -6.266  17.866  69.842  1.00  0.00    -0.170 NA 
HETATM   42  H2  UNL     1      -6.901  17.093  70.041  1.00  0.00     0.000 HD 
HETATM   43  H1  UNL     1      -5.319  17.534  69.663  1.00  0.00     0.000 HD 
ENDBRANCH  39  40
ENDBRANCH  38  39
ENDBRANCH  37  38
ENDBRANCH  36  37
ENDBRANCH  33  36
ENDBRANCH  31  32
ENDBRANCH  30  31
ENDBRANCH  28  30
ENDBRANCH  25  26
ENDBRANCH  24  25
ENDBRANCH  23  24
ENDBRANCH  22  23
ENDBRANCH  21  22
ENDBRANCH  19  21
ENDBRANCH  16  17
ENDBRANCH  15  16
ENDBRANCH  12  15
ENDBRANCH  10  11
ENDBRANCH   9  10
ENDBRANCH   8   9
ENDBRANCH   7   8
ENDBRANCH   6   7
ENDBRANCH   3   6
TORSDOF 23
ENDMDL
MODEL      214
REMARK 921   NORMALIZED FREE ENERGY PREDICTED BY IDOCK:   -3.92 KCAL/MOL
REMARK 922        TOTAL FREE ENERGY PREDICTED BY IDOCK:  -11.94 KCAL/MOL
REMARK 923 INTER-LIGAND FREE ENERGY PREDICTED BY IDOCK:   -8.97 KCAL/MOL
REMARK 924 INTRA-LIGAND FREE ENERGY PREDICTED BY IDOCK:   -2.98 KCAL/MOL
REMARK 927      BINDING AFFINITY PREDICTED BY RF-SCORE:    0.00 PKD
ROOT
HETATM    1  C   UNL     1      -8.665  20.440  67.162  1.00  0.00    -0.413 C  
HETATM    2  C   UNL     1      -9.741  19.386  67.149  1.00  0.00    -0.333 C  
HETATM    3  N   UNL     1      -9.331  18.082  67.242  1.00  0.00    -0.253 N  
HETATM    4  O   UNL     1     -10.924  19.707  67.027  1.00  0.00    -0.462 OA 
HETATM    5  O   UNL     1      -8.014  17.687  67.533  1.00  0.00    -0.199 OA 
ENDROOT
BRANCH   3   6
HETATM    6  C   UNL     1     -10.247  16.949  67.227  1.00  0.00    -0.297 C  
BRANCH   6   7
HETATM    7  C   UNL     1     -10.700  16.548  68.632  1.00  0.00    -0.334 C  
BRANCH   7   8
HETATM    8  C   UNL     1     -11.767  15.454  68.558  1.00  0.00    -0.355 C  
BRANCH   8   9
HETATM    9  C   UNL     1     -11.859  14.835  67.162  1.00  0.00    -0.307 C  
BRANCH   9  10
HETATM   10  C   UNL     1     -12.187  13.342  67.210  1.00  0.00    -0.205 C  
BRANCH  10  11
HETATM   11  N   UNL     1     -11.506  12.589  66.167  1.00  0.00    -0.356 N  
HETATM   12  C   UNL     1     -12.140  12.273  64.987  1.00  0.00    -0.327 C  
HETATM   13  H   UNL     1     -10.542  12.291  66.314  1.00  0.00     0.000 HD 
HETATM   14  O   UNL     1     -13.284  12.624  64.709  1.00  0.00    -0.846 OA 
BRANCH  12  15
HETATM   15  C   UNL     1     -11.280  11.456  64.047  1.00  0.00    -0.350 C  
BRANCH  15  16
HETATM   16  C   UNL     1      -9.828  11.453  64.518  1.00  0.00    -0.302 C  
BRANCH  16  17
HETATM   17  C   UNL     1      -9.471  10.195  65.286  1.00  0.00    -0.248 C  
HETATM   18  O   UNL     1     -10.265   9.685  66.074  1.00  0.00    -0.265 OA 
HETATM   19  N   UNL     1      -8.214   9.692  65.072  1.00  0.00    -0.129 N  
HETATM   20  O   UNL     1      -7.310  10.180  64.112  1.00  0.00    -0.135 OA 
BRANCH  19  21
HETATM   21  C   UNL     1      -7.677   8.538  65.777  1.00  0.00    -0.098 C  
BRANCH  21  22
HETATM   22  C   UNL     1      -7.740   7.259  64.938  1.00  0.00    -0.117 C  
BRANCH  22  23
HETATM   23  C   UNL     1      -6.911   6.107  65.536  1.00  0.00    -0.052 C  
BRANCH  23  24
HETATM   24  C   UNL     1      -7.727   4.836  65.779  1.00  0.00    -0.090 C  
BRANCH  24  25
HETATM   25  C   UNL     1      -9.212   5.149  65.954  1.00  0.00    -0.158 C  
BRANCH  25  26
HETATM   26  N   UNL     1      -9.601   5.134  67.350  1.00  0.00    -0.132 N  
HETATM   27  H   UNL     1      -9.109   4.515  67.994  1.00  0.00     0.000 HD 
HETATM   28  C   UNL     1     -10.614   5.929  67.829  1.00  0.00    -0.259 C  
HETATM   29  O   UNL     1     -11.245   6.717  67.130  1.00  0.00    -0.392 OA 
BRANCH  28  30
HETATM   30  C   UNL     1     -10.905   5.758  69.298  1.00  0.00    -0.374 C  
BRANCH  30  31
HETATM   31  C   UNL     1     -11.170   7.117  69.927  1.00  0.00    -0.241 C  
BRANCH  31  32
HETATM   32  C   UNL     1      -9.893   7.925  70.025  1.00  0.00    -0.181 C  
HETATM   33  N   UNL     1      -8.909   7.490  70.879  1.00  0.00    -0.143 N  
HETATM   34  O   UNL     1      -9.735   8.898  69.285  1.00  0.00    -0.161 OA 
HETATM   35  O   UNL     1      -9.248   6.680  71.979  1.00  0.00    -0.144 OA 
BRANCH  33  36
HETATM   36  C   UNL     1      -7.670   8.240  71.098  1.00  0.00    -0.094 C  
BRANCH  36  37
HETATM   37  C   UNL     1      -6.434   7.457  70.650  1.00  0.00    -0.039 C  
BRANCH  37  38
HETATM   38  C   UNL     1      -6.598   6.879  69.240  1.00  0.00    -0.048 C  
BRANCH  38  39
HETATM   39  C   UNL     1      -6.188   5.404  69.183  1.00  0.00    -0.029 C  
BRANCH  39  40
HETATM   40  C   UNL     1      -7.020   4.526  70.120  1.00  0.00    -0.045 C  
HETATM   41  N   UNL     1      -7.964   3.693  69.383  1.00  0.00    -0.054 NA 
HETATM   42  H2  UNL     1      -7.491   3.135  68.672  1.00  0.00     0.000 HD 
HETATM   43  H1  UNL     1      -8.519   3.107  70.007  1.00  0.00     0.000 HD 
ENDBRANCH  39  40
ENDBRANCH  38  39
ENDBRANCH  37  38
ENDBRANCH  36  37
ENDBRANCH  33  36
ENDBRANCH  31  32
ENDBRANCH  30  31
ENDBRANCH  28  30
ENDBRANCH  25  26
ENDBRANCH  24  25
ENDBRANCH  23  24
ENDBRANCH  22  23
ENDBRANCH  21  22
ENDBRANCH  19  21
ENDBRANCH  16  17
ENDBRANCH  15  16
ENDBRANCH  12  15
ENDBRANCH  10  11
ENDBRANCH   9  10
ENDBRANCH   8   9
ENDBRANCH   7   8
ENDBRANCH   6   7
ENDBRANCH   3   6
TORSDOF 23
ENDMDL
MODEL      215
REMARK 921   NORMALIZED FREE ENERGY PREDICTED BY IDOCK:   -3.90 KCAL/MOL
REMARK 922        TOTAL FREE ENERGY PREDICTED BY IDOCK:  -11.91 KCAL/MOL
REMARK 923 INTER-LIGAND FREE ENERGY PREDICTED BY IDOCK:   -8.93 KCAL/MOL
REMARK 924 INTRA-LIGAND FREE ENERGY PREDICTED BY IDOCK:   -2.98 KCAL/MOL
REMARK 927      BINDING AFFINITY PREDICTED BY RF-SCORE:    0.00 PKD
ROOT
HETATM    1  C   UNL     1      -9.634  11.835  63.074  1.00  0.00    -0.196 C  
HETATM    2  C   UNL     1      -9.488  10.526  63.806  1.00  0.00    -0.298 C  
HETATM    3  N   UNL     1      -8.490   9.689  63.383  1.00  0.00    -0.172 N  
HETATM    4  O   UNL     1     -10.263  10.234  64.717  1.00  0.00    -0.329 OA 
HETATM    5  O   UNL     1      -7.497  10.048  62.455  1.00  0.00    -0.116 OA 
ENDROOT
BRANCH   3   6
HETATM    6  C   UNL     1      -8.231   8.385  63.977  1.00  0.00    -0.113 C  
BRANCH   6   7
HETATM    7  C   UNL     1      -7.755   8.489  65.428  1.00  0.00    -0.095 C  
BRANCH   7   8
HETATM    8  C   UNL     1      -8.195   7.260  66.224  1.00  0.00    -0.123 C  
BRANCH   8   9
HETATM    9  C   UNL     1      -9.621   7.401  66.760  1.00  0.00    -0.249 C  
BRANCH   9  10
HETATM   10  C   UNL     1      -9.653   7.957  68.184  1.00  0.00    -0.152 C  
BRANCH  10  11
HETATM   11  N   UNL     1      -8.547   7.472  68.995  1.00  0.00    -0.135 N  
HETATM   12  C   UNL     1      -8.253   8.042  70.213  1.00  0.00    -0.123 C  
HETATM   13  H   UNL     1      -7.981   6.695  68.655  1.00  0.00     0.000 HD 
HETATM   14  O   UNL     1      -8.904   8.953  70.718  1.00  0.00    -0.168 OA 
BRANCH  12  15
HETATM   15  C   UNL     1      -7.046   7.424  70.886  1.00  0.00    -0.063 C  
BRANCH  15  16
HETATM   16  C   UNL     1      -7.068   5.905  70.733  1.00  0.00    -0.071 C  
BRANCH  16  17
HETATM   17  C   UNL     1      -7.871   5.225  71.825  1.00  0.00    -0.111 C  
HETATM   18  O   UNL     1      -7.442   5.148  72.975  1.00  0.00    -0.092 OA 
HETATM   19  N   UNL     1      -9.071   4.683  71.445  1.00  0.00    -0.128 N  
HETATM   20  O   UNL     1      -9.648   4.831  70.171  1.00  0.00    -0.157 OA 
BRANCH  19  21
HETATM   21  C   UNL     1      -9.936   3.932  72.342  1.00  0.00    -0.166 C  
BRANCH  21  22
HETATM   22  C   UNL     1     -10.585   4.819  73.408  1.00  0.00    -0.293 C  
BRANCH  22  23
HETATM   23  C   UNL     1     -11.043   6.183  72.856  1.00  0.00    -0.281 C  
BRANCH  23  24
HETATM   24  C   UNL     1     -12.367   6.113  72.094  1.00  0.00    -0.125 C  
BRANCH  24  25
HETATM   25  C   UNL     1     -12.277   6.825  70.746  1.00  0.00    -0.297 C  
BRANCH  25  26
HETATM   26  N   UNL     1     -11.946   8.227  70.903  1.00  0.00    -0.439 N  
HETATM   27  H   UNL     1     -10.985   8.530  70.748  1.00  0.00     0.000 HD 
HETATM   28  C   UNL     1     -12.893   9.160  71.255  1.00  0.00    -0.264 C  
HETATM   29  O   UNL     1     -14.075   8.889  71.442  1.00  0.00    -0.360 OA 
BRANCH  28  30
HETATM   30  C   UNL     1     -12.364  10.564  71.406  1.00  0.00    -0.477 C  
BRANCH  30  31
HETATM   31  C   UNL     1     -11.457  10.895  70.232  1.00  0.00    -0.391 C  
BRANCH  31  32
HETATM   32  C   UNL     1     -11.835  12.226  69.615  1.00  0.00    -0.324 C  
HETATM   33  N   UNL     1     -11.169  12.636  68.486  1.00  0.00    -0.259 N  
HETATM   34  O   UNL     1     -12.778  12.864  70.087  1.00  0.00     0.001 OA 
HETATM   35  O   UNL     1      -9.875  12.146  68.225  1.00  0.00    -0.204 OA 
BRANCH  33  36
HETATM   36  C   UNL     1     -11.411  13.937  67.859  1.00  0.00    -0.318 C  
BRANCH  36  37
HETATM   37  C   UNL     1     -10.177  14.839  67.906  1.00  0.00    -0.229 C  
BRANCH  37  38
HETATM   38  C   UNL     1      -9.928  15.403  69.309  1.00  0.00    -0.256 C  
BRANCH  38  39
HETATM   39  C   UNL     1     -10.952  16.482  69.675  1.00  0.00    -0.287 C  
BRANCH  39  40
HETATM   40  C   UNL     1     -11.704  16.165  70.968  1.00  0.00    -0.367 C  
HETATM   41  N   UNL     1     -13.100  15.825  70.712  1.00  0.00    -0.701 NA 
HETATM   42  H2  UNL     1     -13.179  15.062  70.040  1.00  0.00     0.000 HD 
HETATM   43  H1  UNL     1     -13.602  15.613  71.575  1.00  0.00     0.000 HD 
ENDBRANCH  39  40
ENDBRANCH  38  39
ENDBRANCH  37  38
ENDBRANCH  36  37
ENDBRANCH  33  36
ENDBRANCH  31  32
ENDBRANCH  30  31
ENDBRANCH  28  30
ENDBRANCH  25  26
ENDBRANCH  24  25
ENDBRANCH  23  24
ENDBRANCH  22  23
ENDBRANCH  21  22
ENDBRANCH  19  21
ENDBRANCH  16  17
ENDBRANCH  15  16
ENDBRANCH  12  15
ENDBRANCH  10  11
ENDBRANCH   9  10
ENDBRANCH   8   9
ENDBRANCH   7   8
ENDBRANCH   6   7
ENDBRANCH   3   6
TORSDOF 23
ENDMDL
MODEL      216
REMARK 921   NORMALIZED FREE ENERGY PREDICTED BY IDOCK:   -3.90 KCAL/MOL
REMARK 922        TOTAL FREE ENERGY PREDICTED BY IDOCK:  -11.91 KCAL/MOL
REMARK 923 INTER-LIGAND FREE ENERGY PREDICTED BY IDOCK:   -9.47 KCAL/MOL
REMARK 924 INTRA-LIGAND FREE ENERGY PREDICTED BY IDOCK:   -2.44 KCAL/MOL
REMARK 927      BINDING AFFINITY PREDICTED BY RF-SCORE:    0.00 PKD
ROOT
HETATM    1  C   UNL     1      -9.983  11.444  64.109  1.00  0.00    -0.335 C  
HETATM    2  C   UNL     1     -10.417  10.729  65.361  1.00  0.00    -0.202 C  
HETATM    3  N   UNL     1      -9.909   9.473  65.564  1.00  0.00    -0.296 N  
HETATM    4  O   UNL     1     -11.216  11.259  66.133  1.00  0.00    -0.210 OA 
HETATM    5  O   UNL     1      -8.885   8.900  64.791  1.00  0.00    -0.173 OA 
ENDROOT
BRANCH   3   6
HETATM    6  C   UNL     1     -10.244   8.649  66.718  1.00  0.00    -0.291 C  
BRANCH   6   7
HETATM    7  C   UNL     1      -9.524   7.299  66.700  1.00  0.00    -0.228 C  
BRANCH   7   8
HETATM    8  C   UNL     1      -8.757   7.085  68.006  1.00  0.00    -0.126 C  
BRANCH   8   9
HETATM    9  C   UNL     1      -7.404   6.411  67.774  1.00  0.00    -0.088 C  
BRANCH   9  10
HETATM   10  C   UNL     1      -7.131   5.295  68.784  1.00  0.00    -0.061 C  
BRANCH  10  11
HETATM   11  N   UNL     1      -7.976   5.396  69.965  1.00  0.00    -0.080 N  
HETATM   12  C   UNL     1      -7.442   5.686  71.200  1.00  0.00    -0.090 C  
HETATM   13  H   UNL     1      -8.981   5.249  69.875  1.00  0.00     0.000 HD 
HETATM   14  O   UNL     1      -6.251   5.916  71.395  1.00  0.00    -0.040 OA 
BRANCH  12  15
HETATM   15  C   UNL     1      -8.474   5.709  72.307  1.00  0.00    -0.119 C  
BRANCH  15  16
HETATM   16  C   UNL     1      -9.790   5.105  71.823  1.00  0.00    -0.228 C  
BRANCH  16  17
HETATM   17  C   UNL     1     -10.824   6.162  71.490  1.00  0.00    -0.261 C  
HETATM   18  O   UNL     1     -11.302   6.251  70.361  1.00  0.00    -0.345 OA 
HETATM   19  N   UNL     1     -11.161   7.020  72.505  1.00  0.00    -0.267 N  
HETATM   20  O   UNL     1     -10.718   6.898  73.834  1.00  0.00    -0.323 OA 
BRANCH  19  21
HETATM   21  C   UNL     1     -12.079   8.138  72.345  1.00  0.00    -0.348 C  
BRANCH  21  22
HETATM   22  C   UNL     1     -11.423   9.339  71.659  1.00  0.00    -0.468 C  
BRANCH  22  23
HETATM   23  C   UNL     1     -12.410  10.156  70.804  1.00  0.00    -0.422 C  
BRANCH  23  24
HETATM   24  C   UNL     1     -11.724  11.188  69.908  1.00  0.00    -0.433 C  
BRANCH  24  25
HETATM   25  C   UNL     1     -10.293  10.774  69.570  1.00  0.00    -0.144 C  
BRANCH  25  26
HETATM   26  N   UNL     1      -9.616  11.784  68.782  1.00  0.00    -0.385 N  
HETATM   27  H   UNL     1     -10.102  12.655  68.570  1.00  0.00     0.000 HD 
HETATM   28  C   UNL     1      -8.337  11.601  68.312  1.00  0.00    -0.159 C  
HETATM   29  O   UNL     1      -7.671  10.595  68.535  1.00  0.00    -0.096 OA 
BRANCH  28  30
HETATM   30  C   UNL     1      -7.804  12.741  67.482  1.00  0.00    -0.171 C  
BRANCH  30  31
HETATM   31  C   UNL     1      -7.886  14.033  68.280  1.00  0.00    -0.140 C  
BRANCH  31  32
HETATM   32  C   UNL     1      -9.218  14.720  68.061  1.00  0.00    -0.194 C  
HETATM   33  N   UNL     1      -9.395  15.451  66.911  1.00  0.00    -0.224 N  
HETATM   34  O   UNL     1     -10.130  14.542  68.870  1.00  0.00    -0.234 OA 
HETATM   35  O   UNL     1      -8.275  15.983  66.244  1.00  0.00    -0.294 OA 
BRANCH  33  36
HETATM   36  C   UNL     1     -10.618  16.210  66.642  1.00  0.00    -0.274 C  
BRANCH  36  37
HETATM   37  C   UNL     1     -10.384  17.349  65.648  1.00  0.00    -0.161 C  
BRANCH  37  38
HETATM   38  C   UNL     1     -10.615  18.725  66.282  1.00  0.00    -0.429 C  
BRANCH  38  39
HETATM   39  C   UNL     1     -10.780  18.627  67.801  1.00  0.00    -0.394 C  
BRANCH  39  40
HETATM   40  C   UNL     1      -9.671  19.356  68.562  1.00  0.00    -0.421 C  
HETATM   41  N   UNL     1      -8.556  19.706  67.688  1.00  0.00    -0.312 NA 
HETATM   42  H2  UNL     1      -8.871  20.245  66.881  1.00  0.00     0.000 HD 
HETATM   43  H1  UNL     1      -7.816  20.193  68.195  1.00  0.00     0.000 HD 
ENDBRANCH  39  40
ENDBRANCH  38  39
ENDBRANCH  37  38
ENDBRANCH  36  37
ENDBRANCH  33  36
ENDBRANCH  31  32
ENDBRANCH  30  31
ENDBRANCH  28  30
ENDBRANCH  25  26
ENDBRANCH  24  25
ENDBRANCH  23  24
ENDBRANCH  22  23
ENDBRANCH  21  22
ENDBRANCH  19  21
ENDBRANCH  16  17
ENDBRANCH  15  16
ENDBRANCH  12  15
ENDBRANCH  10  11
ENDBRANCH   9  10
ENDBRANCH   8   9
ENDBRANCH   7   8
ENDBRANCH   6   7
ENDBRANCH   3   6
TORSDOF 23
ENDMDL
MODEL      217
REMARK 921   NORMALIZED FREE ENERGY PREDICTED BY IDOCK:   -3.90 KCAL/MOL
REMARK 922        TOTAL FREE ENERGY PREDICTED BY IDOCK:  -11.90 KCAL/MOL
REMARK 923 INTER-LIGAND FREE ENERGY PREDICTED BY IDOCK:  -10.20 KCAL/MOL
REMARK 924 INTRA-LIGAND FREE ENERGY PREDICTED BY IDOCK:   -1.70 KCAL/MOL
REMARK 927      BINDING AFFINITY PREDICTED BY RF-SCORE:    0.00 PKD
ROOT
HETATM    1  C   UNL     1      -5.723  10.056  68.055  1.00  0.00    -0.038 C  
HETATM    2  C   UNL     1      -6.086   9.254  66.833  1.00  0.00    -0.064 C  
HETATM    3  N   UNL     1      -7.357   9.408  66.346  1.00  0.00    -0.092 N  
HETATM    4  O   UNL     1      -5.269   8.478  66.334  1.00  0.00    -0.030 OA 
HETATM    5  O   UNL     1      -8.261  10.387  66.792  1.00  0.00    -0.122 OA 
ENDROOT
BRANCH   3   6
HETATM    6  C   UNL     1      -7.864   8.691  65.184  1.00  0.00    -0.110 C  
BRANCH   6   7
HETATM    7  C   UNL     1      -7.490   9.376  63.868  1.00  0.00    -0.116 C  
BRANCH   7   8
HETATM    8  C   UNL     1      -8.744   9.664  63.040  1.00  0.00    -0.229 C  
BRANCH   8   9
HETATM    9  C   UNL     1      -9.824  10.374  63.860  1.00  0.00    -0.332 C  
BRANCH   9  10
HETATM   10  C   UNL     1     -10.070  11.805  63.380  1.00  0.00    -0.446 C  
BRANCH  10  11
HETATM   11  N   UNL     1      -9.984  12.776  64.460  1.00  0.00    -0.573 N  
HETATM   12  C   UNL     1     -11.107  13.173  65.151  1.00  0.00    -0.287 C  
HETATM   13  H   UNL     1      -9.077  13.169  64.709  1.00  0.00     0.000 HD 
HETATM   14  O   UNL     1     -12.232  12.725  64.946  1.00  0.00    -0.410 OA 
BRANCH  12  15
HETATM   15  C   UNL     1     -10.818  14.217  66.209  1.00  0.00    -0.300 C  
BRANCH  15  16
HETATM   16  C   UNL     1     -10.698  15.601  65.577  1.00  0.00    -0.403 C  
BRANCH  16  17
HETATM   17  C   UNL     1      -9.418  16.310  65.976  1.00  0.00    -0.334 C  
HETATM   18  O   UNL     1      -8.436  15.680  66.363  1.00  0.00    -0.284 OA 
HETATM   19  N   UNL     1      -9.439  17.679  65.909  1.00  0.00    -0.039 N  
HETATM   20  O   UNL     1     -10.499  18.437  65.381  1.00  0.00    -0.554 OA 
BRANCH  19  21
HETATM   21  C   UNL     1      -8.329  18.523  66.323  1.00  0.00    -0.213 C  
BRANCH  21  22
HETATM   22  C   UNL     1      -8.763  19.629  67.290  1.00  0.00    -0.367 C  
BRANCH  22  23
HETATM   23  C   UNL     1      -8.814  19.159  68.756  1.00  0.00    -0.372 C  
BRANCH  23  24
HETATM   24  C   UNL     1     -10.136  18.489  69.130  1.00  0.00    -0.171 C  
BRANCH  24  25
HETATM   25  C   UNL     1      -9.954  16.996  69.395  1.00  0.00    -0.090 C  
BRANCH  25  26
HETATM   26  N   UNL     1     -10.988  16.477  70.267  1.00  0.00    -0.371 N  
HETATM   27  H   UNL     1     -10.864  16.543  71.277  1.00  0.00     0.000 HD 
HETATM   28  C   UNL     1     -12.132  15.897  69.771  1.00  0.00    -0.215 C  
HETATM   29  O   UNL     1     -12.374  15.793  68.572  1.00  0.00     0.052 OA 
BRANCH  28  30
HETATM   30  C   UNL     1     -13.082  15.382  70.822  1.00  0.00    -0.479 C  
BRANCH  30  31
HETATM   31  C   UNL     1     -12.389  14.316  71.656  1.00  0.00    -0.392 C  
BRANCH  31  32
HETATM   32  C   UNL     1     -12.068  13.097  70.818  1.00  0.00    -0.203 C  
HETATM   33  N   UNL     1     -12.752  11.933  71.069  1.00  0.00    -0.316 N  
HETATM   34  O   UNL     1     -11.269  13.199  69.885  1.00  0.00    -0.056 OA 
HETATM   35  O   UNL     1     -13.308  11.712  72.343  1.00  0.00    -0.314 OA 
BRANCH  33  36
HETATM   36  C   UNL     1     -12.462  10.683  70.362  1.00  0.00    -0.338 C  
BRANCH  36  37
HETATM   37  C   UNL     1     -11.176  10.022  70.862  1.00  0.00    -0.415 C  
BRANCH  37  38
HETATM   38  C   UNL     1     -11.453   8.716  71.613  1.00  0.00    -0.375 C  
BRANCH  38  39
HETATM   39  C   UNL     1     -10.162   7.940  71.892  1.00  0.00    -0.258 C  
BRANCH  39  40
HETATM   40  C   UNL     1      -9.878   7.788  73.388  1.00  0.00    -0.283 C  
HETATM   41  N   UNL     1      -8.671   8.506  73.785  1.00  0.00    -0.262 NA 
HETATM   42  H2  UNL     1      -8.717   9.488  73.512  1.00  0.00     0.000 HD 
HETATM   43  H1  UNL     1      -8.482   8.405  74.782  1.00  0.00     0.000 HD 
ENDBRANCH  39  40
ENDBRANCH  38  39
ENDBRANCH  37  38
ENDBRANCH  36  37
ENDBRANCH  33  36
ENDBRANCH  31  32
ENDBRANCH  30  31
ENDBRANCH  28  30
ENDBRANCH  25  26
ENDBRANCH  24  25
ENDBRANCH  23  24
ENDBRANCH  22  23
ENDBRANCH  21  22
ENDBRANCH  19  21
ENDBRANCH  16  17
ENDBRANCH  15  16
ENDBRANCH  12  15
ENDBRANCH  10  11
ENDBRANCH   9  10
ENDBRANCH   8   9
ENDBRANCH   7   8
ENDBRANCH   6   7
ENDBRANCH   3   6
TORSDOF 23
ENDMDL
MODEL      218
REMARK 921   NORMALIZED FREE ENERGY PREDICTED BY IDOCK:   -3.90 KCAL/MOL
REMARK 922        TOTAL FREE ENERGY PREDICTED BY IDOCK:  -11.90 KCAL/MOL
REMARK 923 INTER-LIGAND FREE ENERGY PREDICTED BY IDOCK:   -9.92 KCAL/MOL
REMARK 924 INTRA-LIGAND FREE ENERGY PREDICTED BY IDOCK:   -1.97 KCAL/MOL
REMARK 927      BINDING AFFINITY PREDICTED BY RF-SCORE:    0.00 PKD
ROOT
HETATM    1  C   UNL     1      -6.801   3.649  69.869  1.00  0.00    -0.034 C  
HETATM    2  C   UNL     1      -7.419   3.274  71.190  1.00  0.00    -0.040 C  
HETATM    3  N   UNL     1      -8.778   3.411  71.298  1.00  0.00    -0.075 N  
HETATM    4  O   UNL     1      -6.710   2.895  72.122  1.00  0.00    -0.015 OA 
HETATM    5  O   UNL     1      -9.632   3.692  70.218  1.00  0.00    -0.177 OA 
ENDROOT
BRANCH   3   6
HETATM    6  C   UNL     1      -9.521   3.104  72.512  1.00  0.00    -0.113 C  
BRANCH   6   7
HETATM    7  C   UNL     1      -9.775   4.345  73.370  1.00  0.00    -0.150 C  
BRANCH   7   8
HETATM    8  C   UNL     1     -11.260   4.712  73.353  1.00  0.00    -0.423 C  
BRANCH   8   9
HETATM    9  C   UNL     1     -11.523   6.009  72.584  1.00  0.00    -0.297 C  
BRANCH   9  10
HETATM   10  C   UNL     1     -10.625   7.154  73.054  1.00  0.00    -0.308 C  
BRANCH  10  11
HETATM   11  N   UNL     1     -10.151   7.976  71.951  1.00  0.00    -0.190 N  
HETATM   12  C   UNL     1     -10.791   9.146  71.608  1.00  0.00    -0.372 C  
HETATM   13  H   UNL     1      -9.329   7.681  71.423  1.00  0.00     0.000 HD 
HETATM   14  O   UNL     1     -11.761   9.598  72.210  1.00  0.00    -0.004 OA 
BRANCH  12  15
HETATM   15  C   UNL     1     -10.171   9.837  70.412  1.00  0.00    -0.343 C  
BRANCH  15  16
HETATM   16  C   UNL     1     -10.130   8.895  69.212  1.00  0.00    -0.205 C  
BRANCH  16  17
HETATM   17  C   UNL     1      -9.055   9.278  68.212  1.00  0.00    -0.128 C  
HETATM   18  O   UNL     1      -8.101   9.979  68.542  1.00  0.00    -0.099 OA 
HETATM   19  N   UNL     1      -9.233   8.825  66.930  1.00  0.00    -0.149 N  
HETATM   20  O   UNL     1     -10.250   7.942  66.528  1.00  0.00    -0.251 OA 
BRANCH  19  21
HETATM   21  C   UNL     1      -8.342   9.156  65.828  1.00  0.00    -0.126 C  
BRANCH  21  22
HETATM   22  C   UNL     1      -8.742  10.456  65.123  1.00  0.00    -0.194 C  
BRANCH  22  23
HETATM   23  C   UNL     1      -8.970  10.272  63.611  1.00  0.00    -0.259 C  
BRANCH  23  24
HETATM   24  C   UNL     1     -10.143  11.093  63.073  1.00  0.00    -0.311 C  
BRANCH  24  25
HETATM   25  C   UNL     1     -11.096  11.509  64.192  1.00  0.00    -0.344 C  
BRANCH  25  26
HETATM   26  N   UNL     1     -11.125  12.948  64.361  1.00  0.00    -0.340 N  
HETATM   27  H   UNL     1     -10.299  13.493  64.115  1.00  0.00     0.000 HD 
HETATM   28  C   UNL     1     -12.235  13.599  64.845  1.00  0.00    -0.414 C  
HETATM   29  O   UNL     1     -13.278  13.027  65.148  1.00  0.00    -0.703 OA 
BRANCH  28  30
HETATM   30  C   UNL     1     -12.075  15.091  64.988  1.00  0.00    -0.134 C  
BRANCH  30  31
HETATM   31  C   UNL     1     -10.624  15.474  64.745  1.00  0.00    -0.246 C  
BRANCH  31  32
HETATM   32  C   UNL     1      -9.975  15.970  66.020  1.00  0.00    -0.339 C  
HETATM   33  N   UNL     1     -10.279  17.235  66.459  1.00  0.00    -0.319 N  
HETATM   34  O   UNL     1      -9.260  15.205  66.671  1.00  0.00    -0.234 OA 
HETATM   35  O   UNL     1     -10.719  18.205  65.538  1.00  0.00    -0.599 OA 
BRANCH  33  36
HETATM   36  C   UNL     1      -9.648  17.831  67.638  1.00  0.00    -0.266 C  
BRANCH  36  37
HETATM   37  C   UNL     1     -10.486  17.634  68.903  1.00  0.00    -0.256 C  
BRANCH  37  38
HETATM   38  C   UNL     1     -10.279  16.247  69.521  1.00  0.00    -0.251 C  
BRANCH  38  39
HETATM   39  C   UNL     1     -11.596  15.652  70.030  1.00  0.00    -0.360 C  
BRANCH  39  40
HETATM   40  C   UNL     1     -11.960  14.343  69.328  1.00  0.00    -0.324 C  
HETATM   41  N   UNL     1     -11.574  13.179  70.118  1.00  0.00    -0.533 NA 
HETATM   42  H2  UNL     1     -11.969  13.220  71.057  1.00  0.00     0.000 HD 
HETATM   43  H1  UNL     1     -11.817  12.306  69.650  1.00  0.00     0.000 HD 
ENDBRANCH  39  40
ENDBRANCH  38  39
ENDBRANCH  37  38
ENDBRANCH  36  37
ENDBRANCH  33  36
ENDBRANCH  31  32
ENDBRANCH  30  31
ENDBRANCH  28  30
ENDBRANCH  25  26
ENDBRANCH  24  25
ENDBRANCH  23  24
ENDBRANCH  22  23
ENDBRANCH  21  22
ENDBRANCH  19  21
ENDBRANCH  16  17
ENDBRANCH  15  16
ENDBRANCH  12  15
ENDBRANCH  10  11
ENDBRANCH   9  10
ENDBRANCH   8   9
ENDBRANCH   7   8
ENDBRANCH   6   7
ENDBRANCH   3   6
TORSDOF 23
ENDMDL
MODEL      219
REMARK 921   NORMALIZED FREE ENERGY PREDICTED BY IDOCK:   -3.88 KCAL/MOL
REMARK 922        TOTAL FREE ENERGY PREDICTED BY IDOCK:  -11.85 KCAL/MOL
REMARK 923 INTER-LIGAND FREE ENERGY PREDICTED BY IDOCK:   -9.89 KCAL/MOL
REMARK 924 INTRA-LIGAND FREE ENERGY PREDICTED BY IDOCK:   -1.96 KCAL/MOL
REMARK 927      BINDING AFFINITY PREDICTED BY RF-SCORE:    0.00 PKD
ROOT
HETATM    1  C   UNL     1     -12.242   7.970  72.879  1.00  0.00     0.037 C  
HETATM    2  C   UNL     1     -10.911   7.300  72.657  1.00  0.00    -0.299 C  
HETATM    3  N   UNL     1     -10.897   5.930  72.679  1.00  0.00    -0.235 N  
HETATM    4  O   UNL     1      -9.894   7.977  72.499  1.00  0.00    -0.211 OA 
HETATM    5  O   UNL     1     -12.051   5.129  72.705  1.00  0.00    -0.132 OA 
ENDROOT
BRANCH   3   6
HETATM    6  C   UNL     1      -9.689   5.138  72.496  1.00  0.00    -0.151 C  
BRANCH   6   7
HETATM    7  C   UNL     1      -9.956   3.829  71.750  1.00  0.00    -0.227 C  
BRANCH   7   8
HETATM    8  C   UNL     1      -8.709   3.386  70.984  1.00  0.00    -0.123 C  
BRANCH   8   9
HETATM    9  C   UNL     1      -8.962   3.293  69.478  1.00  0.00    -0.176 C  
BRANCH   9  10
HETATM   10  C   UNL     1      -9.704   4.516  68.938  1.00  0.00    -0.154 C  
BRANCH  10  11
HETATM   11  N   UNL     1      -8.889   5.304  68.026  1.00  0.00    -0.105 N  
HETATM   12  C   UNL     1      -8.396   6.536  68.394  1.00  0.00    -0.117 C  
HETATM   13  H   UNL     1      -8.679   4.937  67.098  1.00  0.00     0.000 HD 
HETATM   14  O   UNL     1      -8.565   7.037  69.502  1.00  0.00    -0.132 OA 
BRANCH  12  15
HETATM   15  C   UNL     1      -7.605   7.215  67.297  1.00  0.00    -0.104 C  
BRANCH  15  16
HETATM   16  C   UNL     1      -8.536   7.701  66.189  1.00  0.00    -0.147 C  
BRANCH  16  17
HETATM   17  C   UNL     1      -9.853   8.224  66.729  1.00  0.00    -0.263 C  
HETATM   18  O   UNL     1     -10.858   7.516  66.750  1.00  0.00    -0.292 OA 
HETATM   19  N   UNL     1      -9.857   9.527  67.156  1.00  0.00    -0.174 N  
HETATM   20  O   UNL     1      -8.715  10.343  67.244  1.00  0.00    -0.126 OA 
BRANCH  19  21
HETATM   21  C   UNL     1     -11.047  10.215  67.634  1.00  0.00    -0.206 C  
BRANCH  21  22
HETATM   22  C   UNL     1     -11.261  10.034  69.139  1.00  0.00    -0.197 C  
BRANCH  22  23
HETATM   23  C   UNL     1     -12.362  10.953  69.703  1.00  0.00    -0.290 C  
BRANCH  23  24
HETATM   24  C   UNL     1     -12.509  10.857  71.222  1.00  0.00    -0.493 C  
BRANCH  24  25
HETATM   25  C   UNL     1     -12.982  12.178  71.825  1.00  0.00    -0.332 C  
BRANCH  25  26
HETATM   26  N   UNL     1     -12.749  13.290  70.925  1.00  0.00    -0.293 N  
HETATM   27  H   UNL     1     -12.739  13.120  69.919  1.00  0.00     0.000 HD 
HETATM   28  C   UNL     1     -12.541  14.567  71.389  1.00  0.00    -0.341 C  
HETATM   29  O   UNL     1     -12.556  14.867  72.579  1.00  0.00    -0.329 OA 
BRANCH  28  30
HETATM   30  C   UNL     1     -12.282  15.591  70.313  1.00  0.00    -0.432 C  
BRANCH  30  31
HETATM   31  C   UNL     1     -10.889  15.385  69.740  1.00  0.00    -0.297 C  
BRANCH  31  32
HETATM   32  C   UNL     1     -10.960  14.815  68.339  1.00  0.00    -0.252 C  
HETATM   33  N   UNL     1     -10.519  15.591  67.294  1.00  0.00    -0.273 N  
HETATM   34  O   UNL     1     -11.331  13.650  68.178  1.00  0.00    -0.258 OA 
HETATM   35  O   UNL     1     -10.512  16.993  67.422  1.00  0.00    -0.323 OA 
BRANCH  33  36
HETATM   36  C   UNL     1     -10.614  15.158  65.898  1.00  0.00    -0.337 C  
BRANCH  36  37
HETATM   37  C   UNL     1     -12.041  14.765  65.512  1.00  0.00    -0.137 C  
BRANCH  37  38
HETATM   38  C   UNL     1     -12.117  14.190  64.093  1.00  0.00    -0.437 C  
BRANCH  38  39
HETATM   39  C   UNL     1     -12.102  12.658  64.102  1.00  0.00    -0.518 C  
BRANCH  39  40
HETATM   40  C   UNL     1     -10.915  12.077  63.333  1.00  0.00    -0.403 C  
HETATM   41  N   UNL     1      -9.643  12.581  63.841  1.00  0.00    -0.614 NA 
HETATM   42  H2  UNL     1      -9.552  12.418  64.844  1.00  0.00     0.000 HD 
HETATM   43  H1  UNL     1      -8.851  12.194  63.328  1.00  0.00     0.000 HD 
ENDBRANCH  39  40
ENDBRANCH  38  39
ENDBRANCH  37  38
ENDBRANCH  36  37
ENDBRANCH  33  36
ENDBRANCH  31  32
ENDBRANCH  30  31
ENDBRANCH  28  30
ENDBRANCH  25  26
ENDBRANCH  24  25
ENDBRANCH  23  24
ENDBRANCH  22  23
ENDBRANCH  21  22
ENDBRANCH  19  21
ENDBRANCH  16  17
ENDBRANCH  15  16
ENDBRANCH  12  15
ENDBRANCH  10  11
ENDBRANCH   9  10
ENDBRANCH   8   9
ENDBRANCH   7   8
ENDBRANCH   6   7
ENDBRANCH   3   6
TORSDOF 23
ENDMDL
MODEL      220
REMARK 921   NORMALIZED FREE ENERGY PREDICTED BY IDOCK:   -3.83 KCAL/MOL
REMARK 922        TOTAL FREE ENERGY PREDICTED BY IDOCK:  -11.74 KCAL/MOL
REMARK 923 INTER-LIGAND FREE ENERGY PREDICTED BY IDOCK:  -10.34 KCAL/MOL
REMARK 924 INTRA-LIGAND FREE ENERGY PREDICTED BY IDOCK:   -1.40 KCAL/MOL
REMARK 927      BINDING AFFINITY PREDICTED BY RF-SCORE:    0.00 PKD
ROOT
HETATM    1  C   UNL     1     -13.085  10.483  71.795  1.00  0.00    -0.570 C  
HETATM    2  C   UNL     1     -13.250   8.994  71.640  1.00  0.00    -0.371 C  
HETATM    3  N   UNL     1     -12.107   8.259  71.460  1.00  0.00    -0.290 N  
HETATM    4  O   UNL     1     -14.374   8.490  71.645  1.00  0.00    -0.427 OA 
HETATM    5  O   UNL     1     -10.808   8.775  71.600  1.00  0.00    -0.276 OA 
ENDROOT
BRANCH   3   6
HETATM    6  C   UNL     1     -12.103   6.814  71.280  1.00  0.00    -0.370 C  
BRANCH   6   7
HETATM    7  C   UNL     1     -11.364   6.387  70.010  1.00  0.00    -0.496 C  
BRANCH   7   8
HETATM    8  C   UNL     1     -10.358   5.278  70.325  1.00  0.00    -0.350 C  
BRANCH   8   9
HETATM    9  C   UNL     1      -8.930   5.670  69.939  1.00  0.00    -0.142 C  
BRANCH   9  10
HETATM   10  C   UNL     1      -8.833   6.152  68.491  1.00  0.00    -0.113 C  
BRANCH  10  11
HETATM   11  N   UNL     1      -7.585   6.850  68.220  1.00  0.00    -0.105 N  
HETATM   12  C   UNL     1      -7.456   8.200  68.462  1.00  0.00    -0.099 C  
HETATM   13  H   UNL     1      -6.792   6.331  67.845  1.00  0.00     0.000 HD 
HETATM   14  O   UNL     1      -8.344   8.896  68.948  1.00  0.00    -0.119 OA 
BRANCH  12  15
HETATM   15  C   UNL     1      -6.098   8.748  68.081  1.00  0.00    -0.051 C  
BRANCH  15  16
HETATM   16  C   UNL     1      -6.142   9.363  66.684  1.00  0.00    -0.064 C  
BRANCH  16  17
HETATM   17  C   UNL     1      -6.905  10.673  66.653  1.00  0.00    -0.114 C  
HETATM   18  O   UNL     1      -7.924  10.800  65.976  1.00  0.00    -0.156 OA 
HETATM   19  N   UNL     1      -6.374  11.700  67.390  1.00  0.00    -0.087 N  
HETATM   20  O   UNL     1      -5.271  11.576  68.254  1.00  0.00    -0.043 OA 
BRANCH  19  21
HETATM   21  C   UNL     1      -6.931  13.044  67.418  1.00  0.00    -0.116 C  
BRANCH  21  22
HETATM   22  C   UNL     1      -6.513  13.824  68.667  1.00  0.00    -0.093 C  
BRANCH  22  23
HETATM   23  C   UNL     1      -6.443  15.345  68.430  1.00  0.00    -0.111 C  
BRANCH  23  24
HETATM   24  C   UNL     1      -7.580  16.115  69.101  1.00  0.00    -0.230 C  
BRANCH  24  25
HETATM   25  C   UNL     1      -7.451  17.619  68.873  1.00  0.00    -0.227 C  
BRANCH  25  26
HETATM   26  N   UNL     1      -8.494  18.120  68.001  1.00  0.00    -0.255 N  
HETATM   27  H   UNL     1      -8.314  18.180  66.998  1.00  0.00     0.000 HD 
HETATM   28  C   UNL     1      -9.717  18.517  68.486  1.00  0.00    -0.367 C  
HETATM   29  O   UNL     1     -10.026  18.461  69.672  1.00  0.00     0.078 OA 
BRANCH  28  30
HETATM   30  C   UNL     1     -10.667  19.042  67.440  1.00  0.00    -0.559 C  
BRANCH  30  31
HETATM   31  C   UNL     1     -10.499  18.247  66.154  1.00  0.00    -0.403 C  
BRANCH  31  32
HETATM   32  C   UNL     1     -11.016  16.834  66.321  1.00  0.00     0.149 C  
HETATM   33  N   UNL     1     -11.150  16.050  65.200  1.00  0.00    -0.323 N  
HETATM   34  O   UNL     1     -11.226  16.397  67.454  1.00  0.00    -0.135 OA 
HETATM   35  O   UNL     1     -11.321  16.658  63.942  1.00  0.00    -1.104 OA 
BRANCH  33  36
HETATM   36  C   UNL     1     -11.709  14.698  65.249  1.00  0.00    -0.346 C  
BRANCH  36  37
HETATM   37  C   UNL     1     -10.620  13.624  65.299  1.00  0.00    -0.354 C  
BRANCH  37  38
HETATM   38  C   UNL     1     -10.635  12.849  66.620  1.00  0.00    -0.273 C  
BRANCH  38  39
HETATM   39  C   UNL     1     -11.877  13.176  67.454  1.00  0.00    -0.412 C  
BRANCH  39  40
HETATM   40  C   UNL     1     -12.020  12.269  68.678  1.00  0.00    -0.227 C  
HETATM   41  N   UNL     1     -11.943  10.858  68.316  1.00  0.00    -0.788 NA 
HETATM   42  H2  UNL     1     -11.088  10.653  67.799  1.00  0.00     0.000 HD 
HETATM   43  H1  UNL     1     -12.038  10.253  69.132  1.00  0.00     0.000 HD 
ENDBRANCH  39  40
ENDBRANCH  38  39
ENDBRANCH  37  38
ENDBRANCH  36  37
ENDBRANCH  33  36
ENDBRANCH  31  32
ENDBRANCH  30  31
ENDBRANCH  28  30
ENDBRANCH  25  26
ENDBRANCH  24  25
ENDBRANCH  23  24
ENDBRANCH  22  23
ENDBRANCH  21  22
ENDBRANCH  19  21
ENDBRANCH  16  17
ENDBRANCH  15  16
ENDBRANCH  12  15
ENDBRANCH  10  11
ENDBRANCH   9  10
ENDBRANCH   8   9
ENDBRANCH   7   8
ENDBRANCH   6   7
ENDBRANCH   3   6
TORSDOF 23
ENDMDL
MODEL      221
REMARK 921   NORMALIZED FREE ENERGY PREDICTED BY IDOCK:   -3.83 KCAL/MOL
REMARK 922        TOTAL FREE ENERGY PREDICTED BY IDOCK:  -11.73 KCAL/MOL
REMARK 923 INTER-LIGAND FREE ENERGY PREDICTED BY IDOCK:   -9.12 KCAL/MOL
REMARK 924 INTRA-LIGAND FREE ENERGY PREDICTED BY IDOCK:   -2.61 KCAL/MOL
REMARK 927      BINDING AFFINITY PREDICTED BY RF-SCORE:    0.00 PKD
ROOT
HETATM    1  C   UNL     1     -12.403   9.080  72.141  1.00  0.00    -0.442 C  
HETATM    2  C   UNL     1     -11.179   8.203  72.087  1.00  0.00    -0.329 C  
HETATM    3  N   UNL     1     -11.294   7.022  71.404  1.00  0.00    -0.255 N  
HETATM    4  O   UNL     1     -10.147   8.542  72.667  1.00  0.00    -0.282 OA 
HETATM    5  O   UNL     1     -12.399   6.674  70.608  1.00  0.00    -0.340 OA 
ENDROOT
BRANCH   3   6
HETATM    6  C   UNL     1     -10.207   6.060  71.275  1.00  0.00    -0.205 C  
BRANCH   6   7
HETATM    7  C   UNL     1     -10.394   5.126  70.077  1.00  0.00    -0.347 C  
BRANCH   7   8
HETATM    8  C   UNL     1      -9.375   3.986  70.126  1.00  0.00    -0.240 C  
BRANCH   8   9
HETATM    9  C   UNL     1      -8.269   4.158  69.083  1.00  0.00    -0.078 C  
BRANCH   9  10
HETATM   10  C   UNL     1      -8.695   5.068  67.930  1.00  0.00    -0.103 C  
BRANCH  10  11
HETATM   11  N   UNL     1      -7.628   5.959  67.501  1.00  0.00    -0.091 N  
HETATM   12  C   UNL     1      -7.596   7.276  67.902  1.00  0.00    -0.111 C  
HETATM   13  H   UNL     1      -6.891   5.602  66.894  1.00  0.00     0.000 HD 
HETATM   14  O   UNL     1      -8.417   7.780  68.663  1.00  0.00    -0.128 OA 
BRANCH  12  15
HETATM   15  C   UNL     1      -6.431   8.048  67.321  1.00  0.00    -0.057 C  
BRANCH  15  16
HETATM   16  C   UNL     1      -6.321   7.800  65.819  1.00  0.00    -0.042 C  
BRANCH  16  17
HETATM   17  C   UNL     1      -7.562   8.242  65.067  1.00  0.00    -0.095 C  
HETATM   18  O   UNL     1      -8.502   7.472  64.884  1.00  0.00    -0.082 OA 
HETATM   19  N   UNL     1      -7.552   9.526  64.586  1.00  0.00    -0.108 N  
HETATM   20  O   UNL     1      -6.547  10.473  64.854  1.00  0.00    -0.091 OA 
BRANCH  19  21
HETATM   21  C   UNL     1      -8.624  10.093  63.781  1.00  0.00    -0.200 C  
BRANCH  21  22
HETATM   22  C   UNL     1      -9.877  10.397  64.607  1.00  0.00    -0.405 C  
BRANCH  22  23
HETATM   23  C   UNL     1      -9.593  11.309  65.815  1.00  0.00    -0.256 C  
BRANCH  23  24
HETATM   24  C   UNL     1      -9.659  10.575  67.155  1.00  0.00    -0.194 C  
BRANCH  24  25
HETATM   25  C   UNL     1     -11.062  10.629  67.756  1.00  0.00    -0.321 C  
BRANCH  25  26
HETATM   26  N   UNL     1     -11.506  11.994  67.957  1.00  0.00    -0.304 N  
HETATM   27  H   UNL     1     -11.606  12.606  67.147  1.00  0.00     0.000 HD 
HETATM   28  C   UNL     1     -11.797  12.486  69.207  1.00  0.00    -0.304 C  
HETATM   29  O   UNL     1     -11.724  11.816  70.232  1.00  0.00    -0.309 OA 
BRANCH  28  30
HETATM   30  C   UNL     1     -12.210  13.935  69.230  1.00  0.00    -0.319 C  
BRANCH  30  31
HETATM   31  C   UNL     1     -10.995  14.808  69.499  1.00  0.00    -0.287 C  
BRANCH  31  32
HETATM   32  C   UNL     1     -10.707  15.712  68.318  1.00  0.00    -0.283 C  
HETATM   33  N   UNL     1      -9.961  15.212  67.279  1.00  0.00    -0.229 N  
HETATM   34  O   UNL     1     -11.212  16.836  68.281  1.00  0.00    -0.333 OA 
HETATM   35  O   UNL     1      -9.070  14.147  67.509  1.00  0.00    -0.180 OA 
BRANCH  33  36
HETATM   36  C   UNL     1      -9.569  16.030  66.128  1.00  0.00    -0.334 C  
BRANCH  36  37
HETATM   37  C   UNL     1      -8.140  16.561  66.258  1.00  0.00    -0.341 C  
BRANCH  37  38
HETATM   38  C   UNL     1      -8.105  18.081  66.448  1.00  0.00    -0.292 C  
BRANCH  38  39
HETATM   39  C   UNL     1      -8.043  18.465  67.929  1.00  0.00    -0.271 C  
BRANCH  39  40
HETATM   40  C   UNL     1      -6.820  19.320  68.265  1.00  0.00    -0.263 C  
HETATM   41  N   UNL     1      -6.284  19.002  69.585  1.00  0.00    -0.268 NA 
HETATM   42  H2  UNL     1      -6.078  18.008  69.673  1.00  0.00     0.000 HD 
HETATM   43  H1  UNL     1      -5.468  19.573  69.809  1.00  0.00     0.000 HD 
ENDBRANCH  39  40
ENDBRANCH  38  39
ENDBRANCH  37  38
ENDBRANCH  36  37
ENDBRANCH  33  36
ENDBRANCH  31  32
ENDBRANCH  30  31
ENDBRANCH  28  30
ENDBRANCH  25  26
ENDBRANCH  24  25
ENDBRANCH  23  24
ENDBRANCH  22  23
ENDBRANCH  21  22
ENDBRANCH  19  21
ENDBRANCH  16  17
ENDBRANCH  15  16
ENDBRANCH  12  15
ENDBRANCH  10  11
ENDBRANCH   9  10
ENDBRANCH   8   9
ENDBRANCH   7   8
ENDBRANCH   6   7
ENDBRANCH   3   6
TORSDOF 23
ENDMDL
MODEL      222
REMARK 921   NORMALIZED FREE ENERGY PREDICTED BY IDOCK:   -3.83 KCAL/MOL
REMARK 922        TOTAL FREE ENERGY PREDICTED BY IDOCK:  -11.72 KCAL/MOL
REMARK 923 INTER-LIGAND FREE ENERGY PREDICTED BY IDOCK:   -9.36 KCAL/MOL
REMARK 924 INTRA-LIGAND FREE ENERGY PREDICTED BY IDOCK:   -2.37 KCAL/MOL
REMARK 927      BINDING AFFINITY PREDICTED BY RF-SCORE:    0.00 PKD
ROOT
HETATM    1  C   UNL     1     -10.657  18.546  65.832  1.00  0.00    -0.336 C  
HETATM    2  C   UNL     1     -10.246  17.097  65.875  1.00  0.00    -0.276 C  
HETATM    3  N   UNL     1     -10.874  16.250  65.000  1.00  0.00    -0.388 N  
HETATM    4  O   UNL     1      -9.407  16.714  66.691  1.00  0.00    -0.226 OA 
HETATM    5  O   UNL     1     -11.719  16.672  63.960  1.00  0.00    -1.143 OA 
ENDROOT
BRANCH   3   6
HETATM    6  C   UNL     1     -10.598  14.821  64.931  1.00  0.00    -0.406 C  
BRANCH   6   7
HETATM    7  C   UNL     1     -11.186  14.056  66.118  1.00  0.00    -0.318 C  
BRANCH   7   8
HETATM    8  C   UNL     1     -10.243  12.931  66.550  1.00  0.00    -0.264 C  
BRANCH   8   9
HETATM    9  C   UNL     1      -9.348  13.347  67.719  1.00  0.00    -0.211 C  
BRANCH   9  10
HETATM   10  C   UNL     1      -7.895  13.555  67.292  1.00  0.00    -0.091 C  
BRANCH  10  11
HETATM   11  N   UNL     1      -7.229  12.304  66.960  1.00  0.00    -0.336 N  
HETATM   12  C   UNL     1      -6.253  11.778  67.777  1.00  0.00    -0.061 C  
HETATM   13  H   UNL     1      -7.491  11.808  66.109  1.00  0.00     0.000 HD 
HETATM   14  O   UNL     1      -5.902  12.285  68.839  1.00  0.00    -0.058 OA 
BRANCH  12  15
HETATM   15  C   UNL     1      -5.655  10.494  67.242  1.00  0.00    -0.041 C  
BRANCH  15  16
HETATM   16  C   UNL     1      -6.439   9.287  67.752  1.00  0.00    -0.059 C  
BRANCH  16  17
HETATM   17  C   UNL     1      -7.477   8.809  66.756  1.00  0.00    -0.086 C  
HETATM   18  O   UNL     1      -8.580   9.347  66.678  1.00  0.00    -0.128 OA 
HETATM   19  N   UNL     1      -7.123   7.733  65.982  1.00  0.00    -0.064 N  
HETATM   20  O   UNL     1      -5.844   7.148  65.964  1.00  0.00    -0.034 OA 
BRANCH  19  21
HETATM   21  C   UNL     1      -8.018   7.097  65.028  1.00  0.00    -0.129 C  
BRANCH  21  22
HETATM   22  C   UNL     1      -8.739   5.883  65.622  1.00  0.00    -0.149 C  
BRANCH  22  23
HETATM   23  C   UNL     1      -8.120   4.543  65.184  1.00  0.00    -0.103 C  
BRANCH  23  24
HETATM   24  C   UNL     1      -8.643   3.346  65.979  1.00  0.00    -0.118 C  
BRANCH  24  25
HETATM   25  C   UNL     1      -7.810   3.100  67.235  1.00  0.00    -0.078 C  
BRANCH  25  26
HETATM   26  N   UNL     1      -8.393   3.738  68.398  1.00  0.00    -0.085 N  
HETATM   27  H   UNL     1      -8.229   4.733  68.552  1.00  0.00     0.000 HD 
HETATM   28  C   UNL     1      -9.161   3.040  69.300  1.00  0.00    -0.133 C  
HETATM   29  O   UNL     1      -9.426   1.848  69.183  1.00  0.00    -0.127 OA 
BRANCH  28  30
HETATM   30  C   UNL     1      -9.657   3.856  70.466  1.00  0.00    -0.263 C  
BRANCH  30  31
HETATM   31  C   UNL     1     -10.106   5.224  69.977  1.00  0.00    -0.336 C  
BRANCH  31  32
HETATM   32  C   UNL     1     -10.734   6.021  71.100  1.00  0.00    -0.264 C  
HETATM   33  N   UNL     1     -11.077   7.329  70.862  1.00  0.00    -0.254 N  
HETATM   34  O   UNL     1     -10.997   5.459  72.166  1.00  0.00    -0.238 OA 
HETATM   35  O   UNL     1     -10.412   8.050  69.851  1.00  0.00    -0.223 OA 
BRANCH  33  36
HETATM   36  C   UNL     1     -11.622   8.202  71.904  1.00  0.00    -0.306 C  
BRANCH  36  37
HETATM   37  C   UNL     1     -13.128   8.420  71.744  1.00  0.00    -0.373 C  
BRANCH  37  38
HETATM   38  C   UNL     1     -13.456   9.828  71.236  1.00  0.00    -0.362 C  
BRANCH  38  39
HETATM   39  C   UNL     1     -12.266  10.779  71.395  1.00  0.00    -0.374 C  
BRANCH  39  40
HETATM   40  C   UNL     1     -11.941  11.536  70.107  1.00  0.00    -0.369 C  
HETATM   41  N   UNL     1     -11.773  12.966  70.348  1.00  0.00    -0.546 NA 
HETATM   42  H2  UNL     1     -11.073  13.141  71.069  1.00  0.00     0.000 HD 
HETATM   43  H1  UNL     1     -11.556  13.471  69.488  1.00  0.00     0.000 HD 
ENDBRANCH  39  40
ENDBRANCH  38  39
ENDBRANCH  37  38
ENDBRANCH  36  37
ENDBRANCH  33  36
ENDBRANCH  31  32
ENDBRANCH  30  31
ENDBRANCH  28  30
ENDBRANCH  25  26
ENDBRANCH  24  25
ENDBRANCH  23  24
ENDBRANCH  22  23
ENDBRANCH  21  22
ENDBRANCH  19  21
ENDBRANCH  16  17
ENDBRANCH  15  16
ENDBRANCH  12  15
ENDBRANCH  10  11
ENDBRANCH   9  10
ENDBRANCH   8   9
ENDBRANCH   7   8
ENDBRANCH   6   7
ENDBRANCH   3   6
TORSDOF 23
ENDMDL
MODEL      223
REMARK 921   NORMALIZED FREE ENERGY PREDICTED BY IDOCK:   -3.82 KCAL/MOL
REMARK 922        TOTAL FREE ENERGY PREDICTED BY IDOCK:  -11.72 KCAL/MOL
REMARK 923 INTER-LIGAND FREE ENERGY PREDICTED BY IDOCK:   -8.96 KCAL/MOL
REMARK 924 INTRA-LIGAND FREE ENERGY PREDICTED BY IDOCK:   -2.76 KCAL/MOL
REMARK 927      BINDING AFFINITY PREDICTED BY RF-SCORE:    0.00 PKD
ROOT
HETATM    1  C   UNL     1      -7.614   6.662  73.146  1.00  0.00    -0.088 C  
HETATM    2  C   UNL     1      -9.095   6.823  72.922  1.00  0.00    -0.127 C  
HETATM    3  N   UNL     1      -9.676   5.987  72.005  1.00  0.00    -0.156 N  
HETATM    4  O   UNL     1      -9.723   7.694  73.524  1.00  0.00    -0.281 OA 
HETATM    5  O   UNL     1      -9.028   4.888  71.415  1.00  0.00    -0.130 OA 
ENDROOT
BRANCH   3   6
HETATM    6  C   UNL     1     -11.092   6.028  71.666  1.00  0.00    -0.275 C  
BRANCH   6   7
HETATM    7  C   UNL     1     -11.329   6.355  70.191  1.00  0.00    -0.485 C  
BRANCH   7   8
HETATM    8  C   UNL     1     -10.618   7.655  69.811  1.00  0.00    -0.245 C  
BRANCH   8   9
HETATM    9  C   UNL     1     -11.571   8.852  69.805  1.00  0.00     0.296 C  
BRANCH   9  10
HETATM   10  C   UNL     1     -11.160   9.925  70.814  1.00  0.00    -0.347 C  
BRANCH  10  11
HETATM   11  N   UNL     1     -11.672  11.242  70.464  1.00  0.00    -0.450 N  
HETATM   12  C   UNL     1     -11.215  11.910  69.350  1.00  0.00    -0.211 C  
HETATM   13  H   UNL     1     -12.380  11.677  71.054  1.00  0.00     0.000 HD 
HETATM   14  O   UNL     1     -10.395  11.448  68.562  1.00  0.00    -0.191 OA 
BRANCH  12  15
HETATM   15  C   UNL     1     -11.839  13.279  69.178  1.00  0.00    -0.378 C  
BRANCH  15  16
HETATM   16  C   UNL     1     -10.777  14.369  69.291  1.00  0.00    -0.225 C  
BRANCH  16  17
HETATM   17  C   UNL     1     -10.797  15.321  68.111  1.00  0.00    -0.273 C  
HETATM   18  O   UNL     1     -11.558  16.286  68.086  1.00  0.00    -0.262 OA 
HETATM   19  N   UNL     1      -9.947  15.022  67.078  1.00  0.00    -0.240 N  
HETATM   20  O   UNL     1      -8.991  13.991  67.102  1.00  0.00    -0.212 OA 
BRANCH  19  21
HETATM   21  C   UNL     1      -9.887  15.782  65.838  1.00  0.00    -0.349 C  
BRANCH  21  22
HETATM   22  C   UNL     1     -10.960  15.351  64.835  1.00  0.00    -0.453 C  
BRANCH  22  23
HETATM   23  C   UNL     1     -11.037  13.823  64.657  1.00  0.00    -0.391 C  
BRANCH  23  24
HETATM   24  C   UNL     1     -11.943  13.393  63.503  1.00  0.00    -0.467 C  
BRANCH  24  25
HETATM   25  C   UNL     1     -12.044  11.872  63.405  1.00  0.00    -0.432 C  
BRANCH  25  26
HETATM   26  N   UNL     1     -10.739  11.259  63.254  1.00  0.00    -0.744 N  
HETATM   27  H   UNL     1     -10.247  11.355  62.365  1.00  0.00     0.000 HD 
HETATM   28  C   UNL     1     -10.148  10.552  64.273  1.00  0.00    -0.310 C  
HETATM   29  O   UNL     1     -10.657  10.403  65.379  1.00  0.00    -0.178 OA 
BRANCH  28  30
HETATM   30  C   UNL     1      -8.807   9.955  63.927  1.00  0.00    -0.250 C  
BRANCH  30  31
HETATM   31  C   UNL     1      -7.773  10.398  64.950  1.00  0.00    -0.084 C  
BRANCH  31  32
HETATM   32  C   UNL     1      -6.965   9.219  65.448  1.00  0.00    -0.085 C  
HETATM   33  N   UNL     1      -7.521   8.400  66.401  1.00  0.00    -0.083 N  
HETATM   34  O   UNL     1      -5.871   8.975  64.933  1.00  0.00    -0.061 OA 
HETATM   35  O   UNL     1      -8.522   8.904  67.253  1.00  0.00    -0.114 OA 
BRANCH  33  36
HETATM   36  C   UNL     1      -6.792   7.279  66.997  1.00  0.00    -0.076 C  
BRANCH  36  37
HETATM   37  C   UNL     1      -6.968   5.986  66.199  1.00  0.00    -0.062 C  
BRANCH  37  38
HETATM   38  C   UNL     1      -8.437   5.559  66.110  1.00  0.00    -0.122 C  
BRANCH  38  39
HETATM   39  C   UNL     1      -9.017   5.238  67.491  1.00  0.00    -0.108 C  
BRANCH  39  40
HETATM   40  C   UNL     1      -9.550   3.808  67.588  1.00  0.00    -0.147 C  
HETATM   41  N   UNL     1      -9.406   3.268  68.936  1.00  0.00    -0.164 NA 
HETATM   42  H2  UNL     1      -9.844   3.875  69.628  1.00  0.00     0.000 HD 
HETATM   43  H1  UNL     1      -9.761   2.314  69.001  1.00  0.00     0.000 HD 
ENDBRANCH  39  40
ENDBRANCH  38  39
ENDBRANCH  37  38
ENDBRANCH  36  37
ENDBRANCH  33  36
ENDBRANCH  31  32
ENDBRANCH  30  31
ENDBRANCH  28  30
ENDBRANCH  25  26
ENDBRANCH  24  25
ENDBRANCH  23  24
ENDBRANCH  22  23
ENDBRANCH  21  22
ENDBRANCH  19  21
ENDBRANCH  16  17
ENDBRANCH  15  16
ENDBRANCH  12  15
ENDBRANCH  10  11
ENDBRANCH   9  10
ENDBRANCH   8   9
ENDBRANCH   7   8
ENDBRANCH   6   7
ENDBRANCH   3   6
TORSDOF 23
ENDMDL
MODEL      224
REMARK 921   NORMALIZED FREE ENERGY PREDICTED BY IDOCK:   -3.82 KCAL/MOL
REMARK 922        TOTAL FREE ENERGY PREDICTED BY IDOCK:  -11.71 KCAL/MOL
REMARK 923 INTER-LIGAND FREE ENERGY PREDICTED BY IDOCK:   -9.32 KCAL/MOL
REMARK 924 INTRA-LIGAND FREE ENERGY PREDICTED BY IDOCK:   -2.39 KCAL/MOL
REMARK 927      BINDING AFFINITY PREDICTED BY RF-SCORE:    0.00 PKD
ROOT
HETATM    1  C   UNL     1     -12.041  13.058  70.227  1.00  0.00    -0.388 C  
HETATM    2  C   UNL     1     -11.678  14.473  69.860  1.00  0.00    -0.299 C  
HETATM    3  N   UNL     1     -10.435  14.673  69.320  1.00  0.00    -0.235 N  
HETATM    4  O   UNL     1     -12.468  15.393  70.077  1.00  0.00    -0.345 OA 
HETATM    5  O   UNL     1      -9.572  13.638  68.921  1.00  0.00    -0.067 OA 
ENDROOT
BRANCH   3   6
HETATM    6  C   UNL     1      -9.931  15.982  68.929  1.00  0.00    -0.232 C  
BRANCH   6   7
HETATM    7  C   UNL     1      -9.685  16.087  67.422  1.00  0.00    -0.232 C  
BRANCH   7   8
HETATM    8  C   UNL     1     -11.009  16.009  66.659  1.00  0.00    -0.092 C  
BRANCH   8   9
HETATM    9  C   UNL     1     -10.800  15.700  65.175  1.00  0.00    -0.448 C  
BRANCH   9  10
HETATM   10  C   UNL     1     -11.896  14.795  64.611  1.00  0.00    -0.436 C  
BRANCH  10  11
HETATM   11  N   UNL     1     -11.357  13.673  63.856  1.00  0.00    -0.591 N  
HETATM   12  C   UNL     1     -10.616  12.690  64.473  1.00  0.00    -0.346 C  
HETATM   13  H   UNL     1     -11.531  13.616  62.853  1.00  0.00     0.000 HD 
HETATM   14  O   UNL     1     -10.391  12.657  65.679  1.00  0.00    -0.264 OA 
BRANCH  12  15
HETATM   15  C   UNL     1     -10.112  11.632  63.514  1.00  0.00    -0.455 C  
BRANCH  15  16
HETATM   16  C   UNL     1      -9.893  10.310  64.244  1.00  0.00    -0.357 C  
BRANCH  16  17
HETATM   17  C   UNL     1      -8.760   9.499  63.644  1.00  0.00    -0.221 C  
HETATM   18  O   UNL     1      -8.881   8.951  62.550  1.00  0.00    -0.202 OA 
HETATM   19  N   UNL     1      -7.624   9.393  64.404  1.00  0.00    -0.110 N  
HETATM   20  O   UNL     1      -7.402  10.080  65.610  1.00  0.00    -0.113 OA 
BRANCH  19  21
HETATM   21  C   UNL     1      -6.469   8.596  64.019  1.00  0.00    -0.072 C  
BRANCH  21  22
HETATM   22  C   UNL     1      -5.494   8.380  65.180  1.00  0.00    -0.039 C  
BRANCH  22  23
HETATM   23  C   UNL     1      -6.054   7.444  66.268  1.00  0.00    -0.037 C  
BRANCH  23  24
HETATM   24  C   UNL     1      -7.121   6.481  65.747  1.00  0.00    -0.062 C  
BRANCH  24  25
HETATM   25  C   UNL     1      -8.375   6.507  66.618  1.00  0.00    -0.113 C  
BRANCH  25  26
HETATM   26  N   UNL     1      -8.575   7.806  67.229  1.00  0.00    -0.127 N  
HETATM   27  H   UNL     1      -7.762   8.336  67.543  1.00  0.00     0.000 HD 
HETATM   28  C   UNL     1      -9.829   8.343  67.398  1.00  0.00    -0.191 C  
HETATM   29  O   UNL     1     -10.859   7.786  67.034  1.00  0.00    -0.316 OA 
BRANCH  28  30
HETATM   30  C   UNL     1      -9.850   9.686  68.082  1.00  0.00    -0.172 C  
BRANCH  30  31
HETATM   31  C   UNL     1     -11.060   9.773  68.998  1.00  0.00    -0.143 C  
BRANCH  31  32
HETATM   32  C   UNL     1     -10.904   8.849  70.188  1.00  0.00    -0.231 C  
HETATM   33  N   UNL     1     -11.982   8.667  71.019  1.00  0.00    -0.276 N  
HETATM   34  O   UNL     1      -9.852   8.223  70.334  1.00  0.00    -0.184 OA 
HETATM   35  O   UNL     1     -12.977   9.660  71.098  1.00  0.00    -0.336 OA 
BRANCH  33  36
HETATM   36  C   UNL     1     -11.910   7.851  72.234  1.00  0.00    -0.352 C  
BRANCH  36  37
HETATM   37  C   UNL     1     -12.271   6.388  71.969  1.00  0.00    -0.320 C  
BRANCH  37  38
HETATM   38  C   UNL     1     -11.535   5.432  72.913  1.00  0.00    -0.340 C  
BRANCH  38  39
HETATM   39  C   UNL     1     -10.085   5.208  72.474  1.00  0.00    -0.226 C  
BRANCH  39  40
HETATM   40  C   UNL     1      -9.973   4.271  71.271  1.00  0.00    -0.160 C  
HETATM   41  N   UNL     1      -9.686   5.002  70.041  1.00  0.00    -0.187 NA 
HETATM   42  H2  UNL     1      -8.853   5.582  70.139  1.00  0.00     0.000 HD 
HETATM   43  H1  UNL     1      -9.612   4.376  69.238  1.00  0.00     0.000 HD 
ENDBRANCH  39  40
ENDBRANCH  38  39
ENDBRANCH  37  38
ENDBRANCH  36  37
ENDBRANCH  33  36
ENDBRANCH  31  32
ENDBRANCH  30  31
ENDBRANCH  28  30
ENDBRANCH  25  26
ENDBRANCH  24  25
ENDBRANCH  23  24
ENDBRANCH  22  23
ENDBRANCH  21  22
ENDBRANCH  19  21
ENDBRANCH  16  17
ENDBRANCH  15  16
ENDBRANCH  12  15
ENDBRANCH  10  11
ENDBRANCH   9  10
ENDBRANCH   8   9
ENDBRANCH   7   8
ENDBRANCH   6   7
ENDBRANCH   3   6
TORSDOF 23
ENDMDL
MODEL      225
REMARK 921   NORMALIZED FREE ENERGY PREDICTED BY IDOCK:   -3.80 KCAL/MOL
REMARK 922        TOTAL FREE ENERGY PREDICTED BY IDOCK:  -11.65 KCAL/MOL
REMARK 923 INTER-LIGAND FREE ENERGY PREDICTED BY IDOCK:   -8.96 KCAL/MOL
REMARK 924 INTRA-LIGAND FREE ENERGY PREDICTED BY IDOCK:   -2.70 KCAL/MOL
REMARK 927      BINDING AFFINITY PREDICTED BY RF-SCORE:    0.00 PKD
ROOT
HETATM    1  C   UNL     1      -6.980   7.835  74.128  1.00  0.00    -0.137 C  
HETATM    2  C   UNL     1      -7.217   6.437  73.621  1.00  0.00    -0.082 C  
HETATM    3  N   UNL     1      -7.896   6.315  72.437  1.00  0.00    -0.103 N  
HETATM    4  O   UNL     1      -6.836   5.466  74.276  1.00  0.00    -0.075 OA 
HETATM    5  O   UNL     1      -8.211   7.392  71.592  1.00  0.00    -0.102 OA 
ENDROOT
BRANCH   3   6
HETATM    6  C   UNL     1      -8.216   5.032  71.825  1.00  0.00    -0.116 C  
BRANCH   6   7
HETATM    7  C   UNL     1      -9.675   4.627  72.048  1.00  0.00    -0.225 C  
BRANCH   7   8
HETATM    8  C   UNL     1     -10.601   5.449  71.149  1.00  0.00    -0.276 C  
BRANCH   8   9
HETATM    9  C   UNL     1     -11.401   6.484  71.941  1.00  0.00    -0.327 C  
BRANCH   9  10
HETATM   10  C   UNL     1     -12.730   6.829  71.267  1.00  0.00    -0.242 C  
BRANCH  10  11
HETATM   11  N   UNL     1     -12.867   8.254  71.004  1.00  0.00    -0.508 N  
HETATM   12  C   UNL     1     -13.708   9.040  71.759  1.00  0.00    -0.419 C  
HETATM   13  H   UNL     1     -12.330   8.677  70.247  1.00  0.00     0.000 HD 
HETATM   14  O   UNL     1     -14.361   8.625  72.713  1.00  0.00    -0.520 OA 
BRANCH  12  15
HETATM   15  C   UNL     1     -13.741  10.484  71.307  1.00  0.00     0.221 C  
BRANCH  15  16
HETATM   16  C   UNL     1     -12.331  11.068  71.278  1.00  0.00    -0.426 C  
BRANCH  16  17
HETATM   17  C   UNL     1     -11.819  11.274  69.866  1.00  0.00    -0.360 C  
HETATM   18  O   UNL     1     -11.635  10.322  69.111  1.00  0.00    -0.196 OA 
HETATM   19  N   UNL     1     -11.549  12.569  69.504  1.00  0.00    -0.291 N  
HETATM   20  O   UNL     1     -11.836  13.696  70.294  1.00  0.00    -0.306 OA 
BRANCH  19  21
HETATM   21  C   UNL     1     -10.985  12.945  68.216  1.00  0.00    -0.256 C  
BRANCH  21  22
HETATM   22  C   UNL     1      -9.483  12.657  68.130  1.00  0.00    -0.218 C  
BRANCH  22  23
HETATM   23  C   UNL     1      -8.697  13.776  67.421  1.00  0.00    -0.210 C  
BRANCH  23  24
HETATM   24  C   UNL     1      -7.193  13.724  67.693  1.00  0.00    -0.183 C  
BRANCH  24  25
HETATM   25  C   UNL     1      -6.885  13.014  69.009  1.00  0.00    -0.081 C  
BRANCH  25  26
HETATM   26  N   UNL     1      -6.145  11.787  68.795  1.00  0.00    -0.048 N  
HETATM   27  H   UNL     1      -5.294  11.813  68.234  1.00  0.00     0.000 HD 
HETATM   28  C   UNL     1      -6.558  10.588  69.326  1.00  0.00    -0.060 C  
HETATM   29  O   UNL     1      -7.557  10.467  70.029  1.00  0.00    -0.152 OA 
BRANCH  28  30
HETATM   30  C   UNL     1      -5.686   9.411  68.973  1.00  0.00    -0.036 C  
BRANCH  30  31
HETATM   31  C   UNL     1      -5.556   9.308  67.461  1.00  0.00    -0.041 C  
BRANCH  31  32
HETATM   32  C   UNL     1      -6.858   8.853  66.836  1.00  0.00    -0.077 C  
HETATM   33  N   UNL     1      -7.361   9.570  65.778  1.00  0.00    -0.095 N  
HETATM   34  O   UNL     1      -7.388   7.813  67.233  1.00  0.00    -0.087 OA 
HETATM   35  O   UNL     1      -7.008  10.925  65.624  1.00  0.00    -0.069 OA 
BRANCH  33  36
HETATM   36  C   UNL     1      -8.647   9.254  65.154  1.00  0.00    -0.172 C  
BRANCH  36  37
HETATM   37  C   UNL     1      -9.073  10.315  64.138  1.00  0.00    -0.284 C  
BRANCH  37  38
HETATM   38  C   UNL     1     -10.508  10.797  64.373  1.00  0.00    -0.344 C  
BRANCH  38  39
HETATM   39  C   UNL     1     -10.827  12.048  63.549  1.00  0.00    -0.509 C  
BRANCH  39  40
HETATM   40  C   UNL     1     -11.728  13.032  64.298  1.00  0.00    -0.389 C  
HETATM   41  N   UNL     1     -12.329  14.009  63.396  1.00  0.00    -1.154 NA 
HETATM   42  H2  UNL     1     -12.830  13.552  62.634  1.00  0.00     0.000 HD 
HETATM   43  H1  UNL     1     -12.930  14.665  63.896  1.00  0.00     0.000 HD 
ENDBRANCH  39  40
ENDBRANCH  38  39
ENDBRANCH  37  38
ENDBRANCH  36  37
ENDBRANCH  33  36
ENDBRANCH  31  32
ENDBRANCH  30  31
ENDBRANCH  28  30
ENDBRANCH  25  26
ENDBRANCH  24  25
ENDBRANCH  23  24
ENDBRANCH  22  23
ENDBRANCH  21  22
ENDBRANCH  19  21
ENDBRANCH  16  17
ENDBRANCH  15  16
ENDBRANCH  12  15
ENDBRANCH  10  11
ENDBRANCH   9  10
ENDBRANCH   8   9
ENDBRANCH   7   8
ENDBRANCH   6   7
ENDBRANCH   3   6
TORSDOF 23
ENDMDL
MODEL      226
REMARK 921   NORMALIZED FREE ENERGY PREDICTED BY IDOCK:   -3.79 KCAL/MOL
REMARK 922        TOTAL FREE ENERGY PREDICTED BY IDOCK:  -11.64 KCAL/MOL
REMARK 923 INTER-LIGAND FREE ENERGY PREDICTED BY IDOCK:   -9.29 KCAL/MOL
REMARK 924 INTRA-LIGAND FREE ENERGY PREDICTED BY IDOCK:   -2.35 KCAL/MOL
REMARK 927      BINDING AFFINITY PREDICTED BY RF-SCORE:    0.00 PKD
ROOT
HETATM    1  C   UNL     1     -12.938  13.969  65.114  1.00  0.00    -0.260 C  
HETATM    2  C   UNL     1     -11.651  14.750  65.132  1.00  0.00    -0.358 C  
HETATM    3  N   UNL     1     -10.705  14.363  66.046  1.00  0.00    -0.295 N  
HETATM    4  O   UNL     1     -11.495  15.708  64.374  1.00  0.00    -0.393 OA 
HETATM    5  O   UNL     1     -10.785  13.191  66.816  1.00  0.00    -0.265 OA 
ENDROOT
BRANCH   3   6
HETATM    6  C   UNL     1      -9.418  15.027  66.197  1.00  0.00    -0.313 C  
BRANCH   6   7
HETATM    7  C   UNL     1      -9.386  15.968  67.403  1.00  0.00    -0.220 C  
BRANCH   7   8
HETATM    8  C   UNL     1      -9.073  15.188  68.681  1.00  0.00    -0.195 C  
BRANCH   8   9
HETATM    9  C   UNL     1      -7.596  15.284  69.068  1.00  0.00    -0.172 C  
BRANCH   9  10
HETATM   10  C   UNL     1      -6.811  14.032  68.674  1.00  0.00    -0.103 C  
BRANCH  10  11
HETATM   11  N   UNL     1      -7.675  12.963  68.195  1.00  0.00    -0.127 N  
HETATM   12  C   UNL     1      -7.207  12.009  67.319  1.00  0.00    -0.150 C  
HETATM   13  H   UNL     1      -8.642  12.919  68.514  1.00  0.00     0.000 HD 
HETATM   14  O   UNL     1      -6.049  11.960  66.913  1.00  0.00    -0.153 OA 
BRANCH  12  15
HETATM   15  C   UNL     1      -8.265  11.006  66.908  1.00  0.00    -0.140 C  
BRANCH  15  16
HETATM   16  C   UNL     1      -8.293   9.831  67.881  1.00  0.00    -0.114 C  
BRANCH  16  17
HETATM   17  C   UNL     1      -8.484   8.501  67.177  1.00  0.00    -0.118 C  
HETATM   18  O   UNL     1      -9.595   8.138  66.796  1.00  0.00    -0.182 OA 
HETATM   19  N   UNL     1      -7.361   7.730  67.025  1.00  0.00    -0.089 N  
HETATM   20  O   UNL     1      -6.058   8.143  67.353  1.00  0.00    -0.048 OA 
BRANCH  19  21
HETATM   21  C   UNL     1      -7.372   6.398  66.440  1.00  0.00    -0.081 C  
BRANCH  21  22
HETATM   22  C   UNL     1      -7.242   5.295  67.494  1.00  0.00    -0.071 C  
BRANCH  22  23
HETATM   23  C   UNL     1      -8.496   4.405  67.589  1.00  0.00    -0.100 C  
BRANCH  23  24
HETATM   24  C   UNL     1      -9.688   5.107  68.239  1.00  0.00    -0.191 C  
BRANCH  24  25
HETATM   25  C   UNL     1      -9.902   4.636  69.676  1.00  0.00    -0.223 C  
BRANCH  25  26
HETATM   26  N   UNL     1     -10.735   5.557  70.423  1.00  0.00    -0.278 N  
HETATM   27  H   UNL     1     -11.224   6.300  69.923  1.00  0.00     0.000 HD 
HETATM   28  C   UNL     1     -10.883   5.459  71.786  1.00  0.00    -0.174 C  
HETATM   29  O   UNL     1     -10.349   4.587  72.465  1.00  0.00    -0.187 OA 
BRANCH  28  30
HETATM   30  C   UNL     1     -11.758   6.521  72.401  1.00  0.00    -0.271 C  
BRANCH  30  31
HETATM   31  C   UNL     1     -11.069   7.873  72.296  1.00  0.00    -0.376 C  
BRANCH  31  32
HETATM   32  C   UNL     1     -12.032   8.935  71.811  1.00  0.00    -0.359 C  
HETATM   33  N   UNL     1     -11.646   9.741  70.768  1.00  0.00    -0.314 N  
HETATM   34  O   UNL     1     -13.161   8.998  72.304  1.00  0.00    -0.396 OA 
HETATM   35  O   UNL     1     -10.276   9.948  70.517  1.00  0.00    -0.278 OA 
BRANCH  33  36
HETATM   36  C   UNL     1     -12.477  10.843  70.276  1.00  0.00    -0.303 C  
BRANCH  36  37
HETATM   37  C   UNL     1     -11.681  12.140  70.120  1.00  0.00    -0.301 C  
BRANCH  37  38
HETATM   38  C   UNL     1     -12.506  13.373  70.504  1.00  0.00    -0.350 C  
BRANCH  38  39
HETATM   39  C   UNL     1     -13.087  13.246  71.916  1.00  0.00    -0.483 C  
BRANCH  39  40
HETATM   40  C   UNL     1     -13.050  14.566  72.688  1.00  0.00    -0.467 C  
HETATM   41  N   UNL     1     -12.007  15.455  72.188  1.00  0.00    -0.388 NA 
HETATM   42  H2  UNL     1     -12.102  15.614  71.185  1.00  0.00     0.000 HD 
HETATM   43  H1  UNL     1     -11.982  16.336  72.703  1.00  0.00     0.000 HD 
ENDBRANCH  39  40
ENDBRANCH  38  39
ENDBRANCH  37  38
ENDBRANCH  36  37
ENDBRANCH  33  36
ENDBRANCH  31  32
ENDBRANCH  30  31
ENDBRANCH  28  30
ENDBRANCH  25  26
ENDBRANCH  24  25
ENDBRANCH  23  24
ENDBRANCH  22  23
ENDBRANCH  21  22
ENDBRANCH  19  21
ENDBRANCH  16  17
ENDBRANCH  15  16
ENDBRANCH  12  15
ENDBRANCH  10  11
ENDBRANCH   9  10
ENDBRANCH   8   9
ENDBRANCH   7   8
ENDBRANCH   6   7
ENDBRANCH   3   6
TORSDOF 23
ENDMDL
MODEL      227
REMARK 921   NORMALIZED FREE ENERGY PREDICTED BY IDOCK:   -3.78 KCAL/MOL
REMARK 922        TOTAL FREE ENERGY PREDICTED BY IDOCK:  -11.62 KCAL/MOL
REMARK 923 INTER-LIGAND FREE ENERGY PREDICTED BY IDOCK:  -10.51 KCAL/MOL
REMARK 924 INTRA-LIGAND FREE ENERGY PREDICTED BY IDOCK:   -1.11 KCAL/MOL
REMARK 927      BINDING AFFINITY PREDICTED BY RF-SCORE:    0.00 PKD
ROOT
HETATM    1  C   UNL     1      -7.631   5.991  64.643  1.00  0.00    -0.091 C  
HETATM    2  C   UNL     1      -8.573   5.097  65.406  1.00  0.00    -0.146 C  
HETATM    3  N   UNL     1      -8.269   3.761  65.438  1.00  0.00    -0.100 N  
HETATM    4  O   UNL     1      -9.578   5.566  65.940  1.00  0.00    -0.144 OA 
HETATM    5  O   UNL     1      -7.061   3.214  64.974  1.00  0.00    -0.055 OA 
ENDROOT
BRANCH   3   6
HETATM    6  C   UNL     1      -9.088   2.768  66.120  1.00  0.00    -0.118 C  
BRANCH   6   7
HETATM    7  C   UNL     1      -8.343   2.087  67.269  1.00  0.00    -0.085 C  
BRANCH   7   8
HETATM    8  C   UNL     1      -8.226   3.033  68.466  1.00  0.00    -0.079 C  
BRANCH   8   9
HETATM    9  C   UNL     1      -9.581   3.615  68.873  1.00  0.00    -0.157 C  
BRANCH   9  10
HETATM   10  C   UNL     1      -9.445   4.975  69.559  1.00  0.00    -0.143 C  
BRANCH  10  11
HETATM   11  N   UNL     1     -10.205   5.051  70.798  1.00  0.00    -0.239 N  
HETATM   12  C   UNL     1      -9.590   5.354  71.992  1.00  0.00    -0.155 C  
HETATM   13  H   UNL     1     -11.209   4.878  70.780  1.00  0.00     0.000 HD 
HETATM   14  O   UNL     1      -8.396   5.616  72.101  1.00  0.00    -0.114 OA 
BRANCH  12  15
HETATM   15  C   UNL     1     -10.541   5.348  73.171  1.00  0.00    -0.278 C  
BRANCH  15  16
HETATM   16  C   UNL     1     -10.592   6.727  73.823  1.00  0.00    -0.323 C  
BRANCH  16  17
HETATM   17  C   UNL     1     -10.812   7.837  72.813  1.00  0.00    -0.379 C  
HETATM   18  O   UNL     1     -10.004   8.754  72.690  1.00  0.00    -0.199 OA 
HETATM   19  N   UNL     1     -11.970   7.767  72.081  1.00  0.00    -0.310 N  
HETATM   20  O   UNL     1     -12.873   6.690  72.114  1.00  0.00    -0.215 OA 
BRANCH  19  21
HETATM   21  C   UNL     1     -12.378   8.782  71.121  1.00  0.00    -0.219 C  
BRANCH  21  22
HETATM   22  C   UNL     1     -13.532   9.646  71.639  1.00  0.00    -0.455 C  
BRANCH  22  23
HETATM   23  C   UNL     1     -13.139  11.123  71.825  1.00  0.00    -0.536 C  
BRANCH  23  24
HETATM   24  C   UNL     1     -12.192  11.638  70.741  1.00  0.00    -0.443 C  
BRANCH  24  25
HETATM   25  C   UNL     1     -12.331  13.147  70.545  1.00  0.00    -0.304 C  
BRANCH  25  26
HETATM   26  N   UNL     1     -11.097  13.741  70.071  1.00  0.00    -0.463 N  
HETATM   27  H   UNL     1     -10.221  13.497  70.534  1.00  0.00     0.000 HD 
HETATM   28  C   UNL     1     -11.074  14.622  69.017  1.00  0.00    -0.259 C  
HETATM   29  O   UNL     1     -12.075  14.956  68.391  1.00  0.00    -0.249 OA 
BRANCH  28  30
HETATM   30  C   UNL     1      -9.709  15.166  68.683  1.00  0.00    -0.216 C  
BRANCH  30  31
HETATM   31  C   UNL     1      -9.796  16.033  67.437  1.00  0.00    -0.236 C  
BRANCH  31  32
HETATM   32  C   UNL     1     -10.001  17.488  67.804  1.00  0.00    -0.312 C  
HETATM   33  N   UNL     1     -10.568  18.323  66.872  1.00  0.00    -0.363 N  
HETATM   34  O   UNL     1      -9.734  17.867  68.946  1.00  0.00    -0.313 OA 
HETATM   35  O   UNL     1     -10.469  18.009  65.503  1.00  0.00    -0.636 OA 
BRANCH  33  36
HETATM   36  C   UNL     1     -10.741  19.759  67.105  1.00  0.00    -0.421 C  
BRANCH  36  37
HETATM   37  C   UNL     1      -9.555  20.574  66.587  1.00  0.00    -0.396 C  
BRANCH  37  38
HETATM   38  C   UNL     1      -8.301  20.379  67.446  1.00  0.00    -0.380 C  
BRANCH  38  39
HETATM   39  C   UNL     1      -7.031  20.331  66.591  1.00  0.00    -0.287 C  
BRANCH  39  40
HETATM   40  C   UNL     1      -6.926  19.049  65.763  1.00  0.00    -0.268 C  
HETATM   41  N   UNL     1      -6.332  19.298  64.454  1.00  0.00    -0.420 NA 
HETATM   42  H2  UNL     1      -5.427  19.761  64.538  1.00  0.00     0.000 HD 
HETATM   43  H1  UNL     1      -6.262  18.443  63.902  1.00  0.00     0.000 HD 
ENDBRANCH  39  40
ENDBRANCH  38  39
ENDBRANCH  37  38
ENDBRANCH  36  37
ENDBRANCH  33  36
ENDBRANCH  31  32
ENDBRANCH  30  31
ENDBRANCH  28  30
ENDBRANCH  25  26
ENDBRANCH  24  25
ENDBRANCH  23  24
ENDBRANCH  22  23
ENDBRANCH  21  22
ENDBRANCH  19  21
ENDBRANCH  16  17
ENDBRANCH  15  16
ENDBRANCH  12  15
ENDBRANCH  10  11
ENDBRANCH   9  10
ENDBRANCH   8   9
ENDBRANCH   7   8
ENDBRANCH   6   7
ENDBRANCH   3   6
TORSDOF 23
ENDMDL
MODEL      228
REMARK 921   NORMALIZED FREE ENERGY PREDICTED BY IDOCK:   -3.78 KCAL/MOL
REMARK 922        TOTAL FREE ENERGY PREDICTED BY IDOCK:  -11.61 KCAL/MOL
REMARK 923 INTER-LIGAND FREE ENERGY PREDICTED BY IDOCK:   -8.99 KCAL/MOL
REMARK 924 INTRA-LIGAND FREE ENERGY PREDICTED BY IDOCK:   -2.62 KCAL/MOL
REMARK 927      BINDING AFFINITY PREDICTED BY RF-SCORE:    0.00 PKD
ROOT
HETATM    1  C   UNL     1     -10.151   8.044  66.483  1.00  0.00    -0.270 C  
HETATM    2  C   UNL     1      -9.361   6.897  67.056  1.00  0.00    -0.145 C  
HETATM    3  N   UNL     1      -8.588   6.179  66.181  1.00  0.00    -0.136 N  
HETATM    4  O   UNL     1      -9.449   6.619  68.253  1.00  0.00    -0.126 OA 
HETATM    5  O   UNL     1      -8.346   6.555  64.850  1.00  0.00    -0.126 OA 
ENDROOT
BRANCH   3   6
HETATM    6  C   UNL     1      -7.780   5.034  66.578  1.00  0.00    -0.092 C  
BRANCH   6   7
HETATM    7  C   UNL     1      -8.398   3.704  66.142  1.00  0.00    -0.102 C  
BRANCH   7   8
HETATM    8  C   UNL     1      -9.519   3.296  67.101  1.00  0.00    -0.178 C  
BRANCH   8   9
HETATM    9  C   UNL     1      -9.173   2.029  67.885  1.00  0.00    -0.228 C  
BRANCH   9  10
HETATM   10  C   UNL     1      -9.454   2.178  69.381  1.00  0.00    -0.049 C  
BRANCH  10  11
HETATM   11  N   UNL     1      -9.383   3.562  69.825  1.00  0.00    -0.161 N  
HETATM   12  C   UNL     1      -9.731   3.917  71.109  1.00  0.00    -0.178 C  
HETATM   13  H   UNL     1      -9.070   4.281  69.173  1.00  0.00     0.000 HD 
HETATM   14  O   UNL     1     -10.081   3.114  71.970  1.00  0.00    -0.166 OA 
BRANCH  12  15
HETATM   15  C   UNL     1      -9.627   5.405  71.366  1.00  0.00    -0.202 C  
BRANCH  15  16
HETATM   16  C   UNL     1     -10.855   5.904  72.124  1.00  0.00    -0.290 C  
BRANCH  16  17
HETATM   17  C   UNL     1     -11.526   7.074  71.431  1.00  0.00    -0.276 C  
HETATM   18  O   UNL     1     -12.458   6.900  70.648  1.00  0.00    -0.321 OA 
HETATM   19  N   UNL     1     -11.011   8.315  71.705  1.00  0.00    -0.260 N  
HETATM   20  O   UNL     1     -10.016   8.573  72.664  1.00  0.00    -0.278 OA 
BRANCH  19  21
HETATM   21  C   UNL     1     -11.482   9.540  71.075  1.00  0.00    -0.349 C  
BRANCH  21  22
HETATM   22  C   UNL     1     -10.973   9.692  69.639  1.00  0.00    -0.253 C  
BRANCH  22  23
HETATM   23  C   UNL     1      -9.530  10.226  69.568  1.00  0.00    -0.207 C  
BRANCH  23  24
HETATM   24  C   UNL     1      -9.291  11.164  68.383  1.00  0.00    -0.185 C  
BRANCH  24  25
HETATM   25  C   UNL     1      -8.017  11.985  68.567  1.00  0.00    -0.132 C  
BRANCH  25  26
HETATM   26  N   UNL     1      -7.950  13.086  67.627  1.00  0.00    -0.155 N  
HETATM   27  H   UNL     1      -7.473  12.949  66.736  1.00  0.00     0.000 HD 
HETATM   28  C   UNL     1      -8.511  14.311  67.902  1.00  0.00    -0.168 C  
HETATM   29  O   UNL     1      -9.120  14.559  68.938  1.00  0.00    -0.180 OA 
BRANCH  28  30
HETATM   30  C   UNL     1      -8.316  15.347  66.826  1.00  0.00    -0.285 C  
BRANCH  30  31
HETATM   31  C   UNL     1      -6.935  15.970  66.962  1.00  0.00    -0.209 C  
BRANCH  31  32
HETATM   32  C   UNL     1      -7.026  17.361  67.555  1.00  0.00    -0.159 C  
HETATM   33  N   UNL     1      -7.254  18.418  66.708  1.00  0.00    -0.202 N  
HETATM   34  O   UNL     1      -6.976  17.501  68.778  1.00  0.00    -0.217 OA 
HETATM   35  O   UNL     1      -6.891  18.315  65.351  1.00  0.00    -0.496 OA 
BRANCH  33  36
HETATM   36  C   UNL     1      -7.285  19.806  67.174  1.00  0.00    -0.222 C  
BRANCH  36  37
HETATM   37  C   UNL     1      -8.712  20.344  67.289  1.00  0.00    -0.429 C  
BRANCH  37  38
HETATM   38  C   UNL     1      -9.708  19.518  66.467  1.00  0.00    -0.478 C  
BRANCH  38  39
HETATM   39  C   UNL     1     -10.886  19.039  67.322  1.00  0.00    -0.494 C  
BRANCH  39  40
HETATM   40  C   UNL     1     -10.466  18.022  68.384  1.00  0.00    -0.315 C  
HETATM   41  N   UNL     1     -11.266  16.804  68.313  1.00  0.00    -0.267 NA 
HETATM   42  H2  UNL     1     -11.240  16.397  67.378  1.00  0.00     0.000 HD 
HETATM   43  H1  UNL     1     -10.986  16.125  69.021  1.00  0.00     0.000 HD 
ENDBRANCH  39  40
ENDBRANCH  38  39
ENDBRANCH  37  38
ENDBRANCH  36  37
ENDBRANCH  33  36
ENDBRANCH  31  32
ENDBRANCH  30  31
ENDBRANCH  28  30
ENDBRANCH  25  26
ENDBRANCH  24  25
ENDBRANCH  23  24
ENDBRANCH  22  23
ENDBRANCH  21  22
ENDBRANCH  19  21
ENDBRANCH  16  17
ENDBRANCH  15  16
ENDBRANCH  12  15
ENDBRANCH  10  11
ENDBRANCH   9  10
ENDBRANCH   8   9
ENDBRANCH   7   8
ENDBRANCH   6   7
ENDBRANCH   3   6
TORSDOF 23
ENDMDL
MODEL      229
REMARK 921   NORMALIZED FREE ENERGY PREDICTED BY IDOCK:   -3.77 KCAL/MOL
REMARK 922        TOTAL FREE ENERGY PREDICTED BY IDOCK:  -11.59 KCAL/MOL
REMARK 923 INTER-LIGAND FREE ENERGY PREDICTED BY IDOCK:   -9.81 KCAL/MOL
REMARK 924 INTRA-LIGAND FREE ENERGY PREDICTED BY IDOCK:   -1.78 KCAL/MOL
REMARK 927      BINDING AFFINITY PREDICTED BY RF-SCORE:    0.00 PKD
ROOT
HETATM    1  C   UNL     1      -6.553  20.163  68.969  1.00  0.00    -0.321 C  
HETATM    2  C   UNL     1      -7.489  19.093  68.469  1.00  0.00    -0.325 C  
HETATM    3  N   UNL     1      -6.984  17.823  68.379  1.00  0.00    -0.219 N  
HETATM    4  O   UNL     1      -8.638  19.381  68.133  1.00  0.00    -0.315 OA 
HETATM    5  O   UNL     1      -5.736  17.430  68.891  1.00  0.00    -0.156 OA 
ENDROOT
BRANCH   3   6
HETATM    6  C   UNL     1      -7.758  16.685  67.900  1.00  0.00    -0.161 C  
BRANCH   6   7
HETATM    7  C   UNL     1      -8.373  15.876  69.043  1.00  0.00    -0.239 C  
BRANCH   7   8
HETATM    8  C   UNL     1      -9.691  15.239  68.597  1.00  0.00    -0.212 C  
BRANCH   8   9
HETATM    9  C   UNL     1     -10.680  15.093  69.755  1.00  0.00    -0.288 C  
BRANCH   9  10
HETATM   10  C   UNL     1     -11.901  14.255  69.373  1.00  0.00    -0.326 C  
BRANCH  10  11
HETATM   11  N   UNL     1     -12.115  13.138  70.281  1.00  0.00    -0.418 N  
HETATM   12  C   UNL     1     -12.985  13.242  71.344  1.00  0.00    -0.311 C  
HETATM   13  H   UNL     1     -11.613  12.264  70.127  1.00  0.00     0.000 HD 
HETATM   14  O   UNL     1     -13.660  14.239  71.582  1.00  0.00    -0.348 OA 
BRANCH  12  15
HETATM   15  C   UNL     1     -13.041  11.990  72.193  1.00  0.00    -0.352 C  
BRANCH  15  16
HETATM   16  C   UNL     1     -13.484  10.794  71.353  1.00  0.00    -0.089 C  
BRANCH  16  17
HETATM   17  C   UNL     1     -12.413   9.724  71.261  1.00  0.00    -0.367 C  
HETATM   18  O   UNL     1     -11.234  10.018  71.075  1.00  0.00    -0.341 OA 
HETATM   19  N   UNL     1     -12.845   8.426  71.364  1.00  0.00    -0.282 N  
HETATM   20  O   UNL     1     -14.162   8.045  71.675  1.00  0.00    -0.410 OA 
BRANCH  19  21
HETATM   21  C   UNL     1     -11.969   7.272  71.225  1.00  0.00    -0.324 C  
BRANCH  21  22
HETATM   22  C   UNL     1     -11.174   6.985  72.502  1.00  0.00    -0.312 C  
BRANCH  22  23
HETATM   23  C   UNL     1     -10.807   5.497  72.659  1.00  0.00    -0.305 C  
BRANCH  23  24
HETATM   24  C   UNL     1      -9.302   5.254  72.773  1.00  0.00    -0.150 C  
BRANCH  24  25
HETATM   25  C   UNL     1      -8.500   6.440  72.241  1.00  0.00    -0.110 C  
BRANCH  25  26
HETATM   26  N   UNL     1      -8.093   6.237  70.866  1.00  0.00    -0.122 N  
HETATM   27  H   UNL     1      -7.599   5.380  70.617  1.00  0.00     0.000 HD 
HETATM   28  C   UNL     1      -8.352   7.167  69.887  1.00  0.00    -0.135 C  
HETATM   29  O   UNL     1      -8.957   8.215  70.091  1.00  0.00    -0.144 OA 
BRANCH  28  30
HETATM   30  C   UNL     1      -7.826   6.804  68.522  1.00  0.00    -0.118 C  
BRANCH  30  31
HETATM   31  C   UNL     1      -6.567   7.606  68.232  1.00  0.00    -0.054 C  
BRANCH  31  32
HETATM   32  C   UNL     1      -6.911   8.995  67.738  1.00  0.00    -0.078 C  
HETATM   33  N   UNL     1      -7.495   9.123  66.501  1.00  0.00    -0.092 N  
HETATM   34  O   UNL     1      -6.738   9.961  68.484  1.00  0.00    -0.054 OA 
HETATM   35  O   UNL     1      -7.297   8.122  65.531  1.00  0.00    -0.069 OA 
BRANCH  33  36
HETATM   36  C   UNL     1      -7.799  10.426  65.906  1.00  0.00    -0.148 C  
BRANCH  36  37
HETATM   37  C   UNL     1      -9.007  10.365  64.969  1.00  0.00    -0.221 C  
BRANCH  37  38
HETATM   38  C   UNL     1     -10.043  11.447  65.292  1.00  0.00    -0.315 C  
BRANCH  38  39
HETATM   39  C   UNL     1     -10.387  12.287  64.059  1.00  0.00    -0.423 C  
BRANCH  39  40
HETATM   40  C   UNL     1     -11.477  13.323  64.337  1.00  0.00    -0.379 C  
HETATM   41  N   UNL     1     -12.694  12.702  64.852  1.00  0.00    -0.778 NA 
HETATM   42  H2  UNL     1     -12.501  12.134  65.677  1.00  0.00     0.000 HD 
HETATM   43  H1  UNL     1     -13.421  13.392  65.038  1.00  0.00     0.000 HD 
ENDBRANCH  39  40
ENDBRANCH  38  39
ENDBRANCH  37  38
ENDBRANCH  36  37
ENDBRANCH  33  36
ENDBRANCH  31  32
ENDBRANCH  30  31
ENDBRANCH  28  30
ENDBRANCH  25  26
ENDBRANCH  24  25
ENDBRANCH  23  24
ENDBRANCH  22  23
ENDBRANCH  21  22
ENDBRANCH  19  21
ENDBRANCH  16  17
ENDBRANCH  15  16
ENDBRANCH  12  15
ENDBRANCH  10  11
ENDBRANCH   9  10
ENDBRANCH   8   9
ENDBRANCH   7   8
ENDBRANCH   6   7
ENDBRANCH   3   6
TORSDOF 23
ENDMDL
MODEL      230
REMARK 921   NORMALIZED FREE ENERGY PREDICTED BY IDOCK:   -3.75 KCAL/MOL
REMARK 922        TOTAL FREE ENERGY PREDICTED BY IDOCK:  -11.54 KCAL/MOL
REMARK 923 INTER-LIGAND FREE ENERGY PREDICTED BY IDOCK:  -10.08 KCAL/MOL
REMARK 924 INTRA-LIGAND FREE ENERGY PREDICTED BY IDOCK:   -1.46 KCAL/MOL
REMARK 927      BINDING AFFINITY PREDICTED BY RF-SCORE:    0.00 PKD
ROOT
HETATM    1  C   UNL     1      -7.730   3.760  66.384  1.00  0.00    -0.089 C  
HETATM    2  C   UNL     1      -7.518   4.518  67.669  1.00  0.00    -0.074 C  
HETATM    3  N   UNL     1      -8.025   3.954  68.810  1.00  0.00    -0.066 N  
HETATM    4  O   UNL     1      -6.941   5.606  67.660  1.00  0.00    -0.062 OA 
HETATM    5  O   UNL     1      -8.551   2.653  68.883  1.00  0.00    -0.064 OA 
ENDROOT
BRANCH   3   6
HETATM    6  C   UNL     1      -7.915   4.570  70.126  1.00  0.00    -0.063 C  
BRANCH   6   7
HETATM    7  C   UNL     1      -9.110   5.468  70.451  1.00  0.00    -0.164 C  
BRANCH   7   8
HETATM    8  C   UNL     1      -9.919   4.882  71.609  1.00  0.00    -0.255 C  
BRANCH   8   9
HETATM    9  C   UNL     1      -9.571   5.541  72.945  1.00  0.00    -0.159 C  
BRANCH   9  10
HETATM   10  C   UNL     1     -10.669   6.490  73.427  1.00  0.00    -0.270 C  
BRANCH  10  11
HETATM   11  N   UNL     1     -10.658   7.760  72.717  1.00  0.00    -0.311 N  
HETATM   12  C   UNL     1     -11.631   8.067  71.792  1.00  0.00    -0.285 C  
HETATM   13  H   UNL     1      -9.917   8.434  72.908  1.00  0.00     0.000 HD 
HETATM   14  O   UNL     1     -12.580   7.335  71.528  1.00  0.00    -0.345 OA 
BRANCH  12  15
HETATM   15  C   UNL     1     -11.424   9.415  71.135  1.00  0.00    -0.422 C  
BRANCH  15  16
HETATM   16  C   UNL     1     -12.687  10.265  71.250  1.00  0.00    -0.523 C  
BRANCH  16  17
HETATM   17  C   UNL     1     -12.572  11.577  70.497  1.00  0.00    -0.201 C  
HETATM   18  O   UNL     1     -12.125  11.616  69.353  1.00  0.00    -0.306 OA 
HETATM   19  N   UNL     1     -12.963  12.701  71.178  1.00  0.00    -0.220 N  
HETATM   20  O   UNL     1     -13.571  12.697  72.445  1.00  0.00    -0.550 OA 
BRANCH  19  21
HETATM   21  C   UNL     1     -12.853  14.048  70.638  1.00  0.00    -0.253 C  
BRANCH  21  22
HETATM   22  C   UNL     1     -11.411  14.564  70.642  1.00  0.00    -0.216 C  
BRANCH  22  23
HETATM   23  C   UNL     1     -11.323  16.101  70.599  1.00  0.00    -0.394 C  
BRANCH  23  24
HETATM   24  C   UNL     1     -10.507  16.627  69.418  1.00  0.00    -0.320 C  
BRANCH  24  25
HETATM   25  C   UNL     1     -11.377  17.417  68.443  1.00  0.00     0.436 C  
BRANCH  25  26
HETATM   26  N   UNL     1     -10.582  18.291  67.603  1.00  0.00    -0.419 N  
HETATM   27  H   UNL     1     -10.355  17.993  66.654  1.00  0.00     0.000 HD 
HETATM   28  C   UNL     1     -10.126  19.508  68.050  1.00  0.00    -0.420 C  
HETATM   29  O   UNL     1     -10.367  19.954  69.167  1.00  0.00    -0.356 OA 
BRANCH  28  30
HETATM   30  C   UNL     1      -9.286  20.267  67.054  1.00  0.00    -0.526 C  
BRANCH  30  31
HETATM   31  C   UNL     1      -7.813  20.078  67.380  1.00  0.00    -0.330 C  
BRANCH  31  32
HETATM   32  C   UNL     1      -7.257  18.856  66.679  1.00  0.00    -0.216 C  
HETATM   33  N   UNL     1      -6.928  17.760  67.439  1.00  0.00    -0.177 N  
HETATM   34  O   UNL     1      -7.190  18.844  65.448  1.00  0.00    -0.494 OA 
HETATM   35  O   UNL     1      -6.608  17.926  68.800  1.00  0.00    -0.216 OA 
BRANCH  33  36
HETATM   36  C   UNL     1      -6.316  16.560  66.864  1.00  0.00    -0.131 C  
BRANCH  36  37
HETATM   37  C   UNL     1      -6.977  15.276  67.370  1.00  0.00    -0.212 C  
BRANCH  37  38
HETATM   38  C   UNL     1      -8.505  15.389  67.404  1.00  0.00    -0.200 C  
BRANCH  38  39
HETATM   39  C   UNL     1      -9.080  15.683  66.015  1.00  0.00    -0.346 C  
BRANCH  39  40
HETATM   40  C   UNL     1     -10.181  14.699  65.614  1.00  0.00    -0.359 C  
HETATM   41  N   UNL     1      -9.637  13.386  65.284  1.00  0.00    -0.506 NA 
HETATM   42  H2  UNL     1      -9.068  13.017  66.045  1.00  0.00     0.000 HD 
HETATM   43  H1  UNL     1     -10.371  12.730  65.015  1.00  0.00     0.000 HD 
ENDBRANCH  39  40
ENDBRANCH  38  39
ENDBRANCH  37  38
ENDBRANCH  36  37
ENDBRANCH  33  36
ENDBRANCH  31  32
ENDBRANCH  30  31
ENDBRANCH  28  30
ENDBRANCH  25  26
ENDBRANCH  24  25
ENDBRANCH  23  24
ENDBRANCH  22  23
ENDBRANCH  21  22
ENDBRANCH  19  21
ENDBRANCH  16  17
ENDBRANCH  15  16
ENDBRANCH  12  15
ENDBRANCH  10  11
ENDBRANCH   9  10
ENDBRANCH   8   9
ENDBRANCH   7   8
ENDBRANCH   6   7
ENDBRANCH   3   6
TORSDOF 23
ENDMDL
MODEL      231
REMARK 921   NORMALIZED FREE ENERGY PREDICTED BY IDOCK:   -3.74 KCAL/MOL
REMARK 922        TOTAL FREE ENERGY PREDICTED BY IDOCK:  -11.52 KCAL/MOL
REMARK 923 INTER-LIGAND FREE ENERGY PREDICTED BY IDOCK:   -8.98 KCAL/MOL
REMARK 924 INTRA-LIGAND FREE ENERGY PREDICTED BY IDOCK:   -2.55 KCAL/MOL
REMARK 927      BINDING AFFINITY PREDICTED BY RF-SCORE:    0.00 PKD
ROOT
HETATM    1  C   UNL     1      -8.588   8.644  72.514  1.00  0.00    -0.115 C  
HETATM    2  C   UNL     1      -8.003   9.179  71.234  1.00  0.00    -0.014 C  
HETATM    3  N   UNL     1      -6.728   9.678  71.297  1.00  0.00     0.044 N  
HETATM    4  O   UNL     1      -8.672   9.185  70.200  1.00  0.00    -0.145 OA 
HETATM    5  O   UNL     1      -5.884   9.551  72.413  1.00  0.00    -0.267 OA 
ENDROOT
BRANCH   3   6
HETATM    6  C   UNL     1      -6.031  10.243  70.150  1.00  0.00    -0.076 C  
BRANCH   6   7
HETATM    7  C   UNL     1      -5.465   9.166  69.222  1.00  0.00    -0.036 C  
BRANCH   7   8
HETATM    8  C   UNL     1      -5.204   9.744  67.830  1.00  0.00    -0.036 C  
BRANCH   8   9
HETATM    9  C   UNL     1      -6.353   9.453  66.862  1.00  0.00    -0.066 C  
BRANCH   9  10
HETATM   10  C   UNL     1      -6.577  10.593  65.868  1.00  0.00    -0.118 C  
BRANCH  10  11
HETATM   11  N   UNL     1      -7.968  10.703  65.453  1.00  0.00    -0.273 N  
HETATM   12  C   UNL     1      -8.332  10.538  64.136  1.00  0.00    -0.095 C  
HETATM   13  H   UNL     1      -8.684  10.905  66.150  1.00  0.00     0.000 HD 
HETATM   14  O   UNL     1      -7.545  10.255  63.237  1.00  0.00    -0.149 OA 
BRANCH  12  15
HETATM   15  C   UNL     1      -9.815  10.728  63.899  1.00  0.00    -0.389 C  
BRANCH  15  16
HETATM   16  C   UNL     1     -10.176  12.211  63.929  1.00  0.00    -0.426 C  
BRANCH  16  17
HETATM   17  C   UNL     1     -10.324  12.742  65.343  1.00  0.00    -0.293 C  
HETATM   18  O   UNL     1      -9.353  13.163  65.969  1.00  0.00    -0.153 OA 
HETATM   19  N   UNL     1     -11.585  12.691  65.879  1.00  0.00    -0.374 N  
HETATM   20  O   UNL     1     -12.739  12.312  65.171  1.00  0.00    -0.571 OA 
BRANCH  19  21
HETATM   21  C   UNL     1     -11.896  13.087  67.244  1.00  0.00    -0.363 C  
BRANCH  21  22
HETATM   22  C   UNL     1     -11.644  11.962  68.252  1.00  0.00    -0.390 C  
BRANCH  22  23
HETATM   23  C   UNL     1     -11.934  12.382  69.705  1.00  0.00    -0.359 C  
BRANCH  23  24
HETATM   24  C   UNL     1     -12.723  11.334  70.491  1.00  0.00    -0.257 C  
BRANCH  24  25
HETATM   25  C   UNL     1     -11.800  10.433  71.308  1.00  0.00    -0.289 C  
BRANCH  25  26
HETATM   26  N   UNL     1     -11.666   9.120  70.709  1.00  0.00    -0.344 N  
HETATM   27  H   UNL     1     -11.217   9.036  69.797  1.00  0.00     0.000 HD 
HETATM   28  C   UNL     1     -12.128   7.987  71.334  1.00  0.00    -0.305 C  
HETATM   29  O   UNL     1     -12.662   7.992  72.439  1.00  0.00    -0.248 OA 
BRANCH  28  30
HETATM   30  C   UNL     1     -11.935   6.714  70.550  1.00  0.00    -0.377 C  
BRANCH  30  31
HETATM   31  C   UNL     1     -10.744   6.867  69.616  1.00  0.00    -0.276 C  
BRANCH  31  32
HETATM   32  C   UNL     1     -10.448   5.565  68.901  1.00  0.00    -0.212 C  
HETATM   33  N   UNL     1     -10.301   5.589  67.536  1.00  0.00    -0.211 N  
HETATM   34  O   UNL     1     -10.266   4.541  69.562  1.00  0.00    -0.168 OA 
HETATM   35  O   UNL     1     -10.909   6.614  66.787  1.00  0.00    -0.320 OA 
BRANCH  33  36
HETATM   36  C   UNL     1     -10.085   4.373  66.747  1.00  0.00    -0.144 C  
BRANCH  36  37
HETATM   37  C   UNL     1      -9.686   4.685  65.304  1.00  0.00    -0.149 C  
BRANCH  37  38
HETATM   38  C   UNL     1      -8.662   3.684  64.759  1.00  0.00    -0.114 C  
BRANCH  38  39
HETATM   39  C   UNL     1      -9.232   2.870  63.593  1.00  0.00    -0.097 C  
BRANCH  39  40
HETATM   40  C   UNL     1     -10.734   3.087  63.404  1.00  0.00    -0.246 C  
HETATM   41  N   UNL     1     -11.466   1.824  63.397  1.00  0.00    -0.558 NA 
HETATM   42  H2  UNL     1     -11.272   1.278  64.236  1.00  0.00     0.000 HD 
HETATM   43  H1  UNL     1     -12.468   1.968  63.271  1.00  0.00     0.000 HD 
ENDBRANCH  39  40
ENDBRANCH  38  39
ENDBRANCH  37  38
ENDBRANCH  36  37
ENDBRANCH  33  36
ENDBRANCH  31  32
ENDBRANCH  30  31
ENDBRANCH  28  30
ENDBRANCH  25  26
ENDBRANCH  24  25
ENDBRANCH  23  24
ENDBRANCH  22  23
ENDBRANCH  21  22
ENDBRANCH  19  21
ENDBRANCH  16  17
ENDBRANCH  15  16
ENDBRANCH  12  15
ENDBRANCH  10  11
ENDBRANCH   9  10
ENDBRANCH   8   9
ENDBRANCH   7   8
ENDBRANCH   6   7
ENDBRANCH   3   6
TORSDOF 23
ENDMDL
MODEL      232
REMARK 921   NORMALIZED FREE ENERGY PREDICTED BY IDOCK:   -3.71 KCAL/MOL
REMARK 922        TOTAL FREE ENERGY PREDICTED BY IDOCK:  -11.46 KCAL/MOL
REMARK 923 INTER-LIGAND FREE ENERGY PREDICTED BY IDOCK:   -8.50 KCAL/MOL
REMARK 924 INTRA-LIGAND FREE ENERGY PREDICTED BY IDOCK:   -2.96 KCAL/MOL
REMARK 927      BINDING AFFINITY PREDICTED BY RF-SCORE:    0.00 PKD
ROOT
HETATM    1  C   UNL     1     -11.898   6.537  70.453  1.00  0.00    -0.378 C  
HETATM    2  C   UNL     1     -10.883   7.522  69.936  1.00  0.00    -0.240 C  
HETATM    3  N   UNL     1     -10.458   8.488  70.809  1.00  0.00    -0.195 N  
HETATM    4  O   UNL     1     -10.495   7.459  68.768  1.00  0.00    -0.203 OA 
HETATM    5  O   UNL     1     -10.760   8.501  72.181  1.00  0.00    -0.311 OA 
ENDROOT
BRANCH   3   6
HETATM    6  C   UNL     1      -9.493   9.520  70.455  1.00  0.00    -0.246 C  
BRANCH   6   7
HETATM    7  C   UNL     1      -8.058   9.123  70.808  1.00  0.00    -0.207 C  
BRANCH   7   8
HETATM    8  C   UNL     1      -7.180   9.121  69.555  1.00  0.00    -0.060 C  
BRANCH   8   9
HETATM    9  C   UNL     1      -5.736   8.724  69.864  1.00  0.00    -0.028 C  
BRANCH   9  10
HETATM   10  C   UNL     1      -5.649   7.401  70.625  1.00  0.00    -0.027 C  
BRANCH  10  11
HETATM   11  N   UNL     1      -5.689   6.246  69.740  1.00  0.00    -0.013 N  
HETATM   12  C   UNL     1      -6.805   5.445  69.664  1.00  0.00    -0.060 C  
HETATM   13  H   UNL     1      -4.875   6.028  69.165  1.00  0.00     0.000 HD 
HETATM   14  O   UNL     1      -7.842   5.654  70.288  1.00  0.00    -0.093 OA 
BRANCH  12  15
HETATM   15  C   UNL     1      -6.638   4.276  68.717  1.00  0.00    -0.045 C  
BRANCH  15  16
HETATM   16  C   UNL     1      -7.639   4.370  67.569  1.00  0.00    -0.077 C  
BRANCH  16  17
HETATM   17  C   UNL     1      -7.350   5.537  66.644  1.00  0.00    -0.083 C  
HETATM   18  O   UNL     1      -6.201   5.933  66.461  1.00  0.00    -0.031 OA 
HETATM   19  N   UNL     1      -8.440   6.130  66.061  1.00  0.00    -0.135 N  
HETATM   20  O   UNL     1      -9.759   5.654  66.160  1.00  0.00    -0.154 OA 
BRANCH  19  21
HETATM   21  C   UNL     1      -8.356   7.305  65.206  1.00  0.00    -0.104 C  
BRANCH  21  22
HETATM   22  C   UNL     1      -8.412   8.612  66.001  1.00  0.00    -0.151 C  
BRANCH  22  23
HETATM   23  C   UNL     1      -9.568   9.532  65.564  1.00  0.00    -0.349 C  
BRANCH  23  24
HETATM   24  C   UNL     1      -9.439  10.021  64.121  1.00  0.00    -0.314 C  
BRANCH  24  25
HETATM   25  C   UNL     1     -10.391  11.180  63.834  1.00  0.00    -0.380 C  
BRANCH  25  26
HETATM   26  N   UNL     1     -10.738  11.899  65.044  1.00  0.00    -0.282 N  
HETATM   27  H   UNL     1     -10.016  12.068  65.744  1.00  0.00     0.000 HD 
HETATM   28  C   UNL     1     -12.012  12.361  65.273  1.00  0.00    -0.404 C  
HETATM   29  O   UNL     1     -12.937  12.221  64.478  1.00  0.00    -0.738 OA 
BRANCH  28  30
HETATM   30  C   UNL     1     -12.199  13.056  66.597  1.00  0.00    -0.285 C  
BRANCH  30  31
HETATM   31  C   UNL     1     -12.222  14.561  66.384  1.00  0.00    -0.274 C  
BRANCH  31  32
HETATM   32  C   UNL     1     -10.823  15.138  66.449  1.00  0.00    -0.326 C  
HETATM   33  N   UNL     1     -10.447  15.813  67.585  1.00  0.00    -0.276 N  
HETATM   34  O   UNL     1     -10.035  14.919  65.527  1.00  0.00    -0.341 OA 
HETATM   35  O   UNL     1     -11.430  16.407  68.400  1.00  0.00    -0.338 OA 
BRANCH  33  36
HETATM   36  C   UNL     1      -9.144  16.468  67.715  1.00  0.00    -0.204 C  
BRANCH  36  37
HETATM   37  C   UNL     1      -8.498  16.204  69.076  1.00  0.00    -0.251 C  
BRANCH  37  38
HETATM   38  C   UNL     1      -7.092  15.610  68.942  1.00  0.00    -0.138 C  
BRANCH  38  39
HETATM   39  C   UNL     1      -6.889  14.937  67.581  1.00  0.00    -0.204 C  
BRANCH  39  40
HETATM   40  C   UNL     1      -6.439  13.480  67.707  1.00  0.00    -0.170 C  
HETATM   41  N   UNL     1      -7.292  12.582  66.936  1.00  0.00    -0.380 NA 
HETATM   42  H2  UNL     1      -7.350  12.871  65.959  1.00  0.00     0.000 HD 
HETATM   43  H1  UNL     1      -6.992  11.611  67.019  1.00  0.00     0.000 HD 
ENDBRANCH  39  40
ENDBRANCH  38  39
ENDBRANCH  37  38
ENDBRANCH  36  37
ENDBRANCH  33  36
ENDBRANCH  31  32
ENDBRANCH  30  31
ENDBRANCH  28  30
ENDBRANCH  25  26
ENDBRANCH  24  25
ENDBRANCH  23  24
ENDBRANCH  22  23
ENDBRANCH  21  22
ENDBRANCH  19  21
ENDBRANCH  16  17
ENDBRANCH  15  16
ENDBRANCH  12  15
ENDBRANCH  10  11
ENDBRANCH   9  10
ENDBRANCH   8   9
ENDBRANCH   7   8
ENDBRANCH   6   7
ENDBRANCH   3   6
TORSDOF 23
ENDMDL
MODEL      233
REMARK 921   NORMALIZED FREE ENERGY PREDICTED BY IDOCK:   -3.71 KCAL/MOL
REMARK 922        TOTAL FREE ENERGY PREDICTED BY IDOCK:  -11.45 KCAL/MOL
REMARK 923 INTER-LIGAND FREE ENERGY PREDICTED BY IDOCK:   -9.26 KCAL/MOL
REMARK 924 INTRA-LIGAND FREE ENERGY PREDICTED BY IDOCK:   -2.19 KCAL/MOL
REMARK 927      BINDING AFFINITY PREDICTED BY RF-SCORE:    0.00 PKD
ROOT
HETATM    1  C   UNL     1      -9.219   4.644  66.549  1.00  0.00    -0.132 C  
HETATM    2  C   UNL     1      -9.489   5.402  67.822  1.00  0.00    -0.120 C  
HETATM    3  N   UNL     1     -10.547   6.271  67.812  1.00  0.00    -0.228 N  
HETATM    4  O   UNL     1      -8.756   5.252  68.801  1.00  0.00    -0.091 OA 
HETATM    5  O   UNL     1     -11.490   6.356  66.774  1.00  0.00    -0.141 OA 
ENDROOT
BRANCH   3   6
HETATM    6  C   UNL     1     -10.926   7.087  68.958  1.00  0.00    -0.130 C  
BRANCH   6   7
HETATM    7  C   UNL     1     -11.380   6.243  70.151  1.00  0.00    -0.476 C  
BRANCH   7   8
HETATM    8  C   UNL     1     -11.639   7.133  71.368  1.00  0.00    -0.316 C  
BRANCH   8   9
HETATM    9  C   UNL     1     -10.392   7.915  71.784  1.00  0.00    -0.260 C  
BRANCH   9  10
HETATM   10  C   UNL     1      -9.171   7.011  71.956  1.00  0.00    -0.138 C  
BRANCH  10  11
HETATM   11  N   UNL     1      -8.261   7.085  70.823  1.00  0.00    -0.120 N  
HETATM   12  C   UNL     1      -7.200   7.964  70.817  1.00  0.00    -0.053 C  
HETATM   13  H   UNL     1      -8.411   6.476  70.019  1.00  0.00     0.000 HD 
HETATM   14  O   UNL     1      -6.920   8.705  71.755  1.00  0.00    -0.087 OA 
BRANCH  12  15
HETATM   15  C   UNL     1      -6.395   7.918  69.536  1.00  0.00    -0.034 C  
BRANCH  15  16
HETATM   16  C   UNL     1      -7.239   8.393  68.356  1.00  0.00    -0.085 C  
BRANCH  16  17
HETATM   17  C   UNL     1      -6.737   7.852  67.032  1.00  0.00    -0.068 C  
HETATM   18  O   UNL     1      -5.614   7.364  66.928  1.00  0.00    -0.025 OA 
HETATM   19  N   UNL     1      -7.593   7.972  65.967  1.00  0.00    -0.084 N  
HETATM   20  O   UNL     1      -8.920   8.430  66.055  1.00  0.00    -0.166 OA 
BRANCH  19  21
HETATM   21  C   UNL     1      -7.251   7.575  64.609  1.00  0.00    -0.068 C  
BRANCH  21  22
HETATM   22  C   UNL     1      -6.384   8.617  63.897  1.00  0.00    -0.072 C  
BRANCH  22  23
HETATM   23  C   UNL     1      -6.869  10.060  64.126  1.00  0.00    -0.126 C  
BRANCH  23  24
HETATM   24  C   UNL     1      -7.720  10.602  62.977  1.00  0.00    -0.010 C  
BRANCH  24  25
HETATM   25  C   UNL     1      -8.913   9.694  62.685  1.00  0.00    -0.263 C  
BRANCH  25  26
HETATM   26  N   UNL     1     -10.160  10.431  62.691  1.00  0.00    -0.689 N  
HETATM   27  H   UNL     1     -10.629  10.618  61.804  1.00  0.00     0.000 HD 
HETATM   28  C   UNL     1     -10.730  10.885  63.856  1.00  0.00    -0.116 C  
HETATM   29  O   UNL     1     -10.247  10.689  64.967  1.00  0.00    -0.305 OA 
BRANCH  28  30
HETATM   30  C   UNL     1     -12.008  11.661  63.670  1.00  0.00    -0.374 C  
BRANCH  30  31
HETATM   31  C   UNL     1     -11.686  13.134  63.470  1.00  0.00    -0.472 C  
BRANCH  31  32
HETATM   32  C   UNL     1     -11.248  13.773  64.771  1.00  0.00    -0.366 C  
HETATM   33  N   UNL     1     -12.165  13.881  65.787  1.00  0.00    -0.432 N  
HETATM   34  O   UNL     1     -10.069  14.102  64.915  1.00  0.00    -0.385 OA 
HETATM   35  O   UNL     1     -13.540  13.906  65.485  1.00  0.00    -0.579 OA 
BRANCH  33  36
HETATM   36  C   UNL     1     -11.859  14.547  67.055  1.00  0.00    -0.385 C  
BRANCH  36  37
HETATM   37  C   UNL     1     -11.815  13.566  68.227  1.00  0.00    -0.401 C  
BRANCH  37  38
HETATM   38  C   UNL     1     -11.756  12.108  67.757  1.00  0.00    -0.390 C  
BRANCH  38  39
HETATM   39  C   UNL     1     -10.893  11.249  68.687  1.00  0.00    -0.246 C  
BRANCH  39  40
HETATM   40  C   UNL     1     -11.505  11.092  70.080  1.00  0.00    -0.292 C  
HETATM   41  N   UNL     1     -12.594  10.122  70.086  1.00  0.00    -0.538 NA 
HETATM   42  H2  UNL     1     -12.294   9.223  69.708  1.00  0.00     0.000 HD 
HETATM   43  H1  UNL     1     -13.003  10.017  71.015  1.00  0.00     0.000 HD 
ENDBRANCH  39  40
ENDBRANCH  38  39
ENDBRANCH  37  38
ENDBRANCH  36  37
ENDBRANCH  33  36
ENDBRANCH  31  32
ENDBRANCH  30  31
ENDBRANCH  28  30
ENDBRANCH  25  26
ENDBRANCH  24  25
ENDBRANCH  23  24
ENDBRANCH  22  23
ENDBRANCH  21  22
ENDBRANCH  19  21
ENDBRANCH  16  17
ENDBRANCH  15  16
ENDBRANCH  12  15
ENDBRANCH  10  11
ENDBRANCH   9  10
ENDBRANCH   8   9
ENDBRANCH   7   8
ENDBRANCH   6   7
ENDBRANCH   3   6
TORSDOF 23
ENDMDL
MODEL      234
REMARK 921   NORMALIZED FREE ENERGY PREDICTED BY IDOCK:   -3.67 KCAL/MOL
REMARK 922        TOTAL FREE ENERGY PREDICTED BY IDOCK:  -11.36 KCAL/MOL
REMARK 923 INTER-LIGAND FREE ENERGY PREDICTED BY IDOCK:   -9.80 KCAL/MOL
REMARK 924 INTRA-LIGAND FREE ENERGY PREDICTED BY IDOCK:   -1.56 KCAL/MOL
REMARK 927      BINDING AFFINITY PREDICTED BY RF-SCORE:    0.00 PKD
ROOT
HETATM    1  C   UNL     1      -6.114  19.579  70.320  1.00  0.00    -0.264 C  
HETATM    2  C   UNL     1      -6.184  19.803  68.832  1.00  0.00    -0.276 C  
HETATM    3  N   UNL     1      -7.394  19.582  68.229  1.00  0.00    -0.300 N  
HETATM    4  O   UNL     1      -5.177  20.136  68.206  1.00  0.00    -0.189 OA 
HETATM    5  O   UNL     1      -8.593  19.351  68.925  1.00  0.00    -0.369 OA 
ENDROOT
BRANCH   3   6
HETATM    6  C   UNL     1      -7.618  19.740  66.799  1.00  0.00    -0.254 C  
BRANCH   6   7
HETATM    7  C   UNL     1      -7.076  18.559  65.990  1.00  0.00    -0.306 C  
BRANCH   7   8
HETATM    8  C   UNL     1      -7.983  17.338  66.153  1.00  0.00    -0.292 C  
BRANCH   8   9
HETATM    9  C   UNL     1      -7.300  16.214  66.934  1.00  0.00    -0.255 C  
BRANCH   9  10
HETATM   10  C   UNL     1      -8.170  14.960  67.026  1.00  0.00    -0.196 C  
BRANCH  10  11
HETATM   11  N   UNL     1      -9.231  14.946  66.030  1.00  0.00    -0.491 N  
HETATM   12  C   UNL     1     -10.552  15.087  66.395  1.00  0.00    -0.310 C  
HETATM   13  H   UNL     1      -8.993  14.829  65.046  1.00  0.00     0.000 HD 
HETATM   14  O   UNL     1     -10.927  15.272  67.549  1.00  0.00    -0.301 OA 
BRANCH  12  15
HETATM   15  C   UNL     1     -11.506  15.008  65.222  1.00  0.00    -0.308 C  
BRANCH  15  16
HETATM   16  C   UNL     1     -12.532  13.899  65.443  1.00  0.00    -0.528 C  
BRANCH  16  17
HETATM   17  C   UNL     1     -11.898  12.523  65.478  1.00  0.00    -0.439 C  
HETATM   18  O   UNL     1     -11.898  11.848  66.506  1.00  0.00    -0.579 OA 
HETATM   19  N   UNL     1     -11.305  12.100  64.316  1.00  0.00    -0.338 N  
HETATM   20  O   UNL     1     -11.365  12.789  63.092  1.00  0.00    -0.360 OA 
BRANCH  19  21
HETATM   21  C   UNL     1     -10.586  10.841  64.189  1.00  0.00    -0.133 C  
BRANCH  21  22
HETATM   22  C   UNL     1      -9.517  10.667  65.271  1.00  0.00    -0.270 C  
BRANCH  22  23
HETATM   23  C   UNL     1      -8.241   9.980  64.749  1.00  0.00    -0.155 C  
BRANCH  23  24
HETATM   24  C   UNL     1      -8.055   8.561  65.288  1.00  0.00    -0.138 C  
BRANCH  24  25
HETATM   25  C   UNL     1      -9.142   8.197  66.297  1.00  0.00    -0.185 C  
BRANCH  25  26
HETATM   26  N   UNL     1      -8.579   7.791  67.569  1.00  0.00    -0.122 N  
HETATM   27  H   UNL     1      -8.363   6.807  67.724  1.00  0.00     0.000 HD 
HETATM   28  C   UNL     1      -8.327   8.697  68.572  1.00  0.00    -0.123 C  
HETATM   29  O   UNL     1      -8.536   9.901  68.466  1.00  0.00    -0.113 OA 
BRANCH  28  30
HETATM   30  C   UNL     1      -7.772   8.094  69.837  1.00  0.00    -0.098 C  
BRANCH  30  31
HETATM   31  C   UNL     1      -8.054   9.020  71.009  1.00  0.00    -0.199 C  
BRANCH  31  32
HETATM   32  C   UNL     1      -7.758   8.332  72.325  1.00  0.00    -0.126 C  
HETATM   33  N   UNL     1      -8.813   7.863  73.070  1.00  0.00    -0.192 N  
HETATM   34  O   UNL     1      -6.586   8.138  72.655  1.00  0.00    -0.072 OA 
HETATM   35  O   UNL     1     -10.087   8.443  72.915  1.00  0.00    -0.262 OA 
BRANCH  33  36
HETATM   36  C   UNL     1      -8.635   7.250  74.387  1.00  0.00    -0.206 C  
BRANCH  36  37
HETATM   37  C   UNL     1      -8.388   5.743  74.294  1.00  0.00    -0.109 C  
BRANCH  37  38
HETATM   38  C   UNL     1      -9.174   5.099  73.147  1.00  0.00    -0.129 C  
BRANCH  38  39
HETATM   39  C   UNL     1     -10.576   4.672  73.593  1.00  0.00    -0.313 C  
BRANCH  39  40
HETATM   40  C   UNL     1     -11.658   5.060  72.585  1.00  0.00    -0.036 C  
HETATM   41  N   UNL     1     -12.158   6.411  72.822  1.00  0.00    -0.467 NA 
HETATM   42  H2  UNL     1     -11.398   7.091  72.833  1.00  0.00     0.000 HD 
HETATM   43  H1  UNL     1     -12.880   6.670  72.149  1.00  0.00     0.000 HD 
ENDBRANCH  39  40
ENDBRANCH  38  39
ENDBRANCH  37  38
ENDBRANCH  36  37
ENDBRANCH  33  36
ENDBRANCH  31  32
ENDBRANCH  30  31
ENDBRANCH  28  30
ENDBRANCH  25  26
ENDBRANCH  24  25
ENDBRANCH  23  24
ENDBRANCH  22  23
ENDBRANCH  21  22
ENDBRANCH  19  21
ENDBRANCH  16  17
ENDBRANCH  15  16
ENDBRANCH  12  15
ENDBRANCH  10  11
ENDBRANCH   9  10
ENDBRANCH   8   9
ENDBRANCH   7   8
ENDBRANCH   6   7
ENDBRANCH   3   6
TORSDOF 23
ENDMDL
MODEL      235
REMARK 921   NORMALIZED FREE ENERGY PREDICTED BY IDOCK:   -3.66 KCAL/MOL
REMARK 922        TOTAL FREE ENERGY PREDICTED BY IDOCK:  -11.33 KCAL/MOL
REMARK 923 INTER-LIGAND FREE ENERGY PREDICTED BY IDOCK:   -9.71 KCAL/MOL
REMARK 924 INTRA-LIGAND FREE ENERGY PREDICTED BY IDOCK:   -1.62 KCAL/MOL
REMARK 927      BINDING AFFINITY PREDICTED BY RF-SCORE:    0.00 PKD
ROOT
HETATM    1  C   UNL     1      -7.002   6.417  73.684  1.00  0.00    -0.082 C  
HETATM    2  C   UNL     1      -7.613   5.386  72.772  1.00  0.00    -0.098 C  
HETATM    3  N   UNL     1      -7.778   5.742  71.459  1.00  0.00    -0.105 N  
HETATM    4  O   UNL     1      -7.969   4.295  73.218  1.00  0.00    -0.088 OA 
HETATM    5  O   UNL     1      -7.249   6.910  70.885  1.00  0.00    -0.070 OA 
ENDROOT
BRANCH   3   6
HETATM    6  C   UNL     1      -8.367   4.863  70.458  1.00  0.00    -0.096 C  
BRANCH   6   7
HETATM    7  C   UNL     1      -9.879   4.707  70.636  1.00  0.00    -0.296 C  
BRANCH   7   8
HETATM    8  C   UNL     1     -10.539   6.075  70.815  1.00  0.00    -0.316 C  
BRANCH   8   9
HETATM    9  C   UNL     1     -11.457   6.115  72.038  1.00  0.00    -0.366 C  
BRANCH   9  10
HETATM   10  C   UNL     1     -12.850   6.649  71.701  1.00  0.00    -0.178 C  
BRANCH  10  11
HETATM   11  N   UNL     1     -12.800   7.881  70.928  1.00  0.00    -0.519 N  
HETATM   12  C   UNL     1     -13.090   9.097  71.506  1.00  0.00    -0.349 C  
HETATM   13  H   UNL     1     -12.547   7.843  69.941  1.00  0.00     0.000 HD 
HETATM   14  O   UNL     1     -13.365   9.242  72.694  1.00  0.00    -0.430 OA 
BRANCH  12  15
HETATM   15  C   UNL     1     -13.021  10.253  70.531  1.00  0.00    -0.251 C  
BRANCH  15  16
HETATM   16  C   UNL     1     -11.579  10.727  70.365  1.00  0.00    -0.431 C  
BRANCH  16  17
HETATM   17  C   UNL     1     -10.790   9.855  69.409  1.00  0.00    -0.237 C  
HETATM   18  O   UNL     1     -10.021   8.990  69.824  1.00  0.00    -0.184 OA 
HETATM   19  N   UNL     1     -10.962  10.112  68.073  1.00  0.00    -0.277 N  
HETATM   20  O   UNL     1     -11.900  11.018  67.548  1.00  0.00    -0.571 OA 
BRANCH  19  21
HETATM   21  C   UNL     1     -10.231   9.423  67.019  1.00  0.00    -0.255 C  
BRANCH  21  22
HETATM   22  C   UNL     1      -8.718   9.442  67.249  1.00  0.00    -0.133 C  
BRANCH  22  23
HETATM   23  C   UNL     1      -8.113  10.855  67.155  1.00  0.00    -0.127 C  
BRANCH  23  24
HETATM   24  C   UNL     1      -7.169  11.188  68.311  1.00  0.00    -0.083 C  
BRANCH  24  25
HETATM   25  C   UNL     1      -6.268  12.374  67.977  1.00  0.00    -0.082 C  
BRANCH  25  26
HETATM   26  N   UNL     1      -6.677  13.572  68.682  1.00  0.00    -0.087 N  
HETATM   27  H   UNL     1      -7.251  13.482  69.520  1.00  0.00     0.000 HD 
HETATM   28  C   UNL     1      -6.312  14.826  68.253  1.00  0.00    -0.122 C  
HETATM   29  O   UNL     1      -5.608  15.028  67.268  1.00  0.00    -0.316 OA 
BRANCH  28  30
HETATM   30  C   UNL     1      -6.855  15.958  69.088  1.00  0.00    -0.170 C  
BRANCH  30  31
HETATM   31  C   UNL     1      -8.371  15.860  69.155  1.00  0.00    -0.253 C  
BRANCH  31  32
HETATM   32  C   UNL     1      -8.943  15.411  67.827  1.00  0.00    -0.173 C  
HETATM   33  N   UNL     1      -9.818  14.352  67.816  1.00  0.00    -0.219 N  
HETATM   34  O   UNL     1      -8.679  16.052  66.808  1.00  0.00    -0.205 OA 
HETATM   35  O   UNL     1      -9.775  13.403  68.855  1.00  0.00    -0.047 OA 
BRANCH  33  36
HETATM   36  C   UNL     1     -10.367  13.798  66.577  1.00  0.00    -0.286 C  
BRANCH  36  37
HETATM   37  C   UNL     1     -11.632  14.533  66.128  1.00  0.00    -0.366 C  
BRANCH  37  38
HETATM   38  C   UNL     1     -12.522  13.658  65.239  1.00  0.00    -0.517 C  
BRANCH  38  39
HETATM   39  C   UNL     1     -11.895  13.431  63.860  1.00  0.00    -0.492 C  
BRANCH  39  40
HETATM   40  C   UNL     1     -12.467  12.204  63.148  1.00  0.00    -0.243 C  
HETATM   41  N   UNL     1     -11.449  11.182  62.930  1.00  0.00    -0.592 NA 
HETATM   42  H2  UNL     1     -10.988  10.924  63.803  1.00  0.00     0.000 HD 
HETATM   43  H1  UNL     1     -11.831  10.363  62.456  1.00  0.00     0.000 HD 
ENDBRANCH  39  40
ENDBRANCH  38  39
ENDBRANCH  37  38
ENDBRANCH  36  37
ENDBRANCH  33  36
ENDBRANCH  31  32
ENDBRANCH  30  31
ENDBRANCH  28  30
ENDBRANCH  25  26
ENDBRANCH  24  25
ENDBRANCH  23  24
ENDBRANCH  22  23
ENDBRANCH  21  22
ENDBRANCH  19  21
ENDBRANCH  16  17
ENDBRANCH  15  16
ENDBRANCH  12  15
ENDBRANCH  10  11
ENDBRANCH   9  10
ENDBRANCH   8   9
ENDBRANCH   7   8
ENDBRANCH   6   7
ENDBRANCH   3   6
TORSDOF 23
ENDMDL
MODEL      236
REMARK 921   NORMALIZED FREE ENERGY PREDICTED BY IDOCK:   -3.65 KCAL/MOL
REMARK 922        TOTAL FREE ENERGY PREDICTED BY IDOCK:  -11.31 KCAL/MOL
REMARK 923 INTER-LIGAND FREE ENERGY PREDICTED BY IDOCK:   -7.79 KCAL/MOL
REMARK 924 INTRA-LIGAND FREE ENERGY PREDICTED BY IDOCK:   -3.52 KCAL/MOL
REMARK 927      BINDING AFFINITY PREDICTED BY RF-SCORE:    0.00 PKD
ROOT
HETATM    1  C   UNL     1      -7.984  14.434  69.432  1.00  0.00     0.147 C  
HETATM    2  C   UNL     1      -7.673  13.794  68.104  1.00  0.00    -0.140 C  
HETATM    3  N   UNL     1      -7.301  12.476  68.125  1.00  0.00    -0.099 N  
HETATM    4  O   UNL     1      -7.727  14.457  67.068  1.00  0.00    -0.104 OA 
HETATM    5  O   UNL     1      -7.374  11.652  69.261  1.00  0.00    -0.077 OA 
ENDROOT
BRANCH   3   6
HETATM    6  C   UNL     1      -6.953  11.722  66.928  1.00  0.00    -0.101 C  
BRANCH   6   7
HETATM    7  C   UNL     1      -8.154  11.510  66.003  1.00  0.00     0.131 C  
BRANCH   7   8
HETATM    8  C   UNL     1      -8.548  10.032  65.970  1.00  0.00    -0.148 C  
BRANCH   8   9
HETATM    9  C   UNL     1      -9.903   9.813  65.293  1.00  0.00    -0.335 C  
BRANCH   9  10
HETATM   10  C   UNL     1     -10.496  11.114  64.749  1.00  0.00    -0.323 C  
BRANCH  10  11
HETATM   11  N   UNL     1     -11.348  11.784  65.719  1.00  0.00    -0.292 N  
HETATM   12  C   UNL     1     -11.339  13.155  65.849  1.00  0.00    -0.311 C  
HETATM   13  H   UNL     1     -11.964  11.229  66.313  1.00  0.00     0.000 HD 
HETATM   14  O   UNL     1     -10.661  13.904  65.151  1.00  0.00    -0.332 OA 
BRANCH  12  15
HETATM   15  C   UNL     1     -12.264  13.658  66.936  1.00  0.00    -0.398 C  
BRANCH  15  16
HETATM   16  C   UNL     1     -11.488  13.902  68.228  1.00  0.00    -0.346 C  
BRANCH  16  17
HETATM   17  C   UNL     1     -11.357  12.647  69.069  1.00  0.00    -0.292 C  
HETATM   18  O   UNL     1     -10.634  11.717  68.717  1.00  0.00    -0.208 OA 
HETATM   19  N   UNL     1     -12.112  12.605  70.214  1.00  0.00    -0.341 N  
HETATM   20  O   UNL     1     -12.874  13.678  70.709  1.00  0.00    -0.280 OA 
BRANCH  19  21
HETATM   21  C   UNL     1     -12.167  11.452  71.101  1.00  0.00    -0.224 C  
BRANCH  21  22
HETATM   22  C   UNL     1     -13.270  10.466  70.710  1.00  0.00    -0.266 C  
BRANCH  22  23
HETATM   23  C   UNL     1     -13.670   9.525  71.862  1.00  0.00    -0.410 C  
BRANCH  23  24
HETATM   24  C   UNL     1     -13.994   8.104  71.398  1.00  0.00    -0.350 C  
BRANCH  24  25
HETATM   25  C   UNL     1     -12.896   7.120  71.796  1.00  0.00    -0.330 C  
BRANCH  25  26
HETATM   26  N   UNL     1     -11.583   7.601  71.417  1.00  0.00    -0.267 N  
HETATM   27  H   UNL     1     -11.409   7.854  70.443  1.00  0.00     0.000 HD 
HETATM   28  C   UNL     1     -10.564   7.728  72.331  1.00  0.00    -0.278 C  
HETATM   29  O   UNL     1     -10.688   7.467  73.524  1.00  0.00    -0.378 OA 
BRANCH  28  30
HETATM   30  C   UNL     1      -9.258   8.210  71.754  1.00  0.00    -0.232 C  
BRANCH  30  31
HETATM   31  C   UNL     1      -9.504   8.830  70.387  1.00  0.00    -0.206 C  
BRANCH  31  32
HETATM   32  C   UNL     1      -8.738   8.088  69.312  1.00  0.00    -0.137 C  
HETATM   33  N   UNL     1      -9.445   7.319  68.419  1.00  0.00    -0.142 N  
HETATM   34  O   UNL     1      -7.521   8.254  69.213  1.00  0.00    -0.081 OA 
HETATM   35  O   UNL     1     -10.706   6.810  68.783  1.00  0.00    -0.216 OA 
BRANCH  33  36
HETATM   36  C   UNL     1      -8.790   6.507  67.390  1.00  0.00    -0.115 C  
BRANCH  36  37
HETATM   37  C   UNL     1      -9.019   5.010  67.605  1.00  0.00    -0.115 C  
BRANCH  37  38
HETATM   38  C   UNL     1      -8.169   4.455  68.752  1.00  0.00    -0.083 C  
BRANCH  38  39
HETATM   39  C   UNL     1      -7.892   2.958  68.578  1.00  0.00    -0.057 C  
BRANCH  39  40
HETATM   40  C   UNL     1      -6.588   2.520  69.246  1.00  0.00    -0.033 C  
HETATM   41  N   UNL     1      -5.685   3.646  69.462  1.00  0.00    -0.017 NA 
HETATM   42  H2  UNL     1      -6.140   4.391  69.988  1.00  0.00     0.000 HD 
HETATM   43  H1  UNL     1      -4.815   3.354  69.907  1.00  0.00     0.000 HD 
ENDBRANCH  39  40
ENDBRANCH  38  39
ENDBRANCH  37  38
ENDBRANCH  36  37
ENDBRANCH  33  36
ENDBRANCH  31  32
ENDBRANCH  30  31
ENDBRANCH  28  30
ENDBRANCH  25  26
ENDBRANCH  24  25
ENDBRANCH  23  24
ENDBRANCH  22  23
ENDBRANCH  21  22
ENDBRANCH  19  21
ENDBRANCH  16  17
ENDBRANCH  15  16
ENDBRANCH  12  15
ENDBRANCH  10  11
ENDBRANCH   9  10
ENDBRANCH   8   9
ENDBRANCH   7   8
ENDBRANCH   6   7
ENDBRANCH   3   6
TORSDOF 23
ENDMDL
MODEL      237
REMARK 921   NORMALIZED FREE ENERGY PREDICTED BY IDOCK:   -3.64 KCAL/MOL
REMARK 922        TOTAL FREE ENERGY PREDICTED BY IDOCK:  -11.29 KCAL/MOL
REMARK 923 INTER-LIGAND FREE ENERGY PREDICTED BY IDOCK:   -9.76 KCAL/MOL
REMARK 924 INTRA-LIGAND FREE ENERGY PREDICTED BY IDOCK:   -1.52 KCAL/MOL
REMARK 927      BINDING AFFINITY PREDICTED BY RF-SCORE:    0.00 PKD
ROOT
HETATM    1  C   UNL     1      -6.405  19.974  69.935  1.00  0.00    -0.391 C  
HETATM    2  C   UNL     1      -6.677  19.217  68.662  1.00  0.00    -0.286 C  
HETATM    3  N   UNL     1      -7.014  19.960  67.561  1.00  0.00    -0.231 N  
HETATM    4  O   UNL     1      -6.626  17.987  68.647  1.00  0.00    -0.211 OA 
HETATM    5  O   UNL     1      -6.935  21.362  67.499  1.00  0.00    -0.539 OA 
ENDROOT
BRANCH   3   6
HETATM    6  C   UNL     1      -7.321  19.376  66.262  1.00  0.00    -0.266 C  
BRANCH   6   7
HETATM    7  C   UNL     1      -8.703  18.719  66.231  1.00  0.00    -0.244 C  
BRANCH   7   8
HETATM    8  C   UNL     1      -9.798  19.769  66.428  1.00  0.00    -0.556 C  
BRANCH   8   9
HETATM    9  C   UNL     1     -10.909  19.275  67.356  1.00  0.00    -0.554 C  
BRANCH   9  10
HETATM   10  C   UNL     1     -10.400  18.260  68.380  1.00  0.00    -0.343 C  
BRANCH  10  11
HETATM   11  N   UNL     1     -10.703  16.888  68.001  1.00  0.00    -0.364 N  
HETATM   12  C   UNL     1     -11.333  16.030  68.875  1.00  0.00    -0.370 C  
HETATM   13  H   UNL     1     -10.445  16.557  67.072  1.00  0.00     0.000 HD 
HETATM   14  O   UNL     1     -11.714  16.353  69.997  1.00  0.00    -0.136 OA 
BRANCH  12  15
HETATM   15  C   UNL     1     -11.525  14.638  68.311  1.00  0.00    -0.337 C  
BRANCH  15  16
HETATM   16  C   UNL     1     -10.194  14.070  67.826  1.00  0.00    -0.240 C  
BRANCH  16  17
HETATM   17  C   UNL     1     -10.272  13.548  66.404  1.00  0.00    -0.291 C  
HETATM   18  O   UNL     1     -10.093  14.292  65.443  1.00  0.00    -0.346 OA 
HETATM   19  N   UNL     1     -10.582  12.219  66.264  1.00  0.00    -0.245 N  
HETATM   20  O   UNL     1     -10.696  11.308  67.329  1.00  0.00    -0.223 OA 
BRANCH  19  21
HETATM   21  C   UNL     1     -10.770  11.567  64.976  1.00  0.00    -0.290 C  
BRANCH  21  22
HETATM   22  C   UNL     1     -10.026  10.233  64.882  1.00  0.00    -0.393 C  
BRANCH  22  23
HETATM   23  C   UNL     1      -8.505  10.404  64.706  1.00  0.00    -0.176 C  
BRANCH  23  24
HETATM   24  C   UNL     1      -8.043  10.243  63.257  1.00  0.00    -0.157 C  
BRANCH  24  25
HETATM   25  C   UNL     1      -8.127   8.789  62.799  1.00  0.00    -0.176 C  
BRANCH  25  26
HETATM   26  N   UNL     1      -8.230   7.879  63.923  1.00  0.00    -0.351 N  
HETATM   27  H   UNL     1      -8.665   8.205  64.786  1.00  0.00     0.000 HD 
HETATM   28  C   UNL     1      -7.758   6.590  63.858  1.00  0.00    -0.108 C  
HETATM   29  O   UNL     1      -7.239   6.108  62.855  1.00  0.00    -0.048 OA 
BRANCH  28  30
HETATM   30  C   UNL     1      -7.918   5.798  65.130  1.00  0.00    -0.119 C  
BRANCH  30  31
HETATM   31  C   UNL     1      -9.270   6.106  65.755  1.00  0.00    -0.014 C  
BRANCH  31  32
HETATM   32  C   UNL     1      -9.117   7.025  66.948  1.00  0.00    -0.140 C  
HETATM   33  N   UNL     1     -10.061   6.965  67.945  1.00  0.00    -0.154 N  
HETATM   34  O   UNL     1      -8.116   7.739  67.037  1.00  0.00    -0.113 OA 
HETATM   35  O   UNL     1     -11.356   6.497  67.650  1.00  0.00    -0.268 OA 
BRANCH  33  36
HETATM   36  C   UNL     1     -10.041   7.862  69.102  1.00  0.00    -0.197 C  
BRANCH  36  37
HETATM   37  C   UNL     1      -9.719   7.121  70.401  1.00  0.00    -0.176 C  
BRANCH  37  38
HETATM   38  C   UNL     1      -9.297   5.669  70.148  1.00  0.00    -0.188 C  
BRANCH  38  39
HETATM   39  C   UNL     1     -10.117   4.687  70.991  1.00  0.00    -0.246 C  
BRANCH  39  40
HETATM   40  C   UNL     1      -9.242   3.672  71.728  1.00  0.00    -0.119 C  
HETATM   41  N   UNL     1     -10.037   2.783  72.569  1.00  0.00    -0.158 NA 
HETATM   42  H2  UNL     1     -10.770   2.321  72.031  1.00  0.00     0.000 HD 
HETATM   43  H1  UNL     1      -9.453   2.106  73.060  1.00  0.00     0.000 HD 
ENDBRANCH  39  40
ENDBRANCH  38  39
ENDBRANCH  37  38
ENDBRANCH  36  37
ENDBRANCH  33  36
ENDBRANCH  31  32
ENDBRANCH  30  31
ENDBRANCH  28  30
ENDBRANCH  25  26
ENDBRANCH  24  25
ENDBRANCH  23  24
ENDBRANCH  22  23
ENDBRANCH  21  22
ENDBRANCH  19  21
ENDBRANCH  16  17
ENDBRANCH  15  16
ENDBRANCH  12  15
ENDBRANCH  10  11
ENDBRANCH   9  10
ENDBRANCH   8   9
ENDBRANCH   7   8
ENDBRANCH   6   7
ENDBRANCH   3   6
TORSDOF 23
ENDMDL
MODEL      238
REMARK 921   NORMALIZED FREE ENERGY PREDICTED BY IDOCK:   -3.64 KCAL/MOL
REMARK 922        TOTAL FREE ENERGY PREDICTED BY IDOCK:  -11.29 KCAL/MOL
REMARK 923 INTER-LIGAND FREE ENERGY PREDICTED BY IDOCK:   -9.15 KCAL/MOL
REMARK 924 INTRA-LIGAND FREE ENERGY PREDICTED BY IDOCK:   -2.14 KCAL/MOL
REMARK 927      BINDING AFFINITY PREDICTED BY RF-SCORE:    0.00 PKD
ROOT
HETATM    1  C   UNL     1     -13.610   6.725  71.548  1.00  0.00    -0.163 C  
HETATM    2  C   UNL     1     -12.238   7.110  71.059  1.00  0.00    -0.343 C  
HETATM    3  N   UNL     1     -11.534   7.998  71.829  1.00  0.00    -0.264 N  
HETATM    4  O   UNL     1     -11.808   6.659  69.997  1.00  0.00    -0.372 OA 
HETATM    5  O   UNL     1     -11.926   8.414  73.113  1.00  0.00    -0.128 OA 
ENDROOT
BRANCH   3   6
HETATM    6  C   UNL     1     -10.203   8.480  71.484  1.00  0.00    -0.250 C  
BRANCH   6   7
HETATM    7  C   UNL     1      -9.158   7.362  71.494  1.00  0.00    -0.148 C  
BRANCH   7   8
HETATM    8  C   UNL     1      -8.330   7.394  70.209  1.00  0.00    -0.134 C  
BRANCH   8   9
HETATM    9  C   UNL     1      -6.999   6.656  70.363  1.00  0.00    -0.063 C  
BRANCH   9  10
HETATM   10  C   UNL     1      -7.176   5.260  70.961  1.00  0.00    -0.069 C  
BRANCH  10  11
HETATM   11  N   UNL     1      -7.361   4.238  69.941  1.00  0.00    -0.049 N  
HETATM   12  C   UNL     1      -8.603   3.700  69.690  1.00  0.00    -0.066 C  
HETATM   13  H   UNL     1      -6.557   3.916  69.403  1.00  0.00     0.000 HD 
HETATM   14  O   UNL     1      -9.631   4.054  70.260  1.00  0.00    -0.173 OA 
BRANCH  12  15
HETATM   15  C   UNL     1      -8.584   2.627  68.622  1.00  0.00    -0.110 C  
BRANCH  15  16
HETATM   16  C   UNL     1      -9.314   3.105  67.370  1.00  0.00    -0.232 C  
BRANCH  16  17
HETATM   17  C   UNL     1      -8.651   4.315  66.741  1.00  0.00    -0.108 C  
HETATM   18  O   UNL     1      -7.426   4.408  66.676  1.00  0.00    -0.079 OA 
HETATM   19  N   UNL     1      -9.492   5.297  66.285  1.00  0.00    -0.151 N  
HETATM   20  O   UNL     1     -10.894   5.194  66.246  1.00  0.00    -0.296 OA 
BRANCH  19  21
HETATM   21  C   UNL     1      -9.030   6.557  65.721  1.00  0.00    -0.039 C  
BRANCH  21  22
HETATM   22  C   UNL     1      -8.657   7.578  66.799  1.00  0.00    -0.127 C  
BRANCH  22  23
HETATM   23  C   UNL     1      -9.473   8.881  66.700  1.00  0.00    -0.261 C  
BRANCH  23  24
HETATM   24  C   UNL     1      -9.640   9.382  65.265  1.00  0.00    -0.251 C  
BRANCH  24  25
HETATM   25  C   UNL     1     -10.174  10.813  65.230  1.00  0.00    -0.285 C  
BRANCH  25  26
HETATM   26  N   UNL     1     -10.289  11.374  66.561  1.00  0.00    -0.228 N  
HETATM   27  H   UNL     1      -9.526  11.238  67.223  1.00  0.00     0.000 HD 
HETATM   28  C   UNL     1     -11.398  12.085  66.955  1.00  0.00    -0.341 C  
HETATM   29  O   UNL     1     -12.353  12.314  66.219  1.00  0.00    -0.556 OA 
BRANCH  28  30
HETATM   30  C   UNL     1     -11.361  12.565  68.383  1.00  0.00    -0.333 C  
BRANCH  30  31
HETATM   31  C   UNL     1     -11.458  14.082  68.413  1.00  0.00    -0.340 C  
BRANCH  31  32
HETATM   32  C   UNL     1     -10.087  14.714  68.295  1.00  0.00    -0.228 C  
HETATM   33  N   UNL     1      -9.713  15.644  69.234  1.00  0.00    -0.253 N  
HETATM   34  O   UNL     1      -9.316  14.324  67.416  1.00  0.00    -0.192 OA 
HETATM   35  O   UNL     1     -10.700  16.367  69.931  1.00  0.00    -0.330 OA 
BRANCH  33  36
HETATM   36  C   UNL     1      -8.440  16.364  69.164  1.00  0.00    -0.181 C  
BRANCH  36  37
HETATM   37  C   UNL     1      -8.610  17.788  68.631  1.00  0.00    -0.264 C  
BRANCH  37  38
HETATM   38  C   UNL     1      -9.163  17.807  67.202  1.00  0.00    -0.253 C  
BRANCH  38  39
HETATM   39  C   UNL     1     -10.473  18.595  67.113  1.00  0.00    -0.461 C  
BRANCH  39  40
HETATM   40  C   UNL     1     -10.531  19.503  65.884  1.00  0.00    -0.491 C  
HETATM   41  N   UNL     1      -9.292  20.256  65.709  1.00  0.00    -0.536 NA 
HETATM   42  H2  UNL     1      -8.483  19.636  65.676  1.00  0.00     0.000 HD 
HETATM   43  H1  UNL     1      -9.331  20.862  64.889  1.00  0.00     0.000 HD 
ENDBRANCH  39  40
ENDBRANCH  38  39
ENDBRANCH  37  38
ENDBRANCH  36  37
ENDBRANCH  33  36
ENDBRANCH  31  32
ENDBRANCH  30  31
ENDBRANCH  28  30
ENDBRANCH  25  26
ENDBRANCH  24  25
ENDBRANCH  23  24
ENDBRANCH  22  23
ENDBRANCH  21  22
ENDBRANCH  19  21
ENDBRANCH  16  17
ENDBRANCH  15  16
ENDBRANCH  12  15
ENDBRANCH  10  11
ENDBRANCH   9  10
ENDBRANCH   8   9
ENDBRANCH   7   8
ENDBRANCH   6   7
ENDBRANCH   3   6
TORSDOF 23
ENDMDL
MODEL      239
REMARK 921   NORMALIZED FREE ENERGY PREDICTED BY IDOCK:   -3.63 KCAL/MOL
REMARK 922        TOTAL FREE ENERGY PREDICTED BY IDOCK:  -11.27 KCAL/MOL
REMARK 923 INTER-LIGAND FREE ENERGY PREDICTED BY IDOCK:   -8.41 KCAL/MOL
REMARK 924 INTRA-LIGAND FREE ENERGY PREDICTED BY IDOCK:   -2.86 KCAL/MOL
REMARK 927      BINDING AFFINITY PREDICTED BY RF-SCORE:    0.00 PKD
ROOT
HETATM    1  C   UNL     1     -12.356  15.583  70.099  1.00  0.00    -0.384 C  
HETATM    2  C   UNL     1     -11.890  14.967  68.807  1.00  0.00    -0.296 C  
HETATM    3  N   UNL     1     -11.194  15.778  67.950  1.00  0.00    -0.336 N  
HETATM    4  O   UNL     1     -12.162  13.795  68.544  1.00  0.00    -0.348 OA 
HETATM    5  O   UNL     1     -10.736  17.066  68.278  1.00  0.00    -0.358 OA 
ENDROOT
BRANCH   3   6
HETATM    6  C   UNL     1     -10.690  15.335  66.657  1.00  0.00    -0.309 C  
BRANCH   6   7
HETATM    7  C   UNL     1      -9.162  15.332  66.596  1.00  0.00    -0.302 C  
BRANCH   7   8
HETATM    8  C   UNL     1      -8.587  14.385  67.651  1.00  0.00    -0.189 C  
BRANCH   8   9
HETATM    9  C   UNL     1      -7.134  14.008  67.356  1.00  0.00    -0.096 C  
BRANCH   9  10
HETATM   10  C   UNL     1      -6.961  12.508  67.116  1.00  0.00    -0.055 C  
BRANCH  10  11
HETATM   11  N   UNL     1      -8.162  11.890  66.573  1.00  0.00    -0.362 N  
HETATM   12  C   UNL     1      -8.084  10.819  65.711  1.00  0.00    -0.135 C  
HETATM   13  H   UNL     1      -9.076  12.257  66.835  1.00  0.00     0.000 HD 
HETATM   14  O   UNL     1      -7.030  10.288  65.372  1.00  0.00    -0.133 OA 
BRANCH  12  15
HETATM   15  C   UNL     1      -9.437  10.343  65.227  1.00  0.00    -0.290 C  
BRANCH  15  16
HETATM   16  C   UNL     1     -10.489  10.520  66.320  1.00  0.00    -0.250 C  
BRANCH  16  17
HETATM   17  C   UNL     1     -10.366   9.478  67.414  1.00  0.00    -0.258 C  
HETATM   18  O   UNL     1     -10.577   8.288  67.186  1.00  0.00    -0.317 OA 
HETATM   19  N   UNL     1     -10.041   9.946  68.662  1.00  0.00    -0.168 N  
HETATM   20  O   UNL     1      -9.694  11.277  68.950  1.00  0.00    -0.196 OA 
BRANCH  19  21
HETATM   21  C   UNL     1      -9.953   9.099  69.842  1.00  0.00    -0.197 C  
BRANCH  21  22
HETATM   22  C   UNL     1      -8.629   8.334  69.916  1.00  0.00    -0.125 C  
BRANCH  22  23
HETATM   23  C   UNL     1      -7.435   9.147  69.381  1.00  0.00    -0.077 C  
BRANCH  23  24
HETATM   24  C   UNL     1      -6.244   8.277  68.977  1.00  0.00    -0.043 C  
BRANCH  24  25
HETATM   25  C   UNL     1      -6.387   7.759  67.548  1.00  0.00    -0.055 C  
BRANCH  25  26
HETATM   26  N   UNL     1      -6.812   6.374  67.521  1.00  0.00    -0.073 N  
HETATM   27  H   UNL     1      -6.409   5.719  68.192  1.00  0.00     0.000 HD 
HETATM   28  C   UNL     1      -7.741   5.917  66.618  1.00  0.00    -0.100 C  
HETATM   29  O   UNL     1      -8.291   6.637  65.789  1.00  0.00    -0.132 OA 
BRANCH  28  30
HETATM   30  C   UNL     1      -8.037   4.442  66.713  1.00  0.00    -0.102 C  
BRANCH  30  31
HETATM   31  C   UNL     1      -9.376   4.235  67.404  1.00  0.00    -0.190 C  
BRANCH  31  32
HETATM   32  C   UNL     1      -9.184   3.966  68.882  1.00  0.00    -0.152 C  
HETATM   33  N   UNL     1     -10.081   4.513  69.767  1.00  0.00    -0.195 N  
HETATM   34  O   UNL     1      -8.286   3.204  69.247  1.00  0.00    -0.058 OA 
HETATM   35  O   UNL     1     -10.797   5.671  69.408  1.00  0.00    -0.320 OA 
BRANCH  33  36
HETATM   36  C   UNL     1      -9.940   4.372  71.218  1.00  0.00    -0.175 C  
BRANCH  36  37
HETATM   37  C   UNL     1      -9.907   5.726  71.929  1.00  0.00    -0.195 C  
BRANCH  37  38
HETATM   38  C   UNL     1     -11.186   5.989  72.730  1.00  0.00    -0.299 C  
BRANCH  38  39
HETATM   39  C   UNL     1     -11.360   7.478  73.046  1.00  0.00    -0.313 C  
BRANCH  39  40
HETATM   40  C   UNL     1     -12.455   8.134  72.203  1.00  0.00    -0.322 C  
HETATM   41  N   UNL     1     -13.423   7.156  71.718  1.00  0.00    -0.509 NA 
HETATM   42  H2  UNL     1     -13.819   6.614  72.485  1.00  0.00     0.000 HD 
HETATM   43  H1  UNL     1     -14.153   7.594  71.156  1.00  0.00     0.000 HD 
ENDBRANCH  39  40
ENDBRANCH  38  39
ENDBRANCH  37  38
ENDBRANCH  36  37
ENDBRANCH  33  36
ENDBRANCH  31  32
ENDBRANCH  30  31
ENDBRANCH  28  30
ENDBRANCH  25  26
ENDBRANCH  24  25
ENDBRANCH  23  24
ENDBRANCH  22  23
ENDBRANCH  21  22
ENDBRANCH  19  21
ENDBRANCH  16  17
ENDBRANCH  15  16
ENDBRANCH  12  15
ENDBRANCH  10  11
ENDBRANCH   9  10
ENDBRANCH   8   9
ENDBRANCH   7   8
ENDBRANCH   6   7
ENDBRANCH   3   6
TORSDOF 23
ENDMDL
MODEL      240
REMARK 921   NORMALIZED FREE ENERGY PREDICTED BY IDOCK:   -3.63 KCAL/MOL
REMARK 922        TOTAL FREE ENERGY PREDICTED BY IDOCK:  -11.26 KCAL/MOL
REMARK 923 INTER-LIGAND FREE ENERGY PREDICTED BY IDOCK:   -9.54 KCAL/MOL
REMARK 924 INTRA-LIGAND FREE ENERGY PREDICTED BY IDOCK:   -1.72 KCAL/MOL
REMARK 927      BINDING AFFINITY PREDICTED BY RF-SCORE:    0.00 PKD
ROOT
HETATM    1  C   UNL     1      -8.076   9.588  69.285  1.00  0.00    -0.103 C  
HETATM    2  C   UNL     1      -8.729   8.252  69.526  1.00  0.00    -0.138 C  
HETATM    3  N   UNL     1      -9.692   7.863  68.632  1.00  0.00    -0.155 N  
HETATM    4  O   UNL     1      -8.417   7.576  70.507  1.00  0.00    -0.129 OA 
HETATM    5  O   UNL     1      -9.966   8.531  67.427  1.00  0.00    -0.180 OA 
ENDROOT
BRANCH   3   6
HETATM    6  C   UNL     1     -10.425   6.609  68.737  1.00  0.00    -0.213 C  
BRANCH   6   7
HETATM    7  C   UNL     1      -9.530   5.389  68.505  1.00  0.00    -0.156 C  
BRANCH   7   8
HETATM    8  C   UNL     1      -9.856   4.287  69.514  1.00  0.00    -0.224 C  
BRANCH   8   9
HETATM    9  C   UNL     1      -9.039   3.018  69.265  1.00  0.00    -0.198 C  
BRANCH   9  10
HETATM   10  C   UNL     1      -8.248   2.586  70.501  1.00  0.00    -0.045 C  
BRANCH  10  11
HETATM   11  N   UNL     1      -8.170   3.636  71.506  1.00  0.00    -0.068 N  
HETATM   12  C   UNL     1      -8.519   3.395  72.816  1.00  0.00    -0.081 C  
HETATM   13  H   UNL     1      -7.852   4.566  71.235  1.00  0.00     0.000 HD 
HETATM   14  O   UNL     1      -8.875   2.298  73.239  1.00  0.00    -0.069 OA 
BRANCH  12  15
HETATM   15  C   UNL     1      -8.408   4.619  73.698  1.00  0.00    -0.105 C  
BRANCH  15  16
HETATM   16  C   UNL     1      -9.718   4.862  74.443  1.00  0.00    -0.167 C  
BRANCH  16  17
HETATM   17  C   UNL     1     -10.833   5.313  73.520  1.00  0.00    -0.304 C  
HETATM   18  O   UNL     1     -11.663   4.516  73.087  1.00  0.00    -0.217 OA 
HETATM   19  N   UNL     1     -10.836   6.642  73.179  1.00  0.00    -0.274 N  
HETATM   20  O   UNL     1      -9.972   7.608  73.723  1.00  0.00    -0.287 OA 
BRANCH  19  21
HETATM   21  C   UNL     1     -11.785   7.232  72.247  1.00  0.00    -0.265 C  
BRANCH  21  22
HETATM   22  C   UNL     1     -11.496   8.712  71.977  1.00  0.00    -0.437 C  
BRANCH  22  23
HETATM   23  C   UNL     1     -12.726   9.613  72.198  1.00  0.00    -0.427 C  
BRANCH  23  24
HETATM   24  C   UNL     1     -13.110  10.424  70.960  1.00  0.00    -0.450 C  
BRANCH  24  25
HETATM   25  C   UNL     1     -11.903  10.683  70.061  1.00  0.00    -0.322 C  
BRANCH  25  26
HETATM   26  N   UNL     1     -11.644  12.100  69.907  1.00  0.00    -0.492 N  
HETATM   27  H   UNL     1     -11.553  12.680  70.741  1.00  0.00     0.000 HD 
HETATM   28  C   UNL     1     -11.517  12.685  68.670  1.00  0.00    -0.308 C  
HETATM   29  O   UNL     1     -11.591  12.062  67.615  1.00  0.00    -0.317 OA 
BRANCH  28  30
HETATM   30  C   UNL     1     -11.283  14.174  68.699  1.00  0.00    -0.291 C  
BRANCH  30  31
HETATM   31  C   UNL     1      -9.824  14.467  68.389  1.00  0.00    -0.234 C  
BRANCH  31  32
HETATM   32  C   UNL     1      -9.702  15.461  67.254  1.00  0.00    -0.212 C  
HETATM   33  N   UNL     1      -9.760  16.801  67.550  1.00  0.00    -0.248 N  
HETATM   34  O   UNL     1      -9.472  15.052  66.114  1.00  0.00    -0.286 OA 
HETATM   35  O   UNL     1     -10.424  17.229  68.716  1.00  0.00    -0.333 OA 
BRANCH  33  36
HETATM   36  C   UNL     1      -9.725  17.837  66.516  1.00  0.00    -0.320 C  
BRANCH  36  37
HETATM   37  C   UNL     1      -8.443  18.671  66.578  1.00  0.00    -0.302 C  
BRANCH  37  38
HETATM   38  C   UNL     1      -7.810  18.653  67.973  1.00  0.00    -0.292 C  
BRANCH  38  39
HETATM   39  C   UNL     1      -7.513  20.069  68.477  1.00  0.00    -0.237 C  
BRANCH  39  40
HETATM   40  C   UNL     1      -6.490  20.086  69.614  1.00  0.00    -0.339 C  
HETATM   41  N   UNL     1      -5.263  20.774  69.226  1.00  0.00    -0.314 NA 
HETATM   42  H2  UNL     1      -5.456  21.715  68.886  1.00  0.00     0.000 HD 
HETATM   43  H1  UNL     1      -4.580  20.785  69.984  1.00  0.00     0.000 HD 
ENDBRANCH  39  40
ENDBRANCH  38  39
ENDBRANCH  37  38
ENDBRANCH  36  37
ENDBRANCH  33  36
ENDBRANCH  31  32
ENDBRANCH  30  31
ENDBRANCH  28  30
ENDBRANCH  25  26
ENDBRANCH  24  25
ENDBRANCH  23  24
ENDBRANCH  22  23
ENDBRANCH  21  22
ENDBRANCH  19  21
ENDBRANCH  16  17
ENDBRANCH  15  16
ENDBRANCH  12  15
ENDBRANCH  10  11
ENDBRANCH   9  10
ENDBRANCH   8   9
ENDBRANCH   7   8
ENDBRANCH   6   7
ENDBRANCH   3   6
TORSDOF 23
ENDMDL
MODEL      241
REMARK 921   NORMALIZED FREE ENERGY PREDICTED BY IDOCK:   -3.63 KCAL/MOL
REMARK 922        TOTAL FREE ENERGY PREDICTED BY IDOCK:  -11.25 KCAL/MOL
REMARK 923 INTER-LIGAND FREE ENERGY PREDICTED BY IDOCK:   -8.83 KCAL/MOL
REMARK 924 INTRA-LIGAND FREE ENERGY PREDICTED BY IDOCK:   -2.42 KCAL/MOL
REMARK 927      BINDING AFFINITY PREDICTED BY RF-SCORE:    0.00 PKD
ROOT
HETATM    1  C   UNL     1     -10.810  10.232  69.815  1.00  0.00    -0.332 C  
HETATM    2  C   UNL     1     -11.569   9.406  70.820  1.00  0.00    -0.298 C  
HETATM    3  N   UNL     1     -11.298   8.063  70.849  1.00  0.00    -0.275 N  
HETATM    4  O   UNL     1     -12.412   9.933  71.547  1.00  0.00    -0.353 OA 
HETATM    5  O   UNL     1     -10.243   7.455  70.147  1.00  0.00    -0.199 OA 
ENDROOT
BRANCH   3   6
HETATM    6  C   UNL     1     -11.959   7.130  71.751  1.00  0.00    -0.313 C  
BRANCH   6   7
HETATM    7  C   UNL     1     -11.163   6.901  73.038  1.00  0.00    -0.220 C  
BRANCH   7   8
HETATM    8  C   UNL     1     -11.144   5.414  73.397  1.00  0.00    -0.326 C  
BRANCH   8   9
HETATM    9  C   UNL     1     -10.203   4.616  72.492  1.00  0.00    -0.243 C  
BRANCH   9  10
HETATM   10  C   UNL     1      -8.732   4.927  72.767  1.00  0.00    -0.121 C  
BRANCH  10  11
HETATM   11  N   UNL     1      -7.999   5.265  71.556  1.00  0.00    -0.112 N  
HETATM   12  C   UNL     1      -7.409   4.289  70.785  1.00  0.00    -0.044 C  
HETATM   13  H   UNL     1      -7.922   6.242  71.274  1.00  0.00     0.000 HD 
HETATM   14  O   UNL     1      -7.484   3.087  71.026  1.00  0.00    -0.036 OA 
BRANCH  12  15
HETATM   15  C   UNL     1      -6.662   4.842  69.590  1.00  0.00    -0.051 C  
BRANCH  15  16
HETATM   16  C   UNL     1      -7.236   4.278  68.293  1.00  0.00    -0.060 C  
BRANCH  16  17
HETATM   17  C   UNL     1      -8.345   5.143  67.726  1.00  0.00    -0.105 C  
HETATM   18  O   UNL     1      -9.519   4.958  68.040  1.00  0.00    -0.124 OA 
HETATM   19  N   UNL     1      -7.961   6.107  66.830  1.00  0.00    -0.104 N  
HETATM   20  O   UNL     1      -6.627   6.421  66.516  1.00  0.00    -0.045 OA 
BRANCH  19  21
HETATM   21  C   UNL     1      -8.897   6.978  66.133  1.00  0.00    -0.147 C  
BRANCH  21  22
HETATM   22  C   UNL     1      -9.017   8.355  66.792  1.00  0.00    -0.172 C  
BRANCH  22  23
HETATM   23  C   UNL     1     -10.271   9.128  66.344  1.00  0.00    -0.300 C  
BRANCH  23  24
HETATM   24  C   UNL     1      -9.987  10.587  65.988  1.00  0.00    -0.295 C  
BRANCH  24  25
HETATM   25  C   UNL     1      -8.890  11.177  66.872  1.00  0.00    -0.157 C  
BRANCH  25  26
HETATM   26  N   UNL     1      -8.703  12.592  66.621  1.00  0.00    -0.378 N  
HETATM   27  H   UNL     1      -8.197  12.884  65.785  1.00  0.00     0.000 HD 
HETATM   28  C   UNL     1      -9.189  13.551  67.478  1.00  0.00    -0.219 C  
HETATM   29  O   UNL     1      -9.825  13.291  68.495  1.00  0.00    -0.227 OA 
BRANCH  28  30
HETATM   30  C   UNL     1      -8.872  14.969  67.077  1.00  0.00    -0.257 C  
BRANCH  30  31
HETATM   31  C   UNL     1      -7.377  15.213  67.206  1.00  0.00    -0.216 C  
BRANCH  31  32
HETATM   32  C   UNL     1      -7.091  16.282  68.240  1.00  0.00    -0.136 C  
HETATM   33  N   UNL     1      -6.910  17.575  67.811  1.00  0.00    -0.172 N  
HETATM   34  O   UNL     1      -7.109  15.986  69.437  1.00  0.00    -0.209 OA 
HETATM   35  O   UNL     1      -6.478  17.817  66.493  1.00  0.00    -0.168 OA 
BRANCH  33  36
HETATM   36  C   UNL     1      -6.558  18.664  68.724  1.00  0.00    -0.265 C  
BRANCH  36  37
HETATM   37  C   UNL     1      -7.306  19.958  68.395  1.00  0.00    -0.318 C  
BRANCH  37  38
HETATM   38  C   UNL     1      -8.818  19.819  68.604  1.00  0.00    -0.244 C  
BRANCH  38  39
HETATM   39  C   UNL     1      -9.600  20.202  67.344  1.00  0.00    -0.551 C  
BRANCH  39  40
HETATM   40  C   UNL     1     -10.703  19.197  67.008  1.00  0.00    -0.448 C  
HETATM   41  N   UNL     1     -10.308  18.304  65.923  1.00  0.00    -0.596 NA 
HETATM   42  H2  UNL     1      -9.427  17.835  66.130  1.00  0.00     0.000 HD 
HETATM   43  H1  UNL     1     -11.043  17.634  65.698  1.00  0.00     0.000 HD 
ENDBRANCH  39  40
ENDBRANCH  38  39
ENDBRANCH  37  38
ENDBRANCH  36  37
ENDBRANCH  33  36
ENDBRANCH  31  32
ENDBRANCH  30  31
ENDBRANCH  28  30
ENDBRANCH  25  26
ENDBRANCH  24  25
ENDBRANCH  23  24
ENDBRANCH  22  23
ENDBRANCH  21  22
ENDBRANCH  19  21
ENDBRANCH  16  17
ENDBRANCH  15  16
ENDBRANCH  12  15
ENDBRANCH  10  11
ENDBRANCH   9  10
ENDBRANCH   8   9
ENDBRANCH   7   8
ENDBRANCH   6   7
ENDBRANCH   3   6
TORSDOF 23
ENDMDL
MODEL      242
REMARK 921   NORMALIZED FREE ENERGY PREDICTED BY IDOCK:   -3.62 KCAL/MOL
REMARK 922        TOTAL FREE ENERGY PREDICTED BY IDOCK:  -11.24 KCAL/MOL
REMARK 923 INTER-LIGAND FREE ENERGY PREDICTED BY IDOCK:   -9.52 KCAL/MOL
REMARK 924 INTRA-LIGAND FREE ENERGY PREDICTED BY IDOCK:   -1.72 KCAL/MOL
REMARK 927      BINDING AFFINITY PREDICTED BY RF-SCORE:    0.00 PKD
ROOT
HETATM    1  C   UNL     1      -6.393  20.013  69.892  1.00  0.00    -0.391 C  
HETATM    2  C   UNL     1      -6.670  19.232  68.635  1.00  0.00    -0.286 C  
HETATM    3  N   UNL     1      -7.085  19.946  67.541  1.00  0.00    -0.245 N  
HETATM    4  O   UNL     1      -6.553  18.006  68.627  1.00  0.00    -0.211 OA 
HETATM    5  O   UNL     1      -7.084  21.349  67.467  1.00  0.00    -0.522 OA 
ENDROOT
BRANCH   3   6
HETATM    6  C   UNL     1      -7.407  19.334  66.259  1.00  0.00    -0.264 C  
BRANCH   6   7
HETATM    7  C   UNL     1      -8.706  18.528  66.307  1.00  0.00    -0.219 C  
BRANCH   7   8
HETATM    8  C   UNL     1      -9.885  19.436  66.663  1.00  0.00    -0.462 C  
BRANCH   8   9
HETATM    9  C   UNL     1     -10.859  18.761  67.631  1.00  0.00    -0.382 C  
BRANCH   9  10
HETATM   10  C   UNL     1     -10.168  17.731  68.525  1.00  0.00    -0.382 C  
BRANCH  10  11
HETATM   11  N   UNL     1     -10.556  16.366  68.202  1.00  0.00    -0.304 N  
HETATM   12  C   UNL     1     -11.432  15.666  69.002  1.00  0.00    -0.363 C  
HETATM   13  H   UNL     1     -10.172  15.920  67.369  1.00  0.00     0.000 HD 
HETATM   14  O   UNL     1     -11.972  16.135  70.000  1.00  0.00    -0.245 OA 
BRANCH  12  15
HETATM   15  C   UNL     1     -11.680  14.252  68.521  1.00  0.00    -0.376 C  
BRANCH  15  16
HETATM   16  C   UNL     1     -10.377  13.457  68.505  1.00  0.00    -0.240 C  
BRANCH  16  17
HETATM   17  C   UNL     1     -10.195  12.672  67.221  1.00  0.00    -0.224 C  
HETATM   18  O   UNL     1      -9.656  13.176  66.238  1.00  0.00    -0.268 OA 
HETATM   19  N   UNL     1     -10.692  11.394  67.217  1.00  0.00    -0.227 N  
HETATM   20  O   UNL     1     -11.226  10.741  68.343  1.00  0.00    -0.243 OA 
BRANCH  19  21
HETATM   21  C   UNL     1     -10.671  10.524  66.051  1.00  0.00    -0.016 C  
BRANCH  21  22
HETATM   22  C   UNL     1     -10.214   9.102  66.389  1.00  0.00    -0.300 C  
BRANCH  22  23
HETATM   23  C   UNL     1      -8.683   8.972  66.490  1.00  0.00    -0.144 C  
BRANCH  23  24
HETATM   24  C   UNL     1      -8.057   8.255  65.293  1.00  0.00    -0.142 C  
BRANCH  24  25
HETATM   25  C   UNL     1      -8.185   6.739  65.418  1.00  0.00    -0.134 C  
BRANCH  25  26
HETATM   26  N   UNL     1      -8.397   6.331  66.792  1.00  0.00    -0.109 N  
HETATM   27  H   UNL     1      -8.880   6.965  67.428  1.00  0.00     0.000 HD 
HETATM   28  C   UNL     1      -7.967   5.113  67.262  1.00  0.00    -0.100 C  
HETATM   29  O   UNL     1      -7.396   4.280  66.564  1.00  0.00    -0.077 OA 
BRANCH  28  30
HETATM   30  C   UNL     1      -8.243   4.871  68.724  1.00  0.00    -0.083 C  
BRANCH  30  31
HETATM   31  C   UNL     1      -9.642   5.360  69.065  1.00  0.00    -0.191 C  
BRANCH  31  32
HETATM   32  C   UNL     1      -9.589   6.695  69.777  1.00  0.00    -0.149 C  
HETATM   33  N   UNL     1     -10.680   7.087  70.514  1.00  0.00    -0.231 N  
HETATM   34  O   UNL     1      -8.548   7.355  69.746  1.00  0.00    -0.138 OA 
HETATM   35  O   UNL     1     -11.952   6.569  70.205  1.00  0.00    -0.383 OA 
BRANCH  33  36
HETATM   36  C   UNL     1     -10.754   8.390  71.178  1.00  0.00    -0.230 C  
BRANCH  36  37
HETATM   37  C   UNL     1     -11.096   8.262  72.664  1.00  0.00    -0.400 C  
BRANCH  37  38
HETATM   38  C   UNL     1     -10.785   6.864  73.209  1.00  0.00    -0.349 C  
BRANCH  38  39
HETATM   39  C   UNL     1      -9.781   6.918  74.365  1.00  0.00    -0.264 C  
BRANCH  39  40
HETATM   40  C   UNL     1      -8.807   5.739  74.353  1.00  0.00    -0.122 C  
HETATM   41  N   UNL     1      -7.674   5.982  73.466  1.00  0.00    -0.100 NA 
HETATM   42  H2  UNL     1      -7.200   6.854  73.700  1.00  0.00     0.000 HD 
HETATM   43  H1  UNL     1      -7.025   5.196  73.458  1.00  0.00     0.000 HD 
ENDBRANCH  39  40
ENDBRANCH  38  39
ENDBRANCH  37  38
ENDBRANCH  36  37
ENDBRANCH  33  36
ENDBRANCH  31  32
ENDBRANCH  30  31
ENDBRANCH  28  30
ENDBRANCH  25  26
ENDBRANCH  24  25
ENDBRANCH  23  24
ENDBRANCH  22  23
ENDBRANCH  21  22
ENDBRANCH  19  21
ENDBRANCH  16  17
ENDBRANCH  15  16
ENDBRANCH  12  15
ENDBRANCH  10  11
ENDBRANCH   9  10
ENDBRANCH   8   9
ENDBRANCH   7   8
ENDBRANCH   6   7
ENDBRANCH   3   6
TORSDOF 23
ENDMDL
MODEL      243
REMARK 921   NORMALIZED FREE ENERGY PREDICTED BY IDOCK:   -3.59 KCAL/MOL
REMARK 922        TOTAL FREE ENERGY PREDICTED BY IDOCK:  -11.18 KCAL/MOL
REMARK 923 INTER-LIGAND FREE ENERGY PREDICTED BY IDOCK:   -9.22 KCAL/MOL
REMARK 924 INTRA-LIGAND FREE ENERGY PREDICTED BY IDOCK:   -1.96 KCAL/MOL
REMARK 927      BINDING AFFINITY PREDICTED BY RF-SCORE:    0.00 PKD
ROOT
HETATM    1  C   UNL     1     -14.158  14.225  72.136  1.00  0.00    -0.634 C  
HETATM    2  C   UNL     1     -13.195  14.691  71.076  1.00  0.00    -0.374 C  
HETATM    3  N   UNL     1     -12.346  13.751  70.555  1.00  0.00    -0.349 N  
HETATM    4  O   UNL     1     -13.172  15.874  70.735  1.00  0.00    -0.491 OA 
HETATM    5  O   UNL     1     -12.445  12.372  70.806  1.00  0.00    -0.349 OA 
ENDROOT
BRANCH   3   6
HETATM    6  C   UNL     1     -11.349  14.047  69.535  1.00  0.00    -0.245 C  
BRANCH   6   7
HETATM    7  C   UNL     1     -11.751  13.521  68.156  1.00  0.00    -0.396 C  
BRANCH   7   8
HETATM    8  C   UNL     1     -12.156  14.677  67.240  1.00  0.00    -0.216 C  
BRANCH   8   9
HETATM    9  C   UNL     1     -11.380  14.667  65.922  1.00  0.00    -0.338 C  
BRANCH   9  10
HETATM   10  C   UNL     1     -10.049  13.923  66.039  1.00  0.00    -0.313 C  
BRANCH  10  11
HETATM   11  N   UNL     1      -9.706  13.202  64.822  1.00  0.00    -0.549 N  
HETATM   12  C   UNL     1     -10.384  12.060  64.457  1.00  0.00    -0.296 C  
HETATM   13  H   UNL     1      -8.951  13.548  64.231  1.00  0.00     0.000 HD 
HETATM   14  O   UNL     1     -11.329  11.594  65.086  1.00  0.00    -0.256 OA 
BRANCH  12  15
HETATM   15  C   UNL     1      -9.856  11.434  63.184  1.00  0.00    -0.413 C  
BRANCH  15  16
HETATM   16  C   UNL     1      -9.233  10.072  63.476  1.00  0.00    -0.315 C  
BRANCH  16  17
HETATM   17  C   UNL     1      -8.068  10.164  64.443  1.00  0.00    -0.163 C  
HETATM   18  O   UNL     1      -8.209  10.648  65.564  1.00  0.00    -0.160 OA 
HETATM   19  N   UNL     1      -6.860   9.709  63.980  1.00  0.00    -0.107 N  
HETATM   20  O   UNL     1      -6.670   9.059  62.748  1.00  0.00    -0.095 OA 
BRANCH  19  21
HETATM   21  C   UNL     1      -5.623   9.788  64.742  1.00  0.00    -0.074 C  
BRANCH  21  22
HETATM   22  C   UNL     1      -5.675   8.957  66.027  1.00  0.00    -0.050 C  
BRANCH  22  23
HETATM   23  C   UNL     1      -6.054   7.485  65.776  1.00  0.00    -0.038 C  
BRANCH  23  24
HETATM   24  C   UNL     1      -7.457   7.130  66.271  1.00  0.00    -0.087 C  
BRANCH  24  25
HETATM   25  C   UNL     1      -8.146   6.136  65.338  1.00  0.00    -0.133 C  
BRANCH  25  26
HETATM   26  N   UNL     1      -8.655   4.988  66.061  1.00  0.00    -0.118 N  
HETATM   27  H   UNL     1      -9.656   4.925  66.249  1.00  0.00     0.000 HD 
HETATM   28  C   UNL     1      -7.827   3.983  66.501  1.00  0.00    -0.093 C  
HETATM   29  O   UNL     1      -6.616   3.967  66.302  1.00  0.00    -0.036 OA 
BRANCH  28  30
HETATM   30  C   UNL     1      -8.523   2.885  67.264  1.00  0.00    -0.105 C  
BRANCH  30  31
HETATM   31  C   UNL     1      -9.748   3.450  67.965  1.00  0.00    -0.058 C  
BRANCH  31  32
HETATM   32  C   UNL     1      -9.350   4.260  69.181  1.00  0.00    -0.161 C  
HETATM   33  N   UNL     1     -10.173   5.284  69.583  1.00  0.00    -0.259 N  
HETATM   34  O   UNL     1      -8.349   3.933  69.823  1.00  0.00    -0.056 OA 
HETATM   35  O   UNL     1     -11.028   5.898  68.648  1.00  0.00    -0.287 OA 
BRANCH  33  36
HETATM   36  C   UNL     1      -9.838   6.169  70.700  1.00  0.00    -0.179 C  
BRANCH  36  37
HETATM   37  C   UNL     1      -9.579   7.605  70.241  1.00  0.00    -0.172 C  
BRANCH  37  38
HETATM   38  C   UNL     1     -10.571   8.596  70.859  1.00  0.00    -0.265 C  
BRANCH  38  39
HETATM   39  C   UNL     1     -10.516   9.960  70.163  1.00  0.00    -0.339 C  
BRANCH  39  40
HETATM   40  C   UNL     1     -10.096   9.855  68.697  1.00  0.00    -0.175 C  
HETATM   41  N   UNL     1     -11.242   9.939  67.798  1.00  0.00    -0.479 NA 
HETATM   42  H2  UNL     1     -11.788  10.783  67.969  1.00  0.00     0.000 HD 
HETATM   43  H1  UNL     1     -10.962   9.869  66.819  1.00  0.00     0.000 HD 
ENDBRANCH  39  40
ENDBRANCH  38  39
ENDBRANCH  37  38
ENDBRANCH  36  37
ENDBRANCH  33  36
ENDBRANCH  31  32
ENDBRANCH  30  31
ENDBRANCH  28  30
ENDBRANCH  25  26
ENDBRANCH  24  25
ENDBRANCH  23  24
ENDBRANCH  22  23
ENDBRANCH  21  22
ENDBRANCH  19  21
ENDBRANCH  16  17
ENDBRANCH  15  16
ENDBRANCH  12  15
ENDBRANCH  10  11
ENDBRANCH   9  10
ENDBRANCH   8   9
ENDBRANCH   7   8
ENDBRANCH   6   7
ENDBRANCH   3   6
TORSDOF 23
ENDMDL
MODEL      244
REMARK 921   NORMALIZED FREE ENERGY PREDICTED BY IDOCK:   -3.58 KCAL/MOL
REMARK 922        TOTAL FREE ENERGY PREDICTED BY IDOCK:  -11.15 KCAL/MOL
REMARK 923 INTER-LIGAND FREE ENERGY PREDICTED BY IDOCK:   -8.82 KCAL/MOL
REMARK 924 INTRA-LIGAND FREE ENERGY PREDICTED BY IDOCK:   -2.34 KCAL/MOL
REMARK 927      BINDING AFFINITY PREDICTED BY RF-SCORE:    0.00 PKD
ROOT
HETATM    1  C   UNL     1      -8.240  12.392  67.748  1.00  0.00    -0.163 C  
HETATM    2  C   UNL     1      -8.687  11.312  66.798  1.00  0.00    -0.166 C  
HETATM    3  N   UNL     1      -9.615  11.664  65.854  1.00  0.00    -0.225 N  
HETATM    4  O   UNL     1      -8.247  10.167  66.908  1.00  0.00    -0.120 OA 
HETATM    5  O   UNL     1     -10.024  12.985  65.602  1.00  0.00    -0.275 OA 
ENDROOT
BRANCH   3   6
HETATM    6  C   UNL     1     -10.157  10.731  64.875  1.00  0.00    -0.322 C  
BRANCH   6   7
HETATM    7  C   UNL     1      -9.327  10.685  63.591  1.00  0.00    -0.315 C  
BRANCH   7   8
HETATM    8  C   UNL     1      -8.842   9.260  63.319  1.00  0.00    -0.159 C  
BRANCH   8   9
HETATM    9  C   UNL     1      -7.358   9.084  63.649  1.00  0.00    -0.100 C  
BRANCH   9  10
HETATM   10  C   UNL     1      -6.693   8.019  62.777  1.00  0.00    -0.085 C  
BRANCH  10  11
HETATM   11  N   UNL     1      -7.594   6.923  62.453  1.00  0.00    -0.090 N  
HETATM   12  C   UNL     1      -7.614   5.772  63.207  1.00  0.00    -0.081 C  
HETATM   13  H   UNL     1      -8.221   7.010  61.654  1.00  0.00     0.000 HD 
HETATM   14  O   UNL     1      -6.924   5.596  64.208  1.00  0.00    -0.048 OA 
BRANCH  12  15
HETATM   15  C   UNL     1      -8.589   4.736  62.690  1.00  0.00    -0.114 C  
BRANCH  15  16
HETATM   16  C   UNL     1      -9.740   4.546  63.675  1.00  0.00     0.090 C  
BRANCH  16  17
HETATM   17  C   UNL     1      -9.398   3.566  64.781  1.00  0.00    -0.152 C  
HETATM   18  O   UNL     1      -8.915   2.464  64.528  1.00  0.00    -0.106 OA 
HETATM   19  N   UNL     1      -9.689   3.971  66.058  1.00  0.00    -0.194 N  
HETATM   20  O   UNL     1     -10.147   5.254  66.405  1.00  0.00    -0.185 OA 
BRANCH  19  21
HETATM   21  C   UNL     1      -9.496   3.133  67.233  1.00  0.00    -0.123 C  
BRANCH  21  22
HETATM   22  C   UNL     1      -8.643   3.816  68.305  1.00  0.00    -0.116 C  
BRANCH  22  23
HETATM   23  C   UNL     1      -9.406   4.047  69.623  1.00  0.00    -0.243 C  
BRANCH  23  24
HETATM   24  C   UNL     1      -9.699   5.522  69.901  1.00  0.00    -0.233 C  
BRANCH  24  25
HETATM   25  C   UNL     1     -11.156   5.870  69.607  1.00  0.00    -0.343 C  
BRANCH  25  26
HETATM   26  N   UNL     1     -11.495   7.198  70.079  1.00  0.00    -0.484 N  
HETATM   27  H   UNL     1     -11.111   8.009  69.594  1.00  0.00     0.000 HD 
HETATM   28  C   UNL     1     -12.319   7.394  71.162  1.00  0.00    -0.314 C  
HETATM   29  O   UNL     1     -12.840   6.479  71.791  1.00  0.00    -0.293 OA 
BRANCH  28  30
HETATM   30  C   UNL     1     -12.534   8.840  71.532  1.00  0.00    -0.374 C  
BRANCH  30  31
HETATM   31  C   UNL     1     -11.243   9.616  71.329  1.00  0.00    -0.446 C  
BRANCH  31  32
HETATM   32  C   UNL     1     -11.283  10.405  70.037  1.00  0.00    -0.316 C  
HETATM   33  N   UNL     1     -11.795  11.679  70.066  1.00  0.00    -0.344 N  
HETATM   34  O   UNL     1     -10.786   9.922  69.018  1.00  0.00    -0.218 OA 
HETATM   35  O   UNL     1     -12.710  12.040  71.073  1.00  0.00    -0.334 OA 
BRANCH  33  36
HETATM   36  C   UNL     1     -11.944  12.494  68.858  1.00  0.00    -0.236 C  
BRANCH  36  37
HETATM   37  C   UNL     1     -11.063  13.744  68.893  1.00  0.00    -0.300 C  
BRANCH  37  38
HETATM   38  C   UNL     1     -11.580  14.841  67.957  1.00  0.00    -0.367 C  
BRANCH  38  39
HETATM   39  C   UNL     1     -11.142  16.234  68.420  1.00  0.00    -0.362 C  
BRANCH  39  40
HETATM   40  C   UNL     1      -9.846  16.695  67.751  1.00  0.00    -0.252 C  
HETATM   41  N   UNL     1     -10.107  17.446  66.527  1.00  0.00    -0.308 NA 
HETATM   42  H2  UNL     1     -10.736  18.229  66.698  1.00  0.00     0.000 HD 
HETATM   43  H1  UNL     1      -9.243  17.753  66.080  1.00  0.00     0.000 HD 
ENDBRANCH  39  40
ENDBRANCH  38  39
ENDBRANCH  37  38
ENDBRANCH  36  37
ENDBRANCH  33  36
ENDBRANCH  31  32
ENDBRANCH  30  31
ENDBRANCH  28  30
ENDBRANCH  25  26
ENDBRANCH  24  25
ENDBRANCH  23  24
ENDBRANCH  22  23
ENDBRANCH  21  22
ENDBRANCH  19  21
ENDBRANCH  16  17
ENDBRANCH  15  16
ENDBRANCH  12  15
ENDBRANCH  10  11
ENDBRANCH   9  10
ENDBRANCH   8   9
ENDBRANCH   7   8
ENDBRANCH   6   7
ENDBRANCH   3   6
TORSDOF 23
ENDMDL
MODEL      245
REMARK 921   NORMALIZED FREE ENERGY PREDICTED BY IDOCK:   -3.58 KCAL/MOL
REMARK 922        TOTAL FREE ENERGY PREDICTED BY IDOCK:  -11.14 KCAL/MOL
REMARK 923 INTER-LIGAND FREE ENERGY PREDICTED BY IDOCK:   -8.66 KCAL/MOL
REMARK 924 INTRA-LIGAND FREE ENERGY PREDICTED BY IDOCK:   -2.47 KCAL/MOL
REMARK 927      BINDING AFFINITY PREDICTED BY RF-SCORE:    0.00 PKD
ROOT
HETATM    1  C   UNL     1      -6.731   8.459  67.498  1.00  0.00    -0.063 C  
HETATM    2  C   UNL     1      -6.527   7.170  66.747  1.00  0.00    -0.054 C  
HETATM    3  N   UNL     1      -6.831   7.178  65.410  1.00  0.00    -0.051 N  
HETATM    4  O   UNL     1      -6.137   6.162  67.337  1.00  0.00    -0.017 OA 
HETATM    5  O   UNL     1      -7.131   8.338  64.676  1.00  0.00    -0.077 OA 
ENDROOT
BRANCH   3   6
HETATM    6  C   UNL     1      -6.703   6.009  64.552  1.00  0.00    -0.046 C  
BRANCH   6   7
HETATM    7  C   UNL     1      -8.037   5.594  63.928  1.00  0.00    -0.122 C  
BRANCH   7   8
HETATM    8  C   UNL     1      -8.949   4.970  64.985  1.00  0.00    -0.131 C  
BRANCH   8   9
HETATM    9  C   UNL     1      -8.264   3.824  65.733  1.00  0.00    -0.105 C  
BRANCH   9  10
HETATM   10  C   UNL     1      -9.270   2.859  66.361  1.00  0.00    -0.099 C  
BRANCH  10  11
HETATM   11  N   UNL     1      -9.537   3.167  67.758  1.00  0.00    -0.262 N  
HETATM   12  C   UNL     1      -8.789   2.602  68.767  1.00  0.00    -0.105 C  
HETATM   13  H   UNL     1     -10.291   3.812  67.994  1.00  0.00     0.000 HD 
HETATM   14  O   UNL     1      -7.840   1.848  68.576  1.00  0.00    -0.052 OA 
BRANCH  12  15
HETATM   15  C   UNL     1      -9.245   3.016  70.151  1.00  0.00    -0.215 C  
BRANCH  15  16
HETATM   16  C   UNL     1      -9.756   4.454  70.137  1.00  0.00    -0.288 C  
BRANCH  16  17
HETATM   17  C   UNL     1      -9.806   5.063  71.525  1.00  0.00    -0.180 C  
HETATM   18  O   UNL     1     -10.641   4.698  72.350  1.00  0.00    -0.201 OA 
HETATM   19  N   UNL     1      -8.894   6.054  71.784  1.00  0.00    -0.138 N  
HETATM   20  O   UNL     1      -7.859   6.436  70.912  1.00  0.00    -0.103 OA 
BRANCH  19  21
HETATM   21  C   UNL     1      -8.846   6.798  73.034  1.00  0.00    -0.126 C  
BRANCH  21  22
HETATM   22  C   UNL     1      -9.008   8.306  72.824  1.00  0.00    -0.323 C  
BRANCH  22  23
HETATM   23  C   UNL     1     -10.237   8.663  71.966  1.00  0.00    -0.407 C  
BRANCH  23  24
HETATM   24  C   UNL     1      -9.882   9.429  70.691  1.00  0.00    -0.340 C  
BRANCH  24  25
HETATM   25  C   UNL     1     -10.764   9.006  69.518  1.00  0.00    -0.206 C  
BRANCH  25  26
HETATM   26  N   UNL     1     -10.453   9.756  68.317  1.00  0.00    -0.205 N  
HETATM   27  H   UNL     1      -9.596   9.540  67.807  1.00  0.00     0.000 HD 
HETATM   28  C   UNL     1     -11.280  10.748  67.847  1.00  0.00    -0.318 C  
HETATM   29  O   UNL     1     -12.338  11.060  68.385  1.00  0.00    -0.528 OA 
BRANCH  28  30
HETATM   30  C   UNL     1     -10.782  11.444  66.606  1.00  0.00    -0.316 C  
BRANCH  30  31
HETATM   31  C   UNL     1     -11.919  12.230  65.972  1.00  0.00    -0.342 C  
BRANCH  31  32
HETATM   32  C   UNL     1     -11.729  13.718  66.178  1.00  0.00    -0.370 C  
HETATM   33  N   UNL     1     -11.162  14.451  65.164  1.00  0.00    -0.341 N  
HETATM   34  O   UNL     1     -12.157  14.245  67.207  1.00  0.00    -0.411 OA 
HETATM   35  O   UNL     1     -10.323  13.815  64.230  1.00  0.00    -0.331 OA 
BRANCH  33  36
HETATM   36  C   UNL     1     -10.870  15.880  65.296  1.00  0.00    -0.387 C  
BRANCH  36  37
HETATM   37  C   UNL     1      -9.457  16.134  65.822  1.00  0.00    -0.254 C  
BRANCH  37  38
HETATM   38  C   UNL     1      -9.454  16.524  67.304  1.00  0.00    -0.237 C  
BRANCH  38  39
HETATM   39  C   UNL     1      -9.240  15.306  68.209  1.00  0.00    -0.189 C  
BRANCH  39  40
HETATM   40  C   UNL     1      -9.584  15.593  69.671  1.00  0.00    -0.260 C  
HETATM   41  N   UNL     1     -10.632  14.704  70.164  1.00  0.00    -0.465 NA 
HETATM   42  H2  UNL     1     -10.384  13.725  70.025  1.00  0.00     0.000 HD 
HETATM   43  H1  UNL     1     -10.861  14.895  71.140  1.00  0.00     0.000 HD 
ENDBRANCH  39  40
ENDBRANCH  38  39
ENDBRANCH  37  38
ENDBRANCH  36  37
ENDBRANCH  33  36
ENDBRANCH  31  32
ENDBRANCH  30  31
ENDBRANCH  28  30
ENDBRANCH  25  26
ENDBRANCH  24  25
ENDBRANCH  23  24
ENDBRANCH  22  23
ENDBRANCH  21  22
ENDBRANCH  19  21
ENDBRANCH  16  17
ENDBRANCH  15  16
ENDBRANCH  12  15
ENDBRANCH  10  11
ENDBRANCH   9  10
ENDBRANCH   8   9
ENDBRANCH   7   8
ENDBRANCH   6   7
ENDBRANCH   3   6
TORSDOF 23
ENDMDL
MODEL      246
REMARK 921   NORMALIZED FREE ENERGY PREDICTED BY IDOCK:   -3.57 KCAL/MOL
REMARK 922        TOTAL FREE ENERGY PREDICTED BY IDOCK:  -11.12 KCAL/MOL
REMARK 923 INTER-LIGAND FREE ENERGY PREDICTED BY IDOCK:   -9.22 KCAL/MOL
REMARK 924 INTRA-LIGAND FREE ENERGY PREDICTED BY IDOCK:   -1.91 KCAL/MOL
REMARK 927      BINDING AFFINITY PREDICTED BY RF-SCORE:    0.00 PKD
ROOT
HETATM    1  C   UNL     1     -10.976   2.363  72.980  1.00  0.00    -0.179 C  
HETATM    2  C   UNL     1      -9.781   3.201  72.608  1.00  0.00    -0.135 C  
HETATM    3  N   UNL     1      -8.637   3.004  73.335  1.00  0.00    -0.076 N  
HETATM    4  O   UNL     1      -9.865   4.039  71.709  1.00  0.00    -0.165 OA 
HETATM    5  O   UNL     1      -8.458   1.961  74.259  1.00  0.00    -0.056 OA 
ENDROOT
BRANCH   3   6
HETATM    6  C   UNL     1      -7.404   3.746  73.107  1.00  0.00    -0.064 C  
BRANCH   6   7
HETATM    7  C   UNL     1      -7.214   4.884  74.112  1.00  0.00    -0.082 C  
BRANCH   7   8
HETATM    8  C   UNL     1      -5.877   5.589  73.874  1.00  0.00    -0.047 C  
BRANCH   8   9
HETATM    9  C   UNL     1      -5.850   6.992  74.483  1.00  0.00    -0.070 C  
BRANCH   9  10
HETATM   10  C   UNL     1      -7.202   7.699  74.373  1.00  0.00    -0.125 C  
BRANCH  10  11
HETATM   11  N   UNL     1      -7.436   8.245  73.044  1.00  0.00    -0.127 N  
HETATM   12  C   UNL     1      -8.708   8.339  72.527  1.00  0.00    -0.217 C  
HETATM   13  H   UNL     1      -6.643   8.563  72.487  1.00  0.00     0.000 HD 
HETATM   14  O   UNL     1      -9.722   8.018  73.140  1.00  0.00    -0.277 OA 
BRANCH  12  15
HETATM   15  C   UNL     1      -8.741   8.897  71.120  1.00  0.00    -0.280 C  
BRANCH  15  16
HETATM   16  C   UNL     1     -10.117   8.686  70.493  1.00  0.00    -0.228 C  
BRANCH  16  17
HETATM   17  C   UNL     1     -10.957   9.948  70.505  1.00  0.00    -0.326 C  
HETATM   18  O   UNL     1     -11.726  10.192  71.433  1.00  0.00    -0.360 OA 
HETATM   19  N   UNL     1     -10.830  10.769  69.414  1.00  0.00    -0.230 N  
HETATM   20  O   UNL     1      -9.897  10.585  68.379  1.00  0.00    -0.152 OA 
BRANCH  19  21
HETATM   21  C   UNL     1     -11.612  11.982  69.223  1.00  0.00    -0.321 C  
BRANCH  21  22
HETATM   22  C   UNL     1     -11.973  12.220  67.754  1.00  0.00    -0.229 C  
BRANCH  22  23
HETATM   23  C   UNL     1     -12.098  13.714  67.401  1.00  0.00    -0.375 C  
BRANCH  23  24
HETATM   24  C   UNL     1     -12.361  13.964  65.916  1.00  0.00    -0.517 C  
BRANCH  24  25
HETATM   25  C   UNL     1     -11.323  14.908  65.313  1.00  0.00    -0.358 C  
BRANCH  25  26
HETATM   26  N   UNL     1     -10.833  15.858  66.291  1.00  0.00    -0.254 N  
HETATM   27  H   UNL     1     -10.609  15.530  67.231  1.00  0.00     0.000 HD 
HETATM   28  C   UNL     1     -10.661  17.188  65.989  1.00  0.00    -0.204 C  
HETATM   29  O   UNL     1     -10.886  17.665  64.880  1.00  0.00    -0.831 OA 
BRANCH  28  30
HETATM   30  C   UNL     1     -10.175  18.035  67.136  1.00  0.00    -0.366 C  
BRANCH  30  31
HETATM   31  C   UNL     1      -9.091  18.982  66.648  1.00  0.00    -0.346 C  
BRANCH  31  32
HETATM   32  C   UNL     1      -7.799  18.236  66.387  1.00  0.00    -0.260 C  
HETATM   33  N   UNL     1      -7.158  17.648  67.450  1.00  0.00    -0.167 N  
HETATM   34  O   UNL     1      -7.400  18.105  65.228  1.00  0.00    -0.408 OA 
HETATM   35  O   UNL     1      -7.367  18.144  68.751  1.00  0.00    -0.274 OA 
BRANCH  33  36
HETATM   36  C   UNL     1      -5.868  16.968  67.312  1.00  0.00    -0.158 C  
BRANCH  36  37
HETATM   37  C   UNL     1      -5.656  15.909  68.395  1.00  0.00    -0.109 C  
BRANCH  37  38
HETATM   38  C   UNL     1      -6.580  14.701  68.211  1.00  0.00    -0.118 C  
BRANCH  38  39
HETATM   39  C   UNL     1      -7.610  14.599  69.340  1.00  0.00    -0.081 C  
BRANCH  39  40
HETATM   40  C   UNL     1      -9.044  14.795  68.848  1.00  0.00    -0.168 C  
HETATM   41  N   UNL     1      -9.947  15.144  69.940  1.00  0.00    -0.471 NA 
HETATM   42  H2  UNL     1      -9.614  15.962  70.450  1.00  0.00     0.000 HD 
HETATM   43  H1  UNL     1     -10.905  15.275  69.612  1.00  0.00     0.000 HD 
ENDBRANCH  39  40
ENDBRANCH  38  39
ENDBRANCH  37  38
ENDBRANCH  36  37
ENDBRANCH  33  36
ENDBRANCH  31  32
ENDBRANCH  30  31
ENDBRANCH  28  30
ENDBRANCH  25  26
ENDBRANCH  24  25
ENDBRANCH  23  24
ENDBRANCH  22  23
ENDBRANCH  21  22
ENDBRANCH  19  21
ENDBRANCH  16  17
ENDBRANCH  15  16
ENDBRANCH  12  15
ENDBRANCH  10  11
ENDBRANCH   9  10
ENDBRANCH   8   9
ENDBRANCH   7   8
ENDBRANCH   6   7
ENDBRANCH   3   6
TORSDOF 23
ENDMDL
MODEL      247
REMARK 921   NORMALIZED FREE ENERGY PREDICTED BY IDOCK:   -3.54 KCAL/MOL
REMARK 922        TOTAL FREE ENERGY PREDICTED BY IDOCK:  -11.06 KCAL/MOL
REMARK 923 INTER-LIGAND FREE ENERGY PREDICTED BY IDOCK:   -8.67 KCAL/MOL
REMARK 924 INTRA-LIGAND FREE ENERGY PREDICTED BY IDOCK:   -2.39 KCAL/MOL
REMARK 927      BINDING AFFINITY PREDICTED BY RF-SCORE:    0.00 PKD
ROOT
HETATM    1  C   UNL     1     -12.266   8.188  72.129  1.00  0.00    -0.398 C  
HETATM    2  C   UNL     1     -11.535   7.478  71.020  1.00  0.00    -0.278 C  
HETATM    3  N   UNL     1     -10.380   8.061  70.568  1.00  0.00    -0.200 N  
HETATM    4  O   UNL     1     -11.993   6.441  70.538  1.00  0.00    -0.341 OA 
HETATM    5  O   UNL     1      -9.750   9.153  71.189  1.00  0.00    -0.269 OA 
ENDROOT
BRANCH   3   6
HETATM    6  C   UNL     1      -9.569   7.506  69.493  1.00  0.00    -0.156 C  
BRANCH   6   7
HETATM    7  C   UNL     1      -9.807   8.213  68.158  1.00  0.00    -0.194 C  
BRANCH   7   8
HETATM    8  C   UNL     1     -10.570   7.299  67.197  1.00  0.00    -0.416 C  
BRANCH   8   9
HETATM    9  C   UNL     1      -9.836   5.980  66.952  1.00  0.00    -0.190 C  
BRANCH   9  10
HETATM   10  C   UNL     1     -10.646   5.018  66.083  1.00  0.00    -0.265 C  
BRANCH  10  11
HETATM   11  N   UNL     1      -9.974   4.698  64.832  1.00  0.00    -0.376 N  
HETATM   12  C   UNL     1      -9.499   3.429  64.583  1.00  0.00    -0.154 C  
HETATM   13  H   UNL     1      -9.852   5.426  64.129  1.00  0.00     0.000 HD 
HETATM   14  O   UNL     1      -9.636   2.484  65.354  1.00  0.00    -0.021 OA 
BRANCH  12  15
HETATM   15  C   UNL     1      -8.798   3.306  63.247  1.00  0.00    -0.092 C  
BRANCH  15  16
HETATM   16  C   UNL     1      -7.340   2.900  63.445  1.00  0.00    -0.053 C  
BRANCH  16  17
HETATM   17  C   UNL     1      -6.590   3.859  64.349  1.00  0.00    -0.043 C  
HETATM   18  O   UNL     1      -6.402   3.598  65.536  1.00  0.00    -0.030 OA 
HETATM   19  N   UNL     1      -6.172   5.031  63.774  1.00  0.00    -0.022 N  
HETATM   20  O   UNL     1      -6.276   5.331  62.404  1.00  0.00    -0.017 OA 
BRANCH  19  21
HETATM   21  C   UNL     1      -5.505   6.096  64.508  1.00  0.00    -0.018 C  
BRANCH  21  22
HETATM   22  C   UNL     1      -6.457   7.237  64.879  1.00  0.00    -0.037 C  
BRANCH  22  23
HETATM   23  C   UNL     1      -5.868   8.629  64.586  1.00  0.00    -0.064 C  
BRANCH  23  24
HETATM   24  C   UNL     1      -6.879   9.595  63.966  1.00  0.00    -0.113 C  
BRANCH  24  25
HETATM   25  C   UNL     1      -7.619  10.395  65.036  1.00  0.00    -0.086 C  
BRANCH  25  26
HETATM   26  N   UNL     1      -8.657  11.226  64.460  1.00  0.00    -0.344 N  
HETATM   27  H   UNL     1      -8.395  11.964  63.806  1.00  0.00     0.000 HD 
HETATM   28  C   UNL     1      -9.984  11.048  64.771  1.00  0.00    -0.294 C  
HETATM   29  O   UNL     1     -10.391  10.175  65.531  1.00  0.00    -0.248 OA 
BRANCH  28  30
HETATM   30  C   UNL     1     -10.921  12.024  64.106  1.00  0.00    -0.418 C  
BRANCH  30  31
HETATM   31  C   UNL     1     -10.569  13.440  64.534  1.00  0.00    -0.441 C  
BRANCH  31  32
HETATM   32  C   UNL     1     -10.617  13.577  66.041  1.00  0.00    -0.285 C  
HETATM   33  N   UNL     1     -11.839  13.758  66.643  1.00  0.00    -0.388 N  
HETATM   34  O   UNL     1      -9.579  13.443  66.693  1.00  0.00    -0.257 OA 
HETATM   35  O   UNL     1     -12.901  14.319  65.909  1.00  0.00    -0.434 OA 
BRANCH  33  36
HETATM   36  C   UNL     1     -11.981  13.972  68.084  1.00  0.00    -0.347 C  
BRANCH  36  37
HETATM   37  C   UNL     1     -11.830  15.446  68.466  1.00  0.00    -0.293 C  
BRANCH  37  38
HETATM   38  C   UNL     1     -10.765  15.657  69.548  1.00  0.00    -0.271 C  
BRANCH  38  39
HETATM   39  C   UNL     1      -9.507  16.321  68.981  1.00  0.00    -0.258 C  
BRANCH  39  40
HETATM   40  C   UNL     1      -8.234  15.531  69.292  1.00  0.00    -0.255 C  
HETATM   41  N   UNL     1      -8.474  14.092  69.278  1.00  0.00    -0.307 NA 
HETATM   42  H2  UNL     1      -8.891  13.793  68.397  1.00  0.00     0.000 HD 
HETATM   43  H1  UNL     1      -7.625  13.565  69.485  1.00  0.00     0.000 HD 
ENDBRANCH  39  40
ENDBRANCH  38  39
ENDBRANCH  37  38
ENDBRANCH  36  37
ENDBRANCH  33  36
ENDBRANCH  31  32
ENDBRANCH  30  31
ENDBRANCH  28  30
ENDBRANCH  25  26
ENDBRANCH  24  25
ENDBRANCH  23  24
ENDBRANCH  22  23
ENDBRANCH  21  22
ENDBRANCH  19  21
ENDBRANCH  16  17
ENDBRANCH  15  16
ENDBRANCH  12  15
ENDBRANCH  10  11
ENDBRANCH   9  10
ENDBRANCH   8   9
ENDBRANCH   7   8
ENDBRANCH   6   7
ENDBRANCH   3   6
TORSDOF 23
ENDMDL
MODEL      248
REMARK 921   NORMALIZED FREE ENERGY PREDICTED BY IDOCK:   -3.54 KCAL/MOL
REMARK 922        TOTAL FREE ENERGY PREDICTED BY IDOCK:  -11.05 KCAL/MOL
REMARK 923 INTER-LIGAND FREE ENERGY PREDICTED BY IDOCK:   -9.12 KCAL/MOL
REMARK 924 INTRA-LIGAND FREE ENERGY PREDICTED BY IDOCK:   -1.93 KCAL/MOL
REMARK 927      BINDING AFFINITY PREDICTED BY RF-SCORE:    0.00 PKD
ROOT
HETATM    1  C   UNL     1      -6.961  18.358  66.014  1.00  0.00    -0.310 C  
HETATM    2  C   UNL     1      -7.392  17.314  67.011  1.00  0.00    -0.185 C  
HETATM    3  N   UNL     1      -6.483  16.333  67.311  1.00  0.00    -0.177 N  
HETATM    4  O   UNL     1      -8.525  17.345  67.493  1.00  0.00    -0.210 OA 
HETATM    5  O   UNL     1      -5.139  16.349  66.901  1.00  0.00    -0.324 OA 
ENDROOT
BRANCH   3   6
HETATM    6  C   UNL     1      -6.754  15.246  68.242  1.00  0.00    -0.121 C  
BRANCH   6   7
HETATM    7  C   UNL     1      -7.261  13.987  67.536  1.00  0.00    -0.183 C  
BRANCH   7   8
HETATM    8  C   UNL     1      -7.403  12.836  68.534  1.00  0.00    -0.115 C  
BRANCH   8   9
HETATM    9  C   UNL     1      -6.546  13.048  69.783  1.00  0.00     0.069 C  
BRANCH   9  10
HETATM   10  C   UNL     1      -5.633  11.855  70.069  1.00  0.00    -0.124 C  
BRANCH  10  11
HETATM   11  N   UNL     1      -5.967  10.693  69.260  1.00  0.00    -0.041 N  
HETATM   12  C   UNL     1      -6.603   9.602  69.808  1.00  0.00    -0.055 C  
HETATM   13  H   UNL     1      -5.726  10.687  68.269  1.00  0.00     0.000 HD 
HETATM   14  O   UNL     1      -6.965   9.538  70.980  1.00  0.00    -0.227 OA 
BRANCH  12  15
HETATM   15  C   UNL     1      -6.829   8.481  68.816  1.00  0.00    -0.062 C  
BRANCH  15  16
HETATM   16  C   UNL     1      -8.317   8.330  68.510  1.00  0.00    -0.129 C  
BRANCH  16  17
HETATM   17  C   UNL     1      -8.678   8.840  67.128  1.00  0.00    -0.120 C  
HETATM   18  O   UNL     1      -8.055   8.475  66.133  1.00  0.00    -0.099 OA 
HETATM   19  N   UNL     1      -9.706   9.745  67.067  1.00  0.00    -0.175 N  
HETATM   20  O   UNL     1     -10.509  10.117  68.159  1.00  0.00    -0.181 OA 
BRANCH  19  21
HETATM   21  C   UNL     1     -10.137  10.393  65.837  1.00  0.00    -0.261 C  
BRANCH  21  22
HETATM   22  C   UNL     1     -11.198  11.469  66.084  1.00  0.00    -0.265 C  
BRANCH  22  23
HETATM   23  C   UNL     1     -11.405  12.397  64.873  1.00  0.00    -0.361 C  
BRANCH  23  24
HETATM   24  C   UNL     1     -12.441  13.494  65.122  1.00  0.00    -0.495 C  
BRANCH  24  25
HETATM   25  C   UNL     1     -11.880  14.606  66.006  1.00  0.00    -0.276 C  
BRANCH  25  26
HETATM   26  N   UNL     1     -12.511  14.622  67.310  1.00  0.00    -0.431 N  
HETATM   27  H   UNL     1     -13.501  14.388  67.384  1.00  0.00     0.000 HD 
HETATM   28  C   UNL     1     -11.813  14.945  68.450  1.00  0.00    -0.278 C  
HETATM   29  O   UNL     1     -10.617  15.220  68.457  1.00  0.00    -0.228 OA 
BRANCH  28  30
HETATM   30  C   UNL     1     -12.637  14.944  69.712  1.00  0.00    -0.147 C  
BRANCH  30  31
HETATM   31  C   UNL     1     -11.936  14.116  70.777  1.00  0.00    -0.377 C  
BRANCH  31  32
HETATM   32  C   UNL     1     -11.947  12.646  70.415  1.00  0.00    -0.248 C  
HETATM   33  N   UNL     1     -12.876  11.832  71.015  1.00  0.00    -0.271 N  
HETATM   34  O   UNL     1     -11.184  12.234  69.538  1.00  0.00    -0.208 OA 
HETATM   35  O   UNL     1     -13.418  12.194  72.263  1.00  0.00    -0.491 OA 
BRANCH  33  36
HETATM   36  C   UNL     1     -12.920  10.386  70.785  1.00  0.00    -0.341 C  
BRANCH  36  37
HETATM   37  C   UNL     1     -12.222   9.604  71.899  1.00  0.00    -0.413 C  
BRANCH  37  38
HETATM   38  C   UNL     1     -11.822   8.194  71.451  1.00  0.00    -0.329 C  
BRANCH  38  39
HETATM   39  C   UNL     1     -11.309   7.352  72.623  1.00  0.00    -0.360 C  
BRANCH  39  40
HETATM   40  C   UNL     1     -11.887   5.936  72.627  1.00  0.00    -0.141 C  
HETATM   41  N   UNL     1     -11.300   5.116  73.682  1.00  0.00    -0.429 NA 
HETATM   42  H2  UNL     1     -11.397   5.559  74.595  1.00  0.00     0.000 HD 
HETATM   43  H1  UNL     1     -11.685   4.171  73.685  1.00  0.00     0.000 HD 
ENDBRANCH  39  40
ENDBRANCH  38  39
ENDBRANCH  37  38
ENDBRANCH  36  37
ENDBRANCH  33  36
ENDBRANCH  31  32
ENDBRANCH  30  31
ENDBRANCH  28  30
ENDBRANCH  25  26
ENDBRANCH  24  25
ENDBRANCH  23  24
ENDBRANCH  22  23
ENDBRANCH  21  22
ENDBRANCH  19  21
ENDBRANCH  16  17
ENDBRANCH  15  16
ENDBRANCH  12  15
ENDBRANCH  10  11
ENDBRANCH   9  10
ENDBRANCH   8   9
ENDBRANCH   7   8
ENDBRANCH   6   7
ENDBRANCH   3   6
TORSDOF 23
ENDMDL
MODEL      249
REMARK 921   NORMALIZED FREE ENERGY PREDICTED BY IDOCK:   -3.52 KCAL/MOL
REMARK 922        TOTAL FREE ENERGY PREDICTED BY IDOCK:  -11.01 KCAL/MOL
REMARK 923 INTER-LIGAND FREE ENERGY PREDICTED BY IDOCK:   -8.65 KCAL/MOL
REMARK 924 INTRA-LIGAND FREE ENERGY PREDICTED BY IDOCK:   -2.37 KCAL/MOL
REMARK 927      BINDING AFFINITY PREDICTED BY RF-SCORE:    0.00 PKD
ROOT
HETATM    1  C   UNL     1     -11.998   6.933  71.028  1.00  0.00    -0.422 C  
HETATM    2  C   UNL     1     -11.111   7.717  70.097  1.00  0.00    -0.218 C  
HETATM    3  N   UNL     1     -10.491   8.823  70.617  1.00  0.00    -0.200 N  
HETATM    4  O   UNL     1     -10.991   7.376  68.919  1.00  0.00    -0.110 OA 
HETATM    5  O   UNL     1     -10.482   9.154  71.982  1.00  0.00    -0.322 OA 
ENDROOT
BRANCH   3   6
HETATM    6  C   UNL     1      -9.616   9.691  69.841  1.00  0.00    -0.230 C  
BRANCH   6   7
HETATM    7  C   UNL     1      -8.149   9.560  70.255  1.00  0.00    -0.200 C  
BRANCH   7   8
HETATM    8  C   UNL     1      -7.366   8.768  69.206  1.00  0.00    -0.070 C  
BRANCH   8   9
HETATM    9  C   UNL     1      -5.985   8.350  69.714  1.00  0.00    -0.028 C  
BRANCH   9  10
HETATM   10  C   UNL     1      -6.040   7.083  70.568  1.00  0.00    -0.027 C  
BRANCH  10  11
HETATM   11  N   UNL     1      -6.220   5.880  69.768  1.00  0.00    -0.026 N  
HETATM   12  C   UNL     1      -7.413   5.194  69.773  1.00  0.00    -0.061 C  
HETATM   13  H   UNL     1      -5.448   5.541  69.195  1.00  0.00     0.000 HD 
HETATM   14  O   UNL     1      -8.406   5.551  70.400  1.00  0.00    -0.107 OA 
BRANCH  12  15
HETATM   15  C   UNL     1      -7.390   3.951  68.909  1.00  0.00    -0.054 C  
BRANCH  15  16
HETATM   16  C   UNL     1      -8.227   4.160  67.649  1.00  0.00    -0.095 C  
BRANCH  16  17
HETATM   17  C   UNL     1      -7.617   5.184  66.712  1.00  0.00    -0.088 C  
HETATM   18  O   UNL     1      -6.403   5.229  66.523  1.00  0.00    -0.034 OA 
HETATM   19  N   UNL     1      -8.490   6.063  66.125  1.00  0.00    -0.129 N  
HETATM   20  O   UNL     1      -9.890   5.990  66.231  1.00  0.00    -0.141 OA 
BRANCH  19  21
HETATM   21  C   UNL     1      -8.073   7.155  65.258  1.00  0.00    -0.134 C  
BRANCH  21  22
HETATM   22  C   UNL     1      -8.277   8.527  65.906  1.00  0.00    -0.125 C  
BRANCH  22  23
HETATM   23  C   UNL     1      -9.427   9.328  65.267  1.00  0.00    -0.234 C  
BRANCH  23  24
HETATM   24  C   UNL     1      -9.118   9.802  63.846  1.00  0.00    -0.275 C  
BRANCH  24  25
HETATM   25  C   UNL     1     -10.156  10.807  63.352  1.00  0.00    -0.284 C  
BRANCH  25  26
HETATM   26  N   UNL     1     -10.599  11.686  64.416  1.00  0.00    -0.300 N  
HETATM   27  H   UNL     1      -9.992  11.832  65.223  1.00  0.00     0.000 HD 
HETATM   28  C   UNL     1     -11.814  12.328  64.368  1.00  0.00    -0.388 C  
HETATM   29  O   UNL     1     -12.597  12.226  63.429  1.00  0.00    -0.682 OA 
BRANCH  28  30
HETATM   30  C   UNL     1     -12.124  13.174  65.576  1.00  0.00    -0.490 C  
BRANCH  30  31
HETATM   31  C   UNL     1     -11.456  14.532  65.432  1.00  0.00    -0.348 C  
BRANCH  31  32
HETATM   32  C   UNL     1     -10.197  14.607  66.269  1.00  0.00    -0.292 C  
HETATM   33  N   UNL     1     -10.012  15.704  67.075  1.00  0.00    -0.237 N  
HETATM   34  O   UNL     1      -9.415  13.654  66.271  1.00  0.00    -0.260 OA 
HETATM   35  O   UNL     1     -10.649  16.919  66.756  1.00  0.00    -0.290 OA 
BRANCH  33  36
HETATM   36  C   UNL     1      -8.795  15.903  67.866  1.00  0.00    -0.179 C  
BRANCH  36  37
HETATM   37  C   UNL     1      -8.956  15.412  69.306  1.00  0.00    -0.261 C  
BRANCH  37  38
HETATM   38  C   UNL     1     -10.333  14.786  69.551  1.00  0.00    -0.127 C  
BRANCH  38  39
HETATM   39  C   UNL     1     -11.344  15.823  70.052  1.00  0.00    -0.354 C  
BRANCH  39  40
HETATM   40  C   UNL     1     -12.568  15.181  70.708  1.00  0.00    -0.393 C  
HETATM   41  N   UNL     1     -13.011  15.934  71.877  1.00  0.00    -0.431 NA 
HETATM   42  H2  UNL     1     -13.183  16.912  71.646  1.00  0.00     0.000 HD 
HETATM   43  H1  UNL     1     -13.828  15.506  72.315  1.00  0.00     0.000 HD 
ENDBRANCH  39  40
ENDBRANCH  38  39
ENDBRANCH  37  38
ENDBRANCH  36  37
ENDBRANCH  33  36
ENDBRANCH  31  32
ENDBRANCH  30  31
ENDBRANCH  28  30
ENDBRANCH  25  26
ENDBRANCH  24  25
ENDBRANCH  23  24
ENDBRANCH  22  23
ENDBRANCH  21  22
ENDBRANCH  19  21
ENDBRANCH  16  17
ENDBRANCH  15  16
ENDBRANCH  12  15
ENDBRANCH  10  11
ENDBRANCH   9  10
ENDBRANCH   8   9
ENDBRANCH   7   8
ENDBRANCH   6   7
ENDBRANCH   3   6
TORSDOF 23
ENDMDL
MODEL      250
REMARK 921   NORMALIZED FREE ENERGY PREDICTED BY IDOCK:   -3.52 KCAL/MOL
REMARK 922        TOTAL FREE ENERGY PREDICTED BY IDOCK:  -11.00 KCAL/MOL
REMARK 923 INTER-LIGAND FREE ENERGY PREDICTED BY IDOCK:   -8.46 KCAL/MOL
REMARK 924 INTRA-LIGAND FREE ENERGY PREDICTED BY IDOCK:   -2.54 KCAL/MOL
REMARK 927      BINDING AFFINITY PREDICTED BY RF-SCORE:    0.00 PKD
ROOT
HETATM    1  C   UNL     1      -8.638   7.781  66.128  1.00  0.00    -0.164 C  
HETATM    2  C   UNL     1      -8.196   6.580  66.922  1.00  0.00    -0.113 C  
HETATM    3  N   UNL     1      -7.912   5.441  66.215  1.00  0.00    -0.104 N  
HETATM    4  O   UNL     1      -8.134   6.636  68.151  1.00  0.00    -0.109 OA 
HETATM    5  O   UNL     1      -7.825   5.382  64.814  1.00  0.00    -0.091 OA 
ENDROOT
BRANCH   3   6
HETATM    6  C   UNL     1      -7.488   4.195  66.839  1.00  0.00    -0.077 C  
BRANCH   6   7
HETATM    7  C   UNL     1      -8.575   3.119  66.789  1.00  0.00    -0.121 C  
BRANCH   7   8
HETATM    8  C   UNL     1      -9.532   3.271  67.973  1.00  0.00    -0.217 C  
BRANCH   8   9
HETATM    9  C   UNL     1      -9.525   2.040  68.881  1.00  0.00    -0.174 C  
BRANCH   9  10
HETATM   10  C   UNL     1      -8.849   2.315  70.225  1.00  0.00    -0.077 C  
BRANCH  10  11
HETATM   11  N   UNL     1      -8.812   3.734  70.548  1.00  0.00    -0.077 N  
HETATM   12  C   UNL     1      -7.868   4.243  71.412  1.00  0.00    -0.080 C  
HETATM   13  H   UNL     1      -9.497   4.361  70.128  1.00  0.00     0.000 HD 
HETATM   14  O   UNL     1      -6.982   3.570  71.933  1.00  0.00    -0.029 OA 
BRANCH  12  15
HETATM   15  C   UNL     1      -8.018   5.730  71.651  1.00  0.00    -0.117 C  
BRANCH  15  16
HETATM   16  C   UNL     1      -8.832   5.989  72.916  1.00  0.00    -0.122 C  
BRANCH  16  17
HETATM   17  C   UNL     1     -10.215   6.532  72.613  1.00  0.00    -0.186 C  
HETATM   18  O   UNL     1     -11.162   5.777  72.401  1.00  0.00    -0.264 OA 
HETATM   19  N   UNL     1     -10.331   7.897  72.561  1.00  0.00    -0.260 N  
HETATM   20  O   UNL     1      -9.305   8.800  72.892  1.00  0.00    -0.242 OA 
BRANCH  19  21
HETATM   21  C   UNL     1     -11.563   8.589  72.212  1.00  0.00    -0.374 C  
BRANCH  21  22
HETATM   22  C   UNL     1     -11.799   8.636  70.700  1.00  0.00    -0.122 C  
BRANCH  22  23
HETATM   23  C   UNL     1     -10.491   8.629  69.887  1.00  0.00    -0.221 C  
BRANCH  23  24
HETATM   24  C   UNL     1     -10.482   9.649  68.747  1.00  0.00    -0.238 C  
BRANCH  24  25
HETATM   25  C   UNL     1      -9.811  10.955  69.168  1.00  0.00    -0.145 C  
BRANCH  25  26
HETATM   26  N   UNL     1     -10.514  12.110  68.648  1.00  0.00    -0.266 N  
HETATM   27  H   UNL     1     -10.261  12.471  67.728  1.00  0.00     0.000 HD 
HETATM   28  C   UNL     1     -11.513  12.732  69.359  1.00  0.00    -0.257 C  
HETATM   29  O   UNL     1     -11.895  12.354  70.462  1.00  0.00    -0.272 OA 
BRANCH  28  30
HETATM   30  C   UNL     1     -12.110  13.937  68.679  1.00  0.00    -0.337 C  
BRANCH  30  31
HETATM   31  C   UNL     1     -11.021  14.694  67.934  1.00  0.00    -0.283 C  
BRANCH  31  32
HETATM   32  C   UNL     1     -10.755  16.036  68.582  1.00  0.00    -0.281 C  
HETATM   33  N   UNL     1     -10.668  17.145  67.776  1.00  0.00    -0.355 N  
HETATM   34  O   UNL     1     -10.706  16.114  69.811  1.00  0.00    -0.292 OA 
HETATM   35  O   UNL     1     -10.306  16.997  66.424  1.00  0.00    -0.315 OA 
BRANCH  33  36
HETATM   36  C   UNL     1     -10.342  18.474  68.300  1.00  0.00    -0.344 C  
BRANCH  36  37
HETATM   37  C   UNL     1     -10.219  19.517  67.188  1.00  0.00    -0.542 C  
BRANCH  37  38
HETATM   38  C   UNL     1      -8.809  20.111  67.108  1.00  0.00    -0.446 C  
BRANCH  38  39
HETATM   39  C   UNL     1      -7.977  19.446  66.008  1.00  0.00    -0.280 C  
BRANCH  39  40
HETATM   40  C   UNL     1      -6.933  18.477  66.564  1.00  0.00    -0.213 C  
HETATM   41  N   UNL     1      -7.387  17.092  66.489  1.00  0.00    -0.257 NA 
HETATM   42  H2  UNL     1      -7.658  16.841  65.539  1.00  0.00     0.000 HD 
HETATM   43  H1  UNL     1      -6.691  16.445  66.861  1.00  0.00     0.000 HD 
ENDBRANCH  39  40
ENDBRANCH  38  39
ENDBRANCH  37  38
ENDBRANCH  36  37
ENDBRANCH  33  36
ENDBRANCH  31  32
ENDBRANCH  30  31
ENDBRANCH  28  30
ENDBRANCH  25  26
ENDBRANCH  24  25
ENDBRANCH  23  24
ENDBRANCH  22  23
ENDBRANCH  21  22
ENDBRANCH  19  21
ENDBRANCH  16  17
ENDBRANCH  15  16
ENDBRANCH  12  15
ENDBRANCH  10  11
ENDBRANCH   9  10
ENDBRANCH   8   9
ENDBRANCH   7   8
ENDBRANCH   6   7
ENDBRANCH   3   6
TORSDOF 23
ENDMDL
MODEL      251
REMARK 921   NORMALIZED FREE ENERGY PREDICTED BY IDOCK:   -3.52 KCAL/MOL
REMARK 922        TOTAL FREE ENERGY PREDICTED BY IDOCK:  -11.00 KCAL/MOL
REMARK 923 INTER-LIGAND FREE ENERGY PREDICTED BY IDOCK:   -7.68 KCAL/MOL
REMARK 924 INTRA-LIGAND FREE ENERGY PREDICTED BY IDOCK:   -3.32 KCAL/MOL
REMARK 927      BINDING AFFINITY PREDICTED BY RF-SCORE:    0.00 PKD
ROOT
HETATM    1  C   UNL     1     -12.140  15.347  70.050  1.00  0.00    -0.388 C  
HETATM    2  C   UNL     1     -11.682  15.302  68.615  1.00  0.00    -0.346 C  
HETATM    3  N   UNL     1     -10.853  16.311  68.199  1.00  0.00    -0.330 N  
HETATM    4  O   UNL     1     -12.075  14.408  67.865  1.00  0.00    -0.334 OA 
HETATM    5  O   UNL     1     -10.265  17.256  69.058  1.00  0.00    -0.316 OA 
ENDROOT
BRANCH   3   6
HETATM    6  C   UNL     1     -10.337  16.416  66.841  1.00  0.00    -0.300 C  
BRANCH   6   7
HETATM    7  C   UNL     1      -8.859  16.032  66.747  1.00  0.00    -0.288 C  
BRANCH   7   8
HETATM    8  C   UNL     1      -8.659  14.570  67.151  1.00  0.00    -0.242 C  
BRANCH   8   9
HETATM    9  C   UNL     1      -7.204  14.267  67.515  1.00  0.00    -0.197 C  
BRANCH   9  10
HETATM   10  C   UNL     1      -6.835  12.806  67.257  1.00  0.00    -0.080 C  
BRANCH  10  11
HETATM   11  N   UNL     1      -7.913  12.064  66.620  1.00  0.00    -0.370 N  
HETATM   12  C   UNL     1      -7.683  10.844  66.024  1.00  0.00    -0.107 C  
HETATM   13  H   UNL     1      -8.855  12.455  66.616  1.00  0.00     0.000 HD 
HETATM   14  O   UNL     1      -6.592  10.281  66.016  1.00  0.00    -0.093 OA 
BRANCH  12  15
HETATM   15  C   UNL     1      -8.920  10.250  65.385  1.00  0.00    -0.205 C  
BRANCH  15  16
HETATM   16  C   UNL     1     -10.179  10.761  66.080  1.00  0.00    -0.310 C  
BRANCH  16  17
HETATM   17  C   UNL     1     -10.567   9.910  67.274  1.00  0.00    -0.252 C  
HETATM   18  O   UNL     1     -10.891   8.732  67.136  1.00  0.00    -0.209 OA 
HETATM   19  N   UNL     1     -10.563  10.540  68.492  1.00  0.00    -0.192 N  
HETATM   20  O   UNL     1     -10.107  11.851  68.712  1.00  0.00    -0.198 OA 
BRANCH  19  21
HETATM   21  C   UNL     1     -10.978   9.899  69.731  1.00  0.00    -0.268 C  
BRANCH  21  22
HETATM   22  C   UNL     1      -9.906   8.959  70.290  1.00  0.00    -0.211 C  
BRANCH  22  23
HETATM   23  C   UNL     1      -9.880   8.927  71.830  1.00  0.00    -0.364 C  
BRANCH  23  24
HETATM   24  C   UNL     1      -8.650   8.219  72.399  1.00  0.00    -0.270 C  
BRANCH  24  25
HETATM   25  C   UNL     1      -7.357   8.785  71.816  1.00  0.00    -0.041 C  
BRANCH  25  26
HETATM   26  N   UNL     1      -6.695   7.828  70.953  1.00  0.00    -0.038 N  
HETATM   27  H   UNL     1      -6.518   6.886  71.303  1.00  0.00     0.000 HD 
HETATM   28  C   UNL     1      -6.298   8.153  69.678  1.00  0.00    -0.033 C  
HETATM   29  O   UNL     1      -6.488   9.254  69.169  1.00  0.00    -0.042 OA 
BRANCH  28  30
HETATM   30  C   UNL     1      -5.595   7.044  68.937  1.00  0.00    -0.018 C  
BRANCH  30  31
HETATM   31  C   UNL     1      -6.168   6.926  67.533  1.00  0.00    -0.037 C  
BRANCH  31  32
HETATM   32  C   UNL     1      -7.031   5.689  67.404  1.00  0.00    -0.065 C  
HETATM   33  N   UNL     1      -7.970   5.649  66.402  1.00  0.00    -0.101 N  
HETATM   34  O   UNL     1      -6.819   4.724  68.142  1.00  0.00    -0.053 OA 
HETATM   35  O   UNL     1      -8.480   6.851  65.876  1.00  0.00    -0.135 OA 
BRANCH  33  36
HETATM   36  C   UNL     1      -8.900   4.529  66.241  1.00  0.00    -0.113 C  
BRANCH  36  37
HETATM   37  C   UNL     1      -9.735   4.287  67.499  1.00  0.00    -0.198 C  
BRANCH  37  38
HETATM   38  C   UNL     1     -10.545   5.524  67.902  1.00  0.00    -0.219 C  
BRANCH  38  39
HETATM   39  C   UNL     1     -10.756   5.594  69.417  1.00  0.00    -0.365 C  
BRANCH  39  40
HETATM   40  C   UNL     1      -9.878   4.600  70.179  1.00  0.00    -0.236 C  
HETATM   41  N   UNL     1      -8.621   5.206  70.606  1.00  0.00    -0.117 NA 
HETATM   42  H2  UNL     1      -8.783   6.053  71.150  1.00  0.00     0.000 HD 
HETATM   43  H1  UNL     1      -8.036   4.543  71.115  1.00  0.00     0.000 HD 
ENDBRANCH  39  40
ENDBRANCH  38  39
ENDBRANCH  37  38
ENDBRANCH  36  37
ENDBRANCH  33  36
ENDBRANCH  31  32
ENDBRANCH  30  31
ENDBRANCH  28  30
ENDBRANCH  25  26
ENDBRANCH  24  25
ENDBRANCH  23  24
ENDBRANCH  22  23
ENDBRANCH  21  22
ENDBRANCH  19  21
ENDBRANCH  16  17
ENDBRANCH  15  16
ENDBRANCH  12  15
ENDBRANCH  10  11
ENDBRANCH   9  10
ENDBRANCH   8   9
ENDBRANCH   7   8
ENDBRANCH   6   7
ENDBRANCH   3   6
TORSDOF 23
ENDMDL
MODEL      252
REMARK 921   NORMALIZED FREE ENERGY PREDICTED BY IDOCK:   -3.50 KCAL/MOL
REMARK 922        TOTAL FREE ENERGY PREDICTED BY IDOCK:  -10.96 KCAL/MOL
REMARK 923 INTER-LIGAND FREE ENERGY PREDICTED BY IDOCK:   -8.92 KCAL/MOL
REMARK 924 INTRA-LIGAND FREE ENERGY PREDICTED BY IDOCK:   -2.03 KCAL/MOL
REMARK 927      BINDING AFFINITY PREDICTED BY RF-SCORE:    0.00 PKD
ROOT
HETATM    1  C   UNL     1     -11.938  11.117  69.290  1.00  0.00    -0.421 C  
HETATM    2  C   UNL     1     -11.697  11.902  68.027  1.00  0.00    -0.312 C  
HETATM    3  N   UNL     1     -11.137  11.225  66.976  1.00  0.00    -0.298 N  
HETATM    4  O   UNL     1     -11.970  13.102  67.980  1.00  0.00    -0.351 OA 
HETATM    5  O   UNL     1     -10.953   9.833  66.940  1.00  0.00    -0.117 OA 
ENDROOT
BRANCH   3   6
HETATM    6  C   UNL     1     -10.829  11.847  65.695  1.00  0.00    -0.286 C  
BRANCH   6   7
HETATM    7  C   UNL     1     -12.064  11.987  64.803  1.00  0.00    -0.282 C  
BRANCH   7   8
HETATM    8  C   UNL     1     -11.944  13.226  63.914  1.00  0.00    -0.541 C  
BRANCH   8   9
HETATM    9  C   UNL     1     -12.049  14.523  64.718  1.00  0.00    -0.454 C  
BRANCH   9  10
HETATM   10  C   UNL     1     -10.677  15.105  65.063  1.00  0.00    -0.430 C  
BRANCH  10  11
HETATM   11  N   UNL     1     -10.768  16.430  65.657  1.00  0.00    -0.312 N  
HETATM   12  C   UNL     1     -10.446  16.642  66.978  1.00  0.00    -0.283 C  
HETATM   13  H   UNL     1     -11.076  17.215  65.083  1.00  0.00     0.000 HD 
HETATM   14  O   UNL     1     -10.030  15.765  67.731  1.00  0.00    -0.224 OA 
BRANCH  12  15
HETATM   15  C   UNL     1     -10.642  18.077  67.418  1.00  0.00    -0.378 C  
BRANCH  15  16
HETATM   16  C   UNL     1      -9.655  18.995  66.701  1.00  0.00    -0.378 C  
BRANCH  16  17
HETATM   17  C   UNL     1      -8.269  18.389  66.602  1.00  0.00    -0.266 C  
HETATM   18  O   UNL     1      -7.899  17.810  65.583  1.00  0.00    -0.538 OA 
HETATM   19  N   UNL     1      -7.480  18.498  67.719  1.00  0.00    -0.228 N  
HETATM   20  O   UNL     1      -7.820  19.233  68.868  1.00  0.00    -0.351 OA 
BRANCH  19  21
HETATM   21  C   UNL     1      -6.152  17.912  67.828  1.00  0.00    -0.155 C  
BRANCH  21  22
HETATM   22  C   UNL     1      -6.063  16.870  68.946  1.00  0.00    -0.164 C  
BRANCH  22  23
HETATM   23  C   UNL     1      -6.699  15.521  68.562  1.00  0.00    -0.113 C  
BRANCH  23  24
HETATM   24  C   UNL     1      -7.031  14.643  69.769  1.00  0.00    -0.130 C  
BRANCH  24  25
HETATM   25  C   UNL     1      -6.254  13.329  69.738  1.00  0.00    -0.110 C  
BRANCH  25  26
HETATM   26  N   UNL     1      -7.076  12.233  69.265  1.00  0.00    -0.305 N  
HETATM   27  H   UNL     1      -7.915  11.980  69.788  1.00  0.00     0.000 HD 
HETATM   28  C   UNL     1      -6.757  11.524  68.131  1.00  0.00    -0.062 C  
HETATM   29  O   UNL     1      -5.780  11.770  67.430  1.00  0.00    -0.074 OA 
BRANCH  28  30
HETATM   30  C   UNL     1      -7.705  10.397  67.808  1.00  0.00    -0.089 C  
BRANCH  30  31
HETATM   31  C   UNL     1      -6.946   9.079  67.800  1.00  0.00    -0.078 C  
BRANCH  31  32
HETATM   32  C   UNL     1      -7.545   8.105  68.792  1.00  0.00    -0.105 C  
HETATM   33  N   UNL     1      -8.143   6.966  68.310  1.00  0.00    -0.118 N  
HETATM   34  O   UNL     1      -7.411   8.313  70.000  1.00  0.00    -0.061 OA 
HETATM   35  O   UNL     1      -8.655   6.950  66.998  1.00  0.00    -0.119 OA 
BRANCH  33  36
HETATM   36  C   UNL     1      -8.814   6.000  69.183  1.00  0.00    -0.119 C  
BRANCH  36  37
HETATM   37  C   UNL     1      -7.821   5.196  70.023  1.00  0.00    -0.078 C  
BRANCH  37  38
HETATM   38  C   UNL     1      -8.402   4.805  71.386  1.00  0.00    -0.108 C  
BRANCH  38  39
HETATM   39  C   UNL     1      -8.737   6.037  72.232  1.00  0.00    -0.131 C  
BRANCH  39  40
HETATM   40  C   UNL     1     -10.059   5.892  72.986  1.00  0.00    -0.181 C  
HETATM   41  N   UNL     1      -9.879   5.221  74.270  1.00  0.00    -0.172 NA 
HETATM   42  H2  UNL     1      -9.177   5.691  74.839  1.00  0.00     0.000 HD 
HETATM   43  H1  UNL     1     -10.762   5.124  74.772  1.00  0.00     0.000 HD 
ENDBRANCH  39  40
ENDBRANCH  38  39
ENDBRANCH  37  38
ENDBRANCH  36  37
ENDBRANCH  33  36
ENDBRANCH  31  32
ENDBRANCH  30  31
ENDBRANCH  28  30
ENDBRANCH  25  26
ENDBRANCH  24  25
ENDBRANCH  23  24
ENDBRANCH  22  23
ENDBRANCH  21  22
ENDBRANCH  19  21
ENDBRANCH  16  17
ENDBRANCH  15  16
ENDBRANCH  12  15
ENDBRANCH  10  11
ENDBRANCH   9  10
ENDBRANCH   8   9
ENDBRANCH   7   8
ENDBRANCH   6   7
ENDBRANCH   3   6
TORSDOF 23
ENDMDL
MODEL      253
REMARK 921   NORMALIZED FREE ENERGY PREDICTED BY IDOCK:   -3.50 KCAL/MOL
REMARK 922        TOTAL FREE ENERGY PREDICTED BY IDOCK:  -10.96 KCAL/MOL
REMARK 923 INTER-LIGAND FREE ENERGY PREDICTED BY IDOCK:   -9.03 KCAL/MOL
REMARK 924 INTRA-LIGAND FREE ENERGY PREDICTED BY IDOCK:   -1.93 KCAL/MOL
REMARK 927      BINDING AFFINITY PREDICTED BY RF-SCORE:    0.00 PKD
ROOT
HETATM    1  C   UNL     1     -11.702   8.339  72.551  1.00  0.00    -0.451 C  
HETATM    2  C   UNL     1     -10.668   7.266  72.333  1.00  0.00    -0.246 C  
HETATM    3  N   UNL     1     -10.873   6.414  71.280  1.00  0.00    -0.247 N  
HETATM    4  O   UNL     1      -9.710   7.162  73.100  1.00  0.00    -0.162 OA 
HETATM    5  O   UNL     1     -11.864   6.593  70.300  1.00  0.00    -0.395 OA 
ENDROOT
BRANCH   3   6
HETATM    6  C   UNL     1      -9.973   5.318  70.948  1.00  0.00    -0.208 C  
BRANCH   6   7
HETATM    7  C   UNL     1     -10.155   4.829  69.510  1.00  0.00    -0.260 C  
BRANCH   7   8
HETATM    8  C   UNL     1      -9.391   3.522  69.289  1.00  0.00    -0.242 C  
BRANCH   8   9
HETATM    9  C   UNL     1      -8.386   3.629  68.141  1.00  0.00    -0.095 C  
BRANCH   9  10
HETATM   10  C   UNL     1      -8.698   4.798  67.206  1.00  0.00    -0.103 C  
BRANCH  10  11
HETATM   11  N   UNL     1      -7.535   5.637  66.959  1.00  0.00    -0.083 N  
HETATM   12  C   UNL     1      -7.509   6.955  67.359  1.00  0.00    -0.097 C  
HETATM   13  H   UNL     1      -6.725   5.243  66.481  1.00  0.00     0.000 HD 
HETATM   14  O   UNL     1      -8.420   7.502  67.974  1.00  0.00    -0.123 OA 
BRANCH  12  15
HETATM   15  C   UNL     1      -6.230   7.669  66.978  1.00  0.00    -0.053 C  
BRANCH  15  16
HETATM   16  C   UNL     1      -6.027   7.634  65.465  1.00  0.00    -0.038 C  
BRANCH  16  17
HETATM   17  C   UNL     1      -7.238   8.144  64.708  1.00  0.00    -0.082 C  
HETATM   18  O   UNL     1      -8.077   7.369  64.254  1.00  0.00    -0.129 OA 
HETATM   19  N   UNL     1      -7.317   9.503  64.539  1.00  0.00    -0.109 N  
HETATM   20  O   UNL     1      -6.439  10.433  65.122  1.00  0.00    -0.125 OA 
BRANCH  19  21
HETATM   21  C   UNL     1      -8.368  10.160  63.777  1.00  0.00    -0.171 C  
BRANCH  21  22
HETATM   22  C   UNL     1      -9.667  10.301  64.574  1.00  0.00    -0.395 C  
BRANCH  22  23
HETATM   23  C   UNL     1      -9.564  11.331  65.714  1.00  0.00    -0.256 C  
BRANCH  23  24
HETATM   24  C   UNL     1     -10.850  11.461  66.531  1.00  0.00    -0.334 C  
BRANCH  24  25
HETATM   25  C   UNL     1     -11.813  12.467  65.905  1.00  0.00    -0.405 C  
BRANCH  25  26
HETATM   26  N   UNL     1     -11.230  13.791  65.831  1.00  0.00    -0.300 N  
HETATM   27  H   UNL     1     -10.716  14.060  64.992  1.00  0.00     0.000 HD 
HETATM   28  C   UNL     1     -11.350  14.695  66.860  1.00  0.00    -0.356 C  
HETATM   29  O   UNL     1     -11.965  14.464  67.896  1.00  0.00    -0.353 OA 
BRANCH  28  30
HETATM   30  C   UNL     1     -10.652  16.010  66.625  1.00  0.00    -0.297 C  
BRANCH  30  31
HETATM   31  C   UNL     1     -10.767  16.877  67.869  1.00  0.00    -0.344 C  
BRANCH  31  32
HETATM   32  C   UNL     1      -9.506  17.688  68.081  1.00  0.00    -0.286 C  
HETATM   33  N   UNL     1      -8.401  17.054  68.595  1.00  0.00    -0.259 N  
HETATM   34  O   UNL     1      -9.475  18.865  67.715  1.00  0.00    -0.293 OA 
HETATM   35  O   UNL     1      -8.563  15.894  69.376  1.00  0.00    -0.256 OA 
BRANCH  33  36
HETATM   36  C   UNL     1      -7.159  17.766  68.904  1.00  0.00    -0.262 C  
BRANCH  36  37
HETATM   37  C   UNL     1      -6.129  17.646  67.779  1.00  0.00    -0.158 C  
BRANCH  37  38
HETATM   38  C   UNL     1      -5.310  18.930  67.607  1.00  0.00    -0.168 C  
BRANCH  38  39
HETATM   39  C   UNL     1      -5.487  19.530  66.209  1.00  0.00    -0.166 C  
BRANCH  39  40
HETATM   40  C   UNL     1      -6.619  20.557  66.148  1.00  0.00    -0.235 C  
HETATM   41  N   UNL     1      -7.805  20.015  65.493  1.00  0.00    -0.485 NA 
HETATM   42  H2  UNL     1      -8.111  19.149  65.936  1.00  0.00     0.000 HD 
HETATM   43  H1  UNL     1      -8.561  20.699  65.452  1.00  0.00     0.000 HD 
ENDBRANCH  39  40
ENDBRANCH  38  39
ENDBRANCH  37  38
ENDBRANCH  36  37
ENDBRANCH  33  36
ENDBRANCH  31  32
ENDBRANCH  30  31
ENDBRANCH  28  30
ENDBRANCH  25  26
ENDBRANCH  24  25
ENDBRANCH  23  24
ENDBRANCH  22  23
ENDBRANCH  21  22
ENDBRANCH  19  21
ENDBRANCH  16  17
ENDBRANCH  15  16
ENDBRANCH  12  15
ENDBRANCH  10  11
ENDBRANCH   9  10
ENDBRANCH   8   9
ENDBRANCH   7   8
ENDBRANCH   6   7
ENDBRANCH   3   6
TORSDOF 23
ENDMDL
MODEL      254
REMARK 921   NORMALIZED FREE ENERGY PREDICTED BY IDOCK:   -3.50 KCAL/MOL
REMARK 922        TOTAL FREE ENERGY PREDICTED BY IDOCK:  -10.95 KCAL/MOL
REMARK 923 INTER-LIGAND FREE ENERGY PREDICTED BY IDOCK:   -9.03 KCAL/MOL
REMARK 924 INTRA-LIGAND FREE ENERGY PREDICTED BY IDOCK:   -1.92 KCAL/MOL
REMARK 927      BINDING AFFINITY PREDICTED BY RF-SCORE:    0.00 PKD
ROOT
HETATM    1  C   UNL     1     -10.306   2.653  72.285  1.00  0.00    -0.136 C  
HETATM    2  C   UNL     1      -9.014   3.422  72.191  1.00  0.00    -0.099 C  
HETATM    3  N   UNL     1      -8.095   3.212  73.186  1.00  0.00    -0.071 N  
HETATM    4  O   UNL     1      -8.831   4.219  71.271  1.00  0.00    -0.106 OA 
HETATM    5  O   UNL     1      -8.203   2.206  74.162  1.00  0.00    -0.056 OA 
ENDROOT
BRANCH   3   6
HETATM    6  C   UNL     1      -6.808   3.890  73.245  1.00  0.00    -0.052 C  
BRANCH   6   7
HETATM    7  C   UNL     1      -6.866   5.182  74.062  1.00  0.00    -0.076 C  
BRANCH   7   8
HETATM    8  C   UNL     1      -5.736   6.127  73.648  1.00  0.00    -0.053 C  
BRANCH   8   9
HETATM    9  C   UNL     1      -6.068   7.589  73.950  1.00  0.00    -0.071 C  
BRANCH   9  10
HETATM   10  C   UNL     1      -7.559   7.890  73.792  1.00  0.00    -0.155 C  
BRANCH  10  11
HETATM   11  N   UNL     1      -7.992   7.842  72.403  1.00  0.00    -0.106 N  
HETATM   12  C   UNL     1      -9.311   7.624  72.075  1.00  0.00    -0.142 C  
HETATM   13  H   UNL     1      -7.305   7.972  71.661  1.00  0.00     0.000 HD 
HETATM   14  O   UNL     1     -10.210   7.496  72.901  1.00  0.00    -0.223 OA 
BRANCH  12  15
HETATM   15  C   UNL     1      -9.553   7.570  70.582  1.00  0.00    -0.171 C  
BRANCH  15  16
HETATM   16  C   UNL     1     -10.997   7.950  70.261  1.00  0.00    -0.249 C  
BRANCH  16  17
HETATM   17  C   UNL     1     -11.183   9.449  70.121  1.00  0.00    -0.219 C  
HETATM   18  O   UNL     1     -11.818  10.091  70.954  1.00  0.00    -0.311 OA 
HETATM   19  N   UNL     1     -10.632  10.025  69.005  1.00  0.00    -0.204 N  
HETATM   20  O   UNL     1      -9.815   9.353  68.079  1.00  0.00    -0.154 OA 
BRANCH  19  21
HETATM   21  C   UNL     1     -10.775  11.435  68.672  1.00  0.00    -0.206 C  
BRANCH  21  22
HETATM   22  C   UNL     1     -11.112  11.656  67.195  1.00  0.00    -0.354 C  
BRANCH  22  23
HETATM   23  C   UNL     1     -11.389  13.133  66.857  1.00  0.00    -0.355 C  
BRANCH  23  24
HETATM   24  C   UNL     1     -11.533  13.392  65.356  1.00  0.00    -0.322 C  
BRANCH  24  25
HETATM   25  C   UNL     1     -11.106  14.812  64.990  1.00  0.00    -0.405 C  
BRANCH  25  26
HETATM   26  N   UNL     1     -11.157  15.699  66.135  1.00  0.00    -0.200 N  
HETATM   27  H   UNL     1     -11.932  15.614  66.793  1.00  0.00     0.000 HD 
HETATM   28  C   UNL     1     -10.191  16.651  66.359  1.00  0.00    -0.315 C  
HETATM   29  O   UNL     1      -9.216  16.810  65.632  1.00  0.00    -0.503 OA 
BRANCH  28  30
HETATM   30  C   UNL     1     -10.424  17.506  67.578  1.00  0.00    -0.355 C  
BRANCH  30  31
HETATM   31  C   UNL     1      -9.460  17.094  68.680  1.00  0.00    -0.275 C  
BRANCH  31  32
HETATM   32  C   UNL     1      -9.828  15.736  69.241  1.00  0.00    -0.265 C  
HETATM   33  N   UNL     1     -10.978  15.626  69.983  1.00  0.00    -0.298 N  
HETATM   34  O   UNL     1      -9.138  14.756  68.952  1.00  0.00    -0.187 OA 
HETATM   35  O   UNL     1     -11.494  16.758  70.641  1.00  0.00    -0.030 OA 
BRANCH  33  36
HETATM   36  C   UNL     1     -11.381  14.374  70.627  1.00  0.00    -0.028 C  
BRANCH  36  37
HETATM   37  C   UNL     1     -12.895  14.161  70.578  1.00  0.00    -0.310 C  
BRANCH  37  38
HETATM   38  C   UNL     1     -13.504  14.023  71.978  1.00  0.00    -0.528 C  
BRANCH  38  39
HETATM   39  C   UNL     1     -12.499  14.396  73.071  1.00  0.00    -0.285 C  
BRANCH  39  40
HETATM   40  C   UNL     1     -12.757  15.785  73.658  1.00  0.00    -0.604 C  
HETATM   41  N   UNL     1     -14.103  16.258  73.355  1.00  0.00    -0.549 NA 
HETATM   42  H2  UNL     1     -14.810  15.589  73.660  1.00  0.00     0.000 HD 
HETATM   43  H1  UNL     1     -14.275  17.185  73.746  1.00  0.00     0.000 HD 
ENDBRANCH  39  40
ENDBRANCH  38  39
ENDBRANCH  37  38
ENDBRANCH  36  37
ENDBRANCH  33  36
ENDBRANCH  31  32
ENDBRANCH  30  31
ENDBRANCH  28  30
ENDBRANCH  25  26
ENDBRANCH  24  25
ENDBRANCH  23  24
ENDBRANCH  22  23
ENDBRANCH  21  22
ENDBRANCH  19  21
ENDBRANCH  16  17
ENDBRANCH  15  16
ENDBRANCH  12  15
ENDBRANCH  10  11
ENDBRANCH   9  10
ENDBRANCH   8   9
ENDBRANCH   7   8
ENDBRANCH   6   7
ENDBRANCH   3   6
TORSDOF 23
ENDMDL
MODEL      255
REMARK 921   NORMALIZED FREE ENERGY PREDICTED BY IDOCK:   -3.47 KCAL/MOL
REMARK 922        TOTAL FREE ENERGY PREDICTED BY IDOCK:  -10.89 KCAL/MOL
REMARK 923 INTER-LIGAND FREE ENERGY PREDICTED BY IDOCK:   -8.21 KCAL/MOL
REMARK 924 INTRA-LIGAND FREE ENERGY PREDICTED BY IDOCK:   -2.67 KCAL/MOL
REMARK 927      BINDING AFFINITY PREDICTED BY RF-SCORE:    0.00 PKD
ROOT
HETATM    1  C   UNL     1      -6.619  11.470  68.115  1.00  0.00    -0.057 C  
HETATM    2  C   UNL     1      -7.854  12.330  68.180  1.00  0.00    -0.148 C  
HETATM    3  N   UNL     1      -7.703  13.654  67.862  1.00  0.00    -0.140 N  
HETATM    4  O   UNL     1      -8.929  11.847  68.536  1.00  0.00    -0.176 OA 
HETATM    5  O   UNL     1      -6.536  14.206  67.308  1.00  0.00    -0.288 OA 
ENDROOT
BRANCH   3   6
HETATM    6  C   UNL     1      -8.797  14.616  67.892  1.00  0.00    -0.170 C  
BRANCH   6   7
HETATM    7  C   UNL     1      -8.711  15.632  66.752  1.00  0.00    -0.306 C  
BRANCH   7   8
HETATM    8  C   UNL     1     -10.087  16.242  66.475  1.00  0.00    -0.301 C  
BRANCH   8   9
HETATM    9  C   UNL     1     -10.572  15.947  65.055  1.00  0.00    -0.372 C  
BRANCH   9  10
HETATM   10  C   UNL     1     -11.637  14.850  65.022  1.00  0.00    -0.357 C  
BRANCH  10  11
HETATM   11  N   UNL     1     -11.079  13.543  64.706  1.00  0.00    -0.341 N  
HETATM   12  C   UNL     1     -11.781  12.634  63.947  1.00  0.00    -0.457 C  
HETATM   13  H   UNL     1     -10.152  13.297  65.053  1.00  0.00     0.000 HD 
HETATM   14  O   UNL     1     -12.884  12.858  63.456  1.00  0.00    -0.677 OA 
BRANCH  12  15
HETATM   15  C   UNL     1     -11.051  11.321  63.761  1.00  0.00    -0.313 C  
BRANCH  15  16
HETATM   16  C   UNL     1     -10.187  11.013  64.981  1.00  0.00    -0.360 C  
BRANCH  16  17
HETATM   17  C   UNL     1      -9.310   9.792  64.776  1.00  0.00    -0.265 C  
HETATM   18  O   UNL     1      -8.587   9.688  63.787  1.00  0.00    -0.177 OA 
HETATM   19  N   UNL     1      -9.401   8.815  65.734  1.00  0.00    -0.218 N  
HETATM   20  O   UNL     1     -10.135   8.931  66.927  1.00  0.00    -0.224 OA 
BRANCH  19  21
HETATM   21  C   UNL     1      -8.690   7.547  65.661  1.00  0.00    -0.079 C  
BRANCH  21  22
HETATM   22  C   UNL     1      -8.326   7.000  67.044  1.00  0.00    -0.121 C  
BRANCH  22  23
HETATM   23  C   UNL     1      -6.831   7.162  67.379  1.00  0.00    -0.070 C  
BRANCH  23  24
HETATM   24  C   UNL     1      -6.372   6.275  68.537  1.00  0.00    -0.044 C  
BRANCH  24  25
HETATM   25  C   UNL     1      -6.260   4.812  68.114  1.00  0.00    -0.035 C  
BRANCH  25  26
HETATM   26  N   UNL     1      -7.371   4.025  68.612  1.00  0.00    -0.055 N  
HETATM   27  H   UNL     1      -8.246   4.017  68.089  1.00  0.00     0.000 HD 
HETATM   28  C   UNL     1      -7.277   3.289  69.769  1.00  0.00    -0.041 C  
HETATM   29  O   UNL     1      -6.258   3.225  70.450  1.00  0.00    -0.022 OA 
BRANCH  28  30
HETATM   30  C   UNL     1      -8.538   2.560  70.154  1.00  0.00    -0.104 C  
BRANCH  30  31
HETATM   31  C   UNL     1      -9.015   3.048  71.513  1.00  0.00    -0.152 C  
BRANCH  31  32
HETATM   32  C   UNL     1      -9.973   4.211  71.364  1.00  0.00    -0.153 C  
HETATM   33  N   UNL     1     -10.535   4.744  72.498  1.00  0.00    -0.201 N  
HETATM   34  O   UNL     1     -10.161   4.700  70.248  1.00  0.00    -0.239 OA 
HETATM   35  O   UNL     1     -10.657   3.950  73.655  1.00  0.00    -0.166 OA 
BRANCH  33  36
HETATM   36  C   UNL     1     -11.527   5.820  72.453  1.00  0.00    -0.288 C  
BRANCH  36  37
HETATM   37  C   UNL     1     -11.235   6.918  73.478  1.00  0.00     0.155 C  
BRANCH  37  38
HETATM   38  C   UNL     1     -10.137   7.875  73.000  1.00  0.00    -0.384 C  
BRANCH  38  39
HETATM   39  C   UNL     1     -10.239   8.147  71.496  1.00  0.00    -0.261 C  
BRANCH  39  40
HETATM   40  C   UNL     1     -11.093   9.375  71.177  1.00  0.00    -0.362 C  
HETATM   41  N   UNL     1     -11.004   9.744  69.768  1.00  0.00    -0.247 NA 
HETATM   42  H2  UNL     1     -11.240   8.959  69.162  1.00  0.00     0.000 HD 
HETATM   43  H1  UNL     1     -11.573  10.563  69.555  1.00  0.00     0.000 HD 
ENDBRANCH  39  40
ENDBRANCH  38  39
ENDBRANCH  37  38
ENDBRANCH  36  37
ENDBRANCH  33  36
ENDBRANCH  31  32
ENDBRANCH  30  31
ENDBRANCH  28  30
ENDBRANCH  25  26
ENDBRANCH  24  25
ENDBRANCH  23  24
ENDBRANCH  22  23
ENDBRANCH  21  22
ENDBRANCH  19  21
ENDBRANCH  16  17
ENDBRANCH  15  16
ENDBRANCH  12  15
ENDBRANCH  10  11
ENDBRANCH   9  10
ENDBRANCH   8   9
ENDBRANCH   7   8
ENDBRANCH   6   7
ENDBRANCH   3   6
TORSDOF 23
ENDMDL
MODEL      256
REMARK 921   NORMALIZED FREE ENERGY PREDICTED BY IDOCK:   -3.45 KCAL/MOL
REMARK 922        TOTAL FREE ENERGY PREDICTED BY IDOCK:  -10.84 KCAL/MOL
REMARK 923 INTER-LIGAND FREE ENERGY PREDICTED BY IDOCK:   -8.34 KCAL/MOL
REMARK 924 INTRA-LIGAND FREE ENERGY PREDICTED BY IDOCK:   -2.50 KCAL/MOL
REMARK 927      BINDING AFFINITY PREDICTED BY RF-SCORE:    0.00 PKD
ROOT
HETATM    1  C   UNL     1      -8.867  20.295  67.158  1.00  0.00    -0.446 C  
HETATM    2  C   UNL     1      -9.742  19.074  67.272  1.00  0.00    -0.314 C  
HETATM    3  N   UNL     1      -9.144  17.924  67.715  1.00  0.00    -0.255 N  
HETATM    4  O   UNL     1     -10.928  19.128  66.945  1.00  0.00    -0.394 OA 
HETATM    5  O   UNL     1      -7.841  17.861  68.237  1.00  0.00    -0.264 OA 
ENDROOT
BRANCH   3   6
HETATM    6  C   UNL     1      -9.851  16.659  67.864  1.00  0.00    -0.248 C  
BRANCH   6   7
HETATM    7  C   UNL     1     -10.433  16.478  69.268  1.00  0.00    -0.326 C  
BRANCH   7   8
HETATM    8  C   UNL     1     -11.642  15.542  69.228  1.00  0.00    -0.369 C  
BRANCH   8   9
HETATM    9  C   UNL     1     -11.714  14.749  67.922  1.00  0.00    -0.367 C  
BRANCH   9  10
HETATM   10  C   UNL     1     -11.562  13.244  68.148  1.00  0.00    -0.338 C  
BRANCH  10  11
HETATM   11  N   UNL     1     -10.173  12.812  68.102  1.00  0.00    -0.235 N  
HETATM   12  C   UNL     1      -9.512  12.668  66.903  1.00  0.00    -0.229 C  
HETATM   13  H   UNL     1      -9.681  12.613  68.973  1.00  0.00     0.000 HD 
HETATM   14  O   UNL     1     -10.011  12.922  65.811  1.00  0.00    -0.274 OA 
BRANCH  12  15
HETATM   15  C   UNL     1      -8.090  12.174  67.062  1.00  0.00    -0.154 C  
BRANCH  15  16
HETATM   16  C   UNL     1      -7.674  12.203  68.530  1.00  0.00    -0.119 C  
BRANCH  16  17
HETATM   17  C   UNL     1      -7.650  10.821  69.152  1.00  0.00    -0.133 C  
HETATM   18  O   UNL     1      -8.283   9.890  68.657  1.00  0.00    -0.102 OA 
HETATM   19  N   UNL     1      -6.915  10.687  70.302  1.00  0.00    -0.079 N  
HETATM   20  O   UNL     1      -6.098  11.692  70.849  1.00  0.00    -0.349 OA 
BRANCH  19  21
HETATM   21  C   UNL     1      -6.840   9.454  71.072  1.00  0.00    -0.067 C  
BRANCH  21  22
HETATM   22  C   UNL     1      -5.571   8.652  70.768  1.00  0.00    -0.028 C  
BRANCH  22  23
HETATM   23  C   UNL     1      -5.311   7.530  71.791  1.00  0.00    -0.035 C  
BRANCH  23  24
HETATM   24  C   UNL     1      -5.706   6.144  71.282  1.00  0.00    -0.026 C  
BRANCH  24  25
HETATM   25  C   UNL     1      -6.503   6.230  69.982  1.00  0.00    -0.043 C  
BRANCH  25  26
HETATM   26  N   UNL     1      -7.824   5.651  70.125  1.00  0.00    -0.089 N  
HETATM   27  H   UNL     1      -8.060   5.163  70.989  1.00  0.00     0.000 HD 
HETATM   28  C   UNL     1      -8.767   5.740  69.128  1.00  0.00    -0.113 C  
HETATM   29  O   UNL     1      -8.576   6.324  68.066  1.00  0.00    -0.117 OA 
BRANCH  28  30
HETATM   30  C   UNL     1     -10.072   5.052  69.435  1.00  0.00    -0.288 C  
BRANCH  30  31
HETATM   31  C   UNL     1     -11.149   6.093  69.694  1.00  0.00    -0.489 C  
BRANCH  31  32
HETATM   32  C   UNL     1     -10.763   6.995  70.848  1.00  0.00    -0.235 C  
HETATM   33  N   UNL     1     -10.941   6.531  72.128  1.00  0.00    -0.239 N  
HETATM   34  O   UNL     1     -10.226   8.080  70.613  1.00  0.00    -0.194 OA 
HETATM   35  O   UNL     1     -11.904   5.535  72.381  1.00  0.00    -0.210 OA 
BRANCH  33  36
HETATM   36  C   UNL     1     -10.667   7.354  73.308  1.00  0.00    -0.391 C  
BRANCH  36  37
HETATM   37  C   UNL     1      -9.867   6.594  74.368  1.00  0.00    -0.349 C  
BRANCH  37  38
HETATM   38  C   UNL     1      -8.494   6.153  73.849  1.00  0.00    -0.119 C  
BRANCH  38  39
HETATM   39  C   UNL     1      -8.163   4.720  74.275  1.00  0.00    -0.099 C  
BRANCH  39  40
HETATM   40  C   UNL     1      -8.186   3.737  73.103  1.00  0.00    -0.087 C  
HETATM   41  N   UNL     1      -9.542   3.504  72.619  1.00  0.00    -0.127 NA 
HETATM   42  H2  UNL     1     -10.007   4.380  72.379  1.00  0.00     0.000 HD 
HETATM   43  H1  UNL     1      -9.558   2.849  71.837  1.00  0.00     0.000 HD 
ENDBRANCH  39  40
ENDBRANCH  38  39
ENDBRANCH  37  38
ENDBRANCH  36  37
ENDBRANCH  33  36
ENDBRANCH  31  32
ENDBRANCH  30  31
ENDBRANCH  28  30
ENDBRANCH  25  26
ENDBRANCH  24  25
ENDBRANCH  23  24
ENDBRANCH  22  23
ENDBRANCH  21  22
ENDBRANCH  19  21
ENDBRANCH  16  17
ENDBRANCH  15  16
ENDBRANCH  12  15
ENDBRANCH  10  11
ENDBRANCH   9  10
ENDBRANCH   8   9
ENDBRANCH   7   8
ENDBRANCH   6   7
ENDBRANCH   3   6
TORSDOF 23
ENDMDL
MODEL      257
REMARK 921   NORMALIZED FREE ENERGY PREDICTED BY IDOCK:   -3.45 KCAL/MOL
REMARK 922        TOTAL FREE ENERGY PREDICTED BY IDOCK:  -10.84 KCAL/MOL
REMARK 923 INTER-LIGAND FREE ENERGY PREDICTED BY IDOCK:   -8.33 KCAL/MOL
REMARK 924 INTRA-LIGAND FREE ENERGY PREDICTED BY IDOCK:   -2.50 KCAL/MOL
REMARK 927      BINDING AFFINITY PREDICTED BY RF-SCORE:    0.00 PKD
ROOT
HETATM    1  C   UNL     1     -11.815  12.116  64.611  1.00  0.00    -0.400 C  
HETATM    2  C   UNL     1     -10.474  12.125  65.298  1.00  0.00    -0.276 C  
HETATM    3  N   UNL     1      -9.620  11.096  65.001  1.00  0.00    -0.230 N  
HETATM    4  O   UNL     1     -10.198  13.010  66.109  1.00  0.00    -0.272 OA 
HETATM    5  O   UNL     1      -9.837  10.160  63.976  1.00  0.00    -0.290 OA 
ENDROOT
BRANCH   3   6
HETATM    6  C   UNL     1      -8.297  10.956  65.594  1.00  0.00    -0.105 C  
BRANCH   6   7
HETATM    7  C   UNL     1      -7.333  10.183  64.692  1.00  0.00    -0.129 C  
BRANCH   7   8
HETATM    8  C   UNL     1      -6.757   8.976  65.435  1.00  0.00    -0.072 C  
BRANCH   8   9
HETATM    9  C   UNL     1      -6.580   7.765  64.517  1.00  0.00    -0.048 C  
BRANCH   9  10
HETATM   10  C   UNL     1      -7.898   7.032  64.263  1.00  0.00    -0.111 C  
BRANCH  10  11
HETATM   11  N   UNL     1      -8.910   7.348  65.259  1.00  0.00    -0.366 N  
HETATM   12  C   UNL     1      -9.407   6.379  66.103  1.00  0.00    -0.076 C  
HETATM   13  H   UNL     1      -9.258   8.304  65.334  1.00  0.00     0.000 HD 
HETATM   14  O   UNL     1      -9.020   5.214  66.110  1.00  0.00    -0.127 OA 
BRANCH  12  15
HETATM   15  C   UNL     1     -10.478   6.896  67.040  1.00  0.00    -0.374 C  
BRANCH  15  16
HETATM   16  C   UNL     1     -10.603   8.413  66.924  1.00  0.00    -0.285 C  
BRANCH  16  17
HETATM   17  C   UNL     1     -10.208   9.125  68.203  1.00  0.00    -0.207 C  
HETATM   18  O   UNL     1      -9.253   8.742  68.875  1.00  0.00    -0.141 OA 
HETATM   19  N   UNL     1     -10.994  10.187  68.571  1.00  0.00    -0.239 N  
HETATM   20  O   UNL     1     -12.031  10.723  67.788  1.00  0.00    -0.470 OA 
BRANCH  19  21
HETATM   21  C   UNL     1     -10.806  10.939  69.803  1.00  0.00    -0.187 C  
BRANCH  21  22
HETATM   22  C   UNL     1     -11.312  10.181  71.033  1.00  0.00    -0.385 C  
BRANCH  22  23
HETATM   23  C   UNL     1     -12.841   9.995  71.037  1.00  0.00    -0.455 C  
BRANCH  23  24
HETATM   24  C   UNL     1     -13.340   9.111  72.181  1.00  0.00    -0.525 C  
BRANCH  24  25
HETATM   25  C   UNL     1     -13.728   7.719  71.686  1.00  0.00    -0.364 C  
BRANCH  25  26
HETATM   26  N   UNL     1     -12.562   6.930  71.341  1.00  0.00    -0.370 N  
HETATM   27  H   UNL     1     -12.446   6.614  70.378  1.00  0.00     0.000 HD 
HETATM   28  C   UNL     1     -11.609   6.597  72.274  1.00  0.00    -0.278 C  
HETATM   29  O   UNL     1     -11.658   6.951  73.448  1.00  0.00     0.208 OA 
BRANCH  28  30
HETATM   30  C   UNL     1     -10.484   5.745  71.746  1.00  0.00    -0.281 C  
BRANCH  30  31
HETATM   31  C   UNL     1      -9.382   6.638  71.198  1.00  0.00    -0.164 C  
BRANCH  31  32
HETATM   32  C   UNL     1      -8.135   6.543  72.052  1.00  0.00    -0.107 C  
HETATM   33  N   UNL     1      -7.996   7.414  73.104  1.00  0.00    -0.100 N  
HETATM   34  O   UNL     1      -7.322   5.642  71.836  1.00  0.00    -0.088 OA 
HETATM   35  O   UNL     1      -8.670   8.650  73.079  1.00  0.00    -0.380 OA 
BRANCH  33  36
HETATM   36  C   UNL     1      -6.796   7.450  73.943  1.00  0.00    -0.084 C  
BRANCH  36  37
HETATM   37  C   UNL     1      -5.546   7.829  73.145  1.00  0.00    -0.044 C  
BRANCH  37  38
HETATM   38  C   UNL     1      -5.800   9.010  72.202  1.00  0.00    -0.072 C  
BRANCH  38  39
HETATM   39  C   UNL     1      -5.478   8.651  70.748  1.00  0.00    -0.028 C  
BRANCH  39  40
HETATM   40  C   UNL     1      -6.419   9.330  69.752  1.00  0.00    -0.040 C  
HETATM   41  N   UNL     1      -6.860  10.637  70.229  1.00  0.00    -0.375 NA 
HETATM   42  H2  UNL     1      -6.067  11.235  70.459  1.00  0.00     0.000 HD 
HETATM   43  H1  UNL     1      -7.488  11.090  69.565  1.00  0.00     0.000 HD 
ENDBRANCH  39  40
ENDBRANCH  38  39
ENDBRANCH  37  38
ENDBRANCH  36  37
ENDBRANCH  33  36
ENDBRANCH  31  32
ENDBRANCH  30  31
ENDBRANCH  28  30
ENDBRANCH  25  26
ENDBRANCH  24  25
ENDBRANCH  23  24
ENDBRANCH  22  23
ENDBRANCH  21  22
ENDBRANCH  19  21
ENDBRANCH  16  17
ENDBRANCH  15  16
ENDBRANCH  12  15
ENDBRANCH  10  11
ENDBRANCH   9  10
ENDBRANCH   8   9
ENDBRANCH   7   8
ENDBRANCH   6   7
ENDBRANCH   3   6
TORSDOF 23
ENDMDL
MODEL      258
REMARK 921   NORMALIZED FREE ENERGY PREDICTED BY IDOCK:   -3.45 KCAL/MOL
REMARK 922        TOTAL FREE ENERGY PREDICTED BY IDOCK:  -10.83 KCAL/MOL
REMARK 923 INTER-LIGAND FREE ENERGY PREDICTED BY IDOCK:   -8.59 KCAL/MOL
REMARK 924 INTRA-LIGAND FREE ENERGY PREDICTED BY IDOCK:   -2.24 KCAL/MOL
REMARK 927      BINDING AFFINITY PREDICTED BY RF-SCORE:    0.00 PKD
ROOT
HETATM    1  C   UNL     1     -12.657   7.045  70.686  1.00  0.00    -0.104 C  
HETATM    2  C   UNL     1     -11.426   6.183  70.790  1.00  0.00    -0.251 C  
HETATM    3  N   UNL     1     -10.866   5.760  69.613  1.00  0.00    -0.353 N  
HETATM    4  O   UNL     1     -10.985   5.861  71.894  1.00  0.00    -0.248 OA 
HETATM    5  O   UNL     1     -11.248   6.226  68.344  1.00  0.00    -0.335 OA 
ENDROOT
BRANCH   3   6
HETATM    6  C   UNL     1      -9.685   4.909  69.547  1.00  0.00    -0.195 C  
BRANCH   6   7
HETATM    7  C   UNL     1      -8.400   5.711  69.331  1.00  0.00    -0.107 C  
BRANCH   7   8
HETATM    8  C   UNL     1      -7.679   5.933  70.662  1.00  0.00    -0.097 C  
BRANCH   8   9
HETATM    9  C   UNL     1      -6.246   5.399  70.636  1.00  0.00    -0.026 C  
BRANCH   9  10
HETATM   10  C   UNL     1      -5.210   6.507  70.828  1.00  0.00    -0.018 C  
BRANCH  10  11
HETATM   11  N   UNL     1      -5.151   7.416  69.693  1.00  0.00    -0.015 N  
HETATM   12  C   UNL     1      -5.451   8.753  69.835  1.00  0.00    -0.029 C  
HETATM   13  H   UNL     1      -4.884   7.057  68.777  1.00  0.00     0.000 HD 
HETATM   14  O   UNL     1      -5.743   9.279  70.905  1.00  0.00    -0.040 OA 
BRANCH  12  15
HETATM   15  C   UNL     1      -5.370   9.524  68.535  1.00  0.00    -0.033 C  
BRANCH  15  16
HETATM   16  C   UNL     1      -5.473  11.024  68.796  1.00  0.00    -0.040 C  
BRANCH  16  17
HETATM   17  C   UNL     1      -6.319  11.735  67.757  1.00  0.00    -0.067 C  
HETATM   18  O   UNL     1      -5.807  12.256  66.769  1.00  0.00    -0.283 OA 
HETATM   19  N   UNL     1      -7.666  11.786  68.006  1.00  0.00    -0.115 N  
HETATM   20  O   UNL     1      -8.308  11.122  69.067  1.00  0.00    -0.134 OA 
BRANCH  19  21
HETATM   21  C   UNL     1      -8.617  12.488  67.157  1.00  0.00    -0.200 C  
BRANCH  21  22
HETATM   22  C   UNL     1      -9.634  11.544  66.512  1.00  0.00    -0.225 C  
BRANCH  22  23
HETATM   23  C   UNL     1     -10.719  12.287  65.709  1.00  0.00    -0.298 C  
BRANCH  23  24
HETATM   24  C   UNL     1     -11.912  12.719  66.562  1.00  0.00    -0.428 C  
BRANCH  24  25
HETATM   25  C   UNL     1     -11.610  13.995  67.344  1.00  0.00    -0.368 C  
BRANCH  25  26
HETATM   26  N   UNL     1     -11.115  15.048  66.480  1.00  0.00    -0.336 N  
HETATM   27  H   UNL     1     -11.145  14.915  65.469  1.00  0.00     0.000 HD 
HETATM   28  C   UNL     1     -10.606  16.222  66.984  1.00  0.00    -0.284 C  
HETATM   29  O   UNL     1     -10.550  16.476  68.183  1.00  0.00    -0.300 OA 
BRANCH  28  30
HETATM   30  C   UNL     1     -10.107  17.189  65.941  1.00  0.00    -0.257 C  
BRANCH  30  31
HETATM   31  C   UNL     1     -10.203  18.609  66.476  1.00  0.00    -0.449 C  
BRANCH  31  32
HETATM   32  C   UNL     1      -8.826  19.193  66.711  1.00  0.00    -0.311 C  
HETATM   33  N   UNL     1      -8.411  19.385  68.007  1.00  0.00    -0.309 N  
HETATM   34  O   UNL     1      -8.086  19.402  65.748  1.00  0.00    -0.436 OA 
HETATM   35  O   UNL     1      -9.366  19.550  69.027  1.00  0.00    -0.377 OA 
BRANCH  33  36
HETATM   36  C   UNL     1      -7.128  20.010  68.336  1.00  0.00    -0.275 C  
BRANCH  36  37
HETATM   37  C   UNL     1      -6.474  19.371  69.563  1.00  0.00    -0.356 C  
BRANCH  37  38
HETATM   38  C   UNL     1      -6.002  17.940  69.286  1.00  0.00    -0.229 C  
BRANCH  38  39
HETATM   39  C   UNL     1      -5.627  17.743  67.814  1.00  0.00    -0.142 C  
BRANCH  39  40
HETATM   40  C   UNL     1      -6.389  16.588  67.162  1.00  0.00    -0.185 C  
HETATM   41  N   UNL     1      -5.742  15.304  67.413  1.00  0.00    -0.337 NA 
HETATM   42  H2  UNL     1      -5.607  15.145  68.411  1.00  0.00     0.000 HD 
HETATM   43  H1  UNL     1      -6.250  14.534  66.978  1.00  0.00     0.000 HD 
ENDBRANCH  39  40
ENDBRANCH  38  39
ENDBRANCH  37  38
ENDBRANCH  36  37
ENDBRANCH  33  36
ENDBRANCH  31  32
ENDBRANCH  30  31
ENDBRANCH  28  30
ENDBRANCH  25  26
ENDBRANCH  24  25
ENDBRANCH  23  24
ENDBRANCH  22  23
ENDBRANCH  21  22
ENDBRANCH  19  21
ENDBRANCH  16  17
ENDBRANCH  15  16
ENDBRANCH  12  15
ENDBRANCH  10  11
ENDBRANCH   9  10
ENDBRANCH   8   9
ENDBRANCH   7   8
ENDBRANCH   6   7
ENDBRANCH   3   6
TORSDOF 23
ENDMDL
MODEL      259
REMARK 921   NORMALIZED FREE ENERGY PREDICTED BY IDOCK:   -3.43 KCAL/MOL
REMARK 922        TOTAL FREE ENERGY PREDICTED BY IDOCK:  -10.80 KCAL/MOL
REMARK 923 INTER-LIGAND FREE ENERGY PREDICTED BY IDOCK:   -8.74 KCAL/MOL
REMARK 924 INTRA-LIGAND FREE ENERGY PREDICTED BY IDOCK:   -2.06 KCAL/MOL
REMARK 927      BINDING AFFINITY PREDICTED BY RF-SCORE:    0.00 PKD
ROOT
HETATM    1  C   UNL     1      -6.189  20.416  68.961  1.00  0.00    -0.351 C  
HETATM    2  C   UNL     1      -7.104  19.304  68.519  1.00  0.00    -0.304 C  
HETATM    3  N   UNL     1      -6.511  18.122  68.159  1.00  0.00    -0.189 N  
HETATM    4  O   UNL     1      -8.320  19.487  68.460  1.00  0.00    -0.343 OA 
HETATM    5  O   UNL     1      -5.151  17.829  68.355  1.00  0.00    -0.143 OA 
ENDROOT
BRANCH   3   6
HETATM    6  C   UNL     1      -7.257  16.960  67.696  1.00  0.00    -0.143 C  
BRANCH   6   7
HETATM    7  C   UNL     1      -7.685  16.045  68.845  1.00  0.00    -0.196 C  
BRANCH   7   8
HETATM    8  C   UNL     1      -8.935  15.251  68.459  1.00  0.00    -0.187 C  
BRANCH   8   9
HETATM    9  C   UNL     1      -9.930  15.147  69.615  1.00  0.00    -0.183 C  
BRANCH   9  10
HETATM   10  C   UNL     1     -11.173  14.339  69.239  1.00  0.00    -0.273 C  
BRANCH  10  11
HETATM   11  N   UNL     1     -11.536  13.369  70.262  1.00  0.00    -0.509 N  
HETATM   12  C   UNL     1     -12.612  13.581  71.095  1.00  0.00    -0.355 C  
HETATM   13  H   UNL     1     -10.983  12.518  70.363  1.00  0.00     0.000 HD 
HETATM   14  O   UNL     1     -13.355  14.555  71.019  1.00  0.00    -0.369 OA 
BRANCH  12  15
HETATM   15  C   UNL     1     -12.803  12.478  72.115  1.00  0.00    -0.189 C  
BRANCH  15  16
HETATM   16  C   UNL     1     -13.285  11.199  71.435  1.00  0.00    -0.301 C  
BRANCH  16  17
HETATM   17  C   UNL     1     -12.247  10.094  71.480  1.00  0.00    -0.380 C  
HETATM   18  O   UNL     1     -11.140  10.240  70.964  1.00  0.00    -0.276 OA 
HETATM   19  N   UNL     1     -12.630   8.930  72.094  1.00  0.00    -0.384 N  
HETATM   20  O   UNL     1     -13.843   8.750  72.782  1.00  0.00    -0.361 OA 
BRANCH  19  21
HETATM   21  C   UNL     1     -11.791   7.742  72.164  1.00  0.00    -0.324 C  
BRANCH  21  22
HETATM   22  C   UNL     1     -10.432   8.024  72.812  1.00  0.00    -0.415 C  
BRANCH  22  23
HETATM   23  C   UNL     1     -10.118   7.076  73.985  1.00  0.00    -0.355 C  
BRANCH  23  24
HETATM   24  C   UNL     1      -8.840   6.262  73.779  1.00  0.00    -0.129 C  
BRANCH  24  25
HETATM   25  C   UNL     1      -8.070   6.730  72.546  1.00  0.00    -0.104 C  
BRANCH  25  26
HETATM   26  N   UNL     1      -7.585   5.612  71.762  1.00  0.00    -0.094 N  
HETATM   27  H   UNL     1      -6.654   5.240  71.952  1.00  0.00     0.000 HD 
HETATM   28  C   UNL     1      -8.343   5.039  70.769  1.00  0.00    -0.107 C  
HETATM   29  O   UNL     1      -9.479   5.407  70.486  1.00  0.00    -0.154 OA 
BRANCH  28  30
HETATM   30  C   UNL     1      -7.667   3.909  70.035  1.00  0.00    -0.048 C  
BRANCH  30  31
HETATM   31  C   UNL     1      -6.608   4.472  69.100  1.00  0.00    -0.041 C  
BRANCH  31  32
HETATM   32  C   UNL     1      -7.244   5.083  67.869  1.00  0.00    -0.067 C  
HETATM   33  N   UNL     1      -7.920   4.257  67.004  1.00  0.00    -0.097 N  
HETATM   34  O   UNL     1      -7.210   6.305  67.715  1.00  0.00    -0.078 OA 
HETATM   35  O   UNL     1      -7.598   2.887  66.954  1.00  0.00    -0.073 OA 
BRANCH  33  36
HETATM   36  C   UNL     1      -8.506   4.739  65.752  1.00  0.00    -0.119 C  
BRANCH  36  37
HETATM   37  C   UNL     1     -10.029   4.602  65.736  1.00  0.00    -0.246 C  
BRANCH  37  38
HETATM   38  C   UNL     1     -10.683   5.293  66.938  1.00  0.00    -0.208 C  
BRANCH  38  39
HETATM   39  C   UNL     1     -10.740   6.812  66.755  1.00  0.00    -0.312 C  
BRANCH  39  40
HETATM   40  C   UNL     1     -10.449   7.572  68.050  1.00  0.00    -0.197 C  
HETATM   41  N   UNL     1      -9.449   8.616  67.851  1.00  0.00    -0.138 NA 
HETATM   42  H2  UNL     1      -9.718   9.251  67.100  1.00  0.00     0.000 HD 
HETATM   43  H1  UNL     1      -9.254   9.123  68.715  1.00  0.00     0.000 HD 
ENDBRANCH  39  40
ENDBRANCH  38  39
ENDBRANCH  37  38
ENDBRANCH  36  37
ENDBRANCH  33  36
ENDBRANCH  31  32
ENDBRANCH  30  31
ENDBRANCH  28  30
ENDBRANCH  25  26
ENDBRANCH  24  25
ENDBRANCH  23  24
ENDBRANCH  22  23
ENDBRANCH  21  22
ENDBRANCH  19  21
ENDBRANCH  16  17
ENDBRANCH  15  16
ENDBRANCH  12  15
ENDBRANCH  10  11
ENDBRANCH   9  10
ENDBRANCH   8   9
ENDBRANCH   7   8
ENDBRANCH   6   7
ENDBRANCH   3   6
TORSDOF 23
ENDMDL
MODEL      260
REMARK 921   NORMALIZED FREE ENERGY PREDICTED BY IDOCK:   -3.42 KCAL/MOL
REMARK 922        TOTAL FREE ENERGY PREDICTED BY IDOCK:  -10.77 KCAL/MOL
REMARK 923 INTER-LIGAND FREE ENERGY PREDICTED BY IDOCK:   -8.27 KCAL/MOL
REMARK 924 INTRA-LIGAND FREE ENERGY PREDICTED BY IDOCK:   -2.50 KCAL/MOL
REMARK 927      BINDING AFFINITY PREDICTED BY RF-SCORE:    0.00 PKD
ROOT
HETATM    1  C   UNL     1     -10.721  14.482  65.112  1.00  0.00    -0.422 C  
HETATM    2  C   UNL     1     -10.910  13.222  65.916  1.00  0.00    -0.277 C  
HETATM    3  N   UNL     1      -9.892  12.870  66.762  1.00  0.00    -0.235 N  
HETATM    4  O   UNL     1     -11.927  12.542  65.775  1.00  0.00    -0.425 OA 
HETATM    5  O   UNL     1      -8.792  13.692  67.061  1.00  0.00    -0.229 OA 
ENDROOT
BRANCH   3   6
HETATM    6  C   UNL     1      -9.917  11.674  67.593  1.00  0.00    -0.188 C  
BRANCH   6   7
HETATM    7  C   UNL     1      -8.677  10.799  67.395  1.00  0.00    -0.126 C  
BRANCH   7   8
HETATM    8  C   UNL     1      -8.437  10.543  65.906  1.00  0.00    -0.164 C  
BRANCH   8   9
HETATM    9  C   UNL     1      -9.261   9.365  65.384  1.00  0.00    -0.305 C  
BRANCH   9  10
HETATM   10  C   UNL     1      -8.384   8.189  64.953  1.00  0.00    -0.123 C  
BRANCH  10  11
HETATM   11  N   UNL     1      -8.880   6.914  65.449  1.00  0.00    -0.365 N  
HETATM   12  C   UNL     1      -8.397   6.367  66.617  1.00  0.00    -0.113 C  
HETATM   13  H   UNL     1      -9.598   6.417  64.922  1.00  0.00     0.000 HD 
HETATM   14  O   UNL     1      -7.563   6.912  67.334  1.00  0.00    -0.103 OA 
BRANCH  12  15
HETATM   15  C   UNL     1      -9.009   5.022  66.943  1.00  0.00    -0.112 C  
BRANCH  15  16
HETATM   16  C   UNL     1      -7.923   3.956  67.068  1.00  0.00    -0.095 C  
BRANCH  16  17
HETATM   17  C   UNL     1      -7.606   3.619  68.513  1.00  0.00    -0.053 C  
HETATM   18  O   UNL     1      -6.635   4.112  69.082  1.00  0.00    -0.038 OA 
HETATM   19  N   UNL     1      -8.443   2.719  69.121  1.00  0.00    -0.060 N  
HETATM   20  O   UNL     1      -9.619   2.206  68.546  1.00  0.00    -0.187 OA 
BRANCH  19  21
HETATM   21  C   UNL     1      -8.248   2.226  70.476  1.00  0.00    -0.041 C  
BRANCH  21  22
HETATM   22  C   UNL     1      -9.566   2.080  71.241  1.00  0.00    -0.214 C  
BRANCH  22  23
HETATM   23  C   UNL     1      -9.977   3.366  71.982  1.00  0.00    -0.222 C  
BRANCH  23  24
HETATM   24  C   UNL     1     -10.917   3.111  73.161  1.00  0.00    -0.208 C  
BRANCH  24  25
HETATM   25  C   UNL     1     -10.273   3.509  74.487  1.00  0.00    -0.186 C  
BRANCH  25  26
HETATM   26  N   UNL     1      -9.121   4.365  74.288  1.00  0.00    -0.103 N  
HETATM   27  H   UNL     1      -8.206   3.937  74.143  1.00  0.00     0.000 HD 
HETATM   28  C   UNL     1      -9.226   5.735  74.288  1.00  0.00    -0.127 C  
HETATM   29  O   UNL     1     -10.288   6.333  74.435  1.00  0.00    -0.323 OA 
BRANCH  28  30
HETATM   30  C   UNL     1      -7.921   6.465  74.100  1.00  0.00    -0.104 C  
BRANCH  30  31
HETATM   31  C   UNL     1      -7.644   6.639  72.615  1.00  0.00    -0.093 C  
BRANCH  31  32
HETATM   32  C   UNL     1      -8.528   7.716  72.022  1.00  0.00    -0.110 C  
HETATM   33  N   UNL     1      -9.422   7.361  71.042  1.00  0.00    -0.158 N  
HETATM   34  O   UNL     1      -8.482   8.857  72.485  1.00  0.00    -0.395 OA 
HETATM   35  O   UNL     1      -9.177   6.220  70.255  1.00  0.00    -0.155 OA 
BRANCH  33  36
HETATM   36  C   UNL     1     -10.268   8.341  70.357  1.00  0.00    -0.201 C  
BRANCH  36  37
HETATM   37  C   UNL     1     -11.747   8.174  70.710  1.00  0.00    -0.211 C  
BRANCH  37  38
HETATM   38  C   UNL     1     -12.109   8.874  72.025  1.00  0.00    -0.442 C  
BRANCH  38  39
HETATM   39  C   UNL     1     -12.804  10.216  71.778  1.00  0.00    -0.554 C  
BRANCH  39  40
HETATM   40  C   UNL     1     -12.500  10.790  70.394  1.00  0.00    -0.347 C  
HETATM   41  N   UNL     1     -12.104  12.193  70.465  1.00  0.00    -0.461 NA 
HETATM   42  H2  UNL     1     -11.319  12.325  71.103  1.00  0.00     0.000 HD 
HETATM   43  H1  UNL     1     -11.901  12.576  69.541  1.00  0.00     0.000 HD 
ENDBRANCH  39  40
ENDBRANCH  38  39
ENDBRANCH  37  38
ENDBRANCH  36  37
ENDBRANCH  33  36
ENDBRANCH  31  32
ENDBRANCH  30  31
ENDBRANCH  28  30
ENDBRANCH  25  26
ENDBRANCH  24  25
ENDBRANCH  23  24
ENDBRANCH  22  23
ENDBRANCH  21  22
ENDBRANCH  19  21
ENDBRANCH  16  17
ENDBRANCH  15  16
ENDBRANCH  12  15
ENDBRANCH  10  11
ENDBRANCH   9  10
ENDBRANCH   8   9
ENDBRANCH   7   8
ENDBRANCH   6   7
ENDBRANCH   3   6
TORSDOF 23
ENDMDL
MODEL      261
REMARK 921   NORMALIZED FREE ENERGY PREDICTED BY IDOCK:   -3.41 KCAL/MOL
REMARK 922        TOTAL FREE ENERGY PREDICTED BY IDOCK:  -10.76 KCAL/MOL
REMARK 923 INTER-LIGAND FREE ENERGY PREDICTED BY IDOCK:   -9.84 KCAL/MOL
REMARK 924 INTRA-LIGAND FREE ENERGY PREDICTED BY IDOCK:   -0.92 KCAL/MOL
REMARK 927      BINDING AFFINITY PREDICTED BY RF-SCORE:    0.00 PKD
ROOT
HETATM    1  C   UNL     1      -5.605   2.955  71.458  1.00  0.00    -0.008 C  
HETATM    2  C   UNL     1      -6.796   2.932  72.380  1.00  0.00    -0.026 C  
HETATM    3  N   UNL     1      -7.981   2.493  71.849  1.00  0.00    -0.052 N  
HETATM    4  O   UNL     1      -6.690   3.326  73.542  1.00  0.00    -0.031 OA 
HETATM    5  O   UNL     1      -8.106   1.898  70.582  1.00  0.00    -0.041 OA 
ENDROOT
BRANCH   3   6
HETATM    6  C   UNL     1      -9.223   2.427  72.606  1.00  0.00    -0.082 C  
BRANCH   6   7
HETATM    7  C   UNL     1      -9.410   3.635  73.527  1.00  0.00    -0.119 C  
BRANCH   7   8
HETATM    8  C   UNL     1     -10.872   3.752  73.963  1.00  0.00    -0.270 C  
BRANCH   8   9
HETATM    9  C   UNL     1     -11.565   4.962  73.334  1.00  0.00    -0.198 C  
BRANCH   9  10
HETATM   10  C   UNL     1     -10.712   6.229  73.421  1.00  0.00    -0.259 C  
BRANCH  10  11
HETATM   11  N   UNL     1     -10.468   6.825  72.116  1.00  0.00    -0.204 N  
HETATM   12  C   UNL     1     -11.306   7.790  71.605  1.00  0.00    -0.253 C  
HETATM   13  H   UNL     1      -9.662   6.521  71.570  1.00  0.00     0.000 HD 
HETATM   14  O   UNL     1     -12.275   8.244  72.208  1.00  0.00    -0.344 OA 
BRANCH  12  15
HETATM   15  C   UNL     1     -10.907   8.257  70.222  1.00  0.00    -0.241 C  
BRANCH  15  16
HETATM   16  C   UNL     1     -10.501   7.069  69.353  1.00  0.00    -0.227 C  
BRANCH  16  17
HETATM   17  C   UNL     1      -9.402   7.420  68.369  1.00  0.00    -0.144 C  
HETATM   18  O   UNL     1      -8.301   7.805  68.756  1.00  0.00    -0.126 OA 
HETATM   19  N   UNL     1      -9.724   7.313  67.040  1.00  0.00    -0.168 N  
HETATM   20  O   UNL     1     -10.931   6.785  66.550  1.00  0.00    -0.133 OA 
BRANCH  19  21
HETATM   21  C   UNL     1      -8.819   7.679  65.961  1.00  0.00    -0.155 C  
BRANCH  21  22
HETATM   22  C   UNL     1      -9.175   9.028  65.331  1.00  0.00    -0.241 C  
BRANCH  22  23
HETATM   23  C   UNL     1      -8.726   9.143  63.862  1.00  0.00    -0.154 C  
BRANCH  23  24
HETATM   24  C   UNL     1      -9.158  10.451  63.198  1.00  0.00    -0.274 C  
BRANCH  24  25
HETATM   25  C   UNL     1     -10.380  11.053  63.888  1.00  0.00    -0.372 C  
BRANCH  25  26
HETATM   26  N   UNL     1     -10.154  12.433  64.269  1.00  0.00    -0.493 N  
HETATM   27  H   UNL     1      -9.196  12.772  64.356  1.00  0.00     0.000 HD 
HETATM   28  C   UNL     1     -11.194  13.297  64.517  1.00  0.00    -0.362 C  
HETATM   29  O   UNL     1     -12.375  12.982  64.417  1.00  0.00    -0.445 OA 
BRANCH  28  30
HETATM   30  C   UNL     1     -10.772  14.683  64.934  1.00  0.00    -0.447 C  
BRANCH  30  31
HETATM   31  C   UNL     1      -9.906  14.598  66.181  1.00  0.00    -0.334 C  
BRANCH  31  32
HETATM   32  C   UNL     1     -10.593  13.793  67.264  1.00  0.00    -0.275 C  
HETATM   33  N   UNL     1     -11.591  14.394  67.992  1.00  0.00    -0.310 N  
HETATM   34  O   UNL     1     -10.302  12.604  67.409  1.00  0.00    -0.219 OA 
HETATM   35  O   UNL     1     -11.614  15.797  68.115  1.00  0.00    -0.344 OA 
BRANCH  33  36
HETATM   36  C   UNL     1     -12.264  13.724  69.106  1.00  0.00    -0.250 C  
BRANCH  36  37
HETATM   37  C   UNL     1     -12.197  14.542  70.397  1.00  0.00    -0.394 C  
BRANCH  37  38
HETATM   38  C   UNL     1     -13.553  15.153  70.765  1.00  0.00    -0.299 C  
BRANCH  38  39
HETATM   39  C   UNL     1     -13.617  15.539  72.245  1.00  0.00    -0.618 C  
BRANCH  39  40
HETATM   40  C   UNL     1     -12.904  14.531  73.148  1.00  0.00    -0.444 C  
HETATM   41  N   UNL     1     -13.461  13.190  73.006  1.00  0.00    -0.481 NA 
HETATM   42  H2  UNL     1     -13.456  12.886  72.032  1.00  0.00     0.000 HD 
HETATM   43  H1  UNL     1     -12.986  12.517  73.607  1.00  0.00     0.000 HD 
ENDBRANCH  39  40
ENDBRANCH  38  39
ENDBRANCH  37  38
ENDBRANCH  36  37
ENDBRANCH  33  36
ENDBRANCH  31  32
ENDBRANCH  30  31
ENDBRANCH  28  30
ENDBRANCH  25  26
ENDBRANCH  24  25
ENDBRANCH  23  24
ENDBRANCH  22  23
ENDBRANCH  21  22
ENDBRANCH  19  21
ENDBRANCH  16  17
ENDBRANCH  15  16
ENDBRANCH  12  15
ENDBRANCH  10  11
ENDBRANCH   9  10
ENDBRANCH   8   9
ENDBRANCH   7   8
ENDBRANCH   6   7
ENDBRANCH   3   6
TORSDOF 23
ENDMDL
MODEL      262
REMARK 921   NORMALIZED FREE ENERGY PREDICTED BY IDOCK:   -3.41 KCAL/MOL
REMARK 922        TOTAL FREE ENERGY PREDICTED BY IDOCK:  -10.75 KCAL/MOL
REMARK 923 INTER-LIGAND FREE ENERGY PREDICTED BY IDOCK:   -8.76 KCAL/MOL
REMARK 924 INTRA-LIGAND FREE ENERGY PREDICTED BY IDOCK:   -1.99 KCAL/MOL
REMARK 927      BINDING AFFINITY PREDICTED BY RF-SCORE:    0.00 PKD
ROOT
HETATM    1  C   UNL     1      -6.170  20.468  68.957  1.00  0.00    -0.330 C  
HETATM    2  C   UNL     1      -7.166  19.417  68.543  1.00  0.00    -0.321 C  
HETATM    3  N   UNL     1      -6.663  18.190  68.196  1.00  0.00    -0.202 N  
HETATM    4  O   UNL     1      -8.368  19.683  68.496  1.00  0.00    -0.339 OA 
HETATM    5  O   UNL     1      -5.325  17.804  68.381  1.00  0.00    -0.150 OA 
ENDROOT
BRANCH   3   6
HETATM    6  C   UNL     1      -7.494  17.077  67.759  1.00  0.00    -0.165 C  
BRANCH   6   7
HETATM    7  C   UNL     1      -7.950  16.197  68.925  1.00  0.00    -0.223 C  
BRANCH   7   8
HETATM    8  C   UNL     1      -9.303  15.555  68.613  1.00  0.00    -0.201 C  
BRANCH   8   9
HETATM    9  C   UNL     1     -10.214  15.507  69.842  1.00  0.00    -0.305 C  
BRANCH   9  10
HETATM   10  C   UNL     1     -11.548  14.819  69.548  1.00  0.00    -0.304 C  
BRANCH  10  11
HETATM   11  N   UNL     1     -11.870  13.791  70.526  1.00  0.00    -0.497 N  
HETATM   12  C   UNL     1     -12.826  14.004  71.494  1.00  0.00    -0.362 C  
HETATM   13  H   UNL     1     -11.380  12.898  70.494  1.00  0.00     0.000 HD 
HETATM   14  O   UNL     1     -13.492  15.032  71.584  1.00  0.00    -0.349 OA 
BRANCH  12  15
HETATM   15  C   UNL     1     -12.990  12.833  72.439  1.00  0.00    -0.167 C  
BRANCH  15  16
HETATM   16  C   UNL     1     -13.602  11.640  71.711  1.00  0.00     0.010 C  
BRANCH  16  17
HETATM   17  C   UNL     1     -12.610  10.510  71.515  1.00  0.00    -0.424 C  
HETATM   18  O   UNL     1     -11.546  10.694  70.927  1.00  0.00    -0.320 OA 
HETATM   19  N   UNL     1     -12.986   9.284  71.999  1.00  0.00    -0.393 N  
HETATM   20  O   UNL     1     -14.143   9.046  72.761  1.00  0.00    -0.524 OA 
BRANCH  19  21
HETATM   21  C   UNL     1     -12.193   8.075  71.835  1.00  0.00    -0.319 C  
BRANCH  21  22
HETATM   22  C   UNL     1     -10.784   8.216  72.417  1.00  0.00    -0.404 C  
BRANCH  22  23
HETATM   23  C   UNL     1     -10.402   7.056  73.355  1.00  0.00    -0.370 C  
BRANCH  23  24
HETATM   24  C   UNL     1      -9.202   6.248  72.861  1.00  0.00    -0.133 C  
BRANCH  24  25
HETATM   25  C   UNL     1      -8.539   6.909  71.654  1.00  0.00    -0.117 C  
BRANCH  25  26
HETATM   26  N   UNL     1      -8.292   5.957  70.590  1.00  0.00    -0.122 N  
HETATM   27  H   UNL     1      -7.387   5.490  70.543  1.00  0.00     0.000 HD 
HETATM   28  C   UNL     1      -9.245   5.665  69.643  1.00  0.00    -0.137 C  
HETATM   29  O   UNL     1     -10.366   6.163  69.634  1.00  0.00    -0.184 OA 
BRANCH  28  30
HETATM   30  C   UNL     1      -8.803   4.678  68.593  1.00  0.00    -0.125 C  
BRANCH  30  31
HETATM   31  C   UNL     1      -7.785   5.334  67.673  1.00  0.00    -0.092 C  
BRANCH  31  32
HETATM   32  C   UNL     1      -8.468   6.225  66.657  1.00  0.00    -0.114 C  
HETATM   33  N   UNL     1      -8.385   7.586  66.822  1.00  0.00    -0.122 N  
HETATM   34  O   UNL     1      -9.006   5.716  65.672  1.00  0.00    -0.160 OA 
HETATM   35  O   UNL     1      -8.163   8.121  68.105  1.00  0.00    -0.126 OA 
BRANCH  33  36
HETATM   36  C   UNL     1      -9.072   8.528  65.936  1.00  0.00    -0.183 C  
BRANCH  36  37
HETATM   37  C   UNL     1      -8.092   9.420  65.171  1.00  0.00    -0.126 C  
BRANCH  37  38
HETATM   38  C   UNL     1      -7.045   8.604  64.405  1.00  0.00    -0.085 C  
BRANCH  38  39
HETATM   39  C   UNL     1      -7.639   7.961  63.148  1.00  0.00    -0.126 C  
BRANCH  39  40
HETATM   40  C   UNL     1      -7.125   6.539  62.916  1.00  0.00    -0.049 C  
HETATM   41  N   UNL     1      -8.219   5.599  62.695  1.00  0.00    -0.105 NA 
HETATM   42  H2  UNL     1      -8.824   5.905  61.933  1.00  0.00     0.000 HD 
HETATM   43  H1  UNL     1      -7.877   4.650  62.540  1.00  0.00     0.000 HD 
ENDBRANCH  39  40
ENDBRANCH  38  39
ENDBRANCH  37  38
ENDBRANCH  36  37
ENDBRANCH  33  36
ENDBRANCH  31  32
ENDBRANCH  30  31
ENDBRANCH  28  30
ENDBRANCH  25  26
ENDBRANCH  24  25
ENDBRANCH  23  24
ENDBRANCH  22  23
ENDBRANCH  21  22
ENDBRANCH  19  21
ENDBRANCH  16  17
ENDBRANCH  15  16
ENDBRANCH  12  15
ENDBRANCH  10  11
ENDBRANCH   9  10
ENDBRANCH   8   9
ENDBRANCH   7   8
ENDBRANCH   6   7
ENDBRANCH   3   6
TORSDOF 23
ENDMDL
MODEL      263
REMARK 921   NORMALIZED FREE ENERGY PREDICTED BY IDOCK:   -3.39 KCAL/MOL
REMARK 922        TOTAL FREE ENERGY PREDICTED BY IDOCK:  -10.71 KCAL/MOL
REMARK 923 INTER-LIGAND FREE ENERGY PREDICTED BY IDOCK:   -9.17 KCAL/MOL
REMARK 924 INTRA-LIGAND FREE ENERGY PREDICTED BY IDOCK:   -1.54 KCAL/MOL
REMARK 927      BINDING AFFINITY PREDICTED BY RF-SCORE:    0.00 PKD
ROOT
HETATM    1  C   UNL     1      -9.460  20.267  67.384  1.00  0.00    -0.547 C  
HETATM    2  C   UNL     1     -10.068  18.900  67.209  1.00  0.00    -0.357 C  
HETATM    3  N   UNL     1      -9.448  18.055  66.327  1.00  0.00    -0.260 N  
HETATM    4  O   UNL     1     -11.094  18.593  67.818  1.00  0.00    -0.243 OA 
HETATM    5  O   UNL     1      -8.200  18.311  65.732  1.00  0.00    -0.503 OA 
ENDROOT
BRANCH   3   6
HETATM    6  C   UNL     1      -9.922  16.709  66.037  1.00  0.00    -0.324 C  
BRANCH   6   7
HETATM    7  C   UNL     1     -11.178  16.708  65.164  1.00  0.00     0.020 C  
BRANCH   7   8
HETATM    8  C   UNL     1     -11.198  15.477  64.256  1.00  0.00    -0.095 C  
BRANCH   8   9
HETATM    9  C   UNL     1     -10.757  14.211  64.994  1.00  0.00    -0.429 C  
BRANCH   9  10
HETATM   10  C   UNL     1     -10.806  12.972  64.099  1.00  0.00    -0.405 C  
BRANCH  10  11
HETATM   11  N   UNL     1     -10.371  11.769  64.793  1.00  0.00    -0.274 N  
HETATM   12  C   UNL     1     -11.089  11.257  65.850  1.00  0.00    -0.101 C  
HETATM   13  H   UNL     1      -9.519  11.296  64.489  1.00  0.00     0.000 HD 
HETATM   14  O   UNL     1     -12.144  11.736  66.257  1.00  0.00    -0.446 OA 
BRANCH  12  15
HETATM   15  C   UNL     1     -10.455  10.026  66.462  1.00  0.00    -0.223 C  
BRANCH  15  16
HETATM   16  C   UNL     1      -8.936  10.084  66.328  1.00  0.00    -0.170 C  
BRANCH  16  17
HETATM   17  C   UNL     1      -8.316  11.139  67.224  1.00  0.00    -0.135 C  
HETATM   18  O   UNL     1      -8.367  12.332  66.931  1.00  0.00    -0.181 OA 
HETATM   19  N   UNL     1      -7.679  10.679  68.348  1.00  0.00    -0.101 N  
HETATM   20  O   UNL     1      -7.680   9.340  68.776  1.00  0.00    -0.082 OA 
BRANCH  19  21
HETATM   21  C   UNL     1      -6.967  11.541  69.280  1.00  0.00    -0.098 C  
BRANCH  21  22
HETATM   22  C   UNL     1      -5.913  12.409  68.586  1.00  0.00    -0.059 C  
BRANCH  22  23
HETATM   23  C   UNL     1      -5.145  13.318  69.565  1.00  0.00    -0.083 C  
BRANCH  23  24
HETATM   24  C   UNL     1      -5.712  14.736  69.644  1.00  0.00    -0.099 C  
BRANCH  24  25
HETATM   25  C   UNL     1      -6.286  15.186  68.302  1.00  0.00    -0.117 C  
BRANCH  25  26
HETATM   26  N   UNL     1      -7.662  14.762  68.140  1.00  0.00    -0.114 N  
HETATM   27  H   UNL     1      -7.870  13.983  67.515  1.00  0.00     0.000 HD 
HETATM   28  C   UNL     1      -8.695  15.380  68.805  1.00  0.00    -0.195 C  
HETATM   29  O   UNL     1      -8.536  16.309  69.590  1.00  0.00     0.004 OA 
BRANCH  28  30
HETATM   30  C   UNL     1     -10.062  14.829  68.490  1.00  0.00    -0.230 C  
BRANCH  30  31
HETATM   31  C   UNL     1     -11.067  15.347  69.508  1.00  0.00    -0.284 C  
BRANCH  31  32
HETATM   32  C   UNL     1     -11.941  14.223  70.024  1.00  0.00    -0.334 C  
HETATM   33  N   UNL     1     -12.686  14.443  71.157  1.00  0.00    -0.331 N  
HETATM   34  O   UNL     1     -12.025  13.177  69.378  1.00  0.00    -0.307 OA 
HETATM   35  O   UNL     1     -12.275  15.421  72.083  1.00  0.00    -0.321 OA 
BRANCH  33  36
HETATM   36  C   UNL     1     -13.505  13.397  71.774  1.00  0.00    -0.370 C  
BRANCH  36  37
HETATM   37  C   UNL     1     -12.670  12.188  72.202  1.00  0.00     0.049 C  
BRANCH  37  38
HETATM   38  C   UNL     1     -13.406  10.866  71.962  1.00  0.00    -0.394 C  
BRANCH  38  39
HETATM   39  C   UNL     1     -12.433   9.686  71.870  1.00  0.00    -0.459 C  
BRANCH  39  40
HETATM   40  C   UNL     1     -11.687   9.642  70.536  1.00  0.00    -0.242 C  
HETATM   41  N   UNL     1     -10.352  10.222  70.643  1.00  0.00    -0.324 NA 
HETATM   42  H2  UNL     1      -9.813   9.778  71.386  1.00  0.00     0.000 HD 
HETATM   43  H1  UNL     1      -9.854  10.192  69.753  1.00  0.00     0.000 HD 
ENDBRANCH  39  40
ENDBRANCH  38  39
ENDBRANCH  37  38
ENDBRANCH  36  37
ENDBRANCH  33  36
ENDBRANCH  31  32
ENDBRANCH  30  31
ENDBRANCH  28  30
ENDBRANCH  25  26
ENDBRANCH  24  25
ENDBRANCH  23  24
ENDBRANCH  22  23
ENDBRANCH  21  22
ENDBRANCH  19  21
ENDBRANCH  16  17
ENDBRANCH  15  16
ENDBRANCH  12  15
ENDBRANCH  10  11
ENDBRANCH   9  10
ENDBRANCH   8   9
ENDBRANCH   7   8
ENDBRANCH   6   7
ENDBRANCH   3   6
TORSDOF 23
ENDMDL
MODEL      264
REMARK 921   NORMALIZED FREE ENERGY PREDICTED BY IDOCK:   -3.38 KCAL/MOL
REMARK 922        TOTAL FREE ENERGY PREDICTED BY IDOCK:  -10.68 KCAL/MOL
REMARK 923 INTER-LIGAND FREE ENERGY PREDICTED BY IDOCK:  -10.27 KCAL/MOL
REMARK 924 INTRA-LIGAND FREE ENERGY PREDICTED BY IDOCK:   -0.41 KCAL/MOL
REMARK 927      BINDING AFFINITY PREDICTED BY RF-SCORE:    0.00 PKD
ROOT
HETATM    1  C   UNL     1      -9.403  18.950  67.579  1.00  0.00    -0.327 C  
HETATM    2  C   UNL     1     -10.065  17.663  67.161  1.00  0.00    -0.328 C  
HETATM    3  N   UNL     1      -9.477  16.968  66.138  1.00  0.00    -0.253 N  
HETATM    4  O   UNL     1     -11.105  17.294  67.709  1.00  0.00    -0.257 OA 
HETATM    5  O   UNL     1      -8.218  17.276  65.595  1.00  0.00    -0.467 OA 
ENDROOT
BRANCH   3   6
HETATM    6  C   UNL     1     -10.005  15.717  65.611  1.00  0.00    -0.345 C  
BRANCH   6   7
HETATM    7  C   UNL     1     -11.253  15.927  64.752  1.00  0.00    -0.364 C  
BRANCH   7   8
HETATM    8  C   UNL     1     -11.690  14.607  64.113  1.00  0.00    -0.196 C  
BRANCH   8   9
HETATM    9  C   UNL     1     -11.276  13.397  64.952  1.00  0.00    -0.347 C  
BRANCH   9  10
HETATM   10  C   UNL     1     -11.410  12.084  64.180  1.00  0.00    -0.382 C  
BRANCH  10  11
HETATM   11  N   UNL     1     -10.266  11.205  64.374  1.00  0.00    -0.304 N  
HETATM   12  C   UNL     1     -10.154  10.419  65.499  1.00  0.00    -0.283 C  
HETATM   13  H   UNL     1      -9.535  11.172  63.664  1.00  0.00     0.000 HD 
HETATM   14  O   UNL     1     -11.004  10.366  66.384  1.00  0.00    -0.062 OA 
BRANCH  12  15
HETATM   15  C   UNL     1      -8.878   9.607  65.535  1.00  0.00    -0.204 C  
BRANCH  15  16
HETATM   16  C   UNL     1      -7.661  10.515  65.380  1.00  0.00    -0.097 C  
BRANCH  16  17
HETATM   17  C   UNL     1      -7.612  11.602  66.436  1.00  0.00     0.085 C  
HETATM   18  O   UNL     1      -8.577  12.337  66.637  1.00  0.00    -0.179 OA 
HETATM   19  N   UNL     1      -6.430  11.729  67.119  1.00  0.00    -0.133 N  
HETATM   20  O   UNL     1      -5.337  10.853  66.995  1.00  0.00    -0.042 OA 
BRANCH  19  21
HETATM   21  C   UNL     1      -6.180  12.762  68.113  1.00  0.00    -0.088 C  
BRANCH  21  22
HETATM   22  C   UNL     1      -6.856  14.090  67.759  1.00  0.00    -0.187 C  
BRANCH  22  23
HETATM   23  C   UNL     1      -7.101  14.986  68.988  1.00  0.00    -0.133 C  
BRANCH  23  24
HETATM   24  C   UNL     1      -8.506  14.840  69.573  1.00  0.00     0.087 C  
BRANCH  24  25
HETATM   25  C   UNL     1      -9.502  14.348  68.524  1.00  0.00    -0.212 C  
BRANCH  25  26
HETATM   26  N   UNL     1     -10.061  13.059  68.881  1.00  0.00    -0.438 N  
HETATM   27  H   UNL     1      -9.432  12.273  69.042  1.00  0.00     0.000 HD 
HETATM   28  C   UNL     1     -11.417  12.867  69.008  1.00  0.00    -0.308 C  
HETATM   29  O   UNL     1     -12.245  13.759  68.852  1.00  0.00    -0.344 OA 
BRANCH  28  30
HETATM   30  C   UNL     1     -11.821  11.456  69.351  1.00  0.00    -0.419 C  
BRANCH  30  31
HETATM   31  C   UNL     1     -12.252  11.390  70.808  1.00  0.00    -0.475 C  
BRANCH  31  32
HETATM   32  C   UNL     1     -12.441   9.954  71.250  1.00  0.00    -0.381 C  
HETATM   33  N   UNL     1     -11.327   9.210  71.553  1.00  0.00    -0.342 N  
HETATM   34  O   UNL     1     -13.583   9.515  71.406  1.00  0.00    -0.366 OA 
HETATM   35  O   UNL     1     -10.085   9.553  70.984  1.00  0.00    -0.286 OA 
BRANCH  33  36
HETATM   36  C   UNL     1     -11.401   7.794  71.919  1.00  0.00    -0.270 C  
BRANCH  36  37
HETATM   37  C   UNL     1     -11.295   6.877  70.699  1.00  0.00    -0.366 C  
BRANCH  37  38
HETATM   38  C   UNL     1      -9.887   6.879  70.096  1.00  0.00    -0.185 C  
BRANCH  38  39
HETATM   39  C   UNL     1      -9.848   6.156  68.747  1.00  0.00    -0.160 C  
BRANCH  39  40
HETATM   40  C   UNL     1     -11.011   6.549  67.834  1.00  0.00    -0.294 C  
HETATM   41  N   UNL     1     -11.103   5.676  66.669  1.00  0.00    -0.623 NA 
HETATM   42  H2  UNL     1     -11.161   4.696  66.943  1.00  0.00     0.000 HD 
HETATM   43  H1  UNL     1     -11.878   5.939  66.060  1.00  0.00     0.000 HD 
ENDBRANCH  39  40
ENDBRANCH  38  39
ENDBRANCH  37  38
ENDBRANCH  36  37
ENDBRANCH  33  36
ENDBRANCH  31  32
ENDBRANCH  30  31
ENDBRANCH  28  30
ENDBRANCH  25  26
ENDBRANCH  24  25
ENDBRANCH  23  24
ENDBRANCH  22  23
ENDBRANCH  21  22
ENDBRANCH  19  21
ENDBRANCH  16  17
ENDBRANCH  15  16
ENDBRANCH  12  15
ENDBRANCH  10  11
ENDBRANCH   9  10
ENDBRANCH   8   9
ENDBRANCH   7   8
ENDBRANCH   6   7
ENDBRANCH   3   6
TORSDOF 23
ENDMDL
MODEL      265
REMARK 921   NORMALIZED FREE ENERGY PREDICTED BY IDOCK:   -3.37 KCAL/MOL
REMARK 922        TOTAL FREE ENERGY PREDICTED BY IDOCK:  -10.65 KCAL/MOL
REMARK 923 INTER-LIGAND FREE ENERGY PREDICTED BY IDOCK:   -9.18 KCAL/MOL
REMARK 924 INTRA-LIGAND FREE ENERGY PREDICTED BY IDOCK:   -1.46 KCAL/MOL
REMARK 927      BINDING AFFINITY PREDICTED BY RF-SCORE:    0.00 PKD
ROOT
HETATM    1  C   UNL     1      -9.923   2.609  71.499  1.00  0.00    -0.115 C  
HETATM    2  C   UNL     1      -9.232   3.944  71.593  1.00  0.00    -0.127 C  
HETATM    3  N   UNL     1      -7.976   3.953  72.141  1.00  0.00    -0.078 N  
HETATM    4  O   UNL     1      -9.805   4.968  71.219  1.00  0.00    -0.164 OA 
HETATM    5  O   UNL     1      -7.235   2.797  72.437  1.00  0.00    -0.036 OA 
ENDROOT
BRANCH   3   6
HETATM    6  C   UNL     1      -7.185   5.164  72.314  1.00  0.00    -0.090 C  
BRANCH   6   7
HETATM    7  C   UNL     1      -7.248   5.701  73.745  1.00  0.00    -0.086 C  
BRANCH   7   8
HETATM    8  C   UNL     1      -7.554   7.200  73.740  1.00  0.00    -0.119 C  
BRANCH   8   9
HETATM    9  C   UNL     1      -8.878   7.520  74.437  1.00  0.00    -0.195 C  
BRANCH   9  10
HETATM   10  C   UNL     1     -10.087   7.209  73.555  1.00  0.00    -0.331 C  
BRANCH  10  11
HETATM   11  N   UNL     1     -10.207   8.127  72.432  1.00  0.00    -0.271 N  
HETATM   12  C   UNL     1     -11.434   8.429  71.886  1.00  0.00    -0.318 C  
HETATM   13  H   UNL     1      -9.366   8.553  72.043  1.00  0.00     0.000 HD 
HETATM   14  O   UNL     1     -12.500   7.994  72.314  1.00  0.00    -0.309 OA 
BRANCH  12  15
HETATM   15  C   UNL     1     -11.346   9.370  70.704  1.00  0.00    -0.352 C  
BRANCH  15  16
HETATM   16  C   UNL     1     -12.604  10.230  70.611  1.00  0.00    -0.391 C  
BRANCH  16  17
HETATM   17  C   UNL     1     -12.296  11.666  70.232  1.00  0.00    -0.258 C  
HETATM   18  O   UNL     1     -12.248  12.552  71.083  1.00  0.00    -0.243 OA 
HETATM   19  N   UNL     1     -12.110  11.912  68.896  1.00  0.00    -0.241 N  
HETATM   20  O   UNL     1     -12.056  10.921  67.900  1.00  0.00    -0.527 OA 
BRANCH  19  21
HETATM   21  C   UNL     1     -11.879  13.239  68.346  1.00  0.00    -0.360 C  
BRANCH  21  22
HETATM   22  C   UNL     1     -11.676  13.216  66.828  1.00  0.00    -0.439 C  
BRANCH  22  23
HETATM   23  C   UNL     1     -12.113  14.526  66.144  1.00  0.00    -0.300 C  
BRANCH  23  24
HETATM   24  C   UNL     1     -11.267  14.880  64.920  1.00  0.00    -0.415 C  
BRANCH  24  25
HETATM   25  C   UNL     1     -11.319  16.375  64.617  1.00  0.00    -0.161 C  
BRANCH  25  26
HETATM   26  N   UNL     1     -10.718  17.158  65.678  1.00  0.00    -0.237 N  
HETATM   27  H   UNL     1     -10.299  16.675  66.473  1.00  0.00     0.000 HD 
HETATM   28  C   UNL     1     -10.698  18.532  65.645  1.00  0.00    -0.053 C  
HETATM   29  O   UNL     1     -11.160  19.194  64.721  1.00  0.00    -0.162 OA 
BRANCH  28  30
HETATM   30  C   UNL     1     -10.064  19.180  66.849  1.00  0.00    -0.453 C  
BRANCH  30  31
HETATM   31  C   UNL     1      -8.556  19.241  66.659  1.00  0.00    -0.339 C  
BRANCH  31  32
HETATM   32  C   UNL     1      -7.956  17.851  66.646  1.00  0.00    -0.249 C  
HETATM   33  N   UNL     1      -7.672  17.250  67.848  1.00  0.00    -0.189 N  
HETATM   34  O   UNL     1      -7.815  17.264  65.571  1.00  0.00    -0.255 OA 
HETATM   35  O   UNL     1      -7.437  18.045  68.986  1.00  0.00    -0.256 OA 
BRANCH  33  36
HETATM   36  C   UNL     1      -7.025  15.939  67.938  1.00  0.00    -0.139 C  
BRANCH  36  37
HETATM   37  C   UNL     1      -8.040  14.801  68.064  1.00  0.00    -0.140 C  
BRANCH  37  38
HETATM   38  C   UNL     1      -8.765  14.822  69.414  1.00  0.00     0.034 C  
BRANCH  38  39
HETATM   39  C   UNL     1      -9.928  15.818  69.417  1.00  0.00    -0.274 C  
BRANCH  39  40
HETATM   40  C   UNL     1     -10.744  15.766  70.709  1.00  0.00    -0.091 C  
HETATM   41  N   UNL     1     -12.160  16.020  70.465  1.00  0.00    -0.456 NA 
HETATM   42  H2  UNL     1     -12.536  15.384  69.762  1.00  0.00     0.000 HD 
HETATM   43  H1  UNL     1     -12.705  15.985  71.327  1.00  0.00     0.000 HD 
ENDBRANCH  39  40
ENDBRANCH  38  39
ENDBRANCH  37  38
ENDBRANCH  36  37
ENDBRANCH  33  36
ENDBRANCH  31  32
ENDBRANCH  30  31
ENDBRANCH  28  30
ENDBRANCH  25  26
ENDBRANCH  24  25
ENDBRANCH  23  24
ENDBRANCH  22  23
ENDBRANCH  21  22
ENDBRANCH  19  21
ENDBRANCH  16  17
ENDBRANCH  15  16
ENDBRANCH  12  15
ENDBRANCH  10  11
ENDBRANCH   9  10
ENDBRANCH   8   9
ENDBRANCH   7   8
ENDBRANCH   6   7
ENDBRANCH   3   6
TORSDOF 23
ENDMDL
MODEL      266
REMARK 921   NORMALIZED FREE ENERGY PREDICTED BY IDOCK:   -3.37 KCAL/MOL
REMARK 922        TOTAL FREE ENERGY PREDICTED BY IDOCK:  -10.64 KCAL/MOL
REMARK 923 INTER-LIGAND FREE ENERGY PREDICTED BY IDOCK:   -8.97 KCAL/MOL
REMARK 924 INTRA-LIGAND FREE ENERGY PREDICTED BY IDOCK:   -1.67 KCAL/MOL
REMARK 927      BINDING AFFINITY PREDICTED BY RF-SCORE:    0.00 PKD
ROOT
HETATM    1  C   UNL     1     -12.313   8.447  72.129  1.00  0.00    -0.426 C  
HETATM    2  C   UNL     1     -11.714   7.649  71.001  1.00  0.00    -0.286 C  
HETATM    3  N   UNL     1     -10.567   8.142  70.435  1.00  0.00    -0.220 N  
HETATM    4  O   UNL     1     -12.267   6.623  70.603  1.00  0.00    -0.377 OA 
HETATM    5  O   UNL     1      -9.829   9.218  70.957  1.00  0.00    -0.273 OA 
ENDROOT
BRANCH   3   6
HETATM    6  C   UNL     1      -9.877   7.495  69.327  1.00  0.00    -0.170 C  
BRANCH   6   7
HETATM    7  C   UNL     1     -10.171   8.168  67.985  1.00  0.00    -0.263 C  
BRANCH   7   8
HETATM    8  C   UNL     1     -10.805   7.170  67.015  1.00  0.00    -0.382 C  
BRANCH   8   9
HETATM    9  C   UNL     1      -9.880   5.988  66.719  1.00  0.00    -0.198 C  
BRANCH   9  10
HETATM   10  C   UNL     1     -10.568   4.910  65.881  1.00  0.00    -0.230 C  
BRANCH  10  11
HETATM   11  N   UNL     1      -9.890   4.674  64.614  1.00  0.00    -0.368 N  
HETATM   12  C   UNL     1      -9.336   3.449  64.320  1.00  0.00    -0.136 C  
HETATM   13  H   UNL     1      -9.825   5.430  63.933  1.00  0.00     0.000 HD 
HETATM   14  O   UNL     1      -9.400   2.472  65.062  1.00  0.00    -0.146 OA 
BRANCH  12  15
HETATM   15  C   UNL     1      -8.644   3.414  62.974  1.00  0.00    -0.089 C  
BRANCH  15  16
HETATM   16  C   UNL     1      -7.247   2.813  63.107  1.00  0.00    -0.048 C  
BRANCH  16  17
HETATM   17  C   UNL     1      -6.357   3.616  64.036  1.00  0.00    -0.026 C  
HETATM   18  O   UNL     1      -5.994   3.162  65.119  1.00  0.00    -0.018 OA 
HETATM   19  N   UNL     1      -6.017   4.874  63.609  1.00  0.00    -0.017 N  
HETATM   20  O   UNL     1      -6.324   5.399  62.341  1.00  0.00    -0.018 OA 
BRANCH  19  21
HETATM   21  C   UNL     1      -5.233   5.810  64.402  1.00  0.00    -0.013 C  
BRANCH  21  22
HETATM   22  C   UNL     1      -6.107   6.696  65.294  1.00  0.00    -0.038 C  
BRANCH  22  23
HETATM   23  C   UNL     1      -5.603   8.149  65.375  1.00  0.00    -0.040 C  
BRANCH  23  24
HETATM   24  C   UNL     1      -6.667   9.180  64.995  1.00  0.00    -0.073 C  
BRANCH  24  25
HETATM   25  C   UNL     1      -7.039  10.066  66.182  1.00  0.00    -0.108 C  
BRANCH  25  26
HETATM   26  N   UNL     1      -8.395  10.567  66.072  1.00  0.00    -0.152 N  
HETATM   27  H   UNL     1      -8.843  10.586  65.155  1.00  0.00     0.000 HD 
HETATM   28  C   UNL     1      -9.093  11.017  67.167  1.00  0.00    -0.146 C  
HETATM   29  O   UNL     1      -8.642  11.012  68.308  1.00  0.00    -0.130 OA 
BRANCH  28  30
HETATM   30  C   UNL     1     -10.476  11.533  66.860  1.00  0.00    -0.270 C  
BRANCH  30  31
HETATM   31  C   UNL     1     -10.374  12.885  66.172  1.00  0.00    -0.286 C  
BRANCH  31  32
HETATM   32  C   UNL     1     -11.137  13.942  66.942  1.00  0.00    -0.301 C  
HETATM   33  N   UNL     1     -10.425  14.847  67.691  1.00  0.00    -0.246 N  
HETATM   34  O   UNL     1     -12.361  14.017  66.815  1.00  0.00    -0.439 OA 
HETATM   35  O   UNL     1      -9.141  14.508  68.158  1.00  0.00    -0.178 OA 
BRANCH  33  36
HETATM   36  C   UNL     1     -11.074  15.860  68.527  1.00  0.00    -0.340 C  
BRANCH  36  37
HETATM   37  C   UNL     1     -10.813  15.633  70.017  1.00  0.00    -0.340 C  
BRANCH  37  38
HETATM   38  C   UNL     1     -12.106  15.373  70.797  1.00  0.00    -0.413 C  
BRANCH  38  39
HETATM   39  C   UNL     1     -12.075  16.032  72.179  1.00  0.00    -0.611 C  
BRANCH  39  40
HETATM   40  C   UNL     1     -13.018  15.356  73.175  1.00  0.00    -0.515 C  
HETATM   41  N   UNL     1     -13.674  14.189  72.592  1.00  0.00    -0.640 NA 
HETATM   42  H2  UNL     1     -12.993  13.529  72.217  1.00  0.00     0.000 HD 
HETATM   43  H1  UNL     1     -14.303  13.738  73.256  1.00  0.00     0.000 HD 
ENDBRANCH  39  40
ENDBRANCH  38  39
ENDBRANCH  37  38
ENDBRANCH  36  37
ENDBRANCH  33  36
ENDBRANCH  31  32
ENDBRANCH  30  31
ENDBRANCH  28  30
ENDBRANCH  25  26
ENDBRANCH  24  25
ENDBRANCH  23  24
ENDBRANCH  22  23
ENDBRANCH  21  22
ENDBRANCH  19  21
ENDBRANCH  16  17
ENDBRANCH  15  16
ENDBRANCH  12  15
ENDBRANCH  10  11
ENDBRANCH   9  10
ENDBRANCH   8   9
ENDBRANCH   7   8
ENDBRANCH   6   7
ENDBRANCH   3   6
TORSDOF 23
ENDMDL
MODEL      267
REMARK 921   NORMALIZED FREE ENERGY PREDICTED BY IDOCK:   -3.32 KCAL/MOL
REMARK 922        TOTAL FREE ENERGY PREDICTED BY IDOCK:  -10.53 KCAL/MOL
REMARK 923 INTER-LIGAND FREE ENERGY PREDICTED BY IDOCK:   -7.31 KCAL/MOL
REMARK 924 INTRA-LIGAND FREE ENERGY PREDICTED BY IDOCK:   -3.22 KCAL/MOL
REMARK 927      BINDING AFFINITY PREDICTED BY RF-SCORE:    0.00 PKD
ROOT
HETATM    1  C   UNL     1     -12.401  15.350  69.881  1.00  0.00    -0.324 C  
HETATM    2  C   UNL     1     -11.802  15.131  68.516  1.00  0.00    -0.281 C  
HETATM    3  N   UNL     1     -11.013  16.135  68.019  1.00  0.00    -0.342 N  
HETATM    4  O   UNL     1     -12.054  14.104  67.885  1.00  0.00    -0.358 OA 
HETATM    5  O   UNL     1     -10.583  17.245  68.765  1.00  0.00    -0.338 OA 
ENDROOT
BRANCH   3   6
HETATM    6  C   UNL     1     -10.377  16.080  66.710  1.00  0.00    -0.300 C  
BRANCH   6   7
HETATM    7  C   UNL     1      -8.879  15.780  66.801  1.00  0.00    -0.299 C  
BRANCH   7   8
HETATM    8  C   UNL     1      -8.648  14.293  67.076  1.00  0.00    -0.213 C  
BRANCH   8   9
HETATM    9  C   UNL     1      -7.212  14.006  67.520  1.00  0.00    -0.183 C  
BRANCH   9  10
HETATM   10  C   UNL     1      -6.792  12.565  67.227  1.00  0.00    -0.114 C  
BRANCH  10  11
HETATM   11  N   UNL     1      -7.850  11.797  66.587  1.00  0.00    -0.330 N  
HETATM   12  C   UNL     1      -7.605  10.547  66.065  1.00  0.00    -0.140 C  
HETATM   13  H   UNL     1      -8.788  12.192  66.525  1.00  0.00     0.000 HD 
HETATM   14  O   UNL     1      -6.519   9.978  66.129  1.00  0.00    -0.077 OA 
BRANCH  12  15
HETATM   15  C   UNL     1      -8.820   9.927  65.408  1.00  0.00    -0.196 C  
BRANCH  15  16
HETATM   16  C   UNL     1     -10.102  10.467  66.037  1.00  0.00    -0.307 C  
BRANCH  16  17
HETATM   17  C   UNL     1     -10.569   9.626  67.210  1.00  0.00    -0.247 C  
HETATM   18  O   UNL     1     -10.909   8.455  67.057  1.00  0.00    -0.224 OA 
HETATM   19  N   UNL     1     -10.616  10.258  68.426  1.00  0.00    -0.202 N  
HETATM   20  O   UNL     1     -10.145  11.560  68.669  1.00  0.00    -0.209 OA 
BRANCH  19  21
HETATM   21  C   UNL     1     -11.107   9.628  69.643  1.00  0.00    -0.193 C  
BRANCH  21  22
HETATM   22  C   UNL     1     -10.039   8.775  70.332  1.00  0.00    -0.223 C  
BRANCH  22  23
HETATM   23  C   UNL     1     -10.123   8.833  71.869  1.00  0.00    -0.409 C  
BRANCH  23  24
HETATM   24  C   UNL     1      -8.998   8.067  72.566  1.00  0.00    -0.256 C  
BRANCH  24  25
HETATM   25  C   UNL     1      -7.629   8.449  72.006  1.00  0.00    -0.117 C  
BRANCH  25  26
HETATM   26  N   UNL     1      -7.034   7.359  71.259  1.00  0.00    -0.054 N  
HETATM   27  H   UNL     1      -6.960   6.441  71.697  1.00  0.00     0.000 HD 
HETATM   28  C   UNL     1      -6.566   7.528  69.978  1.00  0.00    -0.042 C  
HETATM   29  O   UNL     1      -6.632   8.591  69.367  1.00  0.00    -0.040 OA 
BRANCH  28  30
HETATM   30  C   UNL     1      -5.948   6.297  69.368  1.00  0.00    -0.021 C  
BRANCH  30  31
HETATM   31  C   UNL     1      -6.454   6.125  67.944  1.00  0.00    -0.049 C  
BRANCH  31  32
HETATM   32  C   UNL     1      -7.491   5.023  67.868  1.00  0.00    -0.079 C  
HETATM   33  N   UNL     1      -8.386   5.039  66.826  1.00  0.00    -0.108 N  
HETATM   34  O   UNL     1      -7.456   4.103  68.688  1.00  0.00    -0.055 OA 
HETATM   35  O   UNL     1      -8.686   6.255  66.184  1.00  0.00    -0.136 OA 
BRANCH  33  36
HETATM   36  C   UNL     1      -9.469   4.061  66.706  1.00  0.00    -0.199 C  
BRANCH  36  37
HETATM   37  C   UNL     1      -9.704   3.635  65.256  1.00  0.00    -0.144 C  
BRANCH  37  38
HETATM   38  C   UNL     1      -8.438   3.060  64.611  1.00  0.00    -0.094 C  
BRANCH  38  39
HETATM   39  C   UNL     1      -8.178   3.670  63.231  1.00  0.00    -0.088 C  
BRANCH  39  40
HETATM   40  C   UNL     1      -9.031   4.912  62.967  1.00  0.00    -0.046 C  
HETATM   41  N   UNL     1      -8.274   6.142  63.174  1.00  0.00    -0.271 NA 
HETATM   42  H2  UNL     1      -7.421   6.152  62.615  1.00  0.00     0.000 HD 
HETATM   43  H1  UNL     1      -8.843   6.971  62.998  1.00  0.00     0.000 HD 
ENDBRANCH  39  40
ENDBRANCH  38  39
ENDBRANCH  37  38
ENDBRANCH  36  37
ENDBRANCH  33  36
ENDBRANCH  31  32
ENDBRANCH  30  31
ENDBRANCH  28  30
ENDBRANCH  25  26
ENDBRANCH  24  25
ENDBRANCH  23  24
ENDBRANCH  22  23
ENDBRANCH  21  22
ENDBRANCH  19  21
ENDBRANCH  16  17
ENDBRANCH  15  16
ENDBRANCH  12  15
ENDBRANCH  10  11
ENDBRANCH   9  10
ENDBRANCH   8   9
ENDBRANCH   7   8
ENDBRANCH   6   7
ENDBRANCH   3   6
TORSDOF 23
ENDMDL
MODEL      268
REMARK 921   NORMALIZED FREE ENERGY PREDICTED BY IDOCK:   -3.29 KCAL/MOL
REMARK 922        TOTAL FREE ENERGY PREDICTED BY IDOCK:  -10.48 KCAL/MOL
REMARK 923 INTER-LIGAND FREE ENERGY PREDICTED BY IDOCK:   -8.01 KCAL/MOL
REMARK 924 INTRA-LIGAND FREE ENERGY PREDICTED BY IDOCK:   -2.47 KCAL/MOL
REMARK 927      BINDING AFFINITY PREDICTED BY RF-SCORE:    0.00 PKD
ROOT
HETATM    1  C   UNL     1     -12.274  15.605  70.214  1.00  0.00    -0.416 C  
HETATM    2  C   UNL     1     -11.868  15.136  68.841  1.00  0.00    -0.310 C  
HETATM    3  N   UNL     1     -11.143  16.013  68.077  1.00  0.00    -0.346 N  
HETATM    4  O   UNL     1     -12.212  14.025  68.437  1.00  0.00    -0.332 OA 
HETATM    5  O   UNL     1     -10.606  17.220  68.555  1.00  0.00    -0.354 OA 
ENDROOT
BRANCH   3   6
HETATM    6  C   UNL     1     -10.690  15.714  66.725  1.00  0.00    -0.300 C  
BRANCH   6   7
HETATM    7  C   UNL     1      -9.180  15.480  66.655  1.00  0.00    -0.299 C  
BRANCH   7   8
HETATM    8  C   UNL     1      -8.784  14.279  67.515  1.00  0.00    -0.204 C  
BRANCH   8   9
HETATM    9  C   UNL     1      -7.277  14.021  67.484  1.00  0.00    -0.183 C  
BRANCH   9  10
HETATM   10  C   UNL     1      -6.946  12.536  67.329  1.00  0.00    -0.112 C  
BRANCH  10  11
HETATM   11  N   UNL     1      -8.008  11.796  66.663  1.00  0.00    -0.323 N  
HETATM   12  C   UNL     1      -7.761  10.582  66.062  1.00  0.00    -0.147 C  
HETATM   13  H   UNL     1      -8.950  12.184  66.642  1.00  0.00     0.000 HD 
HETATM   14  O   UNL     1      -6.669  10.022  66.072  1.00  0.00    -0.088 OA 
BRANCH  12  15
HETATM   15  C   UNL     1      -8.982   9.990  65.391  1.00  0.00    -0.213 C  
BRANCH  15  16
HETATM   16  C   UNL     1     -10.246  10.348  66.170  1.00  0.00    -0.288 C  
BRANCH  16  17
HETATM   17  C   UNL     1     -10.434   9.479  67.398  1.00  0.00    -0.272 C  
HETATM   18  O   UNL     1     -10.472   8.254  67.311  1.00  0.00    -0.274 OA 
HETATM   19  N   UNL     1     -10.589  10.142  68.589  1.00  0.00    -0.200 N  
HETATM   20  O   UNL     1     -10.455  11.531  68.754  1.00  0.00    -0.201 OA 
BRANCH  19  21
HETATM   21  C   UNL     1     -10.852   9.473  69.855  1.00  0.00    -0.246 C  
BRANCH  21  22
HETATM   22  C   UNL     1      -9.628   8.723  70.386  1.00  0.00    -0.210 C  
BRANCH  22  23
HETATM   23  C   UNL     1      -8.316   9.509  70.201  1.00  0.00    -0.212 C  
BRANCH  23  24
HETATM   24  C   UNL     1      -7.065   8.653  70.405  1.00  0.00    -0.044 C  
BRANCH  24  25
HETATM   25  C   UNL     1      -7.008   7.496  69.410  1.00  0.00    -0.057 C  
BRANCH  25  26
HETATM   26  N   UNL     1      -7.300   6.228  70.048  1.00  0.00    -0.080 N  
HETATM   27  H   UNL     1      -6.945   6.053  70.988  1.00  0.00     0.000 HD 
HETATM   28  C   UNL     1      -8.040   5.253  69.421  1.00  0.00    -0.092 C  
HETATM   29  O   UNL     1      -8.522   5.385  68.300  1.00  0.00    -0.098 OA 
BRANCH  28  30
HETATM   30  C   UNL     1      -8.215   3.987  70.219  1.00  0.00    -0.073 C  
BRANCH  30  31
HETATM   31  C   UNL     1      -9.658   3.873  70.684  1.00  0.00    -0.259 C  
BRANCH  31  32
HETATM   32  C   UNL     1      -9.820   4.429  72.084  1.00  0.00    -0.176 C  
HETATM   33  N   UNL     1     -10.905   5.229  72.347  1.00  0.00    -0.229 N  
HETATM   34  O   UNL     1      -9.029   4.087  72.965  1.00  0.00    -0.100 OA 
HETATM   35  O   UNL     1     -11.523   5.933  71.296  1.00  0.00    -0.235 OA 
BRANCH  33  36
HETATM   36  C   UNL     1     -11.110   5.872  73.647  1.00  0.00     0.068 C  
BRANCH  36  37
HETATM   37  C   UNL     1      -9.804   6.404  74.241  1.00  0.00    -0.320 C  
BRANCH  37  38
HETATM   38  C   UNL     1      -9.374   7.726  73.597  1.00  0.00    -0.336 C  
BRANCH  38  39
HETATM   39  C   UNL     1      -7.934   8.093  73.967  1.00  0.00    -0.290 C  
BRANCH  39  40
HETATM   40  C   UNL     1      -7.119   6.884  74.431  1.00  0.00    -0.090 C  
HETATM   41  N   UNL     1      -6.558   6.145  73.304  1.00  0.00    -0.072 NA 
HETATM   42  H2  UNL     1      -6.008   6.754  72.698  1.00  0.00     0.000 HD 
HETATM   43  H1  UNL     1      -6.015   5.339  73.614  1.00  0.00     0.000 HD 
ENDBRANCH  39  40
ENDBRANCH  38  39
ENDBRANCH  37  38
ENDBRANCH  36  37
ENDBRANCH  33  36
ENDBRANCH  31  32
ENDBRANCH  30  31
ENDBRANCH  28  30
ENDBRANCH  25  26
ENDBRANCH  24  25
ENDBRANCH  23  24
ENDBRANCH  22  23
ENDBRANCH  21  22
ENDBRANCH  19  21
ENDBRANCH  16  17
ENDBRANCH  15  16
ENDBRANCH  12  15
ENDBRANCH  10  11
ENDBRANCH   9  10
ENDBRANCH   8   9
ENDBRANCH   7   8
ENDBRANCH   6   7
ENDBRANCH   3   6
TORSDOF 23
ENDMDL
MODEL      269
REMARK 921   NORMALIZED FREE ENERGY PREDICTED BY IDOCK:   -3.25 KCAL/MOL
REMARK 922        TOTAL FREE ENERGY PREDICTED BY IDOCK:  -10.38 KCAL/MOL
REMARK 923 INTER-LIGAND FREE ENERGY PREDICTED BY IDOCK:   -8.25 KCAL/MOL
REMARK 924 INTRA-LIGAND FREE ENERGY PREDICTED BY IDOCK:   -2.13 KCAL/MOL
REMARK 927      BINDING AFFINITY PREDICTED BY RF-SCORE:    0.00 PKD
ROOT
HETATM    1  C   UNL     1     -11.139   8.891  71.388  1.00  0.00    -0.376 C  
HETATM    2  C   UNL     1     -10.758   7.727  72.265  1.00  0.00    -0.269 C  
HETATM    3  N   UNL     1     -11.364   6.527  71.998  1.00  0.00    -0.271 N  
HETATM    4  O   UNL     1      -9.962   7.882  73.192  1.00  0.00    -0.280 OA 
HETATM    5  O   UNL     1     -12.155   6.277  70.864  1.00  0.00    -0.205 OA 
ENDROOT
BRANCH   3   6
HETATM    6  C   UNL     1     -11.113   5.314  72.764  1.00  0.00    -0.286 C  
BRANCH   6   7
HETATM    7  C   UNL     1      -9.749   4.696  72.448  1.00  0.00    -0.207 C  
BRANCH   7   8
HETATM    8  C   UNL     1      -9.875   3.676  71.315  1.00  0.00    -0.211 C  
BRANCH   8   9
HETATM    9  C   UNL     1      -9.188   4.152  70.033  1.00  0.00    -0.213 C  
BRANCH   9  10
HETATM   10  C   UNL     1     -10.180   4.739  69.028  1.00  0.00    -0.036 C  
BRANCH  10  11
HETATM   11  N   UNL     1      -9.959   6.158  68.795  1.00  0.00    -0.138 N  
HETATM   12  C   UNL     1     -10.597   6.819  67.769  1.00  0.00    -0.249 C  
HETATM   13  H   UNL     1      -9.321   6.672  69.402  1.00  0.00     0.000 HD 
HETATM   14  O   UNL     1     -11.410   6.291  67.015  1.00  0.00    -0.263 OA 
BRANCH  12  15
HETATM   15  C   UNL     1     -10.209   8.278  67.666  1.00  0.00    -0.294 C  
BRANCH  15  16
HETATM   16  C   UNL     1      -8.694   8.437  67.771  1.00  0.00    -0.137 C  
BRANCH  16  17
HETATM   17  C   UNL     1      -8.295   9.624  68.626  1.00  0.00    -0.114 C  
HETATM   18  O   UNL     1      -8.347   9.570  69.853  1.00  0.00    -0.133 OA 
HETATM   19  N   UNL     1      -7.909  10.753  67.951  1.00  0.00    -0.107 N  
HETATM   20  O   UNL     1      -7.739  10.832  66.558  1.00  0.00    -0.132 OA 
BRANCH  19  21
HETATM   21  C   UNL     1      -7.565  12.006  68.607  1.00  0.00    -0.112 C  
BRANCH  21  22
HETATM   22  C   UNL     1      -6.711  12.915  67.719  1.00  0.00    -0.141 C  
BRANCH  22  23
HETATM   23  C   UNL     1      -7.347  14.299  67.488  1.00  0.00    -0.199 C  
BRANCH  23  24
HETATM   24  C   UNL     1      -7.307  15.197  68.725  1.00  0.00    -0.131 C  
BRANCH  24  25
HETATM   25  C   UNL     1      -8.669  15.829  69.004  1.00  0.00    -0.237 C  
BRANCH  25  26
HETATM   26  N   UNL     1      -9.559  15.705  67.868  1.00  0.00    -0.206 N  
HETATM   27  H   UNL     1      -9.312  16.167  66.992  1.00  0.00     0.000 HD 
HETATM   28  C   UNL     1     -10.727  14.982  67.936  1.00  0.00    -0.268 C  
HETATM   29  O   UNL     1     -11.092  14.379  68.939  1.00  0.00    -0.239 OA 
BRANCH  28  30
HETATM   30  C   UNL     1     -11.545  14.991  66.670  1.00  0.00    -0.201 C  
BRANCH  30  31
HETATM   31  C   UNL     1     -10.672  14.571  65.497  1.00  0.00    -0.350 C  
BRANCH  31  32
HETATM   32  C   UNL     1     -10.684  13.067  65.325  1.00  0.00    -0.299 C  
HETATM   33  N   UNL     1     -11.104  12.548  64.125  1.00  0.00    -0.347 N  
HETATM   34  O   UNL     1     -10.242  12.352  66.228  1.00  0.00    -0.230 OA 
HETATM   35  O   UNL     1     -11.971  13.299  63.308  1.00  0.00    -0.511 OA 
BRANCH  33  36
HETATM   36  C   UNL     1     -11.220  11.108  63.887  1.00  0.00     0.025 C  
BRANCH  36  37
HETATM   37  C   UNL     1      -9.890  10.381  64.093  1.00  0.00    -0.379 C  
BRANCH  37  38
HETATM   38  C   UNL     1      -9.213  10.029  62.763  1.00  0.00    -0.313 C  
BRANCH  38  39
HETATM   39  C   UNL     1      -8.156  11.067  62.375  1.00  0.00    -0.205 C  
BRANCH  39  40
HETATM   40  C   UNL     1      -6.771  10.731  62.929  1.00  0.00     0.106 C  
HETATM   41  N   UNL     1      -6.696   9.352  63.399  1.00  0.00    -0.092 NA 
HETATM   42  H2  UNL     1      -6.973   8.696  62.669  1.00  0.00     0.000 HD 
HETATM   43  H1  UNL     1      -5.772   9.128  63.769  1.00  0.00     0.000 HD 
ENDBRANCH  39  40
ENDBRANCH  38  39
ENDBRANCH  37  38
ENDBRANCH  36  37
ENDBRANCH  33  36
ENDBRANCH  31  32
ENDBRANCH  30  31
ENDBRANCH  28  30
ENDBRANCH  25  26
ENDBRANCH  24  25
ENDBRANCH  23  24
ENDBRANCH  22  23
ENDBRANCH  21  22
ENDBRANCH  19  21
ENDBRANCH  16  17
ENDBRANCH  15  16
ENDBRANCH  12  15
ENDBRANCH  10  11
ENDBRANCH   9  10
ENDBRANCH   8   9
ENDBRANCH   7   8
ENDBRANCH   6   7
ENDBRANCH   3   6
TORSDOF 23
ENDMDL
MODEL      270
REMARK 921   NORMALIZED FREE ENERGY PREDICTED BY IDOCK:   -3.23 KCAL/MOL
REMARK 922        TOTAL FREE ENERGY PREDICTED BY IDOCK:  -10.32 KCAL/MOL
REMARK 923 INTER-LIGAND FREE ENERGY PREDICTED BY IDOCK:   -8.32 KCAL/MOL
REMARK 924 INTRA-LIGAND FREE ENERGY PREDICTED BY IDOCK:   -2.00 KCAL/MOL
REMARK 927      BINDING AFFINITY PREDICTED BY RF-SCORE:    0.00 PKD
ROOT
HETATM    1  C   UNL     1      -6.242  20.203  70.664  1.00  0.00    -0.318 C  
HETATM    2  C   UNL     1      -5.746  19.331  69.540  1.00  0.00    -0.235 C  
HETATM    3  N   UNL     1      -5.645  19.914  68.304  1.00  0.00    -0.208 N  
HETATM    4  O   UNL     1      -5.483  18.146  69.744  1.00  0.00    -0.195 OA 
HETATM    5  O   UNL     1      -5.789  21.291  68.066  1.00  0.00    -0.338 OA 
ENDROOT
BRANCH   3   6
HETATM    6  C   UNL     1      -5.197  19.200  67.116  1.00  0.00    -0.148 C  
BRANCH   6   7
HETATM    7  C   UNL     1      -6.273  18.266  66.557  1.00  0.00    -0.212 C  
BRANCH   7   8
HETATM    8  C   UNL     1      -7.475  19.072  66.061  1.00  0.00    -0.279 C  
BRANCH   8   9
HETATM    9  C   UNL     1      -8.772  18.659  66.758  1.00  0.00    -0.294 C  
BRANCH   9  10
HETATM   10  C   UNL     1      -8.530  17.650  67.882  1.00  0.00    -0.233 C  
BRANCH  10  11
HETATM   11  N   UNL     1      -9.145  16.359  67.612  1.00  0.00    -0.198 N  
HETATM   12  C   UNL     1     -10.484  16.145  67.848  1.00  0.00    -0.290 C  
HETATM   13  H   UNL     1      -8.574  15.601  67.240  1.00  0.00     0.000 HD 
HETATM   14  O   UNL     1     -11.255  17.009  68.256  1.00  0.00    -0.267 OA 
BRANCH  12  15
HETATM   15  C   UNL     1     -10.926  14.730  67.541  1.00  0.00    -0.304 C  
BRANCH  15  16
HETATM   16  C   UNL     1      -9.821  13.737  67.893  1.00  0.00    -0.232 C  
BRANCH  16  17
HETATM   17  C   UNL     1      -9.999  12.402  67.197  1.00  0.00    -0.207 C  
HETATM   18  O   UNL     1      -9.556  12.210  66.066  1.00  0.00    -0.238 OA 
HETATM   19  N   UNL     1     -10.704  11.449  67.887  1.00  0.00    -0.189 N  
HETATM   20  O   UNL     1     -11.143  11.586  69.215  1.00  0.00    -0.239 OA 
BRANCH  19  21
HETATM   21  C   UNL     1     -11.034  10.140  67.344  1.00  0.00    -0.229 C  
BRANCH  21  22
HETATM   22  C   UNL     1     -10.584   8.997  68.258  1.00  0.00    -0.213 C  
BRANCH  22  23
HETATM   23  C   UNL     1      -9.103   9.104  68.669  1.00  0.00    -0.136 C  
BRANCH  23  24
HETATM   24  C   UNL     1      -8.145   8.520  67.630  1.00  0.00    -0.107 C  
BRANCH  24  25
HETATM   25  C   UNL     1      -8.414   7.036  67.390  1.00  0.00    -0.122 C  
BRANCH  25  26
HETATM   26  N   UNL     1      -8.293   6.265  68.611  1.00  0.00    -0.112 N  
HETATM   27  H   UNL     1      -9.075   6.250  69.267  1.00  0.00     0.000 HD 
HETATM   28  C   UNL     1      -7.155   5.554  68.911  1.00  0.00    -0.061 C  
HETATM   29  O   UNL     1      -6.177   5.499  68.173  1.00  0.00    -0.030 OA 
BRANCH  28  30
HETATM   30  C   UNL     1      -7.193   4.840  70.238  1.00  0.00    -0.050 C  
BRANCH  30  31
HETATM   31  C   UNL     1      -8.232   3.731  70.191  1.00  0.00    -0.072 C  
BRANCH  31  32
HETATM   32  C   UNL     1      -9.557   4.207  70.747  1.00  0.00    -0.190 C  
HETATM   33  N   UNL     1      -9.732   4.207  72.110  1.00  0.00    -0.154 N  
HETATM   34  O   UNL     1     -10.409   4.656  69.978  1.00  0.00    -0.205 OA 
HETATM   35  O   UNL     1      -8.971   3.334  72.910  1.00  0.00    -0.087 OA 
BRANCH  33  36
HETATM   36  C   UNL     1     -11.000   4.580  72.740  1.00  0.00    -0.125 C  
BRANCH  36  37
HETATM   37  C   UNL     1     -10.920   5.939  73.438  1.00  0.00    -0.230 C  
BRANCH  37  38
HETATM   38  C   UNL     1     -10.610   7.075  72.457  1.00  0.00    -0.255 C  
BRANCH  38  39
HETATM   39  C   UNL     1     -11.506   8.293  72.702  1.00  0.00    -0.423 C  
BRANCH  39  40
HETATM   40  C   UNL     1     -11.453   9.302  71.554  1.00  0.00    -0.384 C  
HETATM   41  N   UNL     1     -12.752   9.451  70.905  1.00  0.00    -0.510 NA 
HETATM   42  H2  UNL     1     -13.478   9.692  71.579  1.00  0.00     0.000 HD 
HETATM   43  H1  UNL     1     -12.717  10.124  70.139  1.00  0.00     0.000 HD 
ENDBRANCH  39  40
ENDBRANCH  38  39
ENDBRANCH  37  38
ENDBRANCH  36  37
ENDBRANCH  33  36
ENDBRANCH  31  32
ENDBRANCH  30  31
ENDBRANCH  28  30
ENDBRANCH  25  26
ENDBRANCH  24  25
ENDBRANCH  23  24
ENDBRANCH  22  23
ENDBRANCH  21  22
ENDBRANCH  19  21
ENDBRANCH  16  17
ENDBRANCH  15  16
ENDBRANCH  12  15
ENDBRANCH  10  11
ENDBRANCH   9  10
ENDBRANCH   8   9
ENDBRANCH   7   8
ENDBRANCH   6   7
ENDBRANCH   3   6
TORSDOF 23
ENDMDL
MODEL      271
REMARK 921   NORMALIZED FREE ENERGY PREDICTED BY IDOCK:   -3.22 KCAL/MOL
REMARK 922        TOTAL FREE ENERGY PREDICTED BY IDOCK:  -10.30 KCAL/MOL
REMARK 923 INTER-LIGAND FREE ENERGY PREDICTED BY IDOCK:   -7.98 KCAL/MOL
REMARK 924 INTRA-LIGAND FREE ENERGY PREDICTED BY IDOCK:   -2.32 KCAL/MOL
REMARK 927      BINDING AFFINITY PREDICTED BY RF-SCORE:    0.00 PKD
ROOT
HETATM    1  C   UNL     1      -8.438   8.142  73.453  1.00  0.00    -0.303 C  
HETATM    2  C   UNL     1      -7.854   8.167  72.065  1.00  0.00    -0.118 C  
HETATM    3  N   UNL     1      -6.660   8.820  71.907  1.00  0.00    -0.076 N  
HETATM    4  O   UNL     1      -8.458   7.645  71.127  1.00  0.00    -0.113 OA 
HETATM    5  O   UNL     1      -5.872   9.293  72.971  1.00  0.00    -0.267 OA 
ENDROOT
BRANCH   3   6
HETATM    6  C   UNL     1      -5.976   8.945  70.627  1.00  0.00    -0.035 C  
BRANCH   6   7
HETATM    7  C   UNL     1      -5.996   7.642  69.826  1.00  0.00    -0.023 C  
BRANCH   7   8
HETATM    8  C   UNL     1      -5.433   7.869  68.422  1.00  0.00    -0.032 C  
BRANCH   8   9
HETATM    9  C   UNL     1      -6.537   8.109  67.391  1.00  0.00    -0.058 C  
BRANCH   9  10
HETATM   10  C   UNL     1      -6.599   9.568  66.937  1.00  0.00    -0.068 C  
BRANCH  10  11
HETATM   11  N   UNL     1      -7.937   9.966  66.526  1.00  0.00    -0.109 N  
HETATM   12  C   UNL     1      -8.290  10.010  65.196  1.00  0.00    -0.153 C  
HETATM   13  H   UNL     1      -8.625  10.216  67.235  1.00  0.00     0.000 HD 
HETATM   14  O   UNL     1      -7.540   9.689  64.277  1.00  0.00    -0.117 OA 
BRANCH  12  15
HETATM   15  C   UNL     1      -9.710  10.483  64.970  1.00  0.00    -0.351 C  
BRANCH  15  16
HETATM   16  C   UNL     1      -9.784  12.006  65.048  1.00  0.00    -0.142 C  
BRANCH  16  17
HETATM   17  C   UNL     1     -10.068  12.500  66.453  1.00  0.00    -0.243 C  
HETATM   18  O   UNL     1      -9.154  12.791  67.222  1.00  0.00    -0.184 OA 
HETATM   19  N   UNL     1     -11.390  12.569  66.814  1.00  0.00    -0.313 N  
HETATM   20  O   UNL     1     -12.469  12.344  65.942  1.00  0.00    -0.583 OA 
BRANCH  19  21
HETATM   21  C   UNL     1     -11.843  12.950  68.144  1.00  0.00    -0.336 C  
BRANCH  21  22
HETATM   22  C   UNL     1     -11.673  11.821  69.165  1.00  0.00    -0.388 C  
BRANCH  22  23
HETATM   23  C   UNL     1     -12.264  12.166  70.545  1.00  0.00    -0.392 C  
BRANCH  23  24
HETATM   24  C   UNL     1     -13.036  11.009  71.178  1.00  0.00    -0.326 C  
BRANCH  24  25
HETATM   25  C   UNL     1     -12.095   9.926  71.702  1.00  0.00    -0.373 C  
BRANCH  25  26
HETATM   26  N   UNL     1     -12.003   8.808  70.785  1.00  0.00    -0.455 N  
HETATM   27  H   UNL     1     -12.080   8.981  69.782  1.00  0.00     0.000 HD 
HETATM   28  C   UNL     1     -11.816   7.520  71.228  1.00  0.00    -0.294 C  
HETATM   29  O   UNL     1     -11.692   7.222  72.412  1.00  0.00    -0.278 OA 
BRANCH  28  30
HETATM   30  C   UNL     1     -11.778   6.480  70.137  1.00  0.00    -0.419 C  
BRANCH  30  31
HETATM   31  C   UNL     1     -10.661   6.807  69.159  1.00  0.00    -0.261 C  
BRANCH  31  32
HETATM   32  C   UNL     1     -10.059   5.543  68.583  1.00  0.00    -0.183 C  
HETATM   33  N   UNL     1     -10.123   5.348  67.225  1.00  0.00    -0.174 N  
HETATM   34  O   UNL     1      -9.460   4.765  69.329  1.00  0.00    -0.126 OA 
HETATM   35  O   UNL     1     -11.133   5.982  66.477  1.00  0.00    -0.209 OA 
BRANCH  33  36
HETATM   36  C   UNL     1      -9.635   4.126  66.582  1.00  0.00    -0.206 C  
BRANCH  36  37
HETATM   37  C   UNL     1      -8.482   4.403  65.616  1.00  0.00    -0.115 C  
BRANCH  37  38
HETATM   38  C   UNL     1      -7.123   4.027  66.216  1.00  0.00    -0.064 C  
BRANCH  38  39
HETATM   39  C   UNL     1      -7.243   2.858  67.199  1.00  0.00    -0.054 C  
BRANCH  39  40
HETATM   40  C   UNL     1      -6.379   3.048  68.447  1.00  0.00    -0.029 C  
HETATM   41  N   UNL     1      -5.326   4.035  68.231  1.00  0.00    -0.012 NA 
HETATM   42  H2  UNL     1      -5.710   4.922  67.906  1.00  0.00     0.000 HD 
HETATM   43  H1  UNL     1      -4.750   4.161  69.064  1.00  0.00     0.000 HD 
ENDBRANCH  39  40
ENDBRANCH  38  39
ENDBRANCH  37  38
ENDBRANCH  36  37
ENDBRANCH  33  36
ENDBRANCH  31  32
ENDBRANCH  30  31
ENDBRANCH  28  30
ENDBRANCH  25  26
ENDBRANCH  24  25
ENDBRANCH  23  24
ENDBRANCH  22  23
ENDBRANCH  21  22
ENDBRANCH  19  21
ENDBRANCH  16  17
ENDBRANCH  15  16
ENDBRANCH  12  15
ENDBRANCH  10  11
ENDBRANCH   9  10
ENDBRANCH   8   9
ENDBRANCH   7   8
ENDBRANCH   6   7
ENDBRANCH   3   6
TORSDOF 23
ENDMDL
MODEL      272
REMARK 921   NORMALIZED FREE ENERGY PREDICTED BY IDOCK:   -3.22 KCAL/MOL
REMARK 922        TOTAL FREE ENERGY PREDICTED BY IDOCK:  -10.30 KCAL/MOL
REMARK 923 INTER-LIGAND FREE ENERGY PREDICTED BY IDOCK:   -8.21 KCAL/MOL
REMARK 924 INTRA-LIGAND FREE ENERGY PREDICTED BY IDOCK:   -2.08 KCAL/MOL
REMARK 927      BINDING AFFINITY PREDICTED BY RF-SCORE:    0.00 PKD
ROOT
HETATM    1  C   UNL     1     -12.420  10.540  71.081  1.00  0.00    -0.517 C  
HETATM    2  C   UNL     1     -11.606  10.662  69.819  1.00  0.00    -0.309 C  
HETATM    3  N   UNL     1     -11.449  11.921  69.304  1.00  0.00    -0.284 N  
HETATM    4  O   UNL     1     -11.143   9.656  69.279  1.00  0.00    -0.208 OA 
HETATM    5  O   UNL     1     -11.830  13.100  69.967  1.00  0.00    -0.321 OA 
ENDROOT
BRANCH   3   6
HETATM    6  C   UNL     1     -10.704  12.201  68.084  1.00  0.00    -0.211 C  
BRANCH   6   7
HETATM    7  C   UNL     1     -10.234  13.655  68.008  1.00  0.00    -0.248 C  
BRANCH   7   8
HETATM    8  C   UNL     1     -10.598  14.265  66.653  1.00  0.00    -0.278 C  
BRANCH   8   9
HETATM    9  C   UNL     1     -10.581  15.794  66.687  1.00  0.00    -0.307 C  
BRANCH   9  10
HETATM   10  C   UNL     1     -11.023  16.350  68.042  1.00  0.00    -0.327 C  
BRANCH  10  11
HETATM   11  N   UNL     1     -10.111  17.363  68.551  1.00  0.00    -0.331 N  
HETATM   12  C   UNL     1     -10.204  18.675  68.144  1.00  0.00    -0.382 C  
HETATM   13  H   UNL     1      -9.390  17.096  69.221  1.00  0.00     0.000 HD 
HETATM   14  O   UNL     1     -11.063  19.093  67.372  1.00  0.00    -0.426 OA 
BRANCH  12  15
HETATM   15  C   UNL     1      -9.145  19.566  68.755  1.00  0.00    -0.381 C  
BRANCH  15  16
HETATM   16  C   UNL     1      -8.060  19.889  67.729  1.00  0.00    -0.329 C  
BRANCH  16  17
HETATM   17  C   UNL     1      -7.609  18.662  66.960  1.00  0.00    -0.226 C  
HETATM   18  O   UNL     1      -7.880  18.523  65.769  1.00  0.00    -0.504 OA 
HETATM   19  N   UNL     1      -6.919  17.719  67.677  1.00  0.00    -0.179 N  
HETATM   20  O   UNL     1      -6.501  17.876  69.011  1.00  0.00    -0.218 OA 
BRANCH  19  21
HETATM   21  C   UNL     1      -6.475  16.449  67.121  1.00  0.00    -0.192 C  
BRANCH  21  22
HETATM   22  C   UNL     1      -5.761  15.575  68.155  1.00  0.00    -0.132 C  
BRANCH  22  23
HETATM   23  C   UNL     1      -6.630  14.406  68.655  1.00  0.00    -0.088 C  
BRANCH  23  24
HETATM   24  C   UNL     1      -6.758  13.270  67.639  1.00  0.00    -0.171 C  
BRANCH  24  25
HETATM   25  C   UNL     1      -5.444  12.508  67.482  1.00  0.00    -0.123 C  
BRANCH  25  26
HETATM   26  N   UNL     1      -5.604  11.330  66.653  1.00  0.00    -0.114 N  
HETATM   27  H   UNL     1      -5.600  11.434  65.638  1.00  0.00     0.000 HD 
HETATM   28  C   UNL     1      -5.763  10.077  67.195  1.00  0.00    -0.046 C  
HETATM   29  O   UNL     1      -5.760   9.856  68.402  1.00  0.00    -0.042 OA 
BRANCH  28  30
HETATM   30  C   UNL     1      -5.950   8.974  66.185  1.00  0.00    -0.055 C  
BRANCH  30  31
HETATM   31  C   UNL     1      -7.232   9.212  65.403  1.00  0.00    -0.085 C  
BRANCH  31  32
HETATM   32  C   UNL     1      -8.435   8.701  66.168  1.00  0.00    -0.133 C  
HETATM   33  N   UNL     1      -8.719   7.358  66.118  1.00  0.00    -0.151 N  
HETATM   34  O   UNL     1      -9.076   9.481  66.876  1.00  0.00    -0.132 OA 
HETATM   35  O   UNL     1      -8.276   6.593  65.023  1.00  0.00    -0.134 OA 
BRANCH  33  36
HETATM   36  C   UNL     1      -9.899   6.780  66.764  1.00  0.00    -0.178 C  
BRANCH  36  37
HETATM   37  C   UNL     1      -9.627   6.386  68.217  1.00  0.00    -0.123 C  
BRANCH  37  38
HETATM   38  C   UNL     1      -8.793   5.104  68.321  1.00  0.00    -0.107 C  
BRANCH  38  39
HETATM   39  C   UNL     1      -9.482   3.923  67.630  1.00  0.00    -0.233 C  
BRANCH  39  40
HETATM   40  C   UNL     1      -9.087   2.576  68.237  1.00  0.00    -0.179 C  
HETATM   41  N   UNL     1      -9.822   2.300  69.466  1.00  0.00     0.193 NA 
HETATM   42  H2  UNL     1     -10.829   2.360  69.319  1.00  0.00     0.000 HD 
HETATM   43  H1  UNL     1      -9.559   1.401  69.871  1.00  0.00     0.000 HD 
ENDBRANCH  39  40
ENDBRANCH  38  39
ENDBRANCH  37  38
ENDBRANCH  36  37
ENDBRANCH  33  36
ENDBRANCH  31  32
ENDBRANCH  30  31
ENDBRANCH  28  30
ENDBRANCH  25  26
ENDBRANCH  24  25
ENDBRANCH  23  24
ENDBRANCH  22  23
ENDBRANCH  21  22
ENDBRANCH  19  21
ENDBRANCH  16  17
ENDBRANCH  15  16
ENDBRANCH  12  15
ENDBRANCH  10  11
ENDBRANCH   9  10
ENDBRANCH   8   9
ENDBRANCH   7   8
ENDBRANCH   6   7
ENDBRANCH   3   6
TORSDOF 23
ENDMDL
MODEL      273
REMARK 921   NORMALIZED FREE ENERGY PREDICTED BY IDOCK:   -3.20 KCAL/MOL
REMARK 922        TOTAL FREE ENERGY PREDICTED BY IDOCK:  -10.25 KCAL/MOL
REMARK 923 INTER-LIGAND FREE ENERGY PREDICTED BY IDOCK:   -8.21 KCAL/MOL
REMARK 924 INTRA-LIGAND FREE ENERGY PREDICTED BY IDOCK:   -2.04 KCAL/MOL
REMARK 927      BINDING AFFINITY PREDICTED BY RF-SCORE:    0.00 PKD
ROOT
HETATM    1  C   UNL     1      -6.914  10.116  68.196  1.00  0.00    -0.075 C  
HETATM    2  C   UNL     1      -7.515   9.105  67.256  1.00  0.00    -0.088 C  
HETATM    3  N   UNL     1      -8.028   9.582  66.079  1.00  0.00    -0.106 N  
HETATM    4  O   UNL     1      -7.559   7.915  67.569  1.00  0.00    -0.100 OA 
HETATM    5  O   UNL     1      -7.862  10.901  65.622  1.00  0.00    -0.118 OA 
ENDROOT
BRANCH   3   6
HETATM    6  C   UNL     1      -8.655   8.734  65.074  1.00  0.00    -0.169 C  
BRANCH   6   7
HETATM    7  C   UNL     1      -7.670   8.284  63.994  1.00  0.00    -0.140 C  
BRANCH   7   8
HETATM    8  C   UNL     1      -7.787   6.777  63.758  1.00  0.00    -0.107 C  
BRANCH   8   9
HETATM    9  C   UNL     1      -6.519   6.029  64.175  1.00  0.00    -0.033 C  
BRANCH   9  10
HETATM   10  C   UNL     1      -6.656   4.516  64.005  1.00  0.00    -0.042 C  
BRANCH  10  11
HETATM   11  N   UNL     1      -7.707   3.956  64.842  1.00  0.00    -0.080 N  
HETATM   12  C   UNL     1      -7.407   3.142  65.912  1.00  0.00    -0.072 C  
HETATM   13  H   UNL     1      -8.681   4.170  64.633  1.00  0.00     0.000 HD 
HETATM   14  O   UNL     1      -6.263   2.863  66.261  1.00  0.00    -0.024 OA 
BRANCH  12  15
HETATM   15  C   UNL     1      -8.635   2.629  66.634  1.00  0.00    -0.114 C  
BRANCH  15  16
HETATM   16  C   UNL     1      -9.142   3.669  67.630  1.00  0.00    -0.189 C  
BRANCH  16  17
HETATM   17  C   UNL     1      -8.477   3.542  68.987  1.00  0.00    -0.070 C  
HETATM   18  O   UNL     1      -7.938   2.494  69.336  1.00  0.00    -0.042 OA 
HETATM   19  N   UNL     1      -8.545   4.645  69.799  1.00  0.00    -0.073 N  
HETATM   20  O   UNL     1      -9.062   5.894  69.410  1.00  0.00    -0.126 OA 
BRANCH  19  21
HETATM   21  C   UNL     1      -8.028   4.678  71.159  1.00  0.00    -0.087 C  
BRANCH  21  22
HETATM   22  C   UNL     1      -7.699   6.099  71.626  1.00  0.00    -0.101 C  
BRANCH  22  23
HETATM   23  C   UNL     1      -8.376   6.463  72.961  1.00  0.00    -0.116 C  
BRANCH  23  24
HETATM   24  C   UNL     1      -9.272   7.699  72.866  1.00  0.00    -0.242 C  
BRANCH  24  25
HETATM   25  C   UNL     1     -10.457   7.462  71.932  1.00  0.00    -0.201 C  
BRANCH  25  26
HETATM   26  N   UNL     1     -10.865   8.682  71.265  1.00  0.00    -0.242 N  
HETATM   27  H   UNL     1     -10.232   9.113  70.591  1.00  0.00     0.000 HD 
HETATM   28  C   UNL     1     -12.080   9.274  71.515  1.00  0.00    -0.361 C  
HETATM   29  O   UNL     1     -12.910   8.815  72.294  1.00  0.00    -0.369 OA 
BRANCH  28  30
HETATM   30  C   UNL     1     -12.322  10.554  70.758  1.00  0.00    -0.474 C  
BRANCH  30  31
HETATM   31  C   UNL     1     -11.053  10.960  70.024  1.00  0.00    -0.285 C  
BRANCH  31  32
HETATM   32  C   UNL     1     -11.262  10.926  68.524  1.00  0.00    -0.274 C  
HETATM   33  N   UNL     1     -11.412  12.119  67.859  1.00  0.00    -0.305 N  
HETATM   34  O   UNL     1     -11.212   9.847  67.931  1.00  0.00    -0.226 OA 
HETATM   35  O   UNL     1     -11.884  13.250  68.552  1.00  0.00    -0.323 OA 
BRANCH  33  36
HETATM   36  C   UNL     1     -11.691  12.188  66.423  1.00  0.00    -0.324 C  
BRANCH  36  37
HETATM   37  C   UNL     1     -10.414  12.328  65.593  1.00  0.00    -0.293 C  
BRANCH  37  38
HETATM   38  C   UNL     1     -10.365  13.655  64.828  1.00  0.00    -0.414 C  
BRANCH  38  39
HETATM   39  C   UNL     1     -11.166  14.748  65.542  1.00  0.00    -0.346 C  
BRANCH  39  40
HETATM   40  C   UNL     1     -12.276  15.330  64.666  1.00  0.00    -0.138 C  
HETATM   41  N   UNL     1     -11.817  16.490  63.909  1.00  0.00    -1.323 NA 
HETATM   42  H2  UNL     1     -10.987  16.270  63.360  1.00  0.00     0.000 HD 
HETATM   43  H1  UNL     1     -12.558  16.879  63.325  1.00  0.00     0.000 HD 
ENDBRANCH  39  40
ENDBRANCH  38  39
ENDBRANCH  37  38
ENDBRANCH  36  37
ENDBRANCH  33  36
ENDBRANCH  31  32
ENDBRANCH  30  31
ENDBRANCH  28  30
ENDBRANCH  25  26
ENDBRANCH  24  25
ENDBRANCH  23  24
ENDBRANCH  22  23
ENDBRANCH  21  22
ENDBRANCH  19  21
ENDBRANCH  16  17
ENDBRANCH  15  16
ENDBRANCH  12  15
ENDBRANCH  10  11
ENDBRANCH   9  10
ENDBRANCH   8   9
ENDBRANCH   7   8
ENDBRANCH   6   7
ENDBRANCH   3   6
TORSDOF 23
ENDMDL
MODEL      274
REMARK 921   NORMALIZED FREE ENERGY PREDICTED BY IDOCK:   -3.18 KCAL/MOL
REMARK 922        TOTAL FREE ENERGY PREDICTED BY IDOCK:  -10.21 KCAL/MOL
REMARK 923 INTER-LIGAND FREE ENERGY PREDICTED BY IDOCK:   -8.88 KCAL/MOL
REMARK 924 INTRA-LIGAND FREE ENERGY PREDICTED BY IDOCK:   -1.33 KCAL/MOL
REMARK 927      BINDING AFFINITY PREDICTED BY RF-SCORE:    0.00 PKD
ROOT
HETATM    1  C   UNL     1     -10.560   9.499  69.960  1.00  0.00    -0.280 C  
HETATM    2  C   UNL     1     -10.961   8.537  71.048  1.00  0.00    -0.249 C  
HETATM    3  N   UNL     1     -11.316   7.273  70.656  1.00  0.00    -0.277 N  
HETATM    4  O   UNL     1     -10.993   8.906  72.222  1.00  0.00    -0.337 OA 
HETATM    5  O   UNL     1     -11.148   6.773  69.354  1.00  0.00    -0.268 OA 
ENDROOT
BRANCH   3   6
HETATM    6  C   UNL     1     -11.742   6.235  71.585  1.00  0.00    -0.284 C  
BRANCH   6   7
HETATM    7  C   UNL     1     -10.590   5.718  72.450  1.00  0.00    -0.264 C  
BRANCH   7   8
HETATM    8  C   UNL     1     -10.287   4.256  72.118  1.00  0.00    -0.193 C  
BRANCH   8   9
HETATM    9  C   UNL     1      -9.862   4.074  70.659  1.00  0.00    -0.229 C  
BRANCH   9  10
HETATM   10  C   UNL     1      -8.623   3.188  70.523  1.00  0.00    -0.063 C  
BRANCH  10  11
HETATM   11  N   UNL     1      -7.808   3.547  69.372  1.00  0.00    -0.051 N  
HETATM   12  C   UNL     1      -8.020   2.970  68.141  1.00  0.00    -0.062 C  
HETATM   13  H   UNL     1      -7.066   4.239  69.481  1.00  0.00     0.000 HD 
HETATM   14  O   UNL     1      -8.913   2.159  67.909  1.00  0.00    -0.120 OA 
BRANCH  12  15
HETATM   15  C   UNL     1      -7.046   3.444  67.083  1.00  0.00    -0.058 C  
BRANCH  15  16
HETATM   16  C   UNL     1      -7.757   3.623  65.744  1.00  0.00    -0.085 C  
BRANCH  16  17
HETATM   17  C   UNL     1      -8.457   4.964  65.635  1.00  0.00    -0.124 C  
HETATM   18  O   UNL     1      -9.640   5.091  65.943  1.00  0.00    -0.157 OA 
HETATM   19  N   UNL     1      -7.703   6.001  65.148  1.00  0.00    -0.089 N  
HETATM   20  O   UNL     1      -6.326   5.930  64.877  1.00  0.00    -0.035 OA 
BRANCH  19  21
HETATM   21  C   UNL     1      -8.230   7.337  64.908  1.00  0.00    -0.073 C  
BRANCH  21  22
HETATM   22  C   UNL     1      -8.386   8.145  66.199  1.00  0.00    -0.126 C  
BRANCH  22  23
HETATM   23  C   UNL     1      -9.680   8.980  66.233  1.00  0.00    -0.345 C  
BRANCH  23  24
HETATM   24  C   UNL     1      -9.524  10.361  65.596  1.00  0.00    -0.262 C  
BRANCH  24  25
HETATM   25  C   UNL     1      -8.221  11.032  66.023  1.00  0.00    -0.129 C  
BRANCH  25  26
HETATM   26  N   UNL     1      -8.401  12.451  66.258  1.00  0.00    -0.370 N  
HETATM   27  H   UNL     1      -7.871  13.118  65.695  1.00  0.00     0.000 HD 
HETATM   28  C   UNL     1      -9.265  12.923  67.216  1.00  0.00    -0.208 C  
HETATM   29  O   UNL     1      -9.956  12.196  67.923  1.00  0.00    -0.189 OA 
BRANCH  28  30
HETATM   30  C   UNL     1      -9.300  14.425  67.345  1.00  0.00    -0.199 C  
BRANCH  30  31
HETATM   31  C   UNL     1     -10.703  14.930  67.044  1.00  0.00    -0.307 C  
BRANCH  31  32
HETATM   32  C   UNL     1     -10.654  16.247  66.299  1.00  0.00    -0.255 C  
HETATM   33  N   UNL     1     -10.380  17.390  67.009  1.00  0.00    -0.324 N  
HETATM   34  O   UNL     1     -10.780  16.252  65.072  1.00  0.00    -0.600 OA 
HETATM   35  O   UNL     1     -10.658  17.438  68.388  1.00  0.00    -0.367 OA 
BRANCH  33  36
HETATM   36  C   UNL     1     -10.383  18.719  66.392  1.00  0.00    -0.439 C  
BRANCH  36  37
HETATM   37  C   UNL     1      -9.003  19.379  66.437  1.00  0.00    -0.395 C  
BRANCH  37  38
HETATM   38  C   UNL     1      -7.870  18.348  66.442  1.00  0.00    -0.291 C  
BRANCH  38  39
HETATM   39  C   UNL     1      -6.495  19.019  66.507  1.00  0.00    -0.207 C  
BRANCH  39  40
HETATM   40  C   UNL     1      -6.254  19.739  67.835  1.00  0.00    -0.219 C  
HETATM   41  N   UNL     1      -6.396  21.185  67.700  1.00  0.00    -0.349 NA 
HETATM   42  H2  UNL     1      -7.301  21.434  67.301  1.00  0.00     0.000 HD 
HETATM   43  H1  UNL     1      -6.235  21.665  68.586  1.00  0.00     0.000 HD 
ENDBRANCH  39  40
ENDBRANCH  38  39
ENDBRANCH  37  38
ENDBRANCH  36  37
ENDBRANCH  33  36
ENDBRANCH  31  32
ENDBRANCH  30  31
ENDBRANCH  28  30
ENDBRANCH  25  26
ENDBRANCH  24  25
ENDBRANCH  23  24
ENDBRANCH  22  23
ENDBRANCH  21  22
ENDBRANCH  19  21
ENDBRANCH  16  17
ENDBRANCH  15  16
ENDBRANCH  12  15
ENDBRANCH  10  11
ENDBRANCH   9  10
ENDBRANCH   8   9
ENDBRANCH   7   8
ENDBRANCH   6   7
ENDBRANCH   3   6
TORSDOF 23
ENDMDL
MODEL      275
REMARK 921   NORMALIZED FREE ENERGY PREDICTED BY IDOCK:   -3.17 KCAL/MOL
REMARK 922        TOTAL FREE ENERGY PREDICTED BY IDOCK:  -10.19 KCAL/MOL
REMARK 923 INTER-LIGAND FREE ENERGY PREDICTED BY IDOCK:   -8.63 KCAL/MOL
REMARK 924 INTRA-LIGAND FREE ENERGY PREDICTED BY IDOCK:   -1.55 KCAL/MOL
REMARK 927      BINDING AFFINITY PREDICTED BY RF-SCORE:    0.00 PKD
ROOT
HETATM    1  C   UNL     1     -10.092  11.935  63.871  1.00  0.00    -0.396 C  
HETATM    2  C   UNL     1     -10.031  11.936  65.376  1.00  0.00    -0.252 C  
HETATM    3  N   UNL     1     -10.969  12.690  66.032  1.00  0.00    -0.275 N  
HETATM    4  O   UNL     1      -9.150  11.306  65.962  1.00  0.00    -0.200 OA 
HETATM    5  O   UNL     1     -12.073  13.295  65.409  1.00  0.00    -0.371 OA 
ENDROOT
BRANCH   3   6
HETATM    6  C   UNL     1     -11.032  12.805  67.483  1.00  0.00    -0.249 C  
BRANCH   6   7
HETATM    7  C   UNL     1      -9.886  13.645  68.051  1.00  0.00    -0.244 C  
BRANCH   7   8
HETATM    8  C   UNL     1     -10.320  15.103  68.209  1.00  0.00    -0.231 C  
BRANCH   8   9
HETATM    9  C   UNL     1     -11.817  15.231  68.498  1.00  0.00    -0.305 C  
BRANCH   9  10
HETATM   10  C   UNL     1     -12.107  15.406  69.989  1.00  0.00    -0.359 C  
BRANCH  10  11
HETATM   11  N   UNL     1     -12.303  14.135  70.670  1.00  0.00    -0.342 N  
HETATM   12  C   UNL     1     -13.408  13.913  71.461  1.00  0.00    -0.335 C  
HETATM   13  H   UNL     1     -11.609  13.395  70.559  1.00  0.00     0.000 HD 
HETATM   14  O   UNL     1     -14.311  14.729  71.619  1.00  0.00    -0.469 OA 
BRANCH  12  15
HETATM   15  C   UNL     1     -13.411  12.547  72.112  1.00  0.00    -0.523 C  
BRANCH  15  16
HETATM   16  C   UNL     1     -12.613  11.552  71.273  1.00  0.00    -0.452 C  
BRANCH  16  17
HETATM   17  C   UNL     1     -12.865  10.115  71.684  1.00  0.00    -0.454 C  
HETATM   18  O   UNL     1     -13.832   9.813  72.381  1.00  0.00    -0.330 OA 
HETATM   19  N   UNL     1     -11.941   9.194  71.262  1.00  0.00    -0.308 N  
HETATM   20  O   UNL     1     -10.878   9.472  70.384  1.00  0.00    -0.238 OA 
BRANCH  19  21
HETATM   21  C   UNL     1     -11.984   7.785  71.623  1.00  0.00    -0.297 C  
BRANCH  21  22
HETATM   22  C   UNL     1     -11.162   7.477  72.878  1.00  0.00    -0.396 C  
BRANCH  22  23
HETATM   23  C   UNL     1      -9.941   6.584  72.592  1.00  0.00    -0.185 C  
BRANCH  23  24
HETATM   24  C   UNL     1      -8.619   7.354  72.574  1.00  0.00    -0.138 C  
BRANCH  24  25
HETATM   25  C   UNL     1      -8.082   7.514  71.153  1.00  0.00    -0.100 C  
BRANCH  25  26
HETATM   26  N   UNL     1      -8.209   6.288  70.392  1.00  0.00    -0.119 N  
HETATM   27  H   UNL     1      -9.049   5.720  70.504  1.00  0.00     0.000 HD 
HETATM   28  C   UNL     1      -7.229   5.869  69.524  1.00  0.00    -0.070 C  
HETATM   29  O   UNL     1      -6.197   6.498  69.312  1.00  0.00    -0.031 OA 
BRANCH  28  30
HETATM   30  C   UNL     1      -7.514   4.554  68.843  1.00  0.00    -0.056 C  
BRANCH  30  31
HETATM   31  C   UNL     1      -6.267   4.077  68.114  1.00  0.00    -0.033 C  
BRANCH  31  32
HETATM   32  C   UNL     1      -6.614   3.025  67.082  1.00  0.00    -0.037 C  
HETATM   33  N   UNL     1      -6.730   3.412  65.769  1.00  0.00    -0.040 N  
HETATM   34  O   UNL     1      -6.702   1.845  67.427  1.00  0.00    -0.037 OA 
HETATM   35  O   UNL     1      -7.046   4.749  65.461  1.00  0.00    -0.061 OA 
BRANCH  33  36
HETATM   36  C   UNL     1      -7.132   2.485  64.709  1.00  0.00    -0.053 C  
BRANCH  36  37
HETATM   37  C   UNL     1      -8.205   1.501  65.179  1.00  0.00    -0.076 C  
BRANCH  37  38
HETATM   38  C   UNL     1      -9.582   1.823  64.590  1.00  0.00    -0.029 C  
BRANCH  38  39
HETATM   39  C   UNL     1      -9.494   2.898  63.502  1.00  0.00    -0.099 C  
BRANCH  39  40
HETATM   40  C   UNL     1     -10.359   4.121  63.813  1.00  0.00    -0.053 C  
HETATM   41  N   UNL     1     -10.158   4.592  65.179  1.00  0.00    -0.389 NA 
HETATM   42  H2  UNL     1      -9.173   4.776  65.368  1.00  0.00     0.000 HD 
HETATM   43  H1  UNL     1     -10.735   5.408  65.386  1.00  0.00     0.000 HD 
ENDBRANCH  39  40
ENDBRANCH  38  39
ENDBRANCH  37  38
ENDBRANCH  36  37
ENDBRANCH  33  36
ENDBRANCH  31  32
ENDBRANCH  30  31
ENDBRANCH  28  30
ENDBRANCH  25  26
ENDBRANCH  24  25
ENDBRANCH  23  24
ENDBRANCH  22  23
ENDBRANCH  21  22
ENDBRANCH  19  21
ENDBRANCH  16  17
ENDBRANCH  15  16
ENDBRANCH  12  15
ENDBRANCH  10  11
ENDBRANCH   9  10
ENDBRANCH   8   9
ENDBRANCH   7   8
ENDBRANCH   6   7
ENDBRANCH   3   6
TORSDOF 23
ENDMDL
MODEL      276
REMARK 921   NORMALIZED FREE ENERGY PREDICTED BY IDOCK:   -3.17 KCAL/MOL
REMARK 922        TOTAL FREE ENERGY PREDICTED BY IDOCK:  -10.18 KCAL/MOL
REMARK 923 INTER-LIGAND FREE ENERGY PREDICTED BY IDOCK:   -8.42 KCAL/MOL
REMARK 924 INTRA-LIGAND FREE ENERGY PREDICTED BY IDOCK:   -1.76 KCAL/MOL
REMARK 927      BINDING AFFINITY PREDICTED BY RF-SCORE:    0.00 PKD
ROOT
HETATM    1  C   UNL     1      -7.596   8.613  68.655  1.00  0.00    -0.097 C  
HETATM    2  C   UNL     1      -8.258   7.412  69.278  1.00  0.00    -0.131 C  
HETATM    3  N   UNL     1      -9.530   7.121  68.859  1.00  0.00    -0.143 N  
HETATM    4  O   UNL     1      -7.674   6.759  70.143  1.00  0.00    -0.097 OA 
HETATM    5  O   UNL     1     -10.167   7.745  67.773  1.00  0.00    -0.187 OA 
ENDROOT
BRANCH   3   6
HETATM    6  C   UNL     1     -10.308   6.003  69.376  1.00  0.00    -0.236 C  
BRANCH   6   7
HETATM    7  C   UNL     1      -9.981   4.687  68.668  1.00  0.00    -0.140 C  
BRANCH   7   8
HETATM    8  C   UNL     1      -9.685   3.589  69.691  1.00  0.00    -0.091 C  
BRANCH   8   9
HETATM    9  C   UNL     1      -8.461   2.756  69.304  1.00  0.00    -0.099 C  
BRANCH   9  10
HETATM   10  C   UNL     1      -7.362   2.813  70.365  1.00  0.00    -0.037 C  
BRANCH  10  11
HETATM   11  N   UNL     1      -7.437   4.017  71.179  1.00  0.00    -0.044 N  
HETATM   12  C   UNL     1      -7.383   3.951  72.554  1.00  0.00    -0.062 C  
HETATM   13  H   UNL     1      -7.532   4.924  70.724  1.00  0.00     0.000 HD 
HETATM   14  O   UNL     1      -7.231   2.908  73.184  1.00  0.00    -0.041 OA 
BRANCH  12  15
HETATM   15  C   UNL     1      -7.516   5.303  73.221  1.00  0.00    -0.096 C  
BRANCH  15  16
HETATM   16  C   UNL     1      -8.734   5.327  74.142  1.00  0.00    -0.116 C  
BRANCH  16  17
HETATM   17  C   UNL     1     -10.010   5.685  73.404  1.00  0.00    -0.175 C  
HETATM   18  O   UNL     1     -10.775   4.814  72.997  1.00  0.00    -0.203 OA 
HETATM   19  N   UNL     1     -10.232   7.022  73.195  1.00  0.00    -0.227 N  
HETATM   20  O   UNL     1      -9.440   8.057  73.724  1.00  0.00    -0.218 OA 
BRANCH  19  21
HETATM   21  C   UNL     1     -11.364   7.543  72.443  1.00  0.00    -0.312 C  
BRANCH  21  22
HETATM   22  C   UNL     1     -11.077   8.916  71.830  1.00  0.00    -0.433 C  
BRANCH  22  23
HETATM   23  C   UNL     1     -12.227   9.920  72.041  1.00  0.00    -0.198 C  
BRANCH  23  24
HETATM   24  C   UNL     1     -12.551  10.740  70.792  1.00  0.00    -0.476 C  
BRANCH  24  25
HETATM   25  C   UNL     1     -11.693  10.312  69.602  1.00  0.00    -0.160 C  
BRANCH  25  26
HETATM   26  N   UNL     1     -10.694  11.310  69.277  1.00  0.00    -0.335 N  
HETATM   27  H   UNL     1      -9.966  11.523  69.960  1.00  0.00     0.000 HD 
HETATM   28  C   UNL     1     -10.699  11.978  68.076  1.00  0.00    -0.212 C  
HETATM   29  O   UNL     1     -11.523  11.772  67.190  1.00  0.00    -0.372 OA 
BRANCH  28  30
HETATM   30  C   UNL     1      -9.606  13.004  67.924  1.00  0.00    -0.215 C  
BRANCH  30  31
HETATM   31  C   UNL     1      -9.443  13.362  66.454  1.00  0.00    -0.230 C  
BRANCH  31  32
HETATM   32  C   UNL     1      -9.677  14.841  66.229  1.00  0.00    -0.303 C  
HETATM   33  N   UNL     1      -8.640  15.710  66.467  1.00  0.00    -0.287 N  
HETATM   34  O   UNL     1     -10.754  15.218  65.763  1.00  0.00    -0.317 OA 
HETATM   35  O   UNL     1      -7.618  15.346  67.365  1.00  0.00    -0.167 OA 
BRANCH  33  36
HETATM   36  C   UNL     1      -8.789  17.162  66.349  1.00  0.00    -0.255 C  
BRANCH  36  37
HETATM   37  C   UNL     1      -9.055  17.827  67.700  1.00  0.00    -0.246 C  
BRANCH  37  38
HETATM   38  C   UNL     1      -9.262  16.800  68.818  1.00  0.00    -0.260 C  
BRANCH  38  39
HETATM   39  C   UNL     1     -10.714  16.777  69.304  1.00  0.00    -0.324 C  
BRANCH  39  40
HETATM   40  C   UNL     1     -11.204  15.365  69.630  1.00  0.00    -0.283 C  
HETATM   41  N   UNL     1     -12.234  14.922  68.697  1.00  0.00    -0.591 NA 
HETATM   42  H2  UNL     1     -11.915  14.991  67.731  1.00  0.00     0.000 HD 
HETATM   43  H1  UNL     1     -12.561  13.980  68.914  1.00  0.00     0.000 HD 
ENDBRANCH  39  40
ENDBRANCH  38  39
ENDBRANCH  37  38
ENDBRANCH  36  37
ENDBRANCH  33  36
ENDBRANCH  31  32
ENDBRANCH  30  31
ENDBRANCH  28  30
ENDBRANCH  25  26
ENDBRANCH  24  25
ENDBRANCH  23  24
ENDBRANCH  22  23
ENDBRANCH  21  22
ENDBRANCH  19  21
ENDBRANCH  16  17
ENDBRANCH  15  16
ENDBRANCH  12  15
ENDBRANCH  10  11
ENDBRANCH   9  10
ENDBRANCH   8   9
ENDBRANCH   7   8
ENDBRANCH   6   7
ENDBRANCH   3   6
TORSDOF 23
ENDMDL
MODEL      277
REMARK 921   NORMALIZED FREE ENERGY PREDICTED BY IDOCK:   -3.11 KCAL/MOL
REMARK 922        TOTAL FREE ENERGY PREDICTED BY IDOCK:  -10.04 KCAL/MOL
REMARK 923 INTER-LIGAND FREE ENERGY PREDICTED BY IDOCK:   -8.47 KCAL/MOL
REMARK 924 INTRA-LIGAND FREE ENERGY PREDICTED BY IDOCK:   -1.56 KCAL/MOL
REMARK 927      BINDING AFFINITY PREDICTED BY RF-SCORE:    0.00 PKD
ROOT
HETATM    1  C   UNL     1      -7.540   9.157  70.563  1.00  0.00    -0.130 C  
HETATM    2  C   UNL     1      -7.999   7.758  70.248  1.00  0.00    -0.100 C  
HETATM    3  N   UNL     1      -8.329   7.494  68.944  1.00  0.00    -0.128 N  
HETATM    4  O   UNL     1      -8.096   6.919  71.144  1.00  0.00    -0.108 OA 
HETATM    5  O   UNL     1      -8.090   8.374  67.875  1.00  0.00    -0.119 OA 
ENDROOT
BRANCH   3   6
HETATM    6  C   UNL     1      -8.804   6.196  68.484  1.00  0.00    -0.113 C  
BRANCH   6   7
HETATM    7  C   UNL     1      -8.114   5.035  69.202  1.00  0.00    -0.083 C  
BRANCH   7   8
HETATM    8  C   UNL     1      -8.973   3.771  69.122  1.00  0.00    -0.176 C  
BRANCH   8   9
HETATM    9  C   UNL     1      -8.146   2.500  69.321  1.00  0.00    -0.063 C  
BRANCH   9  10
HETATM   10  C   UNL     1      -8.101   2.061  70.785  1.00  0.00    -0.048 C  
BRANCH  10  11
HETATM   11  N   UNL     1      -8.350   3.162  71.704  1.00  0.00    -0.061 N  
HETATM   12  C   UNL     1      -9.417   3.137  72.573  1.00  0.00    -0.113 C  
HETATM   13  H   UNL     1      -7.722   3.966  71.703  1.00  0.00     0.000 HD 
HETATM   14  O   UNL     1     -10.199   2.195  72.670  1.00  0.00    -0.131 OA 
BRANCH  12  15
HETATM   15  C   UNL     1      -9.529   4.388  73.417  1.00  0.00    -0.132 C  
BRANCH  15  16
HETATM   16  C   UNL     1     -10.959   4.922  73.395  1.00  0.00    -0.394 C  
BRANCH  16  17
HETATM   17  C   UNL     1     -11.246   5.753  72.159  1.00  0.00    -0.269 C  
HETATM   18  O   UNL     1     -11.443   5.223  71.068  1.00  0.00     0.301 OA 
HETATM   19  N   UNL     1     -11.239   7.114  72.330  1.00  0.00    -0.260 N  
HETATM   20  O   UNL     1     -11.118   7.762  73.572  1.00  0.00    -0.279 OA 
BRANCH  19  21
HETATM   21  C   UNL     1     -11.422   8.064  71.243  1.00  0.00    -0.269 C  
BRANCH  21  22
HETATM   22  C   UNL     1     -11.439   9.515  71.731  1.00  0.00    -0.349 C  
BRANCH  22  23
HETATM   23  C   UNL     1     -12.863  10.057  71.953  1.00  0.00    -0.524 C  
BRANCH  23  24
HETATM   24  C   UNL     1     -13.361  10.938  70.806  1.00  0.00     0.156 C  
BRANCH  24  25
HETATM   25  C   UNL     1     -12.206  11.646  70.101  1.00  0.00    -0.288 C  
BRANCH  25  26
HETATM   26  N   UNL     1     -12.131  13.045  70.470  1.00  0.00    -0.493 N  
HETATM   27  H   UNL     1     -12.026  13.293  71.454  1.00  0.00     0.000 HD 
HETATM   28  C   UNL     1     -12.198  14.048  69.532  1.00  0.00    -0.308 C  
HETATM   29  O   UNL     1     -12.304  13.842  68.327  1.00  0.00    -0.254 OA 
BRANCH  28  30
HETATM   30  C   UNL     1     -12.139  15.443  70.099  1.00  0.00    -0.400 C  
BRANCH  30  31
HETATM   31  C   UNL     1     -10.689  15.892  70.197  1.00  0.00    -0.338 C  
BRANCH  31  32
HETATM   32  C   UNL     1     -10.246  16.570  68.918  1.00  0.00    -0.268 C  
HETATM   33  N   UNL     1      -9.047  16.197  68.361  1.00  0.00    -0.194 N  
HETATM   34  O   UNL     1     -11.001  17.374  68.367  1.00  0.00    -0.285 OA 
HETATM   35  O   UNL     1      -8.045  15.636  69.176  1.00  0.00    -0.203 OA 
BRANCH  33  36
HETATM   36  C   UNL     1      -8.498  16.844  67.168  1.00  0.00    -0.197 C  
BRANCH  36  37
HETATM   37  C   UNL     1      -8.450  15.896  65.968  1.00  0.00    -0.012 C  
BRANCH  37  38
HETATM   38  C   UNL     1      -9.467  14.756  66.092  1.00  0.00    -0.324 C  
BRANCH  38  39
HETATM   39  C   UNL     1     -10.758  15.065  65.329  1.00  0.00    -0.406 C  
BRANCH  39  40
HETATM   40  C   UNL     1     -11.567  13.807  65.008  1.00  0.00    -0.341 C  
HETATM   41  N   UNL     1     -13.002  14.041  65.131  1.00  0.00    -0.771 NA 
HETATM   42  H2  UNL     1     -13.300  14.831  64.559  1.00  0.00     0.000 HD 
HETATM   43  H1  UNL     1     -13.542  13.202  64.917  1.00  0.00     0.000 HD 
ENDBRANCH  39  40
ENDBRANCH  38  39
ENDBRANCH  37  38
ENDBRANCH  36  37
ENDBRANCH  33  36
ENDBRANCH  31  32
ENDBRANCH  30  31
ENDBRANCH  28  30
ENDBRANCH  25  26
ENDBRANCH  24  25
ENDBRANCH  23  24
ENDBRANCH  22  23
ENDBRANCH  21  22
ENDBRANCH  19  21
ENDBRANCH  16  17
ENDBRANCH  15  16
ENDBRANCH  12  15
ENDBRANCH  10  11
ENDBRANCH   9  10
ENDBRANCH   8   9
ENDBRANCH   7   8
ENDBRANCH   6   7
ENDBRANCH   3   6
TORSDOF 23
ENDMDL
MODEL      278
REMARK 921   NORMALIZED FREE ENERGY PREDICTED BY IDOCK:   -3.11 KCAL/MOL
REMARK 922        TOTAL FREE ENERGY PREDICTED BY IDOCK:  -10.03 KCAL/MOL
REMARK 923 INTER-LIGAND FREE ENERGY PREDICTED BY IDOCK:   -7.93 KCAL/MOL
REMARK 924 INTRA-LIGAND FREE ENERGY PREDICTED BY IDOCK:   -2.10 KCAL/MOL
REMARK 927      BINDING AFFINITY PREDICTED BY RF-SCORE:    0.00 PKD
ROOT
HETATM    1  C   UNL     1     -11.925   4.786  73.137  1.00  0.00     0.017 C  
HETATM    2  C   UNL     1     -10.648   5.241  73.793  1.00  0.00    -0.287 C  
HETATM    3  N   UNL     1     -10.193   6.490  73.461  1.00  0.00    -0.236 N  
HETATM    4  O   UNL     1     -10.044   4.492  74.561  1.00  0.00    -0.176 OA 
HETATM    5  O   UNL     1     -10.926   7.425  72.712  1.00  0.00    -0.283 OA 
ENDROOT
BRANCH   3   6
HETATM    6  C   UNL     1      -8.967   7.065  73.998  1.00  0.00    -0.195 C  
BRANCH   6   7
HETATM    7  C   UNL     1      -7.746   6.747  73.133  1.00  0.00    -0.094 C  
BRANCH   7   8
HETATM    8  C   UNL     1      -6.503   7.448  73.684  1.00  0.00    -0.065 C  
BRANCH   8   9
HETATM    9  C   UNL     1      -6.106   8.662  72.842  1.00  0.00    -0.083 C  
BRANCH   9  10
HETATM   10  C   UNL     1      -7.085   8.917  71.695  1.00  0.00    -0.032 C  
BRANCH  10  11
HETATM   11  N   UNL     1      -6.418   9.010  70.405  1.00  0.00    -0.042 N  
HETATM   12  C   UNL     1      -6.127  10.231  69.839  1.00  0.00    -0.062 C  
HETATM   13  H   UNL     1      -6.161   8.155  69.912  1.00  0.00     0.000 HD 
HETATM   14  O   UNL     1      -6.364  11.309  70.377  1.00  0.00    -0.254 OA 
BRANCH  12  15
HETATM   15  C   UNL     1      -5.468  10.118  68.481  1.00  0.00    -0.038 C  
BRANCH  15  16
HETATM   16  C   UNL     1      -5.787   8.768  67.843  1.00  0.00    -0.042 C  
BRANCH  16  17
HETATM   17  C   UNL     1      -7.054   8.807  67.010  1.00  0.00    -0.078 C  
HETATM   18  O   UNL     1      -7.094   9.411  65.940  1.00  0.00    -0.088 OA 
HETATM   19  N   UNL     1      -8.144   8.162  67.537  1.00  0.00    -0.121 N  
HETATM   20  O   UNL     1      -8.122   7.378  68.704  1.00  0.00    -0.121 OA 
BRANCH  19  21
HETATM   21  C   UNL     1      -9.458   8.159  66.912  1.00  0.00    -0.191 C  
BRANCH  21  22
HETATM   22  C   UNL     1     -10.203   9.482  67.110  1.00  0.00    -0.305 C  
BRANCH  22  23
HETATM   23  C   UNL     1     -10.309   9.896  68.590  1.00  0.00    -0.217 C  
BRANCH  23  24
HETATM   24  C   UNL     1     -11.746  10.154  69.044  1.00  0.00     0.003 C  
BRANCH  24  25
HETATM   25  C   UNL     1     -11.790  10.993  70.320  1.00  0.00    -0.367 C  
BRANCH  25  26
HETATM   26  N   UNL     1     -11.832  12.411  70.027  1.00  0.00    -0.465 N  
HETATM   27  H   UNL     1     -11.284  12.772  69.245  1.00  0.00     0.000 HD 
HETATM   28  C   UNL     1     -12.589  13.284  70.772  1.00  0.00    -0.280 C  
HETATM   29  O   UNL     1     -13.292  12.936  71.715  1.00  0.00    -0.420 OA 
BRANCH  28  30
HETATM   30  C   UNL     1     -12.485  14.726  70.345  1.00  0.00    -0.405 C  
BRANCH  30  31
HETATM   31  C   UNL     1     -11.100  15.258  70.679  1.00  0.00    -0.341 C  
BRANCH  31  32
HETATM   32  C   UNL     1     -10.539  16.063  69.526  1.00  0.00    -0.290 C  
HETATM   33  N   UNL     1      -9.947  15.390  68.485  1.00  0.00    -0.209 N  
HETATM   34  O   UNL     1     -10.698  17.286  69.509  1.00  0.00    -0.214 OA 
HETATM   35  O   UNL     1      -9.406  14.109  68.703  1.00  0.00    -0.201 OA 
BRANCH  33  36
HETATM   36  C   UNL     1      -9.311  16.082  67.362  1.00  0.00    -0.217 C  
BRANCH  36  37
HETATM   37  C   UNL     1     -10.285  17.005  66.626  1.00  0.00    -0.310 C  
BRANCH  37  38
HETATM   38  C   UNL     1     -10.373  16.677  65.132  1.00  0.00    -0.000 C  
BRANCH  38  39
HETATM   39  C   UNL     1     -11.656  15.912  64.796  1.00  0.00    -0.137 C  
BRANCH  39  40
HETATM   40  C   UNL     1     -11.456  14.395  64.805  1.00  0.00    -0.402 C  
HETATM   41  N   UNL     1     -12.685  13.690  65.153  1.00  0.00    -0.682 NA 
HETATM   42  H2  UNL     1     -13.455  13.959  64.540  1.00  0.00     0.000 HD 
HETATM   43  H1  UNL     1     -12.552  12.678  65.160  1.00  0.00     0.000 HD 
ENDBRANCH  39  40
ENDBRANCH  38  39
ENDBRANCH  37  38
ENDBRANCH  36  37
ENDBRANCH  33  36
ENDBRANCH  31  32
ENDBRANCH  30  31
ENDBRANCH  28  30
ENDBRANCH  25  26
ENDBRANCH  24  25
ENDBRANCH  23  24
ENDBRANCH  22  23
ENDBRANCH  21  22
ENDBRANCH  19  21
ENDBRANCH  16  17
ENDBRANCH  15  16
ENDBRANCH  12  15
ENDBRANCH  10  11
ENDBRANCH   9  10
ENDBRANCH   8   9
ENDBRANCH   7   8
ENDBRANCH   6   7
ENDBRANCH   3   6
TORSDOF 23
ENDMDL
MODEL      279
REMARK 921   NORMALIZED FREE ENERGY PREDICTED BY IDOCK:   -3.09 KCAL/MOL
REMARK 922        TOTAL FREE ENERGY PREDICTED BY IDOCK:  -10.00 KCAL/MOL
REMARK 923 INTER-LIGAND FREE ENERGY PREDICTED BY IDOCK:   -7.77 KCAL/MOL
REMARK 924 INTRA-LIGAND FREE ENERGY PREDICTED BY IDOCK:   -2.23 KCAL/MOL
REMARK 927      BINDING AFFINITY PREDICTED BY RF-SCORE:    0.00 PKD
ROOT
HETATM    1  C   UNL     1     -11.991   4.752  73.029  1.00  0.00     0.009 C  
HETATM    2  C   UNL     1     -10.636   5.195  73.515  1.00  0.00    -0.258 C  
HETATM    3  N   UNL     1     -10.221   6.444  73.137  1.00  0.00    -0.192 N  
HETATM    4  O   UNL     1      -9.941   4.436  74.193  1.00  0.00    -0.138 OA 
HETATM    5  O   UNL     1     -11.041   7.389  72.497  1.00  0.00    -0.262 OA 
ENDROOT
BRANCH   3   6
HETATM    6  C   UNL     1      -8.932   7.009  73.513  1.00  0.00    -0.149 C  
BRANCH   6   7
HETATM    7  C   UNL     1      -7.869   6.809  72.430  1.00  0.00    -0.094 C  
BRANCH   7   8
HETATM    8  C   UNL     1      -6.520   7.359  72.897  1.00  0.00    -0.060 C  
BRANCH   8   9
HETATM    9  C   UNL     1      -6.179   8.691  72.227  1.00  0.00    -0.076 C  
BRANCH   9  10
HETATM   10  C   UNL     1      -7.165   9.051  71.115  1.00  0.00    -0.097 C  
BRANCH  10  11
HETATM   11  N   UNL     1      -6.497   9.366  69.861  1.00  0.00    -0.043 N  
HETATM   12  C   UNL     1      -6.381  10.666  69.422  1.00  0.00    -0.060 C  
HETATM   13  H   UNL     1      -6.108   8.610  69.297  1.00  0.00     0.000 HD 
HETATM   14  O   UNL     1      -6.784  11.640  70.053  1.00  0.00    -0.050 OA 
BRANCH  12  15
HETATM   15  C   UNL     1      -5.690  10.784  68.081  1.00  0.00    -0.043 C  
BRANCH  15  16
HETATM   16  C   UNL     1      -5.888   9.510  67.263  1.00  0.00    -0.045 C  
BRANCH  16  17
HETATM   17  C   UNL     1      -7.032   9.629  66.275  1.00  0.00    -0.092 C  
HETATM   18  O   UNL     1      -6.922  10.302  65.252  1.00  0.00    -0.132 OA 
HETATM   19  N   UNL     1      -8.190   8.974  66.608  1.00  0.00    -0.117 N  
HETATM   20  O   UNL     1      -8.333   8.115  67.712  1.00  0.00    -0.126 OA 
BRANCH  19  21
HETATM   21  C   UNL     1      -9.409   9.039  65.816  1.00  0.00    -0.236 C  
BRANCH  21  22
HETATM   22  C   UNL     1     -10.199  10.327  66.063  1.00  0.00    -0.298 C  
BRANCH  22  23
HETATM   23  C   UNL     1     -10.336  10.670  67.558  1.00  0.00    -0.254 C  
BRANCH  23  24
HETATM   24  C   UNL     1     -11.746  11.116  67.949  1.00  0.00    -0.260 C  
BRANCH  24  25
HETATM   25  C   UNL     1     -11.766  11.767  69.331  1.00  0.00    -0.341 C  
BRANCH  25  26
HETATM   26  N   UNL     1     -11.791  13.213  69.241  1.00  0.00    -0.320 N  
HETATM   27  H   UNL     1     -11.562  13.658  68.352  1.00  0.00     0.000 HD 
HETATM   28  C   UNL     1     -12.114  14.001  70.320  1.00  0.00    -0.355 C  
HETATM   29  O   UNL     1     -12.421  13.552  71.420  1.00  0.00    -0.332 OA 
BRANCH  28  30
HETATM   30  C   UNL     1     -12.056  15.484  70.054  1.00  0.00    -0.391 C  
BRANCH  30  31
HETATM   31  C   UNL     1     -10.609  15.911  69.865  1.00  0.00    -0.327 C  
BRANCH  31  32
HETATM   32  C   UNL     1     -10.392  16.488  68.481  1.00  0.00    -0.289 C  
HETATM   33  N   UNL     1      -9.253  16.137  67.798  1.00  0.00    -0.202 N  
HETATM   34  O   UNL     1     -11.271  17.186  67.973  1.00  0.00    -0.224 OA 
HETATM   35  O   UNL     1      -8.112  15.721  68.512  1.00  0.00    -0.141 OA 
BRANCH  33  36
HETATM   36  C   UNL     1      -8.918  16.697  66.487  1.00  0.00    -0.277 C  
BRANCH  36  37
HETATM   37  C   UNL     1      -7.422  16.988  66.349  1.00  0.00    -0.336 C  
BRANCH  37  38
HETATM   38  C   UNL     1      -7.142  18.480  66.138  1.00  0.00    -0.301 C  
BRANCH  38  39
HETATM   39  C   UNL     1      -6.405  19.092  67.333  1.00  0.00    -0.185 C  
BRANCH  39  40
HETATM   40  C   UNL     1      -7.346  19.444  68.486  1.00  0.00    -0.333 C  
HETATM   41  N   UNL     1      -6.613  19.718  69.718  1.00  0.00    -0.344 NA 
HETATM   42  H2  UNL     1      -5.909  20.443  69.578  1.00  0.00     0.000 HD 
HETATM   43  H1  UNL     1      -7.241  19.953  70.487  1.00  0.00     0.000 HD 
ENDBRANCH  39  40
ENDBRANCH  38  39
ENDBRANCH  37  38
ENDBRANCH  36  37
ENDBRANCH  33  36
ENDBRANCH  31  32
ENDBRANCH  30  31
ENDBRANCH  28  30
ENDBRANCH  25  26
ENDBRANCH  24  25
ENDBRANCH  23  24
ENDBRANCH  22  23
ENDBRANCH  21  22
ENDBRANCH  19  21
ENDBRANCH  16  17
ENDBRANCH  15  16
ENDBRANCH  12  15
ENDBRANCH  10  11
ENDBRANCH   9  10
ENDBRANCH   8   9
ENDBRANCH   7   8
ENDBRANCH   6   7
ENDBRANCH   3   6
TORSDOF 23
ENDMDL
MODEL      280
REMARK 921   NORMALIZED FREE ENERGY PREDICTED BY IDOCK:   -3.09 KCAL/MOL
REMARK 922        TOTAL FREE ENERGY PREDICTED BY IDOCK:   -9.99 KCAL/MOL
REMARK 923 INTER-LIGAND FREE ENERGY PREDICTED BY IDOCK:   -8.47 KCAL/MOL
REMARK 924 INTRA-LIGAND FREE ENERGY PREDICTED BY IDOCK:   -1.52 KCAL/MOL
REMARK 927      BINDING AFFINITY PREDICTED BY RF-SCORE:    0.00 PKD
ROOT
HETATM    1  C   UNL     1      -8.653  10.164  65.099  1.00  0.00    -0.175 C  
HETATM    2  C   UNL     1      -9.574   9.311  65.931  1.00  0.00    -0.275 C  
HETATM    3  N   UNL     1      -9.394   7.954  65.859  1.00  0.00    -0.061 N  
HETATM    4  O   UNL     1     -10.460   9.832  66.609  1.00  0.00    -0.218 OA 
HETATM    5  O   UNL     1      -8.307   7.334  65.221  1.00  0.00    -0.142 OA 
ENDROOT
BRANCH   3   6
HETATM    6  C   UNL     1     -10.213   6.997  66.590  1.00  0.00    -0.148 C  
BRANCH   6   7
HETATM    7  C   UNL     1      -9.432   5.742  66.984  1.00  0.00    -0.131 C  
BRANCH   7   8
HETATM    8  C   UNL     1      -8.848   5.895  68.390  1.00  0.00    -0.111 C  
BRANCH   8   9
HETATM    9  C   UNL     1      -7.342   6.161  68.361  1.00  0.00    -0.086 C  
BRANCH   9  10
HETATM   10  C   UNL     1      -6.555   5.130  69.171  1.00  0.00    -0.051 C  
BRANCH  10  11
HETATM   11  N   UNL     1      -7.159   4.865  70.469  1.00  0.00    -0.051 N  
HETATM   12  C   UNL     1      -6.873   5.653  71.561  1.00  0.00    -0.066 C  
HETATM   13  H   UNL     1      -7.804   4.082  70.570  1.00  0.00     0.000 HD 
HETATM   14  O   UNL     1      -6.140   6.637  71.522  1.00  0.00    -0.036 OA 
BRANCH  12  15
HETATM   15  C   UNL     1      -7.567   5.194  72.826  1.00  0.00    -0.097 C  
BRANCH  15  16
HETATM   16  C   UNL     1      -8.704   4.232  72.492  1.00  0.00    -0.112 C  
BRANCH  16  17
HETATM   17  C   UNL     1      -9.932   4.949  71.964  1.00  0.00    -0.187 C  
HETATM   18  O   UNL     1     -10.303   4.800  70.801  1.00  0.00    -0.203 OA 
HETATM   19  N   UNL     1     -10.570   5.784  72.844  1.00  0.00    -0.217 N  
HETATM   20  O   UNL     1     -10.244   5.911  74.205  1.00  0.00    -0.249 OA 
BRANCH  19  21
HETATM   21  C   UNL     1     -11.717   6.606  72.487  1.00  0.00    -0.163 C  
BRANCH  21  22
HETATM   22  C   UNL     1     -11.365   8.093  72.394  1.00  0.00    -0.456 C  
BRANCH  22  23
HETATM   23  C   UNL     1     -11.852   8.745  71.086  1.00  0.00    -0.345 C  
BRANCH  23  24
HETATM   24  C   UNL     1     -10.873   9.776  70.524  1.00  0.00    -0.387 C  
BRANCH  24  25
HETATM   25  C   UNL     1      -9.604   9.112  69.992  1.00  0.00    -0.197 C  
BRANCH  25  26
HETATM   26  N   UNL     1      -8.959   9.925  68.980  1.00  0.00    -0.150 N  
HETATM   27  H   UNL     1      -9.394  10.008  68.060  1.00  0.00     0.000 HD 
HETATM   28  C   UNL     1      -7.780  10.587  69.224  1.00  0.00    -0.144 C  
HETATM   29  O   UNL     1      -7.199  10.560  70.304  1.00  0.00    -0.226 OA 
BRANCH  28  30
HETATM   30  C   UNL     1      -7.236  11.356  68.047  1.00  0.00    -0.084 C  
BRANCH  30  31
HETATM   31  C   UNL     1      -7.490  12.842  68.248  1.00  0.00    -0.124 C  
BRANCH  31  32
HETATM   32  C   UNL     1      -8.763  13.272  67.550  1.00  0.00    -0.202 C  
HETATM   33  N   UNL     1      -8.736  14.413  66.785  1.00  0.00    -0.200 N  
HETATM   34  O   UNL     1      -9.762  12.552  67.618  1.00  0.00    -0.188 OA 
HETATM   35  O   UNL     1      -7.777  15.408  67.053  1.00  0.00    -0.208 OA 
BRANCH  33  36
HETATM   36  C   UNL     1      -9.932  14.950  66.132  1.00  0.00    -0.303 C  
BRANCH  36  37
HETATM   37  C   UNL     1     -11.206  14.649  66.923  1.00  0.00    -0.345 C  
BRANCH  37  38
HETATM   38  C   UNL     1     -12.146  13.704  66.167  1.00  0.00    -0.477 C  
BRANCH  38  39
HETATM   39  C   UNL     1     -11.919  13.772  64.654  1.00  0.00    -0.445 C  
BRANCH  39  40
HETATM   40  C   UNL     1     -12.232  12.449  63.952  1.00  0.00    -0.513 C  
HETATM   41  N   UNL     1     -11.139  12.027  63.082  1.00  0.00    -0.696 NA 
HETATM   42  H2  UNL     1     -10.257  11.978  63.591  1.00  0.00     0.000 HD 
HETATM   43  H1  UNL     1     -11.348  11.145  62.613  1.00  0.00     0.000 HD 
ENDBRANCH  39  40
ENDBRANCH  38  39
ENDBRANCH  37  38
ENDBRANCH  36  37
ENDBRANCH  33  36
ENDBRANCH  31  32
ENDBRANCH  30  31
ENDBRANCH  28  30
ENDBRANCH  25  26
ENDBRANCH  24  25
ENDBRANCH  23  24
ENDBRANCH  22  23
ENDBRANCH  21  22
ENDBRANCH  19  21
ENDBRANCH  16  17
ENDBRANCH  15  16
ENDBRANCH  12  15
ENDBRANCH  10  11
ENDBRANCH   9  10
ENDBRANCH   8   9
ENDBRANCH   7   8
ENDBRANCH   6   7
ENDBRANCH   3   6
TORSDOF 23
ENDMDL
MODEL      281
REMARK 921   NORMALIZED FREE ENERGY PREDICTED BY IDOCK:   -3.08 KCAL/MOL
REMARK 922        TOTAL FREE ENERGY PREDICTED BY IDOCK:   -9.98 KCAL/MOL
REMARK 923 INTER-LIGAND FREE ENERGY PREDICTED BY IDOCK:   -7.54 KCAL/MOL
REMARK 924 INTRA-LIGAND FREE ENERGY PREDICTED BY IDOCK:   -2.44 KCAL/MOL
REMARK 927      BINDING AFFINITY PREDICTED BY RF-SCORE:    0.00 PKD
ROOT
HETATM    1  C   UNL     1     -11.886  15.576  69.532  1.00  0.00    -0.390 C  
HETATM    2  C   UNL     1     -11.385  14.830  68.323  1.00  0.00    -0.301 C  
HETATM    3  N   UNL     1     -10.064  14.994  67.999  1.00  0.00    -0.222 N  
HETATM    4  O   UNL     1     -12.156  14.139  67.656  1.00  0.00    -0.378 OA 
HETATM    5  O   UNL     1      -9.125  15.647  68.816  1.00  0.00    -0.183 OA 
ENDROOT
BRANCH   3   6
HETATM    6  C   UNL     1      -9.434  14.353  66.853  1.00  0.00    -0.258 C  
BRANCH   6   7
HETATM    7  C   UNL     1      -8.388  13.316  67.266  1.00  0.00    -0.182 C  
BRANCH   7   8
HETATM    8  C   UNL     1      -9.067  12.016  67.701  1.00  0.00    -0.179 C  
BRANCH   8   9
HETATM    9  C   UNL     1     -10.019  11.478  66.630  1.00  0.00    -0.236 C  
BRANCH   9  10
HETATM   10  C   UNL     1      -9.272  10.862  65.447  1.00  0.00    -0.207 C  
BRANCH  10  11
HETATM   11  N   UNL     1      -8.072  10.148  65.858  1.00  0.00    -0.130 N  
HETATM   12  C   UNL     1      -8.094   8.790  66.085  1.00  0.00    -0.107 C  
HETATM   13  H   UNL     1      -7.200  10.663  65.980  1.00  0.00     0.000 HD 
HETATM   14  O   UNL     1      -9.086   8.085  65.925  1.00  0.00    -0.168 OA 
BRANCH  12  15
HETATM   15  C   UNL     1      -6.760   8.239  66.541  1.00  0.00    -0.063 C  
BRANCH  15  16
HETATM   16  C   UNL     1      -6.375   8.825  67.897  1.00  0.00    -0.056 C  
BRANCH  16  17
HETATM   17  C   UNL     1      -7.349   8.435  68.992  1.00  0.00    -0.088 C  
HETATM   18  O   UNL     1      -7.907   7.340  68.987  1.00  0.00    -0.113 OA 
HETATM   19  N   UNL     1      -7.587   9.383  69.955  1.00  0.00    -0.093 N  
HETATM   20  O   UNL     1      -6.902  10.606  70.059  1.00  0.00    -0.148 OA 
BRANCH  19  21
HETATM   21  C   UNL     1      -8.545   9.209  71.037  1.00  0.00    -0.177 C  
BRANCH  21  22
HETATM   22  C   UNL     1      -8.125   8.111  72.018  1.00  0.00    -0.178 C  
BRANCH  22  23
HETATM   23  C   UNL     1      -6.971   8.541  72.943  1.00  0.00    -0.058 C  
BRANCH  23  24
HETATM   24  C   UNL     1      -5.694   7.726  72.737  1.00  0.00    -0.040 C  
BRANCH  24  25
HETATM   25  C   UNL     1      -5.955   6.481  71.891  1.00  0.00    -0.038 C  
BRANCH  25  26
HETATM   26  N   UNL     1      -6.995   5.652  72.466  1.00  0.00    -0.081 N  
HETATM   27  H   UNL     1      -7.465   5.964  73.316  1.00  0.00     0.000 HD 
HETATM   28  C   UNL     1      -7.368   4.457  71.898  1.00  0.00    -0.069 C  
HETATM   29  O   UNL     1      -6.872   4.013  70.867  1.00  0.00    -0.031 OA 
BRANCH  28  30
HETATM   30  C   UNL     1      -8.442   3.712  72.649  1.00  0.00    -0.090 C  
BRANCH  30  31
HETATM   31  C   UNL     1      -9.572   3.352  71.698  1.00  0.00    -0.229 C  
BRANCH  31  32
HETATM   32  C   UNL     1     -10.236   4.598  71.151  1.00  0.00    -0.129 C  
HETATM   33  N   UNL     1     -10.932   5.403  72.019  1.00  0.00    -0.214 N  
HETATM   34  O   UNL     1     -10.070   4.902  69.967  1.00  0.00    -0.244 OA 
HETATM   35  O   UNL     1     -11.459   4.857  73.205  1.00  0.00    -0.322 OA 
BRANCH  33  36
HETATM   36  C   UNL     1     -11.668   6.589  71.575  1.00  0.00    -0.324 C  
BRANCH  36  37
HETATM   37  C   UNL     1     -11.841   7.615  72.696  1.00  0.00    -0.269 C  
BRANCH  37  38
HETATM   38  C   UNL     1     -12.738   8.784  72.275  1.00  0.00    -0.466 C  
BRANCH  38  39
HETATM   39  C   UNL     1     -11.969   9.815  71.443  1.00  0.00    -0.493 C  
BRANCH  39  40
HETATM   40  C   UNL     1     -12.881  10.619  70.515  1.00  0.00    -0.279 C  
HETATM   41  N   UNL     1     -12.151  11.679  69.826  1.00  0.00    -0.303 NA 
HETATM   42  H2  UNL     1     -11.344  11.309  69.325  1.00  0.00     0.000 HD 
HETATM   43  H1  UNL     1     -12.759  12.216  69.207  1.00  0.00     0.000 HD 
ENDBRANCH  39  40
ENDBRANCH  38  39
ENDBRANCH  37  38
ENDBRANCH  36  37
ENDBRANCH  33  36
ENDBRANCH  31  32
ENDBRANCH  30  31
ENDBRANCH  28  30
ENDBRANCH  25  26
ENDBRANCH  24  25
ENDBRANCH  23  24
ENDBRANCH  22  23
ENDBRANCH  21  22
ENDBRANCH  19  21
ENDBRANCH  16  17
ENDBRANCH  15  16
ENDBRANCH  12  15
ENDBRANCH  10  11
ENDBRANCH   9  10
ENDBRANCH   8   9
ENDBRANCH   7   8
ENDBRANCH   6   7
ENDBRANCH   3   6
TORSDOF 23
ENDMDL
MODEL      282
REMARK 921   NORMALIZED FREE ENERGY PREDICTED BY IDOCK:   -3.07 KCAL/MOL
REMARK 922        TOTAL FREE ENERGY PREDICTED BY IDOCK:   -9.96 KCAL/MOL
REMARK 923 INTER-LIGAND FREE ENERGY PREDICTED BY IDOCK:   -8.46 KCAL/MOL
REMARK 924 INTRA-LIGAND FREE ENERGY PREDICTED BY IDOCK:   -1.50 KCAL/MOL
REMARK 927      BINDING AFFINITY PREDICTED BY RF-SCORE:    0.00 PKD
ROOT
HETATM    1  C   UNL     1      -9.187   5.150  67.259  1.00  0.00    -0.119 C  
HETATM    2  C   UNL     1      -9.270   5.942  68.537  1.00  0.00    -0.117 C  
HETATM    3  N   UNL     1     -10.344   6.782  68.676  1.00  0.00    -0.175 N  
HETATM    4  O   UNL     1      -8.384   5.845  69.387  1.00  0.00    -0.111 OA 
HETATM    5  O   UNL     1     -11.445   6.807  67.803  1.00  0.00    -0.077 OA 
ENDROOT
BRANCH   3   6
HETATM    6  C   UNL     1     -10.558   7.624  69.845  1.00  0.00    -0.235 C  
BRANCH   6   7
HETATM    7  C   UNL     1     -11.096   6.836  71.041  1.00  0.00    -0.317 C  
BRANCH   7   8
HETATM    8  C   UNL     1     -10.828   7.592  72.343  1.00  0.00    -0.323 C  
BRANCH   8   9
HETATM    9  C   UNL     1      -9.891   8.783  72.135  1.00  0.00    -0.347 C  
BRANCH   9  10
HETATM   10  C   UNL     1      -8.420   8.399  72.301  1.00  0.00    -0.177 C  
BRANCH  10  11
HETATM   11  N   UNL     1      -7.746   8.216  71.024  1.00  0.00    -0.083 N  
HETATM   12  C   UNL     1      -7.096   9.260  70.405  1.00  0.00    -0.091 C  
HETATM   13  H   UNL     1      -7.755   7.297  70.581  1.00  0.00     0.000 HD 
HETATM   14  O   UNL     1      -7.001  10.387  70.884  1.00  0.00    -0.273 OA 
BRANCH  12  15
HETATM   15  C   UNL     1      -6.492   8.880  69.071  1.00  0.00    -0.047 C  
BRANCH  15  16
HETATM   16  C   UNL     1      -7.499   9.101  67.945  1.00  0.00    -0.084 C  
BRANCH  16  17
HETATM   17  C   UNL     1      -7.065   8.452  66.645  1.00  0.00    -0.073 C  
HETATM   18  O   UNL     1      -5.893   8.133  66.454  1.00  0.00    -0.039 OA 
HETATM   19  N   UNL     1      -8.043   8.278  65.700  1.00  0.00    -0.116 N  
HETATM   20  O   UNL     1      -9.410   8.534  65.907  1.00  0.00    -0.209 OA 
BRANCH  19  21
HETATM   21  C   UNL     1      -7.792   7.741  64.371  1.00  0.00    -0.138 C  
BRANCH  21  22
HETATM   22  C   UNL     1      -7.404   8.828  63.364  1.00  0.00    -0.100 C  
BRANCH  22  23
HETATM   23  C   UNL     1      -7.668  10.252  63.887  1.00  0.00    -0.101 C  
BRANCH  23  24
HETATM   24  C   UNL     1      -8.602  11.063  62.988  1.00  0.00    -0.100 C  
BRANCH  24  25
HETATM   25  C   UNL     1     -10.069  10.778  63.301  1.00  0.00    -0.255 C  
BRANCH  25  26
HETATM   26  N   UNL     1     -10.793  11.992  63.622  1.00  0.00    -0.407 N  
HETATM   27  H   UNL     1     -11.174  12.557  62.863  1.00  0.00     0.000 HD 
HETATM   28  C   UNL     1     -10.981  12.402  64.921  1.00  0.00    -0.302 C  
HETATM   29  O   UNL     1     -10.576  11.775  65.895  1.00  0.00    -0.253 OA 
BRANCH  28  30
HETATM   30  C   UNL     1     -11.727  13.704  65.066  1.00  0.00    -0.354 C  
BRANCH  30  31
HETATM   31  C   UNL     1     -10.848  14.851  64.591  1.00  0.00    -0.296 C  
BRANCH  31  32
HETATM   32  C   UNL     1     -10.815  15.966  65.615  1.00  0.00    -0.284 C  
HETATM   33  N   UNL     1     -10.977  15.642  66.940  1.00  0.00    -0.288 N  
HETATM   34  O   UNL     1     -10.565  17.116  65.248  1.00  0.00    -0.662 OA 
HETATM   35  O   UNL     1     -11.661  14.463  67.291  1.00  0.00    -0.370 OA 
BRANCH  33  36
HETATM   36  C   UNL     1     -11.033  16.656  67.996  1.00  0.00    -0.311 C  
BRANCH  36  37
HETATM   37  C   UNL     1      -9.705  16.784  68.744  1.00  0.00    -0.261 C  
BRANCH  37  38
HETATM   38  C   UNL     1      -9.269  15.458  69.377  1.00  0.00    -0.268 C  
BRANCH  38  39
HETATM   39  C   UNL     1      -8.040  14.873  68.674  1.00  0.00    -0.151 C  
BRANCH  39  40
HETATM   40  C   UNL     1      -8.204  13.389  68.341  1.00  0.00    -0.139 C  
HETATM   41  N   UNL     1      -7.958  13.122  66.928  1.00  0.00    -0.401 NA 
HETATM   42  H2  UNL     1      -7.044  13.469  66.638  1.00  0.00     0.000 HD 
HETATM   43  H1  UNL     1      -8.067  12.132  66.706  1.00  0.00     0.000 HD 
ENDBRANCH  39  40
ENDBRANCH  38  39
ENDBRANCH  37  38
ENDBRANCH  36  37
ENDBRANCH  33  36
ENDBRANCH  31  32
ENDBRANCH  30  31
ENDBRANCH  28  30
ENDBRANCH  25  26
ENDBRANCH  24  25
ENDBRANCH  23  24
ENDBRANCH  22  23
ENDBRANCH  21  22
ENDBRANCH  19  21
ENDBRANCH  16  17
ENDBRANCH  15  16
ENDBRANCH  12  15
ENDBRANCH  10  11
ENDBRANCH   9  10
ENDBRANCH   8   9
ENDBRANCH   7   8
ENDBRANCH   6   7
ENDBRANCH   3   6
TORSDOF 23
ENDMDL
MODEL      283
REMARK 921   NORMALIZED FREE ENERGY PREDICTED BY IDOCK:   -3.06 KCAL/MOL
REMARK 922        TOTAL FREE ENERGY PREDICTED BY IDOCK:   -9.93 KCAL/MOL
REMARK 923 INTER-LIGAND FREE ENERGY PREDICTED BY IDOCK:   -7.52 KCAL/MOL
REMARK 924 INTRA-LIGAND FREE ENERGY PREDICTED BY IDOCK:   -2.41 KCAL/MOL
REMARK 927      BINDING AFFINITY PREDICTED BY RF-SCORE:    0.00 PKD
ROOT
HETATM    1  C   UNL     1      -9.677  14.846  69.825  1.00  0.00     0.085 C  
HETATM    2  C   UNL     1     -10.326  15.941  69.020  1.00  0.00    -0.231 C  
HETATM    3  N   UNL     1      -9.540  16.577  68.095  1.00  0.00    -0.222 N  
HETATM    4  O   UNL     1     -11.499  16.252  69.227  1.00  0.00    -0.316 OA 
HETATM    5  O   UNL     1      -8.253  16.152  67.726  1.00  0.00    -0.149 OA 
ENDROOT
BRANCH   3   6
HETATM    6  C   UNL     1     -10.016  17.664  67.251  1.00  0.00    -0.322 C  
BRANCH   6   7
HETATM    7  C   UNL     1     -10.074  17.273  65.773  1.00  0.00    -0.159 C  
BRANCH   7   8
HETATM    8  C   UNL     1     -11.401  16.582  65.454  1.00  0.00     0.293 C  
BRANCH   8   9
HETATM    9  C   UNL     1     -11.267  15.582  64.304  1.00  0.00    -0.095 C  
BRANCH   9  10
HETATM   10  C   UNL     1     -12.352  14.505  64.343  1.00  0.00    -0.413 C  
BRANCH  10  11
HETATM   11  N   UNL     1     -11.831  13.181  64.038  1.00  0.00    -0.425 N  
HETATM   12  C   UNL     1     -11.046  12.499  64.939  1.00  0.00    -0.299 C  
HETATM   13  H   UNL     1     -12.052  12.751  63.140  1.00  0.00     0.000 HD 
HETATM   14  O   UNL     1     -10.762  12.921  66.057  1.00  0.00    -0.271 OA 
BRANCH  12  15
HETATM   15  C   UNL     1     -10.571  11.157  64.423  1.00  0.00    -0.411 C  
BRANCH  15  16
HETATM   16  C   UNL     1     -10.077  10.285  65.575  1.00  0.00    -0.351 C  
BRANCH  16  17
HETATM   17  C   UNL     1      -8.750   9.619  65.267  1.00  0.00    -0.160 C  
HETATM   18  O   UNL     1      -8.701   8.526  64.707  1.00  0.00    -0.135 OA 
HETATM   19  N   UNL     1      -7.627  10.290  65.678  1.00  0.00    -0.144 N  
HETATM   20  O   UNL     1      -7.626  11.583  66.232  1.00  0.00    -0.048 OA 
BRANCH  19  21
HETATM   21  C   UNL     1      -6.277   9.767  65.533  1.00  0.00    -0.074 C  
BRANCH  21  22
HETATM   22  C   UNL     1      -5.552   9.638  66.875  1.00  0.00    -0.046 C  
BRANCH  22  23
HETATM   23  C   UNL     1      -6.441   9.044  67.984  1.00  0.00    -0.060 C  
BRANCH  23  24
HETATM   24  C   UNL     1      -6.784   7.571  67.759  1.00  0.00    -0.066 C  
BRANCH  24  25
HETATM   25  C   UNL     1      -7.956   7.128  68.633  1.00  0.00    -0.123 C  
BRANCH  25  26
HETATM   26  N   UNL     1      -8.514   8.237  69.382  1.00  0.00    -0.122 N  
HETATM   27  H   UNL     1      -7.923   8.729  70.052  1.00  0.00     0.000 HD 
HETATM   28  C   UNL     1      -9.816   8.643  69.214  1.00  0.00    -0.188 C  
HETATM   29  O   UNL     1     -10.591   8.123  68.417  1.00  0.00    -0.185 OA 
BRANCH  28  30
HETATM   30  C   UNL     1     -10.235   9.789  70.099  1.00  0.00    -0.328 C  
BRANCH  30  31
HETATM   31  C   UNL     1     -11.427   9.370  70.946  1.00  0.00    -0.382 C  
BRANCH  31  32
HETATM   32  C   UNL     1     -11.019   8.344  71.982  1.00  0.00    -0.323 C  
HETATM   33  N   UNL     1     -11.589   7.096  71.927  1.00  0.00    -0.268 N  
HETATM   34  O   UNL     1     -10.133   8.624  72.793  1.00  0.00    -0.199 OA 
HETATM   35  O   UNL     1     -12.846   6.931  71.314  1.00  0.00    -0.359 OA 
BRANCH  33  36
HETATM   36  C   UNL     1     -11.315   6.061  72.926  1.00  0.00    -0.196 C  
BRANCH  36  37
HETATM   37  C   UNL     1     -10.624   4.840  72.317  1.00  0.00    -0.225 C  
BRANCH  37  38
HETATM   38  C   UNL     1      -9.961   5.162  70.973  1.00  0.00    -0.274 C  
BRANCH  38  39
HETATM   39  C   UNL     1      -9.221   3.949  70.402  1.00  0.00    -0.209 C  
BRANCH  39  40
HETATM   40  C   UNL     1      -7.787   3.836  70.922  1.00  0.00    -0.051 C  
HETATM   41  N   UNL     1      -7.221   5.144  71.236  1.00  0.00    -0.066 NA 
HETATM   42  H2  UNL     1      -7.813   5.659  71.887  1.00  0.00     0.000 HD 
HETATM   43  H1  UNL     1      -6.264   5.069  71.583  1.00  0.00     0.000 HD 
ENDBRANCH  39  40
ENDBRANCH  38  39
ENDBRANCH  37  38
ENDBRANCH  36  37
ENDBRANCH  33  36
ENDBRANCH  31  32
ENDBRANCH  30  31
ENDBRANCH  28  30
ENDBRANCH  25  26
ENDBRANCH  24  25
ENDBRANCH  23  24
ENDBRANCH  22  23
ENDBRANCH  21  22
ENDBRANCH  19  21
ENDBRANCH  16  17
ENDBRANCH  15  16
ENDBRANCH  12  15
ENDBRANCH  10  11
ENDBRANCH   9  10
ENDBRANCH   8   9
ENDBRANCH   7   8
ENDBRANCH   6   7
ENDBRANCH   3   6
TORSDOF 23
ENDMDL
MODEL      284
REMARK 921   NORMALIZED FREE ENERGY PREDICTED BY IDOCK:   -3.05 KCAL/MOL
REMARK 922        TOTAL FREE ENERGY PREDICTED BY IDOCK:   -9.91 KCAL/MOL
REMARK 923 INTER-LIGAND FREE ENERGY PREDICTED BY IDOCK:   -7.59 KCAL/MOL
REMARK 924 INTRA-LIGAND FREE ENERGY PREDICTED BY IDOCK:   -2.32 KCAL/MOL
REMARK 927      BINDING AFFINITY PREDICTED BY RF-SCORE:    0.00 PKD
ROOT
HETATM    1  C   UNL     1     -11.543  12.214  64.255  1.00  0.00    -0.444 C  
HETATM    2  C   UNL     1     -10.311  12.074  65.111  1.00  0.00    -0.276 C  
HETATM    3  N   UNL     1      -9.432  11.080  64.772  1.00  0.00    -0.223 N  
HETATM    4  O   UNL     1     -10.143  12.812  66.083  1.00  0.00    -0.256 OA 
HETATM    5  O   UNL     1      -9.512  10.323  63.591  1.00  0.00    -0.274 OA 
ENDROOT
BRANCH   3   6
HETATM    6  C   UNL     1      -8.205  10.808  65.509  1.00  0.00    -0.104 C  
BRANCH   6   7
HETATM    7  C   UNL     1      -7.185  10.029  64.677  1.00  0.00    -0.140 C  
BRANCH   7   8
HETATM    8  C   UNL     1      -6.715   8.786  65.434  1.00  0.00    -0.068 C  
BRANCH   8   9
HETATM    9  C   UNL     1      -6.552   7.577  64.510  1.00  0.00    -0.044 C  
BRANCH   9  10
HETATM   10  C   UNL     1      -7.865   6.821  64.307  1.00  0.00    -0.109 C  
BRANCH  10  11
HETATM   11  N   UNL     1      -8.875   7.187  65.288  1.00  0.00    -0.370 N  
HETATM   12  C   UNL     1      -9.524   6.229  66.035  1.00  0.00     0.012 C  
HETATM   13  H   UNL     1      -9.107   8.171  65.425  1.00  0.00     0.000 HD 
HETATM   14  O   UNL     1      -9.282   5.028  65.966  1.00  0.00    -0.142 OA 
BRANCH  12  15
HETATM   15  C   UNL     1     -10.564   6.806  66.971  1.00  0.00    -0.405 C  
BRANCH  15  16
HETATM   16  C   UNL     1     -10.581   8.329  66.879  1.00  0.00    -0.302 C  
BRANCH  16  17
HETATM   17  C   UNL     1     -10.205   8.992  68.190  1.00  0.00    -0.204 C  
HETATM   18  O   UNL     1      -9.315   8.532  68.903  1.00  0.00    -0.146 OA 
HETATM   19  N   UNL     1     -10.931  10.102  68.537  1.00  0.00    -0.239 N  
HETATM   20  O   UNL     1     -11.886  10.722  67.712  1.00  0.00    -0.538 OA 
BRANCH  19  21
HETATM   21  C   UNL     1     -10.757  10.820  69.791  1.00  0.00    -0.186 C  
BRANCH  21  22
HETATM   22  C   UNL     1     -11.242  10.014  70.999  1.00  0.00    -0.387 C  
BRANCH  22  23
HETATM   23  C   UNL     1     -12.737   9.652  70.918  1.00  0.00    -0.280 C  
BRANCH  23  24
HETATM   24  C   UNL     1     -13.320   9.193  72.255  1.00  0.00    -0.540 C  
BRANCH  24  25
HETATM   25  C   UNL     1     -13.817   7.750  72.184  1.00  0.00    -0.112 C  
BRANCH  25  26
HETATM   26  N   UNL     1     -12.736   6.826  71.905  1.00  0.00    -0.499 N  
HETATM   27  H   UNL     1     -12.824   6.186  71.115  1.00  0.00     0.000 HD 
HETATM   28  C   UNL     1     -11.598   6.787  72.674  1.00  0.00    -0.137 C  
HETATM   29  O   UNL     1     -11.399   7.532  73.628  1.00  0.00    -0.090 OA 
BRANCH  28  30
HETATM   30  C   UNL     1     -10.595   5.741  72.259  1.00  0.00    -0.264 C  
BRANCH  30  31
HETATM   31  C   UNL     1     -10.249   4.864  73.452  1.00  0.00    -0.212 C  
BRANCH  31  32
HETATM   32  C   UNL     1      -9.483   3.634  73.015  1.00  0.00    -0.110 C  
HETATM   33  N   UNL     1      -8.123   3.607  73.211  1.00  0.00    -0.078 N  
HETATM   34  O   UNL     1     -10.100   2.662  72.574  1.00  0.00    -0.145 OA 
HETATM   35  O   UNL     1      -7.408   4.816  73.300  1.00  0.00    -0.079 OA 
BRANCH  33  36
HETATM   36  C   UNL     1      -7.286   2.495  72.757  1.00  0.00    -0.032 C  
BRANCH  36  37
HETATM   37  C   UNL     1      -7.069   2.516  71.243  1.00  0.00    -0.032 C  
BRANCH  37  38
HETATM   38  C   UNL     1      -5.752   3.200  70.858  1.00  0.00    -0.013 C  
BRANCH  38  39
HETATM   39  C   UNL     1      -5.956   4.235  69.748  1.00  0.00    -0.018 C  
BRANCH  39  40
HETATM   40  C   UNL     1      -6.209   5.641  70.293  1.00  0.00    -0.027 C  
HETATM   41  N   UNL     1      -7.424   6.228  69.736  1.00  0.00    -0.079 NA 
HETATM   42  H2  UNL     1      -8.230   5.621  69.884  1.00  0.00     0.000 HD 
HETATM   43  H1  UNL     1      -7.592   7.166  70.100  1.00  0.00     0.000 HD 
ENDBRANCH  39  40
ENDBRANCH  38  39
ENDBRANCH  37  38
ENDBRANCH  36  37
ENDBRANCH  33  36
ENDBRANCH  31  32
ENDBRANCH  30  31
ENDBRANCH  28  30
ENDBRANCH  25  26
ENDBRANCH  24  25
ENDBRANCH  23  24
ENDBRANCH  22  23
ENDBRANCH  21  22
ENDBRANCH  19  21
ENDBRANCH  16  17
ENDBRANCH  15  16
ENDBRANCH  12  15
ENDBRANCH  10  11
ENDBRANCH   9  10
ENDBRANCH   8   9
ENDBRANCH   7   8
ENDBRANCH   6   7
ENDBRANCH   3   6
TORSDOF 23
ENDMDL
MODEL      285
REMARK 921   NORMALIZED FREE ENERGY PREDICTED BY IDOCK:   -3.04 KCAL/MOL
REMARK 922        TOTAL FREE ENERGY PREDICTED BY IDOCK:   -9.88 KCAL/MOL
REMARK 923 INTER-LIGAND FREE ENERGY PREDICTED BY IDOCK:   -8.98 KCAL/MOL
REMARK 924 INTRA-LIGAND FREE ENERGY PREDICTED BY IDOCK:   -0.90 KCAL/MOL
REMARK 927      BINDING AFFINITY PREDICTED BY RF-SCORE:    0.00 PKD
ROOT
HETATM    1  C   UNL     1      -6.392   5.593  73.961  1.00  0.00    -0.069 C  
HETATM    2  C   UNL     1      -7.288   4.622  73.238  1.00  0.00    -0.082 C  
HETATM    3  N   UNL     1      -7.449   4.814  71.891  1.00  0.00    -0.085 N  
HETATM    4  O   UNL     1      -7.862   3.726  73.858  1.00  0.00    -0.076 OA 
HETATM    5  O   UNL     1      -6.699   5.724  71.127  1.00  0.00    -0.053 OA 
ENDROOT
BRANCH   3   6
HETATM    6  C   UNL     1      -8.294   3.971  71.056  1.00  0.00    -0.075 C  
BRANCH   6   7
HETATM    7  C   UNL     1      -9.776   4.335  71.170  1.00  0.00    -0.259 C  
BRANCH   7   8
HETATM    8  C   UNL     1      -9.949   5.626  71.972  1.00  0.00    -0.217 C  
BRANCH   8   9
HETATM    9  C   UNL     1     -11.125   5.546  72.946  1.00  0.00    -0.349 C  
BRANCH   9  10
HETATM   10  C   UNL     1     -12.448   5.948  72.293  1.00  0.00     0.212 C  
BRANCH  10  11
HETATM   11  N   UNL     1     -12.371   7.243  71.634  1.00  0.00    -0.334 N  
HETATM   12  C   UNL     1     -13.385   8.166  71.756  1.00  0.00    -0.345 C  
HETATM   13  H   UNL     1     -11.551   7.471  71.072  1.00  0.00     0.000 HD 
HETATM   14  O   UNL     1     -14.389   7.993  72.442  1.00  0.00    -0.258 OA 
BRANCH  12  15
HETATM   15  C   UNL     1     -13.137   9.433  70.966  1.00  0.00    -0.214 C  
BRANCH  15  16
HETATM   16  C   UNL     1     -11.948  10.198  71.543  1.00  0.00    -0.404 C  
BRANCH  16  17
HETATM   17  C   UNL     1     -10.619   9.629  71.088  1.00  0.00    -0.257 C  
HETATM   18  O   UNL     1      -9.896   9.004  71.862  1.00  0.00    -0.323 OA 
HETATM   19  N   UNL     1     -10.267   9.881  69.787  1.00  0.00    -0.230 N  
HETATM   20  O   UNL     1     -11.100  10.502  68.839  1.00  0.00    -0.230 OA 
BRANCH  19  21
HETATM   21  C   UNL     1      -8.997   9.475  69.202  1.00  0.00    -0.148 C  
BRANCH  21  22
HETATM   22  C   UNL     1      -8.018  10.644  69.062  1.00  0.00    -0.140 C  
BRANCH  22  23
HETATM   23  C   UNL     1      -8.671  11.906  68.467  1.00  0.00    -0.108 C  
BRANCH  23  24
HETATM   24  C   UNL     1      -7.709  12.743  67.623  1.00  0.00    -0.162 C  
BRANCH  24  25
HETATM   25  C   UNL     1      -8.461  13.660  66.660  1.00  0.00     0.164 C  
BRANCH  25  26
HETATM   26  N   UNL     1      -8.069  15.045  66.825  1.00  0.00    -0.348 N  
HETATM   27  H   UNL     1      -7.275  15.267  67.425  1.00  0.00     0.000 HD 
HETATM   28  C   UNL     1      -8.737  16.068  66.195  1.00  0.00    -0.313 C  
HETATM   29  O   UNL     1      -9.688  15.893  65.440  1.00  0.00    -0.397 OA 
BRANCH  28  30
HETATM   30  C   UNL     1      -8.213  17.447  66.508  1.00  0.00    -0.311 C  
BRANCH  30  31
HETATM   31  C   UNL     1      -8.372  17.727  67.994  1.00  0.00    -0.249 C  
BRANCH  31  32
HETATM   32  C   UNL     1      -9.746  17.314  68.478  1.00  0.00    -0.296 C  
HETATM   33  N   UNL     1      -9.832  16.377  69.480  1.00  0.00    -0.176 N  
HETATM   34  O   UNL     1     -10.742  17.881  68.025  1.00  0.00    -0.378 OA 
HETATM   35  O   UNL     1      -8.777  15.465  69.673  1.00  0.00    -0.257 OA 
BRANCH  33  36
HETATM   36  C   UNL     1     -11.114  15.860  69.965  1.00  0.00    -0.354 C  
BRANCH  36  37
HETATM   37  C   UNL     1     -12.015  15.387  68.822  1.00  0.00    -0.278 C  
BRANCH  37  38
HETATM   38  C   UNL     1     -11.550  14.049  68.237  1.00  0.00    -0.364 C  
BRANCH  38  39
HETATM   39  C   UNL     1     -12.113  13.820  66.832  1.00  0.00    -0.454 C  
BRANCH  39  40
HETATM   40  C   UNL     1     -11.804  12.421  66.295  1.00  0.00    -0.364 C  
HETATM   41  N   UNL     1     -11.917  12.363  64.841  1.00  0.00    -0.397 NA 
HETATM   42  H2  UNL     1     -11.334  13.070  64.394  1.00  0.00     0.000 HD 
HETATM   43  H1  UNL     1     -11.712  11.430  64.483  1.00  0.00     0.000 HD 
ENDBRANCH  39  40
ENDBRANCH  38  39
ENDBRANCH  37  38
ENDBRANCH  36  37
ENDBRANCH  33  36
ENDBRANCH  31  32
ENDBRANCH  30  31
ENDBRANCH  28  30
ENDBRANCH  25  26
ENDBRANCH  24  25
ENDBRANCH  23  24
ENDBRANCH  22  23
ENDBRANCH  21  22
ENDBRANCH  19  21
ENDBRANCH  16  17
ENDBRANCH  15  16
ENDBRANCH  12  15
ENDBRANCH  10  11
ENDBRANCH   9  10
ENDBRANCH   8   9
ENDBRANCH   7   8
ENDBRANCH   6   7
ENDBRANCH   3   6
TORSDOF 23
ENDMDL
MODEL      286
REMARK 921   NORMALIZED FREE ENERGY PREDICTED BY IDOCK:   -3.04 KCAL/MOL
REMARK 922        TOTAL FREE ENERGY PREDICTED BY IDOCK:   -9.87 KCAL/MOL
REMARK 923 INTER-LIGAND FREE ENERGY PREDICTED BY IDOCK:   -8.78 KCAL/MOL
REMARK 924 INTRA-LIGAND FREE ENERGY PREDICTED BY IDOCK:   -1.09 KCAL/MOL
REMARK 927      BINDING AFFINITY PREDICTED BY RF-SCORE:    0.00 PKD
ROOT
HETATM    1  C   UNL     1     -11.491   6.675  72.853  1.00  0.00    -0.102 C  
HETATM    2  C   UNL     1     -10.398   5.873  72.196  1.00  0.00    -0.201 C  
HETATM    3  N   UNL     1     -10.539   5.616  70.857  1.00  0.00    -0.257 N  
HETATM    4  O   UNL     1      -9.451   5.452  72.861  1.00  0.00    -0.144 OA 
HETATM    5  O   UNL     1     -11.520   6.202  70.039  1.00  0.00    -0.406 OA 
ENDROOT
BRANCH   3   6
HETATM    6  C   UNL     1      -9.577   4.842  70.084  1.00  0.00    -0.193 C  
BRANCH   6   7
HETATM    7  C   UNL     1      -9.761   5.023  68.576  1.00  0.00    -0.215 C  
BRANCH   7   8
HETATM    8  C   UNL     1      -9.471   3.713  67.841  1.00  0.00    -0.224 C  
BRANCH   8   9
HETATM    9  C   UNL     1      -8.341   3.863  66.821  1.00  0.00    -0.100 C  
BRANCH   9  10
HETATM   10  C   UNL     1      -8.671   4.889  65.737  1.00  0.00    -0.131 C  
BRANCH  10  11
HETATM   11  N   UNL     1      -7.576   5.818  65.499  1.00  0.00    -0.081 N  
HETATM   12  C   UNL     1      -7.704   7.159  65.784  1.00  0.00    -0.099 C  
HETATM   13  H   UNL     1      -6.698   5.468  65.115  1.00  0.00     0.000 HD 
HETATM   14  O   UNL     1      -8.707   7.660  66.284  1.00  0.00    -0.138 OA 
BRANCH  12  15
HETATM   15  C   UNL     1      -6.472   7.964  65.432  1.00  0.00    -0.041 C  
BRANCH  15  16
HETATM   16  C   UNL     1      -6.241   7.956  63.922  1.00  0.00    -0.058 C  
BRANCH  16  17
HETATM   17  C   UNL     1      -7.417   8.527  63.154  1.00  0.00    -0.108 C  
HETATM   18  O   UNL     1      -8.212   7.794  62.569  1.00  0.00    -0.161 OA 
HETATM   19  N   UNL     1      -7.516   9.895  63.129  1.00  0.00    -0.128 N  
HETATM   20  O   UNL     1      -6.693  10.769  63.861  1.00  0.00     0.144 OA 
BRANCH  19  21
HETATM   21  C   UNL     1      -8.536  10.615  62.382  1.00  0.00    -0.239 C  
BRANCH  21  22
HETATM   22  C   UNL     1      -9.792  10.881  63.215  1.00  0.00    -0.409 C  
BRANCH  22  23
HETATM   23  C   UNL     1      -9.491  11.069  64.713  1.00  0.00    -0.267 C  
BRANCH  23  24
HETATM   24  C   UNL     1     -10.712  10.849  65.608  1.00  0.00    -0.178 C  
BRANCH  24  25
HETATM   25  C   UNL     1     -11.614  12.081  65.638  1.00  0.00    -0.296 C  
BRANCH  25  26
HETATM   26  N   UNL     1     -10.857  13.303  65.458  1.00  0.00    -0.281 N  
HETATM   27  H   UNL     1     -10.062  13.304  64.819  1.00  0.00     0.000 HD 
HETATM   28  C   UNL     1     -11.180  14.462  66.124  1.00  0.00    -0.336 C  
HETATM   29  O   UNL     1     -12.130  14.557  66.895  1.00  0.00    -0.399 OA 
BRANCH  28  30
HETATM   30  C   UNL     1     -10.264  15.625  65.842  1.00  0.00    -0.372 C  
BRANCH  30  31
HETATM   31  C   UNL     1     -10.173  16.513  67.073  1.00  0.00    -0.288 C  
BRANCH  31  32
HETATM   32  C   UNL     1      -9.750  17.917  66.696  1.00  0.00    -0.319 C  
HETATM   33  N   UNL     1      -8.423  18.150  66.431  1.00  0.00    -0.261 N  
HETATM   34  O   UNL     1     -10.609  18.790  66.558  1.00  0.00    -0.404 OA 
HETATM   35  O   UNL     1      -7.442  17.306  66.986  1.00  0.00    -0.167 OA 
BRANCH  33  36
HETATM   36  C   UNL     1      -7.904  19.487  66.130  1.00  0.00    -0.316 C  
BRANCH  36  37
HETATM   37  C   UNL     1      -7.714  20.330  67.392  1.00  0.00    -0.352 C  
BRANCH  37  38
HETATM   38  C   UNL     1      -6.252  20.738  67.599  1.00  0.00    -0.342 C  
BRANCH  38  39
HETATM   39  C   UNL     1      -5.954  21.050  69.068  1.00  0.00    -0.157 C  
BRANCH  39  40
HETATM   40  C   UNL     1      -6.071  19.818  69.967  1.00  0.00    -0.316 C  
HETATM   41  N   UNL     1      -5.724  20.123  71.351  1.00  0.00    -0.436 NA 
HETATM   42  H2  UNL     1      -6.278  20.900  71.711  1.00  0.00     0.000 HD 
HETATM   43  H1  UNL     1      -5.802  19.301  71.950  1.00  0.00     0.000 HD 
ENDBRANCH  39  40
ENDBRANCH  38  39
ENDBRANCH  37  38
ENDBRANCH  36  37
ENDBRANCH  33  36
ENDBRANCH  31  32
ENDBRANCH  30  31
ENDBRANCH  28  30
ENDBRANCH  25  26
ENDBRANCH  24  25
ENDBRANCH  23  24
ENDBRANCH  22  23
ENDBRANCH  21  22
ENDBRANCH  19  21
ENDBRANCH  16  17
ENDBRANCH  15  16
ENDBRANCH  12  15
ENDBRANCH  10  11
ENDBRANCH   9  10
ENDBRANCH   8   9
ENDBRANCH   7   8
ENDBRANCH   6   7
ENDBRANCH   3   6
TORSDOF 23
ENDMDL
MODEL      287
REMARK 921   NORMALIZED FREE ENERGY PREDICTED BY IDOCK:   -3.03 KCAL/MOL
REMARK 922        TOTAL FREE ENERGY PREDICTED BY IDOCK:   -9.85 KCAL/MOL
REMARK 923 INTER-LIGAND FREE ENERGY PREDICTED BY IDOCK:   -8.26 KCAL/MOL
REMARK 924 INTRA-LIGAND FREE ENERGY PREDICTED BY IDOCK:   -1.59 KCAL/MOL
REMARK 927      BINDING AFFINITY PREDICTED BY RF-SCORE:    0.00 PKD
ROOT
HETATM    1  C   UNL     1     -11.876  11.443  68.118  1.00  0.00    -0.288 C  
HETATM    2  C   UNL     1     -11.466  12.580  67.220  1.00  0.00    -0.353 C  
HETATM    3  N   UNL     1     -10.934  12.246  66.002  1.00  0.00    -0.281 N  
HETATM    4  O   UNL     1     -11.583  13.746  67.601  1.00  0.00    -0.307 OA 
HETATM    5  O   UNL     1     -10.925  10.944  65.475  1.00  0.00    -0.106 OA 
ENDROOT
BRANCH   3   6
HETATM    6  C   UNL     1     -10.476  13.229  65.030  1.00  0.00    -0.353 C  
BRANCH   6   7
HETATM    7  C   UNL     1     -11.619  14.088  64.486  1.00  0.00    -0.403 C  
BRANCH   7   8
HETATM    8  C   UNL     1     -11.140  15.519  64.234  1.00  0.00     0.009 C  
BRANCH   8   9
HETATM    9  C   UNL     1     -11.411  16.435  65.429  1.00  0.00     0.241 C  
BRANCH   9  10
HETATM   10  C   UNL     1     -10.177  16.614  66.314  1.00  0.00    -0.334 C  
BRANCH  10  11
HETATM   11  N   UNL     1      -9.724  17.996  66.363  1.00  0.00    -0.326 N  
HETATM   12  C   UNL     1      -9.677  18.689  67.553  1.00  0.00    -0.310 C  
HETATM   13  H   UNL     1      -9.437  18.460  65.502  1.00  0.00     0.000 HD 
HETATM   14  O   UNL     1      -9.965  18.200  68.641  1.00  0.00    -0.364 OA 
BRANCH  12  15
HETATM   15  C   UNL     1      -9.216  20.121  67.391  1.00  0.00    -0.495 C  
BRANCH  15  16
HETATM   16  C   UNL     1      -8.077  20.206  66.378  1.00  0.00    -0.298 C  
BRANCH  16  17
HETATM   17  C   UNL     1      -6.947  19.246  66.696  1.00  0.00    -0.204 C  
HETATM   18  O   UNL     1      -6.610  18.374  65.898  1.00  0.00    -0.224 OA 
HETATM   19  N   UNL     1      -6.358  19.392  67.926  1.00  0.00    -0.212 N  
HETATM   20  O   UNL     1      -6.640  20.432  68.829  1.00  0.00    -0.295 OA 
BRANCH  19  21
HETATM   21  C   UNL     1      -5.311  18.515  68.427  1.00  0.00    -0.173 C  
BRANCH  21  22
HETATM   22  C   UNL     1      -5.860  17.401  69.323  1.00  0.00    -0.210 C  
BRANCH  22  23
HETATM   23  C   UNL     1      -6.918  16.530  68.619  1.00  0.00    -0.167 C  
BRANCH  23  24
HETATM   24  C   UNL     1      -7.492  15.433  69.516  1.00  0.00    -0.211 C  
BRANCH  24  25
HETATM   25  C   UNL     1      -6.627  14.174  69.485  1.00  0.00    -0.124 C  
BRANCH  25  26
HETATM   26  N   UNL     1      -7.350  13.042  68.940  1.00  0.00    -0.254 N  
HETATM   27  H   UNL     1      -8.189  12.714  69.419  1.00  0.00     0.000 HD 
HETATM   28  C   UNL     1      -6.937  12.399  67.798  1.00  0.00    -0.118 C  
HETATM   29  O   UNL     1      -5.953  12.738  67.148  1.00  0.00    -0.311 OA 
BRANCH  28  30
HETATM   30  C   UNL     1      -7.789  11.222  67.397  1.00  0.00    -0.128 C  
BRANCH  30  31
HETATM   31  C   UNL     1      -6.896  10.048  67.027  1.00  0.00    -0.087 C  
BRANCH  31  32
HETATM   32  C   UNL     1      -7.223   8.834  67.871  1.00  0.00    -0.084 C  
HETATM   33  N   UNL     1      -8.116   7.915  67.376  1.00  0.00    -0.121 N  
HETATM   34  O   UNL     1      -6.625   8.659  68.935  1.00  0.00    -0.051 OA 
HETATM   35  O   UNL     1      -9.071   8.316  66.422  1.00  0.00    -0.160 OA 
BRANCH  33  36
HETATM   36  C   UNL     1      -8.551   6.748  68.146  1.00  0.00    -0.120 C  
BRANCH  36  37
HETATM   37  C   UNL     1      -7.870   5.461  67.677  1.00  0.00    -0.100 C  
BRANCH  37  38
HETATM   38  C   UNL     1      -8.798   4.598  66.814  1.00  0.00    -0.111 C  
BRANCH  38  39
HETATM   39  C   UNL     1      -8.625   4.899  65.323  1.00  0.00    -0.142 C  
BRANCH  39  40
HETATM   40  C   UNL     1      -9.332   3.878  64.430  1.00  0.00    -0.153 C  
HETATM   41  N   UNL     1     -10.779   3.906  64.618  1.00  0.00    -0.537 NA 
HETATM   42  H2  UNL     1     -11.153   4.844  64.478  1.00  0.00     0.000 HD 
HETATM   43  H1  UNL     1     -11.250   3.225  64.023  1.00  0.00     0.000 HD 
ENDBRANCH  39  40
ENDBRANCH  38  39
ENDBRANCH  37  38
ENDBRANCH  36  37
ENDBRANCH  33  36
ENDBRANCH  31  32
ENDBRANCH  30  31
ENDBRANCH  28  30
ENDBRANCH  25  26
ENDBRANCH  24  25
ENDBRANCH  23  24
ENDBRANCH  22  23
ENDBRANCH  21  22
ENDBRANCH  19  21
ENDBRANCH  16  17
ENDBRANCH  15  16
ENDBRANCH  12  15
ENDBRANCH  10  11
ENDBRANCH   9  10
ENDBRANCH   8   9
ENDBRANCH   7   8
ENDBRANCH   6   7
ENDBRANCH   3   6
TORSDOF 23
ENDMDL
MODEL      288
REMARK 921   NORMALIZED FREE ENERGY PREDICTED BY IDOCK:   -3.01 KCAL/MOL
REMARK 922        TOTAL FREE ENERGY PREDICTED BY IDOCK:   -9.82 KCAL/MOL
REMARK 923 INTER-LIGAND FREE ENERGY PREDICTED BY IDOCK:   -8.26 KCAL/MOL
REMARK 924 INTRA-LIGAND FREE ENERGY PREDICTED BY IDOCK:   -1.55 KCAL/MOL
REMARK 927      BINDING AFFINITY PREDICTED BY RF-SCORE:    0.00 PKD
ROOT
HETATM    1  C   UNL     1     -10.877  19.496  65.715  1.00  0.00    -0.403 C  
HETATM    2  C   UNL     1     -10.064  18.287  66.098  1.00  0.00    -0.346 C  
HETATM    3  N   UNL     1     -10.411  17.097  65.514  1.00  0.00    -0.235 N  
HETATM    4  O   UNL     1      -9.156  18.386  66.924  1.00  0.00    -0.271 OA 
HETATM    5  O   UNL     1     -11.335  16.974  64.462  1.00  0.00    -1.035 OA 
ENDROOT
BRANCH   3   6
HETATM    6  C   UNL     1      -9.733  15.839  65.793  1.00  0.00    -0.337 C  
BRANCH   6   7
HETATM    7  C   UNL     1      -9.689  15.519  67.288  1.00  0.00    -0.218 C  
BRANCH   7   8
HETATM    8  C   UNL     1      -8.292  15.043  67.692  1.00  0.00    -0.175 C  
BRANCH   8   9
HETATM    9  C   UNL     1      -7.896  15.538  69.084  1.00  0.00    -0.215 C  
BRANCH   9  10
HETATM   10  C   UNL     1      -6.445  15.199  69.428  1.00  0.00    -0.136 C  
BRANCH  10  11
HETATM   11  N   UNL     1      -6.145  13.787  69.243  1.00  0.00    -0.094 N  
HETATM   12  C   UNL     1      -5.818  12.983  70.311  1.00  0.00    -0.157 C  
HETATM   13  H   UNL     1      -6.178  13.388  68.306  1.00  0.00     0.000 HD 
HETATM   14  O   UNL     1      -5.792  13.368  71.477  1.00  0.00    -0.354 OA 
BRANCH  12  15
HETATM   15  C   UNL     1      -5.503  11.557  69.910  1.00  0.00    -0.078 C  
BRANCH  15  16
HETATM   16  C   UNL     1      -6.787  10.738  69.797  1.00  0.00    -0.151 C  
BRANCH  16  17
HETATM   17  C   UNL     1      -7.587  11.086  68.558  1.00  0.00    -0.114 C  
HETATM   18  O   UNL     1      -8.555  11.842  68.617  1.00  0.00    -0.142 OA 
HETATM   19  N   UNL     1      -7.188  10.485  67.391  1.00  0.00    -0.090 N  
HETATM   20  O   UNL     1      -6.033   9.695  67.254  1.00  0.00    -0.051 OA 
BRANCH  19  21
HETATM   21  C   UNL     1      -7.883  10.645  66.123  1.00  0.00    -0.152 C  
BRANCH  21  22
HETATM   22  C   UNL     1      -8.450   9.324  65.596  1.00  0.00    -0.149 C  
BRANCH  22  23
HETATM   23  C   UNL     1      -7.877   8.932  64.220  1.00  0.00    -0.134 C  
BRANCH  23  24
HETATM   24  C   UNL     1      -8.276   7.523  63.779  1.00  0.00     0.057 C  
BRANCH  24  25
HETATM   25  C   UNL     1      -7.458   6.456  64.504  1.00  0.00    -0.089 C  
BRANCH  25  26
HETATM   26  N   UNL     1      -8.037   6.120  65.789  1.00  0.00    -0.118 N  
HETATM   27  H   UNL     1      -7.785   6.675  66.607  1.00  0.00     0.000 HD 
HETATM   28  C   UNL     1      -8.915   5.073  65.938  1.00  0.00    -0.141 C  
HETATM   29  O   UNL     1      -9.289   4.365  65.008  1.00  0.00    -0.153 OA 
BRANCH  28  30
HETATM   30  C   UNL     1      -9.390   4.847  67.350  1.00  0.00    -0.145 C  
BRANCH  30  31
HETATM   31  C   UNL     1      -9.301   6.149  68.132  1.00  0.00    -0.115 C  
BRANCH  31  32
HETATM   32  C   UNL     1     -10.306   6.169  69.264  1.00  0.00    -0.221 C  
HETATM   33  N   UNL     1     -10.835   7.378  69.647  1.00  0.00    -0.233 N  
HETATM   34  O   UNL     1     -10.684   5.104  69.756  1.00  0.00    -0.225 OA 
HETATM   35  O   UNL     1     -10.116   8.563  69.399  1.00  0.00    -0.193 OA 
BRANCH  33  36
HETATM   36  C   UNL     1     -11.757   7.510  70.777  1.00  0.00    -0.256 C  
BRANCH  36  37
HETATM   37  C   UNL     1     -11.240   8.489  71.833  1.00  0.00    -0.397 C  
BRANCH  37  38
HETATM   38  C   UNL     1     -10.650   7.767  73.049  1.00  0.00    -0.441 C  
BRANCH  38  39
HETATM   39  C   UNL     1     -10.956   6.267  73.020  1.00  0.00    -0.271 C  
BRANCH  39  40
HETATM   40  C   UNL     1      -9.731   5.410  73.346  1.00  0.00    -0.150 C  
HETATM   41  N   UNL     1     -10.111   4.107  73.881  1.00  0.00    -0.137 NA 
HETATM   42  H2  UNL     1     -10.749   3.619  73.254  1.00  0.00     0.000 HD 
HETATM   43  H1  UNL     1      -9.294   3.535  74.099  1.00  0.00     0.000 HD 
ENDBRANCH  39  40
ENDBRANCH  38  39
ENDBRANCH  37  38
ENDBRANCH  36  37
ENDBRANCH  33  36
ENDBRANCH  31  32
ENDBRANCH  30  31
ENDBRANCH  28  30
ENDBRANCH  25  26
ENDBRANCH  24  25
ENDBRANCH  23  24
ENDBRANCH  22  23
ENDBRANCH  21  22
ENDBRANCH  19  21
ENDBRANCH  16  17
ENDBRANCH  15  16
ENDBRANCH  12  15
ENDBRANCH  10  11
ENDBRANCH   9  10
ENDBRANCH   8   9
ENDBRANCH   7   8
ENDBRANCH   6   7
ENDBRANCH   3   6
TORSDOF 23
ENDMDL
MODEL      289
REMARK 921   NORMALIZED FREE ENERGY PREDICTED BY IDOCK:   -3.01 KCAL/MOL
REMARK 922        TOTAL FREE ENERGY PREDICTED BY IDOCK:   -9.82 KCAL/MOL
REMARK 923 INTER-LIGAND FREE ENERGY PREDICTED BY IDOCK:   -7.41 KCAL/MOL
REMARK 924 INTRA-LIGAND FREE ENERGY PREDICTED BY IDOCK:   -2.40 KCAL/MOL
REMARK 927      BINDING AFFINITY PREDICTED BY RF-SCORE:    0.00 PKD
ROOT
HETATM    1  C   UNL     1      -6.566  19.077  65.903  1.00  0.00    -0.269 C  
HETATM    2  C   UNL     1      -7.437  18.146  66.704  1.00  0.00    -0.225 C  
HETATM    3  N   UNL     1      -6.941  16.893  66.950  1.00  0.00    -0.194 N  
HETATM    4  O   UNL     1      -8.553  18.509  67.080  1.00  0.00    -0.260 OA 
HETATM    5  O   UNL     1      -5.623  16.496  66.671  1.00  0.00    -0.344 OA 
ENDROOT
BRANCH   3   6
HETATM    6  C   UNL     1      -7.669  15.874  67.696  1.00  0.00    -0.150 C  
BRANCH   6   7
HETATM    7  C   UNL     1      -8.096  14.699  66.814  1.00  0.00     0.088 C  
BRANCH   7   8
HETATM    8  C   UNL     1      -8.199  13.418  67.644  1.00  0.00    -0.177 C  
BRANCH   8   9
HETATM    9  C   UNL     1      -6.981  13.218  68.548  1.00  0.00    -0.103 C  
BRANCH   9  10
HETATM   10  C   UNL     1      -5.742  12.786  67.764  1.00  0.00    -0.131 C  
BRANCH  10  11
HETATM   11  N   UNL     1      -6.051  11.811  66.729  1.00  0.00    -0.258 N  
HETATM   12  C   UNL     1      -6.023  10.460  66.991  1.00  0.00    -0.052 C  
HETATM   13  H   UNL     1      -6.293  12.135  65.792  1.00  0.00     0.000 HD 
HETATM   14  O   UNL     1      -5.782   9.982  68.096  1.00  0.00    -0.039 OA 
BRANCH  12  15
HETATM   15  C   UNL     1      -6.335   9.610  65.778  1.00  0.00    -0.075 C  
BRANCH  15  16
HETATM   16  C   UNL     1      -7.615   8.808  66.003  1.00  0.00    -0.093 C  
BRANCH  16  17
HETATM   17  C   UNL     1      -8.785   9.352  65.207  1.00  0.00    -0.175 C  
HETATM   18  O   UNL     1      -8.902   9.115  64.006  1.00  0.00    -0.181 OA 
HETATM   19  N   UNL     1      -9.672  10.139  65.896  1.00  0.00    -0.215 N  
HETATM   20  O   UNL     1      -9.637  10.356  67.284  1.00  0.00    -0.153 OA 
BRANCH  19  21
HETATM   21  C   UNL     1     -10.810  10.803  65.276  1.00  0.00     0.006 C  
BRANCH  21  22
HETATM   22  C   UNL     1     -11.418  11.882  66.176  1.00  0.00    -0.352 C  
BRANCH  22  23
HETATM   23  C   UNL     1     -11.470  13.266  65.502  1.00  0.00    -0.335 C  
BRANCH  23  24
HETATM   24  C   UNL     1     -12.237  14.307  66.318  1.00  0.00    -0.433 C  
BRANCH  24  25
HETATM   25  C   UNL     1     -11.681  14.430  67.735  1.00  0.00    -0.376 C  
BRANCH  25  26
HETATM   26  N   UNL     1     -12.481  13.689  68.690  1.00  0.00    -0.212 N  
HETATM   27  H   UNL     1     -13.490  13.834  68.708  1.00  0.00     0.000 HD 
HETATM   28  C   UNL     1     -11.917  12.798  69.571  1.00  0.00    -0.276 C  
HETATM   29  O   UNL     1     -10.716  12.547  69.606  1.00  0.00     0.173 OA 
BRANCH  28  30
HETATM   30  C   UNL     1     -12.895  12.144  70.514  1.00  0.00     0.065 C  
BRANCH  30  31
HETATM   31  C   UNL     1     -12.156  11.172  71.420  1.00  0.00    -0.094 C  
BRANCH  31  32
HETATM   32  C   UNL     1     -12.129   9.783  70.816  1.00  0.00    -0.279 C  
HETATM   33  N   UNL     1     -12.863   8.792  71.422  1.00  0.00    -0.309 N  
HETATM   34  O   UNL     1     -11.522   9.596  69.760  1.00  0.00    -0.176 OA 
HETATM   35  O   UNL     1     -13.178   8.896  72.790  1.00  0.00    -0.389 OA 
BRANCH  33  36
HETATM   36  C   UNL     1     -12.844   7.404  70.957  1.00  0.00    -0.180 C  
BRANCH  36  37
HETATM   37  C   UNL     1     -11.477   6.747  71.158  1.00  0.00    -0.361 C  
BRANCH  37  38
HETATM   38  C   UNL     1     -11.031   5.954  69.925  1.00  0.00    -0.444 C  
BRANCH  38  39
HETATM   39  C   UNL     1     -10.055   6.757  69.060  1.00  0.00    -0.172 C  
BRANCH  39  40
HETATM   40  C   UNL     1      -8.871   7.303  69.860  1.00  0.00    -0.142 C  
HETATM   41  N   UNL     1      -8.245   6.267  70.675  1.00  0.00    -0.123 NA 
HETATM   42  H2  UNL     1      -7.972   5.464  70.110  1.00  0.00     0.000 HD 
HETATM   43  H1  UNL     1      -7.456   6.632  71.209  1.00  0.00     0.000 HD 
ENDBRANCH  39  40
ENDBRANCH  38  39
ENDBRANCH  37  38
ENDBRANCH  36  37
ENDBRANCH  33  36
ENDBRANCH  31  32
ENDBRANCH  30  31
ENDBRANCH  28  30
ENDBRANCH  25  26
ENDBRANCH  24  25
ENDBRANCH  23  24
ENDBRANCH  22  23
ENDBRANCH  21  22
ENDBRANCH  19  21
ENDBRANCH  16  17
ENDBRANCH  15  16
ENDBRANCH  12  15
ENDBRANCH  10  11
ENDBRANCH   9  10
ENDBRANCH   8   9
ENDBRANCH   7   8
ENDBRANCH   6   7
ENDBRANCH   3   6
TORSDOF 23
ENDMDL
MODEL      290
REMARK 921   NORMALIZED FREE ENERGY PREDICTED BY IDOCK:   -3.01 KCAL/MOL
REMARK 922        TOTAL FREE ENERGY PREDICTED BY IDOCK:   -9.81 KCAL/MOL
REMARK 923 INTER-LIGAND FREE ENERGY PREDICTED BY IDOCK:   -7.13 KCAL/MOL
REMARK 924 INTRA-LIGAND FREE ENERGY PREDICTED BY IDOCK:   -2.68 KCAL/MOL
REMARK 927      BINDING AFFINITY PREDICTED BY RF-SCORE:    0.00 PKD
ROOT
HETATM    1  C   UNL     1      -6.975   7.857  74.120  1.00  0.00    -0.152 C  
HETATM    2  C   UNL     1      -7.288   6.499  73.549  1.00  0.00    -0.081 C  
HETATM    3  N   UNL     1      -7.921   6.469  72.334  1.00  0.00    -0.101 N  
HETATM    4  O   UNL     1      -7.006   5.480  74.181  1.00  0.00    -0.079 OA 
HETATM    5  O   UNL     1      -8.121   7.596  71.519  1.00  0.00    -0.095 OA 
ENDROOT
BRANCH   3   6
HETATM    6  C   UNL     1      -8.303   5.236  71.659  1.00  0.00    -0.118 C  
BRANCH   6   7
HETATM    7  C   UNL     1      -9.759   4.850  71.930  1.00  0.00    -0.218 C  
BRANCH   7   8
HETATM    8  C   UNL     1     -10.706   5.723  71.104  1.00  0.00    -0.327 C  
BRANCH   8   9
HETATM    9  C   UNL     1     -11.484   6.712  71.974  1.00  0.00    -0.329 C  
BRANCH   9  10
HETATM   10  C   UNL     1     -12.816   7.116  71.342  1.00  0.00    -0.384 C  
BRANCH  10  11
HETATM   11  N   UNL     1     -12.937   8.556  71.172  1.00  0.00    -0.503 N  
HETATM   12  C   UNL     1     -13.722   9.310  72.015  1.00  0.00    -0.428 C  
HETATM   13  H   UNL     1     -12.430   9.015  70.415  1.00  0.00     0.000 HD 
HETATM   14  O   UNL     1     -14.335   8.850  72.975  1.00  0.00    -0.464 OA 
BRANCH  12  15
HETATM   15  C   UNL     1     -13.748  10.780  71.652  1.00  0.00     0.117 C  
BRANCH  15  16
HETATM   16  C   UNL     1     -12.328  11.308  71.461  1.00  0.00    -0.222 C  
BRANCH  16  17
HETATM   17  C   UNL     1     -12.035  11.668  70.017  1.00  0.00    -0.351 C  
HETATM   18  O   UNL     1     -11.941  10.799  69.152  1.00  0.00    -0.304 OA 
HETATM   19  N   UNL     1     -11.851  13.000  69.752  1.00  0.00    -0.321 N  
HETATM   20  O   UNL     1     -12.045  14.035  70.683  1.00  0.00    -0.326 OA 
BRANCH  19  21
HETATM   21  C   UNL     1     -11.490  13.518  68.440  1.00  0.00    -0.311 C  
BRANCH  21  22
HETATM   22  C   UNL     1     -10.005  13.323  68.123  1.00  0.00    -0.234 C  
BRANCH  22  23
HETATM   23  C   UNL     1      -9.384  14.527  67.390  1.00  0.00    -0.197 C  
BRANCH  23  24
HETATM   24  C   UNL     1      -7.855  14.532  67.422  1.00  0.00    -0.221 C  
BRANCH  24  25
HETATM   25  C   UNL     1      -7.317  13.772  68.632  1.00  0.00    -0.117 C  
BRANCH  25  26
HETATM   26  N   UNL     1      -6.569  12.595  68.237  1.00  0.00    -0.071 N  
HETATM   27  H   UNL     1      -5.860  12.681  67.508  1.00  0.00     0.000 HD 
HETATM   28  C   UNL     1      -6.788  11.368  68.815  1.00  0.00    -0.082 C  
HETATM   29  O   UNL     1      -7.605  11.177  69.711  1.00  0.00     0.051 OA 
BRANCH  28  30
HETATM   30  C   UNL     1      -5.944  10.251  68.256  1.00  0.00    -0.041 C  
BRANCH  30  31
HETATM   31  C   UNL     1      -6.136  10.172  66.750  1.00  0.00    -0.060 C  
BRANCH  31  32
HETATM   32  C   UNL     1      -7.547   9.743  66.406  1.00  0.00    -0.099 C  
HETATM   33  N   UNL     1      -7.875   8.415  66.534  1.00  0.00    -0.092 N  
HETATM   34  O   UNL     1      -8.381  10.598  66.102  1.00  0.00    -0.146 OA 
HETATM   35  O   UNL     1      -6.866   7.437  66.459  1.00  0.00    -0.059 OA 
BRANCH  33  36
HETATM   36  C   UNL     1      -9.190   7.891  66.157  1.00  0.00    -0.152 C  
BRANCH  36  37
HETATM   37  C   UNL     1      -9.246   6.364  66.233  1.00  0.00    -0.162 C  
BRANCH  37  38
HETATM   38  C   UNL     1      -9.455   5.865  67.667  1.00  0.00    -0.110 C  
BRANCH  38  39
HETATM   39  C   UNL     1      -9.695   4.353  67.709  1.00  0.00    -0.191 C  
BRANCH  39  40
HETATM   40  C   UNL     1      -8.463   3.574  68.172  1.00  0.00    -0.089 C  
HETATM   41  N   UNL     1      -7.385   3.634  67.190  1.00  0.00    -0.063 NA 
HETATM   42  H2  UNL     1      -7.149   4.598  66.956  1.00  0.00     0.000 HD 
HETATM   43  H1  UNL     1      -6.563   3.115  67.498  1.00  0.00     0.000 HD 
ENDBRANCH  39  40
ENDBRANCH  38  39
ENDBRANCH  37  38
ENDBRANCH  36  37
ENDBRANCH  33  36
ENDBRANCH  31  32
ENDBRANCH  30  31
ENDBRANCH  28  30
ENDBRANCH  25  26
ENDBRANCH  24  25
ENDBRANCH  23  24
ENDBRANCH  22  23
ENDBRANCH  21  22
ENDBRANCH  19  21
ENDBRANCH  16  17
ENDBRANCH  15  16
ENDBRANCH  12  15
ENDBRANCH  10  11
ENDBRANCH   9  10
ENDBRANCH   8   9
ENDBRANCH   7   8
ENDBRANCH   6   7
ENDBRANCH   3   6
TORSDOF 23
ENDMDL
MODEL      291
REMARK 921   NORMALIZED FREE ENERGY PREDICTED BY IDOCK:   -3.00 KCAL/MOL
REMARK 922        TOTAL FREE ENERGY PREDICTED BY IDOCK:   -9.79 KCAL/MOL
REMARK 923 INTER-LIGAND FREE ENERGY PREDICTED BY IDOCK:   -7.45 KCAL/MOL
REMARK 924 INTRA-LIGAND FREE ENERGY PREDICTED BY IDOCK:   -2.34 KCAL/MOL
REMARK 927      BINDING AFFINITY PREDICTED BY RF-SCORE:    0.00 PKD
ROOT
HETATM    1  C   UNL     1     -10.098   8.560  67.077  1.00  0.00    -0.347 C  
HETATM    2  C   UNL     1      -8.618   8.516  67.354  1.00  0.00    -0.127 C  
HETATM    3  N   UNL     1      -8.124   9.448  68.229  1.00  0.00    -0.109 N  
HETATM    4  O   UNL     1      -7.904   7.692  66.783  1.00  0.00    -0.103 OA 
HETATM    5  O   UNL     1      -8.923  10.300  69.010  1.00  0.00    -0.152 OA 
ENDROOT
BRANCH   3   6
HETATM    6  C   UNL     1      -6.716   9.545  68.587  1.00  0.00    -0.052 C  
BRANCH   6   7
HETATM    7  C   UNL     1      -6.396   8.823  69.898  1.00  0.00    -0.037 C  
BRANCH   7   8
HETATM    8  C   UNL     1      -6.427   9.806  71.070  1.00  0.00    -0.017 C  
BRANCH   8   9
HETATM    9  C   UNL     1      -5.264  10.798  71.020  1.00  0.00    -0.103 C  
BRANCH   9  10
HETATM   10  C   UNL     1      -5.742  12.249  70.947  1.00  0.00    -0.028 C  
BRANCH  10  11
HETATM   11  N   UNL     1      -6.745  12.452  69.913  1.00  0.00    -0.353 N  
HETATM   12  C   UNL     1      -6.555  13.372  68.907  1.00  0.00    -0.107 C  
HETATM   13  H   UNL     1      -7.604  11.903  69.934  1.00  0.00     0.000 HD 
HETATM   14  O   UNL     1      -5.537  14.048  68.780  1.00  0.00    -0.077 OA 
BRANCH  12  15
HETATM   15  C   UNL     1      -7.726  13.464  67.952  1.00  0.00    -0.153 C  
BRANCH  15  16
HETATM   16  C   UNL     1      -7.721  14.808  67.228  1.00  0.00    -0.214 C  
BRANCH  16  17
HETATM   17  C   UNL     1      -9.119  15.349  67.004  1.00  0.00    -0.227 C  
HETATM   18  O   UNL     1      -9.545  16.301  67.655  1.00  0.00    -0.224 OA 
HETATM   19  N   UNL     1      -9.877  14.697  66.065  1.00  0.00    -0.307 N  
HETATM   20  O   UNL     1      -9.404  13.672  65.228  1.00  0.00     0.230 OA 
BRANCH  19  21
HETATM   21  C   UNL     1     -11.263  15.033  65.773  1.00  0.00    -0.318 C  
BRANCH  21  22
HETATM   22  C   UNL     1     -12.244  14.349  66.729  1.00  0.00    -0.319 C  
BRANCH  22  23
HETATM   23  C   UNL     1     -11.960  12.845  66.906  1.00  0.00    -0.402 C  
BRANCH  23  24
HETATM   24  C   UNL     1     -11.238  12.516  68.214  1.00  0.00    -0.309 C  
BRANCH  24  25
HETATM   25  C   UNL     1     -12.225  12.263  69.351  1.00  0.00    -0.065 C  
BRANCH  25  26
HETATM   26  N   UNL     1     -12.178  10.887  69.803  1.00  0.00    -0.383 N  
HETATM   27  H   UNL     1     -11.708  10.191  69.224  1.00  0.00     0.000 HD 
HETATM   28  C   UNL     1     -12.748  10.493  70.990  1.00  0.00    -0.408 C  
HETATM   29  O   UNL     1     -13.315  11.265  71.758  1.00  0.00    -0.391 OA 
BRANCH  28  30
HETATM   30  C   UNL     1     -12.633   9.020  71.284  1.00  0.00    -0.336 C  
BRANCH  30  31
HETATM   31  C   UNL     1     -11.408   8.454  70.582  1.00  0.00    -0.262 C  
BRANCH  31  32
HETATM   32  C   UNL     1     -10.996   7.132  71.194  1.00  0.00    -0.248 C  
HETATM   33  N   UNL     1     -10.803   6.058  70.360  1.00  0.00    -0.295 N  
HETATM   34  O   UNL     1     -10.766   7.071  72.403  1.00  0.00    -0.215 OA 
HETATM   35  O   UNL     1     -11.455   6.018  69.112  1.00  0.00    -0.316 OA 
BRANCH  33  36
HETATM   36  C   UNL     1     -10.475   4.722  70.861  1.00  0.00    -0.037 C  
BRANCH  36  37
HETATM   37  C   UNL     1      -9.262   4.120  70.150  1.00  0.00    -0.210 C  
BRANCH  37  38
HETATM   38  C   UNL     1      -9.582   3.713  68.708  1.00  0.00    -0.159 C  
BRANCH  38  39
HETATM   39  C   UNL     1      -8.639   4.388  67.707  1.00  0.00    -0.109 C  
BRANCH  39  40
HETATM   40  C   UNL     1      -7.554   3.443  67.191  1.00  0.00    -0.078 C  
HETATM   41  N   UNL     1      -8.107   2.402  66.330  1.00  0.00    -0.081 NA 
HETATM   42  H2  UNL     1      -8.647   2.803  65.563  1.00  0.00     0.000 HD 
HETATM   43  H1  UNL     1      -7.383   1.771  65.986  1.00  0.00     0.000 HD 
ENDBRANCH  39  40
ENDBRANCH  38  39
ENDBRANCH  37  38
ENDBRANCH  36  37
ENDBRANCH  33  36
ENDBRANCH  31  32
ENDBRANCH  30  31
ENDBRANCH  28  30
ENDBRANCH  25  26
ENDBRANCH  24  25
ENDBRANCH  23  24
ENDBRANCH  22  23
ENDBRANCH  21  22
ENDBRANCH  19  21
ENDBRANCH  16  17
ENDBRANCH  15  16
ENDBRANCH  12  15
ENDBRANCH  10  11
ENDBRANCH   9  10
ENDBRANCH   8   9
ENDBRANCH   7   8
ENDBRANCH   6   7
ENDBRANCH   3   6
TORSDOF 23
ENDMDL
MODEL      292
REMARK 921   NORMALIZED FREE ENERGY PREDICTED BY IDOCK:   -2.98 KCAL/MOL
REMARK 922        TOTAL FREE ENERGY PREDICTED BY IDOCK:   -9.75 KCAL/MOL
REMARK 923 INTER-LIGAND FREE ENERGY PREDICTED BY IDOCK:   -7.78 KCAL/MOL
REMARK 924 INTRA-LIGAND FREE ENERGY PREDICTED BY IDOCK:   -1.97 KCAL/MOL
REMARK 927      BINDING AFFINITY PREDICTED BY RF-SCORE:    0.00 PKD
ROOT
HETATM    1  C   UNL     1      -8.483   7.760  73.479  1.00  0.00    -0.259 C  
HETATM    2  C   UNL     1      -9.772   7.070  73.116  1.00  0.00    -0.184 C  
HETATM    3  N   UNL     1      -9.844   6.510  71.868  1.00  0.00    -0.158 N  
HETATM    4  O   UNL     1     -10.712   7.052  73.911  1.00  0.00    -0.324 OA 
HETATM    5  O   UNL     1      -8.749   6.378  70.997  1.00  0.00    -0.134 OA 
ENDROOT
BRANCH   3   6
HETATM    6  C   UNL     1     -11.025   5.822  71.364  1.00  0.00    -0.237 C  
BRANCH   6   7
HETATM    7  C   UNL     1     -11.939   6.748  70.558  1.00  0.00    -0.385 C  
BRANCH   7   8
HETATM    8  C   UNL     1     -11.773   8.197  71.020  1.00  0.00    -0.295 C  
BRANCH   8   9
HETATM    9  C   UNL     1     -13.111   8.839  71.394  1.00  0.00    -0.297 C  
BRANCH   9  10
HETATM   10  C   UNL     1     -12.932  10.109  72.225  1.00  0.00    -0.222 C  
BRANCH  10  11
HETATM   11  N   UNL     1     -13.183  11.318  71.454  1.00  0.00    -0.267 N  
HETATM   12  C   UNL     1     -12.209  11.867  70.651  1.00  0.00    -0.331 C  
HETATM   13  H   UNL     1     -14.098  11.766  71.510  1.00  0.00     0.000 HD 
HETATM   14  O   UNL     1     -11.095  11.375  70.493  1.00  0.00     0.209 OA 
BRANCH  12  15
HETATM   15  C   UNL     1     -12.650  13.140  69.963  1.00  0.00    -0.014 C  
BRANCH  15  16
HETATM   16  C   UNL     1     -11.722  14.296  70.331  1.00  0.00    -0.329 C  
BRANCH  16  17
HETATM   17  C   UNL     1     -11.481  15.237  69.167  1.00  0.00    -0.316 C  
HETATM   18  O   UNL     1     -12.156  16.254  69.021  1.00  0.00    -0.148 OA 
HETATM   19  N   UNL     1     -10.497  14.869  68.286  1.00  0.00    -0.235 N  
HETATM   20  O   UNL     1      -9.634  13.773  68.463  1.00  0.00    -0.216 OA 
BRANCH  19  21
HETATM   21  C   UNL     1     -10.180  15.612  67.075  1.00  0.00    -0.274 C  
BRANCH  21  22
HETATM   22  C   UNL     1     -10.982  15.127  65.864  1.00  0.00    -0.339 C  
BRANCH  22  23
HETATM   23  C   UNL     1     -10.468  13.789  65.301  1.00  0.00    -0.376 C  
BRANCH  23  24
HETATM   24  C   UNL     1     -10.971  13.495  63.887  1.00  0.00    -0.019 C  
BRANCH  24  25
HETATM   25  C   UNL     1     -10.840  12.013  63.541  1.00  0.00    -0.444 C  
BRANCH  25  26
HETATM   26  N   UNL     1      -9.492  11.678  63.129  1.00  0.00    -0.546 N  
HETATM   27  H   UNL     1      -8.925  12.387  62.664  1.00  0.00     0.000 HD 
HETATM   28  C   UNL     1      -8.956  10.430  63.346  1.00  0.00    -0.229 C  
HETATM   29  O   UNL     1      -9.558   9.524  63.915  1.00  0.00     0.044 OA 
BRANCH  28  30
HETATM   30  C   UNL     1      -7.555  10.249  62.821  1.00  0.00    -0.148 C  
BRANCH  30  31
HETATM   31  C   UNL     1      -6.554  10.532  63.931  1.00  0.00     0.079 C  
BRANCH  31  32
HETATM   32  C   UNL     1      -6.487   9.376  64.906  1.00  0.00    -0.078 C  
HETATM   33  N   UNL     1      -7.066   9.529  66.142  1.00  0.00    -0.091 N  
HETATM   34  O   UNL     1      -5.991   8.307  64.543  1.00  0.00    -0.058 OA 
HETATM   35  O   UNL     1      -7.231  10.819  66.680  1.00  0.00    -0.119 OA 
BRANCH  33  36
HETATM   36  C   UNL     1      -6.991   8.497  67.179  1.00  0.00    -0.075 C  
BRANCH  36  37
HETATM   37  C   UNL     1      -8.054   7.413  66.992  1.00  0.00    -0.113 C  
BRANCH  37  38
HETATM   38  C   UNL     1      -9.463   8.002  66.867  1.00  0.00    -0.244 C  
BRANCH  38  39
HETATM   39  C   UNL     1      -9.736   9.049  67.951  1.00  0.00    -0.185 C  
BRANCH  39  40
HETATM   40  C   UNL     1     -11.152   9.622  67.871  1.00  0.00    -0.038 C  
HETATM   41  N   UNL     1     -11.162  10.963  67.296  1.00  0.00    -0.388 NA 
HETATM   42  H2  UNL     1     -10.702  10.980  66.386  1.00  0.00     0.000 HD 
HETATM   43  H1  UNL     1     -12.106  11.345  67.243  1.00  0.00     0.000 HD 
ENDBRANCH  39  40
ENDBRANCH  38  39
ENDBRANCH  37  38
ENDBRANCH  36  37
ENDBRANCH  33  36
ENDBRANCH  31  32
ENDBRANCH  30  31
ENDBRANCH  28  30
ENDBRANCH  25  26
ENDBRANCH  24  25
ENDBRANCH  23  24
ENDBRANCH  22  23
ENDBRANCH  21  22
ENDBRANCH  19  21
ENDBRANCH  16  17
ENDBRANCH  15  16
ENDBRANCH  12  15
ENDBRANCH  10  11
ENDBRANCH   9  10
ENDBRANCH   8   9
ENDBRANCH   7   8
ENDBRANCH   6   7
ENDBRANCH   3   6
TORSDOF 23
ENDMDL
MODEL      293
REMARK 921   NORMALIZED FREE ENERGY PREDICTED BY IDOCK:   -2.97 KCAL/MOL
REMARK 922        TOTAL FREE ENERGY PREDICTED BY IDOCK:   -9.71 KCAL/MOL
REMARK 923 INTER-LIGAND FREE ENERGY PREDICTED BY IDOCK:   -8.64 KCAL/MOL
REMARK 924 INTRA-LIGAND FREE ENERGY PREDICTED BY IDOCK:   -1.07 KCAL/MOL
REMARK 927      BINDING AFFINITY PREDICTED BY RF-SCORE:    0.00 PKD
ROOT
HETATM    1  C   UNL     1     -12.910  10.722  72.024  1.00  0.00    -0.357 C  
HETATM    2  C   UNL     1     -13.198   9.245  71.975  1.00  0.00    -0.447 C  
HETATM    3  N   UNL     1     -12.125   8.411  71.802  1.00  0.00    -0.307 N  
HETATM    4  O   UNL     1     -14.356   8.835  72.055  1.00  0.00    -0.420 OA 
HETATM    5  O   UNL     1     -10.784   8.827  71.858  1.00  0.00    -0.313 OA 
ENDROOT
BRANCH   3   6
HETATM    6  C   UNL     1     -12.241   6.961  71.718  1.00  0.00    -0.356 C  
BRANCH   6   7
HETATM    7  C   UNL     1     -11.079   6.326  70.951  1.00  0.00    -0.366 C  
BRANCH   7   8
HETATM    8  C   UNL     1     -10.294   5.377  71.858  1.00  0.00    -0.270 C  
BRANCH   8   9
HETATM    9  C   UNL     1      -8.817   5.764  71.955  1.00  0.00    -0.139 C  
BRANCH   9  10
HETATM   10  C   UNL     1      -8.316   6.461  70.689  1.00  0.00    -0.133 C  
BRANCH  10  11
HETATM   11  N   UNL     1      -7.042   7.133  70.893  1.00  0.00    -0.068 N  
HETATM   12  C   UNL     1      -6.945   8.251  71.691  1.00  0.00    -0.079 C  
HETATM   13  H   UNL     1      -6.206   6.770  70.436  1.00  0.00     0.000 HD 
HETATM   14  O   UNL     1      -7.889   8.734  72.311  1.00  0.00    -0.343 OA 
BRANCH  12  15
HETATM   15  C   UNL     1      -5.546   8.826  71.746  1.00  0.00    -0.051 C  
BRANCH  15  16
HETATM   16  C   UNL     1      -5.156   9.413  70.392  1.00  0.00    -0.027 C  
BRANCH  16  17
HETATM   17  C   UNL     1      -6.216  10.345  69.839  1.00  0.00    -0.081 C  
HETATM   18  O   UNL     1      -7.119   9.925  69.118  1.00  0.00    -0.063 OA 
HETATM   19  N   UNL     1      -6.085  11.671  70.164  1.00  0.00    -0.159 N  
HETATM   20  O   UNL     1      -5.132  12.183  71.061  1.00  0.00    -0.121 OA 
BRANCH  19  21
HETATM   21  C   UNL     1      -6.966  12.714  69.662  1.00  0.00     0.275 C  
BRANCH  21  22
HETATM   22  C   UNL     1      -6.829  14.023  70.446  1.00  0.00     0.327 C  
BRANCH  22  23
HETATM   23  C   UNL     1      -6.885  15.271  69.545  1.00  0.00    -0.180 C  
BRANCH  23  24
HETATM   24  C   UNL     1      -8.296  15.600  69.056  1.00  0.00    -0.235 C  
BRANCH  24  25
HETATM   25  C   UNL     1      -8.311  16.860  68.193  1.00  0.00    -0.212 C  
BRANCH  25  26
HETATM   26  N   UNL     1      -9.166  16.704  67.033  1.00  0.00    -0.214 N  
HETATM   27  H   UNL     1      -8.940  15.986  66.345  1.00  0.00     0.000 HD 
HETATM   28  C   UNL     1     -10.271  17.497  66.834  1.00  0.00    -0.329 C  
HETATM   29  O   UNL     1     -10.628  18.370  67.619  1.00  0.00    -0.408 OA 
BRANCH  28  30
HETATM   30  C   UNL     1     -11.023  17.217  65.558  1.00  0.00     0.100 C  
BRANCH  30  31
HETATM   31  C   UNL     1     -10.421  16.003  64.868  1.00  0.00    -0.124 C  
BRANCH  31  32
HETATM   32  C   UNL     1     -10.986  14.720  65.441  1.00  0.00    -0.359 C  
HETATM   33  N   UNL     1     -11.731  13.910  64.619  1.00  0.00    -0.378 N  
HETATM   34  O   UNL     1     -10.700  14.396  66.595  1.00  0.00    -0.286 OA 
HETATM   35  O   UNL     1     -12.386  14.463  63.502  1.00  0.00    -0.689 OA 
BRANCH  33  36
HETATM   36  C   UNL     1     -12.380  12.687  65.098  1.00  0.00    -0.484 C  
BRANCH  36  37
HETATM   37  C   UNL     1     -11.367  11.650  65.587  1.00  0.00    -0.233 C  
BRANCH  37  38
HETATM   38  C   UNL     1     -10.233  11.431  64.580  1.00  0.00    -0.347 C  
BRANCH  38  39
HETATM   39  C   UNL     1      -8.916  11.082  65.279  1.00  0.00    -0.177 C  
BRANCH  39  40
HETATM   40  C   UNL     1      -9.037   9.854  66.183  1.00  0.00    -0.158 C  
HETATM   41  N   UNL     1      -9.770   8.773  65.531  1.00  0.00    -0.431 NA 
HETATM   42  H2  UNL     1      -9.355   8.533  64.631  1.00  0.00     0.000 HD 
HETATM   43  H1  UNL     1      -9.851   7.954  66.134  1.00  0.00     0.000 HD 
ENDBRANCH  39  40
ENDBRANCH  38  39
ENDBRANCH  37  38
ENDBRANCH  36  37
ENDBRANCH  33  36
ENDBRANCH  31  32
ENDBRANCH  30  31
ENDBRANCH  28  30
ENDBRANCH  25  26
ENDBRANCH  24  25
ENDBRANCH  23  24
ENDBRANCH  22  23
ENDBRANCH  21  22
ENDBRANCH  19  21
ENDBRANCH  16  17
ENDBRANCH  15  16
ENDBRANCH  12  15
ENDBRANCH  10  11
ENDBRANCH   9  10
ENDBRANCH   8   9
ENDBRANCH   7   8
ENDBRANCH   6   7
ENDBRANCH   3   6
TORSDOF 23
ENDMDL
MODEL      294
REMARK 921   NORMALIZED FREE ENERGY PREDICTED BY IDOCK:   -2.93 KCAL/MOL
REMARK 922        TOTAL FREE ENERGY PREDICTED BY IDOCK:   -9.63 KCAL/MOL
REMARK 923 INTER-LIGAND FREE ENERGY PREDICTED BY IDOCK:   -8.33 KCAL/MOL
REMARK 924 INTRA-LIGAND FREE ENERGY PREDICTED BY IDOCK:   -1.31 KCAL/MOL
REMARK 927      BINDING AFFINITY PREDICTED BY RF-SCORE:    0.00 PKD
ROOT
HETATM    1  C   UNL     1     -13.969  13.750  72.326  1.00  0.00    -0.672 C  
HETATM    2  C   UNL     1     -13.131  14.408  71.261  1.00  0.00    -0.351 C  
HETATM    3  N   UNL     1     -12.245  13.608  70.589  1.00  0.00    -0.358 N  
HETATM    4  O   UNL     1     -13.233  15.617  71.048  1.00  0.00    -0.508 OA 
HETATM    5  O   UNL     1     -12.206  12.207  70.697  1.00  0.00    -0.372 OA 
ENDROOT
BRANCH   3   6
HETATM    6  C   UNL     1     -11.355  14.097  69.544  1.00  0.00    -0.259 C  
BRANCH   6   7
HETATM    7  C   UNL     1     -11.647  13.459  68.184  1.00  0.00    -0.376 C  
BRANCH   7   8
HETATM    8  C   UNL     1     -12.001  14.535  67.155  1.00  0.00    -0.373 C  
BRANCH   8   9
HETATM    9  C   UNL     1     -11.217  14.365  65.852  1.00  0.00    -0.324 C  
BRANCH   9  10
HETATM   10  C   UNL     1      -9.842  13.737  66.081  1.00  0.00    -0.297 C  
BRANCH  10  11
HETATM   11  N   UNL     1      -9.546  12.684  65.122  1.00  0.00    -0.471 N  
HETATM   12  C   UNL     1     -10.193  11.469  65.175  1.00  0.00    -0.274 C  
HETATM   13  H   UNL     1      -8.847  12.848  64.397  1.00  0.00     0.000 HD 
HETATM   14  O   UNL     1     -11.074  11.198  65.986  1.00  0.00    -0.182 OA 
BRANCH  12  15
HETATM   15  C   UNL     1      -9.720  10.494  64.118  1.00  0.00    -0.388 C  
BRANCH  15  16
HETATM   16  C   UNL     1      -9.268   9.186  64.762  1.00  0.00    -0.085 C  
BRANCH  16  17
HETATM   17  C   UNL     1      -7.858   9.271  65.315  1.00  0.00    -0.105 C  
HETATM   18  O   UNL     1      -7.525  10.182  66.070  1.00  0.00    -0.107 OA 
HETATM   19  N   UNL     1      -6.986   8.298  64.898  1.00  0.00    -0.073 N  
HETATM   20  O   UNL     1      -7.344   7.184  64.118  1.00  0.00    -0.070 OA 
BRANCH  19  21
HETATM   21  C   UNL     1      -5.579   8.265  65.268  1.00  0.00    -0.043 C  
BRANCH  21  22
HETATM   22  C   UNL     1      -5.371   8.333  66.784  1.00  0.00    -0.032 C  
BRANCH  22  23
HETATM   23  C   UNL     1      -5.645   6.990  67.487  1.00  0.00    -0.024 C  
BRANCH  23  24
HETATM   24  C   UNL     1      -7.078   6.861  68.007  1.00  0.00    -0.086 C  
BRANCH  24  25
HETATM   25  C   UNL     1      -7.651   5.472  67.733  1.00  0.00    -0.088 C  
BRANCH  25  26
HETATM   26  N   UNL     1      -8.429   4.983  68.853  1.00  0.00    -0.086 N  
HETATM   27  H   UNL     1      -9.446   4.969  68.781  1.00  0.00     0.000 HD 
HETATM   28  C   UNL     1      -7.834   4.539  70.010  1.00  0.00    -0.057 C  
HETATM   29  O   UNL     1      -6.619   4.501  70.177  1.00  0.00    -0.033 OA 
BRANCH  28  30
HETATM   30  C   UNL     1      -8.799   4.099  71.083  1.00  0.00    -0.149 C  
BRANCH  30  31
HETATM   31  C   UNL     1     -10.103   4.867  70.940  1.00  0.00    -0.292 C  
BRANCH  31  32
HETATM   32  C   UNL     1      -9.909   6.330  71.278  1.00  0.00    -0.175 C  
HETATM   33  N   UNL     1     -10.753   7.251  70.706  1.00  0.00    -0.228 N  
HETATM   34  O   UNL     1      -9.061   6.650  72.113  1.00  0.00    -0.139 OA 
HETATM   35  O   UNL     1     -11.393   6.948  69.489  1.00  0.00    -0.236 OA 
BRANCH  33  36
HETATM   36  C   UNL     1     -10.601   8.693  70.913  1.00  0.00    -0.214 C  
BRANCH  36  37
HETATM   37  C   UNL     1      -9.132   9.121  70.928  1.00  0.00    -0.316 C  
BRANCH  37  38
HETATM   38  C   UNL     1      -8.703   9.758  69.601  1.00  0.00    -0.211 C  
BRANCH  38  39
HETATM   39  C   UNL     1      -7.184   9.933  69.523  1.00  0.00    -0.095 C  
BRANCH  39  40
HETATM   40  C   UNL     1      -6.750  11.390  69.693  1.00  0.00    -0.105 C  
HETATM   41  N   UNL     1      -5.334  11.498  70.029  1.00  0.00    -0.075 NA 
HETATM   42  H2  UNL     1      -4.753  11.014  69.345  1.00  0.00     0.000 HD 
HETATM   43  H1  UNL     1      -5.045  12.470  70.142  1.00  0.00     0.000 HD 
ENDBRANCH  39  40
ENDBRANCH  38  39
ENDBRANCH  37  38
ENDBRANCH  36  37
ENDBRANCH  33  36
ENDBRANCH  31  32
ENDBRANCH  30  31
ENDBRANCH  28  30
ENDBRANCH  25  26
ENDBRANCH  24  25
ENDBRANCH  23  24
ENDBRANCH  22  23
ENDBRANCH  21  22
ENDBRANCH  19  21
ENDBRANCH  16  17
ENDBRANCH  15  16
ENDBRANCH  12  15
ENDBRANCH  10  11
ENDBRANCH   9  10
ENDBRANCH   8   9
ENDBRANCH   7   8
ENDBRANCH   6   7
ENDBRANCH   3   6
TORSDOF 23
ENDMDL
MODEL      295
REMARK 921   NORMALIZED FREE ENERGY PREDICTED BY IDOCK:   -2.93 KCAL/MOL
REMARK 922        TOTAL FREE ENERGY PREDICTED BY IDOCK:   -9.62 KCAL/MOL
REMARK 923 INTER-LIGAND FREE ENERGY PREDICTED BY IDOCK:   -7.43 KCAL/MOL
REMARK 924 INTRA-LIGAND FREE ENERGY PREDICTED BY IDOCK:   -2.19 KCAL/MOL
REMARK 927      BINDING AFFINITY PREDICTED BY RF-SCORE:    0.00 PKD
ROOT
HETATM    1  C   UNL     1     -12.902  13.976  65.127  1.00  0.00    -0.368 C  
HETATM    2  C   UNL     1     -11.606  14.741  65.206  1.00  0.00    -0.338 C  
HETATM    3  N   UNL     1     -10.680  14.297  66.113  1.00  0.00    -0.290 N  
HETATM    4  O   UNL     1     -11.427  15.734  64.500  1.00  0.00    -0.417 OA 
HETATM    5  O   UNL     1     -10.785  13.089  66.822  1.00  0.00    -0.260 OA 
ENDROOT
BRANCH   3   6
HETATM    6  C   UNL     1      -9.388  14.937  66.319  1.00  0.00    -0.296 C  
BRANCH   6   7
HETATM    7  C   UNL     1      -9.360  15.802  67.581  1.00  0.00    -0.216 C  
BRANCH   7   8
HETATM    8  C   UNL     1      -9.061  14.943  68.811  1.00  0.00    -0.189 C  
BRANCH   8   9
HETATM    9  C   UNL     1      -7.577  14.970  69.184  1.00  0.00    -0.176 C  
BRANCH   9  10
HETATM   10  C   UNL     1      -6.843  13.706  68.734  1.00  0.00    -0.107 C  
BRANCH  10  11
HETATM   11  N   UNL     1      -7.756  12.651  68.321  1.00  0.00    -0.129 N  
HETATM   12  C   UNL     1      -7.416  11.766  67.322  1.00  0.00    -0.151 C  
HETATM   13  H   UNL     1      -8.663  12.565  68.780  1.00  0.00     0.000 HD 
HETATM   14  O   UNL     1      -6.333  11.769  66.744  1.00  0.00    -0.144 OA 
BRANCH  12  15
HETATM   15  C   UNL     1      -8.511  10.768  67.011  1.00  0.00    -0.128 C  
BRANCH  15  16
HETATM   16  C   UNL     1      -8.265   9.456  67.752  1.00  0.00    -0.114 C  
BRANCH  16  17
HETATM   17  C   UNL     1      -8.558   8.242  66.892  1.00  0.00    -0.119 C  
HETATM   18  O   UNL     1      -9.702   7.806  66.777  1.00  0.00    -0.193 OA 
HETATM   19  N   UNL     1      -7.477   7.654  66.287  1.00  0.00    -0.082 N  
HETATM   20  O   UNL     1      -6.170   8.171  66.307  1.00  0.00    -0.044 OA 
BRANCH  19  21
HETATM   21  C   UNL     1      -7.563   6.441  65.487  1.00  0.00    -0.087 C  
BRANCH  21  22
HETATM   22  C   UNL     1      -6.938   5.232  66.189  1.00  0.00    -0.063 C  
BRANCH  22  23
HETATM   23  C   UNL     1      -7.922   4.059  66.356  1.00  0.00    -0.097 C  
BRANCH  23  24
HETATM   24  C   UNL     1      -8.846   4.212  67.565  1.00  0.00    -0.126 C  
BRANCH  24  25
HETATM   25  C   UNL     1      -8.546   3.166  68.636  1.00  0.00    -0.089 C  
BRANCH  25  26
HETATM   26  N   UNL     1      -9.246   3.451  69.873  1.00  0.00    -0.136 N  
HETATM   27  H   UNL     1      -9.909   4.226  69.900  1.00  0.00     0.000 HD 
HETATM   28  C   UNL     1      -9.041   2.707  71.010  1.00  0.00    -0.110 C  
HETATM   29  O   UNL     1      -8.279   1.747  71.064  1.00  0.00    -0.045 OA 
BRANCH  28  30
HETATM   30  C   UNL     1      -9.828   3.167  72.211  1.00  0.00    -0.233 C  
BRANCH  30  31
HETATM   31  C   UNL     1      -9.242   4.468  72.737  1.00  0.00    -0.145 C  
BRANCH  31  32
HETATM   32  C   UNL     1     -10.333   5.482  73.008  1.00  0.00    -0.202 C  
HETATM   33  N   UNL     1     -10.150   6.771  72.571  1.00  0.00    -0.170 N  
HETATM   34  O   UNL     1     -11.384   5.112  73.536  1.00  0.00    -0.296 OA 
HETATM   35  O   UNL     1      -8.845   7.262  72.375  1.00  0.00    -0.122 OA 
BRANCH  33  36
HETATM   36  C   UNL     1     -11.113   7.839  72.848  1.00  0.00    -0.398 C  
BRANCH  36  37
HETATM   37  C   UNL     1     -12.354   7.742  71.959  1.00  0.00    -0.328 C  
BRANCH  37  38
HETATM   38  C   UNL     1     -12.515   8.970  71.056  1.00  0.00    -0.210 C  
BRANCH  38  39
HETATM   39  C   UNL     1     -11.241   9.255  70.256  1.00  0.00    -0.267 C  
BRANCH  39  40
HETATM   40  C   UNL     1     -11.527   9.921  68.910  1.00  0.00     0.080 C  
HETATM   41  N   UNL     1     -12.617  10.888  69.006  1.00  0.00    -0.618 NA 
HETATM   42  H2  UNL     1     -12.436  11.580  69.733  1.00  0.00     0.000 HD 
HETATM   43  H1  UNL     1     -12.808  11.333  68.108  1.00  0.00     0.000 HD 
ENDBRANCH  39  40
ENDBRANCH  38  39
ENDBRANCH  37  38
ENDBRANCH  36  37
ENDBRANCH  33  36
ENDBRANCH  31  32
ENDBRANCH  30  31
ENDBRANCH  28  30
ENDBRANCH  25  26
ENDBRANCH  24  25
ENDBRANCH  23  24
ENDBRANCH  22  23
ENDBRANCH  21  22
ENDBRANCH  19  21
ENDBRANCH  16  17
ENDBRANCH  15  16
ENDBRANCH  12  15
ENDBRANCH  10  11
ENDBRANCH   9  10
ENDBRANCH   8   9
ENDBRANCH   7   8
ENDBRANCH   6   7
ENDBRANCH   3   6
TORSDOF 23
ENDMDL
MODEL      296
REMARK 921   NORMALIZED FREE ENERGY PREDICTED BY IDOCK:   -2.92 KCAL/MOL
REMARK 922        TOTAL FREE ENERGY PREDICTED BY IDOCK:   -9.60 KCAL/MOL
REMARK 923 INTER-LIGAND FREE ENERGY PREDICTED BY IDOCK:   -8.58 KCAL/MOL
REMARK 924 INTRA-LIGAND FREE ENERGY PREDICTED BY IDOCK:   -1.02 KCAL/MOL
REMARK 927      BINDING AFFINITY PREDICTED BY RF-SCORE:    0.00 PKD
ROOT
HETATM    1  C   UNL     1     -10.963  19.367  65.582  1.00  0.00    -0.184 C  
HETATM    2  C   UNL     1     -10.334  18.119  66.144  1.00  0.00    -0.385 C  
HETATM    3  N   UNL     1     -10.614  16.941  65.502  1.00  0.00    -0.286 N  
HETATM    4  O   UNL     1      -9.631  18.178  67.154  1.00  0.00    -0.266 OA 
HETATM    5  O   UNL     1     -11.283  16.854  64.269  1.00  0.00    -1.204 OA 
ENDROOT
BRANCH   3   6
HETATM    6  C   UNL     1     -10.096  15.650  65.932  1.00  0.00    -0.353 C  
BRANCH   6   7
HETATM    7  C   UNL     1     -10.282  15.417  67.433  1.00  0.00    -0.249 C  
BRANCH   7   8
HETATM    8  C   UNL     1      -8.974  14.942  68.067  1.00  0.00    -0.172 C  
BRANCH   8   9
HETATM    9  C   UNL     1      -8.683  15.655  69.389  1.00  0.00    -0.249 C  
BRANCH   9  10
HETATM   10  C   UNL     1      -7.184  15.762  69.673  1.00  0.00    -0.134 C  
BRANCH  10  11
HETATM   11  N   UNL     1      -6.472  14.530  69.368  1.00  0.00    -0.122 N  
HETATM   12  C   UNL     1      -5.924  13.758  70.368  1.00  0.00    -0.156 C  
HETATM   13  H   UNL     1      -6.377  14.234  68.397  1.00  0.00     0.000 HD 
HETATM   14  O   UNL     1      -6.023  14.016  71.564  1.00  0.00    -0.229 OA 
BRANCH  12  15
HETATM   15  C   UNL     1      -5.192  12.539  69.848  1.00  0.00    -0.084 C  
BRANCH  15  16
HETATM   16  C   UNL     1      -6.152  11.362  69.697  1.00  0.00    -0.110 C  
BRANCH  16  17
HETATM   17  C   UNL     1      -6.982  11.452  68.431  1.00  0.00    -0.075 C  
HETATM   18  O   UNL     1      -8.006  12.131  68.389  1.00  0.00    -0.147 OA 
HETATM   19  N   UNL     1      -6.540  10.711  67.365  1.00  0.00    -0.069 N  
HETATM   20  O   UNL     1      -5.327  10.001  67.333  1.00  0.00    -0.041 OA 
BRANCH  19  21
HETATM   21  C   UNL     1      -7.251  10.620  66.098  1.00  0.00    -0.138 C  
BRANCH  21  22
HETATM   22  C   UNL     1      -8.023   9.305  65.954  1.00  0.00    -0.106 C  
BRANCH  22  23
HETATM   23  C   UNL     1      -7.524   8.442  64.780  1.00  0.00    -0.096 C  
BRANCH  23  24
HETATM   24  C   UNL     1      -8.135   7.040  64.759  1.00  0.00    -0.096 C  
BRANCH  24  25
HETATM   25  C   UNL     1      -7.298   6.051  65.567  1.00  0.00    -0.076 C  
BRANCH  25  26
HETATM   26  N   UNL     1      -7.708   6.011  66.956  1.00  0.00    -0.099 N  
HETATM   27  H   UNL     1      -7.388   6.746  67.588  1.00  0.00     0.000 HD 
HETATM   28  C   UNL     1      -8.516   5.013  67.446  1.00  0.00    -0.105 C  
HETATM   29  O   UNL     1      -8.963   4.103  66.755  1.00  0.00    -0.115 OA 
BRANCH  28  30
HETATM   30  C   UNL     1      -8.814   5.113  68.920  1.00  0.00    -0.106 C  
BRANCH  30  31
HETATM   31  C   UNL     1      -8.936   6.576  69.317  1.00  0.00    -0.131 C  
BRANCH  31  32
HETATM   32  C   UNL     1     -10.052   6.771  70.322  1.00  0.00    -0.179 C  
HETATM   33  N   UNL     1     -10.103   7.954  71.020  1.00  0.00    -0.192 N  
HETATM   34  O   UNL     1     -10.926   5.909  70.430  1.00  0.00    -0.303 OA 
HETATM   35  O   UNL     1      -8.927   8.705  71.205  1.00  0.00    -0.171 OA 
BRANCH  33  36
HETATM   36  C   UNL     1     -11.099   8.208  72.063  1.00  0.00    -0.306 C  
BRANCH  36  37
HETATM   37  C   UNL     1     -12.525   8.220  71.509  1.00  0.00    -0.340 C  
BRANCH  37  38
HETATM   38  C   UNL     1     -12.998   9.637  71.166  1.00  0.00    -0.389 C  
BRANCH  38  39
HETATM   39  C   UNL     1     -11.851  10.505  70.642  1.00  0.00    -0.458 C  
BRANCH  39  40
HETATM   40  C   UNL     1     -12.276  11.405  69.481  1.00  0.00    -0.235 C  
HETATM   41  N   UNL     1     -11.528  12.657  69.465  1.00  0.00    -0.422 NA 
HETATM   42  H2  UNL     1     -10.522  12.489  69.456  1.00  0.00     0.000 HD 
HETATM   43  H1  UNL     1     -11.812  13.257  68.690  1.00  0.00     0.000 HD 
ENDBRANCH  39  40
ENDBRANCH  38  39
ENDBRANCH  37  38
ENDBRANCH  36  37
ENDBRANCH  33  36
ENDBRANCH  31  32
ENDBRANCH  30  31
ENDBRANCH  28  30
ENDBRANCH  25  26
ENDBRANCH  24  25
ENDBRANCH  23  24
ENDBRANCH  22  23
ENDBRANCH  21  22
ENDBRANCH  19  21
ENDBRANCH  16  17
ENDBRANCH  15  16
ENDBRANCH  12  15
ENDBRANCH  10  11
ENDBRANCH   9  10
ENDBRANCH   8   9
ENDBRANCH   7   8
ENDBRANCH   6   7
ENDBRANCH   3   6
TORSDOF 23
ENDMDL
MODEL      297
REMARK 921   NORMALIZED FREE ENERGY PREDICTED BY IDOCK:   -2.90 KCAL/MOL
REMARK 922        TOTAL FREE ENERGY PREDICTED BY IDOCK:   -9.57 KCAL/MOL
REMARK 923 INTER-LIGAND FREE ENERGY PREDICTED BY IDOCK:   -7.48 KCAL/MOL
REMARK 924 INTRA-LIGAND FREE ENERGY PREDICTED BY IDOCK:   -2.09 KCAL/MOL
REMARK 927      BINDING AFFINITY PREDICTED BY RF-SCORE:    0.00 PKD
ROOT
HETATM    1  C   UNL     1      -6.144  20.486  68.892  1.00  0.00    -0.369 C  
HETATM    2  C   UNL     1      -7.277  19.608  68.430  1.00  0.00    -0.320 C  
HETATM    3  N   UNL     1      -6.940  18.390  67.901  1.00  0.00    -0.212 N  
HETATM    4  O   UNL     1      -8.441  20.004  68.506  1.00  0.00    -0.189 OA 
HETATM    5  O   UNL     1      -5.645  17.844  67.937  1.00  0.00    -0.149 OA 
ENDROOT
BRANCH   3   6
HETATM    6  C   UNL     1      -7.918  17.435  67.397  1.00  0.00    -0.198 C  
BRANCH   6   7
HETATM    7  C   UNL     1      -8.322  16.403  68.451  1.00  0.00    -0.191 C  
BRANCH   7   8
HETATM    8  C   UNL     1      -9.821  16.107  68.361  1.00  0.00    -0.222 C  
BRANCH   8   9
HETATM    9  C   UNL     1     -10.479  16.047  69.740  1.00  0.00    -0.300 C  
BRANCH   9  10
HETATM   10  C   UNL     1     -11.916  15.527  69.675  1.00  0.00    -0.359 C  
BRANCH  10  11
HETATM   11  N   UNL     1     -12.191  14.526  70.695  1.00  0.00    -0.307 N  
HETATM   12  C   UNL     1     -12.983  14.817  71.783  1.00  0.00    -0.332 C  
HETATM   13  H   UNL     1     -11.790  13.593  70.602  1.00  0.00     0.000 HD 
HETATM   14  O   UNL     1     -13.539  15.898  71.956  1.00  0.00    -0.404 OA 
BRANCH  12  15
HETATM   15  C   UNL     1     -13.119  13.659  72.749  1.00  0.00    -0.371 C  
BRANCH  15  16
HETATM   16  C   UNL     1     -13.889  12.510  72.102  1.00  0.00    -0.185 C  
BRANCH  16  17
HETATM   17  C   UNL     1     -12.976  11.393  71.634  1.00  0.00    -0.418 C  
HETATM   18  O   UNL     1     -12.032  11.617  70.879  1.00  0.00    -0.289 OA 
HETATM   19  N   UNL     1     -13.287  10.133  72.076  1.00  0.00    -0.434 N  
HETATM   20  O   UNL     1     -14.291   9.841  73.016  1.00  0.00     0.094 OA 
BRANCH  19  21
HETATM   21  C   UNL     1     -12.566   8.936  71.670  1.00  0.00    -0.346 C  
BRANCH  21  22
HETATM   22  C   UNL     1     -11.047   9.117  71.737  1.00  0.00    -0.437 C  
BRANCH  22  23
HETATM   23  C   UNL     1     -10.313   7.855  72.228  1.00  0.00    -0.314 C  
BRANCH  23  24
HETATM   24  C   UNL     1      -8.901   7.716  71.657  1.00  0.00    -0.135 C  
BRANCH  24  25
HETATM   25  C   UNL     1      -8.576   8.847  70.682  1.00  0.00    -0.194 C  
BRANCH  25  26
HETATM   26  N   UNL     1      -8.174   8.337  69.387  1.00  0.00    -0.115 N  
HETATM   27  H   UNL     1      -7.181   8.201  69.195  1.00  0.00     0.000 HD 
HETATM   28  C   UNL     1      -9.091   8.031  68.410  1.00  0.00    -0.136 C  
HETATM   29  O   UNL     1     -10.304   8.144  68.561  1.00  0.00    -0.205 OA 
BRANCH  28  30
HETATM   30  C   UNL     1      -8.492   7.546  67.115  1.00  0.00    -0.121 C  
BRANCH  30  31
HETATM   31  C   UNL     1      -7.455   8.546  66.628  1.00  0.00    -0.082 C  
BRANCH  31  32
HETATM   32  C   UNL     1      -8.116   9.829  66.168  1.00  0.00    -0.109 C  
HETATM   33  N   UNL     1      -8.668   9.865  64.911  1.00  0.00    -0.162 N  
HETATM   34  O   UNL     1      -8.215  10.773  66.955  1.00  0.00    -0.123 OA 
HETATM   35  O   UNL     1      -8.193   8.990  63.915  1.00  0.00    -0.155 OA 
BRANCH  33  36
HETATM   36  C   UNL     1      -9.264  11.080  64.349  1.00  0.00    -0.158 C  
BRANCH  36  37
HETATM   37  C   UNL     1     -10.779  10.954  64.180  1.00  0.00    -0.231 C  
BRANCH  37  38
HETATM   38  C   UNL     1     -11.472  10.541  65.483  1.00  0.00     1.262 C  
BRANCH  38  39
HETATM   39  C   UNL     1     -11.662  11.733  66.426  1.00  0.00    -0.131 C  
BRANCH  39  40
HETATM   40  C   UNL     1     -11.435  11.366  67.893  1.00  0.00    -0.291 C  
HETATM   41  N   UNL     1     -12.152  10.150  68.263  1.00  0.00    -0.136 NA 
HETATM   42  H2  UNL     1     -11.913   9.375  67.644  1.00  0.00     0.000 HD 
HETATM   43  H1  UNL     1     -12.000   9.905  69.242  1.00  0.00     0.000 HD 
ENDBRANCH  39  40
ENDBRANCH  38  39
ENDBRANCH  37  38
ENDBRANCH  36  37
ENDBRANCH  33  36
ENDBRANCH  31  32
ENDBRANCH  30  31
ENDBRANCH  28  30
ENDBRANCH  25  26
ENDBRANCH  24  25
ENDBRANCH  23  24
ENDBRANCH  22  23
ENDBRANCH  21  22
ENDBRANCH  19  21
ENDBRANCH  16  17
ENDBRANCH  15  16
ENDBRANCH  12  15
ENDBRANCH  10  11
ENDBRANCH   9  10
ENDBRANCH   8   9
ENDBRANCH   7   8
ENDBRANCH   6   7
ENDBRANCH   3   6
TORSDOF 23
ENDMDL
MODEL      298
REMARK 921   NORMALIZED FREE ENERGY PREDICTED BY IDOCK:   -2.89 KCAL/MOL
REMARK 922        TOTAL FREE ENERGY PREDICTED BY IDOCK:   -9.54 KCAL/MOL
REMARK 923 INTER-LIGAND FREE ENERGY PREDICTED BY IDOCK:   -7.81 KCAL/MOL
REMARK 924 INTRA-LIGAND FREE ENERGY PREDICTED BY IDOCK:   -1.73 KCAL/MOL
REMARK 927      BINDING AFFINITY PREDICTED BY RF-SCORE:    0.00 PKD
ROOT
HETATM    1  C   UNL     1     -11.572   6.447  69.746  1.00  0.00    -0.397 C  
HETATM    2  C   UNL     1     -11.297   7.094  71.079  1.00  0.00    -0.279 C  
HETATM    3  N   UNL     1     -10.034   7.584  71.280  1.00  0.00    -0.186 N  
HETATM    4  O   UNL     1     -12.175   7.137  71.941  1.00  0.00    -0.310 OA 
HETATM    5  O   UNL     1      -9.058   7.690  70.274  1.00  0.00    -0.149 OA 
ENDROOT
BRANCH   3   6
HETATM    6  C   UNL     1      -9.609   8.223  72.518  1.00  0.00    -0.295 C  
BRANCH   6   7
HETATM    7  C   UNL     1      -9.497   7.230  73.677  1.00  0.00    -0.293 C  
BRANCH   7   8
HETATM    8  C   UNL     1      -8.768   5.963  73.227  1.00  0.00    -0.117 C  
BRANCH   8   9
HETATM    9  C   UNL     1      -7.255   6.173  73.130  1.00  0.00    -0.085 C  
BRANCH   9  10
HETATM   10  C   UNL     1      -6.650   5.476  71.911  1.00  0.00    -0.056 C  
BRANCH  10  11
HETATM   11  N   UNL     1      -7.598   4.593  71.248  1.00  0.00    -0.077 N  
HETATM   12  C   UNL     1      -7.660   4.516  69.874  1.00  0.00    -0.054 C  
HETATM   13  H   UNL     1      -8.228   4.022  71.811  1.00  0.00     0.000 HD 
HETATM   14  O   UNL     1      -6.916   5.137  69.120  1.00  0.00    -0.052 OA 
BRANCH  12  15
HETATM   15  C   UNL     1      -8.734   3.573  69.377  1.00  0.00    -0.130 C  
BRANCH  15  16
HETATM   16  C   UNL     1      -9.655   4.285  68.389  1.00  0.00    -0.197 C  
BRANCH  16  17
HETATM   17  C   UNL     1      -9.596   3.675  67.002  1.00  0.00    -0.152 C  
HETATM   18  O   UNL     1      -9.245   2.509  66.834  1.00  0.00    -0.141 OA 
HETATM   19  N   UNL     1      -9.925   4.507  65.961  1.00  0.00    -0.226 N  
HETATM   20  O   UNL     1     -10.426   5.812  66.109  1.00  0.00    -0.099 OA 
BRANCH  19  21
HETATM   21  C   UNL     1      -9.853   4.113  64.562  1.00  0.00    -0.162 C  
BRANCH  21  22
HETATM   22  C   UNL     1      -8.479   3.555  64.181  1.00  0.00    -0.090 C  
BRANCH  22  23
HETATM   23  C   UNL     1      -7.464   4.656  63.820  1.00  0.00    -0.059 C  
BRANCH  23  24
HETATM   24  C   UNL     1      -8.112   5.902  63.215  1.00  0.00    -0.101 C  
BRANCH  24  25
HETATM   25  C   UNL     1      -7.427   7.180  63.695  1.00  0.00    -0.100 C  
BRANCH  25  26
HETATM   26  N   UNL     1      -8.377   8.113  64.268  1.00  0.00    -0.358 N  
HETATM   27  H   UNL     1      -8.818   7.886  65.159  1.00  0.00     0.000 HD 
HETATM   28  C   UNL     1      -8.699   9.295  63.644  1.00  0.00    -0.167 C  
HETATM   29  O   UNL     1      -8.203   9.657  62.582  1.00  0.00    -0.124 OA 
BRANCH  28  30
HETATM   30  C   UNL     1      -9.729  10.125  64.366  1.00  0.00    -0.345 C  
BRANCH  30  31
HETATM   31  C   UNL     1      -9.037  11.034  65.370  1.00  0.00    -0.213 C  
BRANCH  31  32
HETATM   32  C   UNL     1      -9.761  11.020  66.700  1.00  0.00    -0.195 C  
HETATM   33  N   UNL     1     -10.857  11.833  66.857  1.00  0.00    -0.257 N  
HETATM   34  O   UNL     1      -9.403  10.227  67.574  1.00  0.00    -0.147 OA 
HETATM   35  O   UNL     1     -10.987  12.988  66.063  1.00  0.00    -0.273 OA 
BRANCH  33  36
HETATM   36  C   UNL     1     -11.579  11.944  68.126  1.00  0.00    -0.334 C  
BRANCH  36  37
HETATM   37  C   UNL     1     -12.123  13.354  68.360  1.00  0.00    -0.270 C  
BRANCH  37  38
HETATM   38  C   UNL     1     -11.561  13.986  69.638  1.00  0.00    -0.348 C  
BRANCH  38  39
HETATM   39  C   UNL     1     -11.950  15.462  69.757  1.00  0.00    -0.381 C  
BRANCH  39  40
HETATM   40  C   UNL     1     -10.740  16.397  69.689  1.00  0.00    -0.337 C  
HETATM   41  N   UNL     1     -10.921  17.442  68.687  1.00  0.00    -0.248 NA 
HETATM   42  H2  UNL     1     -11.784  17.962  68.843  1.00  0.00     0.000 HD 
HETATM   43  H1  UNL     1     -10.114  18.065  68.641  1.00  0.00     0.000 HD 
ENDBRANCH  39  40
ENDBRANCH  38  39
ENDBRANCH  37  38
ENDBRANCH  36  37
ENDBRANCH  33  36
ENDBRANCH  31  32
ENDBRANCH  30  31
ENDBRANCH  28  30
ENDBRANCH  25  26
ENDBRANCH  24  25
ENDBRANCH  23  24
ENDBRANCH  22  23
ENDBRANCH  21  22
ENDBRANCH  19  21
ENDBRANCH  16  17
ENDBRANCH  15  16
ENDBRANCH  12  15
ENDBRANCH  10  11
ENDBRANCH   9  10
ENDBRANCH   8   9
ENDBRANCH   7   8
ENDBRANCH   6   7
ENDBRANCH   3   6
TORSDOF 23
ENDMDL
MODEL      299
REMARK 921   NORMALIZED FREE ENERGY PREDICTED BY IDOCK:   -2.89 KCAL/MOL
REMARK 922        TOTAL FREE ENERGY PREDICTED BY IDOCK:   -9.52 KCAL/MOL
REMARK 923 INTER-LIGAND FREE ENERGY PREDICTED BY IDOCK:   -9.60 KCAL/MOL
REMARK 924 INTRA-LIGAND FREE ENERGY PREDICTED BY IDOCK:    0.08 KCAL/MOL
REMARK 927      BINDING AFFINITY PREDICTED BY RF-SCORE:    0.00 PKD
ROOT
HETATM    1  C   UNL     1      -8.849   4.879  66.732  1.00  0.00    -0.110 C  
HETATM    2  C   UNL     1      -9.118   5.744  67.936  1.00  0.00    -0.109 C  
HETATM    3  N   UNL     1     -10.298   6.439  67.947  1.00  0.00    -0.167 N  
HETATM    4  O   UNL     1      -8.285   5.828  68.839  1.00  0.00    -0.100 OA 
HETATM    5  O   UNL     1     -11.334   6.253  67.016  1.00  0.00    -0.263 OA 
ENDROOT
BRANCH   3   6
HETATM    6  C   UNL     1     -10.696   7.328  69.031  1.00  0.00    -0.166 C  
BRANCH   6   7
HETATM    7  C   UNL     1     -10.995   6.571  70.326  1.00  0.00    -0.365 C  
BRANCH   7   8
HETATM    8  C   UNL     1     -11.153   7.548  71.492  1.00  0.00    -0.263 C  
BRANCH   8   9
HETATM    9  C   UNL     1     -10.088   8.647  71.470  1.00  0.00    -0.345 C  
BRANCH   9  10
HETATM   10  C   UNL     1      -8.682   8.098  71.714  1.00  0.00    -0.151 C  
BRANCH  10  11
HETATM   11  N   UNL     1      -7.889   8.042  70.495  1.00  0.00    -0.092 N  
HETATM   12  C   UNL     1      -7.100   9.103  70.109  1.00  0.00    -0.059 C  
HETATM   13  H   UNL     1      -7.917   7.202  69.917  1.00  0.00     0.000 HD 
HETATM   14  O   UNL     1      -6.974  10.135  70.762  1.00  0.00    -0.329 OA 
BRANCH  12  15
HETATM   15  C   UNL     1      -6.383   8.867  68.797  1.00  0.00    -0.049 C  
BRANCH  15  16
HETATM   16  C   UNL     1      -7.354   9.001  67.626  1.00  0.00    -0.084 C  
BRANCH  16  17
HETATM   17  C   UNL     1      -6.769   8.482  66.327  1.00  0.00    -0.069 C  
HETATM   18  O   UNL     1      -5.555   8.344  66.187  1.00  0.00    -0.037 OA 
HETATM   19  N   UNL     1      -7.665   8.212  65.325  1.00  0.00    -0.094 N  
HETATM   20  O   UNL     1      -9.063   8.258  65.469  1.00  0.00    -0.126 OA 
BRANCH  19  21
HETATM   21  C   UNL     1      -7.276   7.777  63.992  1.00  0.00    -0.080 C  
BRANCH  21  22
HETATM   22  C   UNL     1      -6.978   8.953  63.057  1.00  0.00    -0.089 C  
BRANCH  22  23
HETATM   23  C   UNL     1      -7.431  10.308  63.634  1.00  0.00    -0.087 C  
BRANCH  23  24
HETATM   24  C   UNL     1      -8.486  11.008  62.777  1.00  0.00    -0.157 C  
BRANCH  24  25
HETATM   25  C   UNL     1      -9.855  10.347  62.923  1.00  0.00    -0.106 C  
BRANCH  25  26
HETATM   26  N   UNL     1     -10.858  11.289  63.377  1.00  0.00    -0.722 N  
HETATM   27  H   UNL     1     -11.552  11.632  62.713  1.00  0.00     0.000 HD 
HETATM   28  C   UNL     1     -10.900  11.734  64.677  1.00  0.00    -0.307 C  
HETATM   29  O   UNL     1     -10.119  11.360  65.547  1.00  0.00    -0.226 OA 
BRANCH  28  30
HETATM   30  C   UNL     1     -11.989  12.737  64.963  1.00  0.00    -0.456 C  
BRANCH  30  31
HETATM   31  C   UNL     1     -11.643  14.065  64.309  1.00  0.00    -0.348 C  
BRANCH  31  32
HETATM   32  C   UNL     1     -11.065  15.032  65.321  1.00  0.00    -0.386 C  
HETATM   33  N   UNL     1     -11.166  14.719  66.655  1.00  0.00    -0.341 N  
HETATM   34  O   UNL     1     -10.452  16.025  64.926  1.00  0.00    -0.574 OA 
HETATM   35  O   UNL     1     -12.191  13.859  67.093  1.00  0.00    -0.406 OA 
BRANCH  33  36
HETATM   36  C   UNL     1     -10.704  15.622  67.711  1.00  0.00    -0.297 C  
BRANCH  36  37
HETATM   37  C   UNL     1     -10.240  16.970  67.156  1.00  0.00    -0.306 C  
BRANCH  37  38
HETATM   38  C   UNL     1     -10.784  18.148  67.972  1.00  0.00    -0.297 C  
BRANCH  38  39
HETATM   39  C   UNL     1     -10.830  19.436  67.145  1.00  0.00    -0.561 C  
BRANCH  39  40
HETATM   40  C   UNL     1      -9.802  19.445  66.013  1.00  0.00    -0.315 C  
HETATM   41  N   UNL     1      -8.701  20.363  66.290  1.00  0.00    -0.560 NA 
HETATM   42  H2  UNL     1      -8.264  20.159  67.188  1.00  0.00     0.000 HD 
HETATM   43  H1  UNL     1      -8.015  20.370  65.535  1.00  0.00     0.000 HD 
ENDBRANCH  39  40
ENDBRANCH  38  39
ENDBRANCH  37  38
ENDBRANCH  36  37
ENDBRANCH  33  36
ENDBRANCH  31  32
ENDBRANCH  30  31
ENDBRANCH  28  30
ENDBRANCH  25  26
ENDBRANCH  24  25
ENDBRANCH  23  24
ENDBRANCH  22  23
ENDBRANCH  21  22
ENDBRANCH  19  21
ENDBRANCH  16  17
ENDBRANCH  15  16
ENDBRANCH  12  15
ENDBRANCH  10  11
ENDBRANCH   9  10
ENDBRANCH   8   9
ENDBRANCH   7   8
ENDBRANCH   6   7
ENDBRANCH   3   6
TORSDOF 23
ENDMDL
MODEL      300
REMARK 921   NORMALIZED FREE ENERGY PREDICTED BY IDOCK:   -2.88 KCAL/MOL
REMARK 922        TOTAL FREE ENERGY PREDICTED BY IDOCK:   -9.51 KCAL/MOL
REMARK 923 INTER-LIGAND FREE ENERGY PREDICTED BY IDOCK:   -8.39 KCAL/MOL
REMARK 924 INTRA-LIGAND FREE ENERGY PREDICTED BY IDOCK:   -1.12 KCAL/MOL
REMARK 927      BINDING AFFINITY PREDICTED BY RF-SCORE:    0.00 PKD
ROOT
HETATM    1  C   UNL     1     -13.666  14.628  72.614  1.00  0.00    -0.545 C  
HETATM    2  C   UNL     1     -12.757  14.693  71.415  1.00  0.00    -0.333 C  
HETATM    3  N   UNL     1     -12.267  13.502  70.945  1.00  0.00    -0.347 N  
HETATM    4  O   UNL     1     -12.458  15.780  70.920  1.00  0.00    -0.431 OA 
HETATM    5  O   UNL     1     -12.702  12.240  71.385  1.00  0.00    -0.349 OA 
ENDROOT
BRANCH   3   6
HETATM    6  C   UNL     1     -11.366  13.400  69.806  1.00  0.00    -0.080 C  
BRANCH   6   7
HETATM    7  C   UNL     1     -12.103  13.491  68.468  1.00  0.00    -0.303 C  
BRANCH   7   8
HETATM    8  C   UNL     1     -12.002  14.907  67.898  1.00  0.00    -0.206 C  
BRANCH   8   9
HETATM    9  C   UNL     1     -10.918  15.019  66.825  1.00  0.00    -0.323 C  
BRANCH   9  10
HETATM   10  C   UNL     1      -9.942  13.843  66.862  1.00  0.00    -0.264 C  
BRANCH  10  11
HETATM   11  N   UNL     1      -9.694  13.285  65.541  1.00  0.00    -0.491 N  
HETATM   12  C   UNL     1     -10.627  12.486  64.918  1.00  0.00    -0.301 C  
HETATM   13  H   UNL     1      -8.814  13.490  65.068  1.00  0.00     0.000 HD 
HETATM   14  O   UNL     1     -11.727  12.219  65.395  1.00  0.00    -0.369 OA 
BRANCH  12  15
HETATM   15  C   UNL     1     -10.169  11.973  63.570  1.00  0.00    -0.477 C  
BRANCH  15  16
HETATM   16  C   UNL     1      -9.665  10.537  63.687  1.00  0.00    -0.375 C  
BRANCH  16  17
HETATM   17  C   UNL     1      -8.412  10.431  64.535  1.00  0.00    -0.169 C  
HETATM   18  O   UNL     1      -8.477  10.395  65.762  1.00  0.00    -0.153 OA 
HETATM   19  N   UNL     1      -7.222  10.411  63.856  1.00  0.00    -0.043 N  
HETATM   20  O   UNL     1      -7.101  10.350  62.456  1.00  0.00    -0.139 OA 
BRANCH  19  21
HETATM   21  C   UNL     1      -5.921  10.387  64.509  1.00  0.00    -0.110 C  
BRANCH  21  22
HETATM   22  C   UNL     1      -5.892   9.449  65.719  1.00  0.00    -0.054 C  
BRANCH  22  23
HETATM   23  C   UNL     1      -5.687   7.973  65.329  1.00  0.00    -0.041 C  
BRANCH  23  24
HETATM   24  C   UNL     1      -6.963   7.136  65.435  1.00  0.00    -0.056 C  
BRANCH  24  25
HETATM   25  C   UNL     1      -7.634   6.964  64.074  1.00  0.00    -0.112 C  
BRANCH  25  26
HETATM   26  N   UNL     1      -8.817   6.132  64.162  1.00  0.00    -0.195 N  
HETATM   27  H   UNL     1      -9.731   6.577  64.245  1.00  0.00     0.000 HD 
HETATM   28  C   UNL     1      -8.742   4.759  64.138  1.00  0.00    -0.141 C  
HETATM   29  O   UNL     1      -7.689   4.140  64.021  1.00  0.00    -0.079 OA 
BRANCH  28  30
HETATM   30  C   UNL     1     -10.068   4.056  64.275  1.00  0.00    -0.187 C  
BRANCH  30  31
HETATM   31  C   UNL     1     -10.880   4.710  65.382  1.00  0.00    -0.093 C  
BRANCH  31  32
HETATM   32  C   UNL     1     -10.187   4.562  66.721  1.00  0.00    -0.132 C  
HETATM   33  N   UNL     1     -10.357   5.552  67.658  1.00  0.00    -0.203 N  
HETATM   34  O   UNL     1      -9.559   3.530  66.965  1.00  0.00    -0.204 OA 
HETATM   35  O   UNL     1     -10.690   6.855  67.242  1.00  0.00    -0.275 OA 
BRANCH  33  36
HETATM   36  C   UNL     1      -9.672   5.536  68.952  1.00  0.00    -0.144 C  
BRANCH  36  37
HETATM   37  C   UNL     1      -8.530   6.553  69.012  1.00  0.00    -0.125 C  
BRANCH  37  38
HETATM   38  C   UNL     1      -8.605   7.432  70.265  1.00  0.00    -0.145 C  
BRANCH  38  39
HETATM   39  C   UNL     1      -7.214   7.727  70.834  1.00  0.00    -0.054 C  
BRANCH  39  40
HETATM   40  C   UNL     1      -6.922   9.225  70.927  1.00  0.00    -0.104 C  
HETATM   41  N   UNL     1      -5.909   9.517  71.935  1.00  0.00    -0.237 NA 
HETATM   42  H2  UNL     1      -5.056   8.982  71.771  1.00  0.00     0.000 HD 
HETATM   43  H1  UNL     1      -5.714  10.517  71.997  1.00  0.00     0.000 HD 
ENDBRANCH  39  40
ENDBRANCH  38  39
ENDBRANCH  37  38
ENDBRANCH  36  37
ENDBRANCH  33  36
ENDBRANCH  31  32
ENDBRANCH  30  31
ENDBRANCH  28  30
ENDBRANCH  25  26
ENDBRANCH  24  25
ENDBRANCH  23  24
ENDBRANCH  22  23
ENDBRANCH  21  22
ENDBRANCH  19  21
ENDBRANCH  16  17
ENDBRANCH  15  16
ENDBRANCH  12  15
ENDBRANCH  10  11
ENDBRANCH   9  10
ENDBRANCH   8   9
ENDBRANCH   7   8
ENDBRANCH   6   7
ENDBRANCH   3   6
TORSDOF 23
ENDMDL
MODEL      301
REMARK 921   NORMALIZED FREE ENERGY PREDICTED BY IDOCK:   -2.87 KCAL/MOL
REMARK 922        TOTAL FREE ENERGY PREDICTED BY IDOCK:   -9.49 KCAL/MOL
REMARK 923 INTER-LIGAND FREE ENERGY PREDICTED BY IDOCK:   -8.66 KCAL/MOL
REMARK 924 INTRA-LIGAND FREE ENERGY PREDICTED BY IDOCK:   -0.83 KCAL/MOL
REMARK 927      BINDING AFFINITY PREDICTED BY RF-SCORE:    0.00 PKD
ROOT
HETATM    1  C   UNL     1      -7.214  16.052  68.506  1.00  0.00    -0.138 C  
HETATM    2  C   UNL     1      -7.293  14.682  67.886  1.00  0.00    -0.154 C  
HETATM    3  N   UNL     1      -6.387  13.752  68.323  1.00  0.00    -0.095 N  
HETATM    4  O   UNL     1      -8.121  14.446  67.005  1.00  0.00    -0.177 OA 
HETATM    5  O   UNL     1      -5.534  13.936  69.424  1.00  0.00    -0.082 OA 
ENDROOT
BRANCH   3   6
HETATM    6  C   UNL     1      -6.326  12.390  67.810  1.00  0.00    -0.109 C  
BRANCH   6   7
HETATM    7  C   UNL     1      -7.574  12.011  67.010  1.00  0.00    -0.111 C  
BRANCH   7   8
HETATM    8  C   UNL     1      -7.795  10.498  67.050  1.00  0.00    -0.114 C  
BRANCH   8   9
HETATM    9  C   UNL     1      -8.973  10.065  66.175  1.00  0.00    -0.174 C  
BRANCH   9  10
HETATM   10  C   UNL     1      -9.821  11.251  65.716  1.00  0.00    -0.232 C  
BRANCH  10  11
HETATM   11  N   UNL     1     -10.665  11.775  66.779  1.00  0.00    -0.241 N  
HETATM   12  C   UNL     1     -11.158  13.060  66.731  1.00  0.00    -0.286 C  
HETATM   13  H   UNL     1     -10.896  11.179  67.574  1.00  0.00     0.000 HD 
HETATM   14  O   UNL     1     -10.964  13.832  65.796  1.00  0.00    -0.279 OA 
BRANCH  12  15
HETATM   15  C   UNL     1     -11.982  13.430  67.945  1.00  0.00    -0.360 C  
BRANCH  15  16
HETATM   16  C   UNL     1     -11.168  13.235  69.222  1.00  0.00    -0.266 C  
BRANCH  16  17
HETATM   17  C   UNL     1     -11.719  12.123  70.094  1.00  0.00    -0.218 C  
HETATM   18  O   UNL     1     -11.358  10.958  69.943  1.00  0.00    -0.268 OA 
HETATM   19  N   UNL     1     -12.656  12.493  71.026  1.00  0.00    -0.326 N  
HETATM   20  O   UNL     1     -13.026  13.820  71.303  1.00  0.00    -0.338 OA 
BRANCH  19  21
HETATM   21  C   UNL     1     -13.343  11.550  71.895  1.00  0.00    -0.303 C  
BRANCH  21  22
HETATM   22  C   UNL     1     -13.534  10.180  71.238  1.00  0.00    -0.305 C  
BRANCH  22  23
HETATM   23  C   UNL     1     -13.408   9.013  72.235  1.00  0.00    -0.523 C  
BRANCH  23  24
HETATM   24  C   UNL     1     -13.469   7.638  71.567  1.00  0.00    -0.394 C  
BRANCH  24  25
HETATM   25  C   UNL     1     -12.377   6.709  72.095  1.00  0.00    -0.200 C  
BRANCH  25  26
HETATM   26  N   UNL     1     -11.169   7.437  72.425  1.00  0.00    -0.275 N  
HETATM   27  H   UNL     1     -10.946   8.289  71.909  1.00  0.00     0.000 HD 
HETATM   28  C   UNL     1     -10.313   7.013  73.414  1.00  0.00    -0.334 C  
HETATM   29  O   UNL     1     -10.511   6.013  74.098  1.00  0.00    -0.279 OA 
BRANCH  28  30
HETATM   30  C   UNL     1      -9.090   7.873  73.598  1.00  0.00    -0.337 C  
BRANCH  30  31
HETATM   31  C   UNL     1      -8.368   8.023  72.268  1.00  0.00    -0.193 C  
BRANCH  31  32
HETATM   32  C   UNL     1      -8.023   6.668  71.685  1.00  0.00    -0.103 C  
HETATM   33  N   UNL     1      -8.451   6.376  70.413  1.00  0.00    -0.129 N  
HETATM   34  O   UNL     1      -7.304   5.899  72.327  1.00  0.00    -0.090 OA 
HETATM   35  O   UNL     1      -9.576   7.040  69.886  1.00  0.00    -0.160 OA 
BRANCH  33  36
HETATM   36  C   UNL     1      -8.231   5.069  69.790  1.00  0.00    -0.077 C  
BRANCH  36  37
HETATM   37  C   UNL     1      -9.545   4.366  69.444  1.00  0.00    -0.269 C  
BRANCH  37  38
HETATM   38  C   UNL     1      -9.400   3.433  68.237  1.00  0.00    -0.239 C  
BRANCH  38  39
HETATM   39  C   UNL     1      -9.879   4.102  66.945  1.00  0.00    -0.197 C  
BRANCH  39  40
HETATM   40  C   UNL     1      -9.134   5.404  66.645  1.00  0.00    -0.124 C  
HETATM   41  N   UNL     1      -9.969   6.574  66.892  1.00  0.00    -0.162 NA 
HETATM   42  H2  UNL     1     -10.343   6.570  67.840  1.00  0.00     0.000 HD 
HETATM   43  H1  UNL     1      -9.472   7.443  66.692  1.00  0.00     0.000 HD 
ENDBRANCH  39  40
ENDBRANCH  38  39
ENDBRANCH  37  38
ENDBRANCH  36  37
ENDBRANCH  33  36
ENDBRANCH  31  32
ENDBRANCH  30  31
ENDBRANCH  28  30
ENDBRANCH  25  26
ENDBRANCH  24  25
ENDBRANCH  23  24
ENDBRANCH  22  23
ENDBRANCH  21  22
ENDBRANCH  19  21
ENDBRANCH  16  17
ENDBRANCH  15  16
ENDBRANCH  12  15
ENDBRANCH  10  11
ENDBRANCH   9  10
ENDBRANCH   8   9
ENDBRANCH   7   8
ENDBRANCH   6   7
ENDBRANCH   3   6
TORSDOF 23
ENDMDL
MODEL      302
REMARK 921   NORMALIZED FREE ENERGY PREDICTED BY IDOCK:   -2.87 KCAL/MOL
REMARK 922        TOTAL FREE ENERGY PREDICTED BY IDOCK:   -9.48 KCAL/MOL
REMARK 923 INTER-LIGAND FREE ENERGY PREDICTED BY IDOCK:   -6.33 KCAL/MOL
REMARK 924 INTRA-LIGAND FREE ENERGY PREDICTED BY IDOCK:   -3.15 KCAL/MOL
REMARK 927      BINDING AFFINITY PREDICTED BY RF-SCORE:    0.00 PKD
ROOT
HETATM    1  C   UNL     1     -11.748  15.521  69.895  1.00  0.00    -0.368 C  
HETATM    2  C   UNL     1     -11.093  14.463  69.046  1.00  0.00    -0.261 C  
HETATM    3  N   UNL     1     -10.138  14.886  68.158  1.00  0.00    -0.220 N  
HETATM    4  O   UNL     1     -11.441  13.286  69.142  1.00  0.00    -0.271 OA 
HETATM    5  O   UNL     1      -9.609  16.188  68.127  1.00  0.00    -0.213 OA 
ENDROOT
BRANCH   3   6
HETATM    6  C   UNL     1      -9.426  13.989  67.258  1.00  0.00    -0.231 C  
BRANCH   6   7
HETATM    7  C   UNL     1      -7.908  14.082  67.423  1.00  0.00    -0.188 C  
BRANCH   7   8
HETATM    8  C   UNL     1      -7.342  12.752  67.925  1.00  0.00    -0.120 C  
BRANCH   8   9
HETATM    9  C   UNL     1      -6.043  12.373  67.211  1.00  0.00    -0.143 C  
BRANCH   9  10
HETATM   10  C   UNL     1      -6.213  11.151  66.308  1.00  0.00    -0.102 C  
BRANCH  10  11
HETATM   11  N   UNL     1      -7.604  10.741  66.182  1.00  0.00    -0.145 N  
HETATM   12  C   UNL     1      -8.019   9.937  65.144  1.00  0.00    -0.139 C  
HETATM   13  H   UNL     1      -8.283  11.056  66.875  1.00  0.00     0.000 HD 
HETATM   14  O   UNL     1      -7.266   9.480  64.289  1.00  0.00    -0.106 OA 
BRANCH  12  15
HETATM   15  C   UNL     1      -9.506   9.654  65.166  1.00  0.00    -0.332 C  
BRANCH  15  16
HETATM   16  C   UNL     1     -10.140  10.225  66.432  1.00  0.00    -0.296 C  
BRANCH  16  17
HETATM   17  C   UNL     1     -10.515   9.145  67.429  1.00  0.00    -0.271 C  
HETATM   18  O   UNL     1     -10.846   8.022  67.054  1.00  0.00    -0.283 OA 
HETATM   19  N   UNL     1     -10.493   9.508  68.751  1.00  0.00    -0.215 N  
HETATM   20  O   UNL     1     -10.029  10.744  69.233  1.00  0.00    -0.214 OA 
BRANCH  19  21
HETATM   21  C   UNL     1     -10.894   8.624  69.836  1.00  0.00    -0.208 C  
BRANCH  21  22
HETATM   22  C   UNL     1      -9.719   7.821  70.400  1.00  0.00    -0.179 C  
BRANCH  22  23
HETATM   23  C   UNL     1      -8.681   8.701  71.121  1.00  0.00    -0.244 C  
BRANCH  23  24
HETATM   24  C   UNL     1      -7.259   8.520  70.588  1.00  0.00    -0.052 C  
BRANCH  24  25
HETATM   25  C   UNL     1      -7.183   8.796  69.088  1.00  0.00    -0.067 C  
BRANCH  25  26
HETATM   26  N   UNL     1      -6.209   7.944  68.436  1.00  0.00    -0.047 N  
HETATM   27  H   UNL     1      -5.245   7.948  68.769  1.00  0.00     0.000 HD 
HETATM   28  C   UNL     1      -6.549   7.130  67.381  1.00  0.00    -0.059 C  
HETATM   29  O   UNL     1      -7.686   7.046  66.929  1.00  0.00    -0.099 OA 
BRANCH  28  30
HETATM   30  C   UNL     1      -5.403   6.339  66.804  1.00  0.00    -0.012 C  
BRANCH  30  31
HETATM   31  C   UNL     1      -5.741   4.857  66.833  1.00  0.00    -0.014 C  
BRANCH  31  32
HETATM   32  C   UNL     1      -6.036   4.397  68.245  1.00  0.00    -0.031 C  
HETATM   33  N   UNL     1      -7.213   3.730  68.483  1.00  0.00    -0.054 N  
HETATM   34  O   UNL     1      -5.185   4.557  69.123  1.00  0.00    -0.003 OA 
HETATM   35  O   UNL     1      -8.312   3.927  67.625  1.00  0.00    -0.093 OA 
BRANCH  33  36
HETATM   36  C   UNL     1      -7.622   3.310  69.825  1.00  0.00    -0.044 C  
BRANCH  36  37
HETATM   37  C   UNL     1      -8.063   4.492  70.690  1.00  0.00    -0.074 C  
BRANCH  37  38
HETATM   38  C   UNL     1      -8.345   4.074  72.138  1.00  0.00    -0.101 C  
BRANCH  38  39
HETATM   39  C   UNL     1      -9.338   5.022  72.817  1.00  0.00    -0.150 C  
BRANCH  39  40
HETATM   40  C   UNL     1     -10.782   4.776  72.377  1.00  0.00    -0.149 C  
HETATM   41  N   UNL     1     -11.707   5.708  73.012  1.00  0.00    -0.535 NA 
HETATM   42  H2  UNL     1     -11.429   6.676  72.850  1.00  0.00     0.000 HD 
HETATM   43  H1  UNL     1     -12.670   5.544  72.719  1.00  0.00     0.000 HD 
ENDBRANCH  39  40
ENDBRANCH  38  39
ENDBRANCH  37  38
ENDBRANCH  36  37
ENDBRANCH  33  36
ENDBRANCH  31  32
ENDBRANCH  30  31
ENDBRANCH  28  30
ENDBRANCH  25  26
ENDBRANCH  24  25
ENDBRANCH  23  24
ENDBRANCH  22  23
ENDBRANCH  21  22
ENDBRANCH  19  21
ENDBRANCH  16  17
ENDBRANCH  15  16
ENDBRANCH  12  15
ENDBRANCH  10  11
ENDBRANCH   9  10
ENDBRANCH   8   9
ENDBRANCH   7   8
ENDBRANCH   6   7
ENDBRANCH   3   6
TORSDOF 23
ENDMDL
MODEL      303
REMARK 921   NORMALIZED FREE ENERGY PREDICTED BY IDOCK:   -2.86 KCAL/MOL
REMARK 922        TOTAL FREE ENERGY PREDICTED BY IDOCK:   -9.45 KCAL/MOL
REMARK 923 INTER-LIGAND FREE ENERGY PREDICTED BY IDOCK:   -7.81 KCAL/MOL
REMARK 924 INTRA-LIGAND FREE ENERGY PREDICTED BY IDOCK:   -1.64 KCAL/MOL
REMARK 927      BINDING AFFINITY PREDICTED BY RF-SCORE:    0.00 PKD
ROOT
HETATM    1  C   UNL     1     -14.159   7.363  71.278  1.00  0.00    -0.400 C  
HETATM    2  C   UNL     1     -12.655   7.316  71.338  1.00  0.00    -0.388 C  
HETATM    3  N   UNL     1     -12.043   8.185  72.204  1.00  0.00    -0.337 N  
HETATM    4  O   UNL     1     -12.028   6.547  70.609  1.00  0.00    -0.386 OA 
HETATM    5  O   UNL     1     -12.724   8.964  73.154  1.00  0.00    -0.106 OA 
ENDROOT
BRANCH   3   6
HETATM    6  C   UNL     1     -10.598   8.271  72.365  1.00  0.00    -0.337 C  
BRANCH   6   7
HETATM    7  C   UNL     1      -9.934   6.893  72.424  1.00  0.00    -0.181 C  
BRANCH   7   8
HETATM    8  C   UNL     1      -8.640   6.889  71.608  1.00  0.00    -0.117 C  
BRANCH   8   9
HETATM    9  C   UNL     1      -7.527   6.098  72.299  1.00  0.00    -0.095 C  
BRANCH   9  10
HETATM   10  C   UNL     1      -8.069   4.918  73.106  1.00  0.00    -0.101 C  
BRANCH  10  11
HETATM   11  N   UNL     1      -7.975   3.660  72.381  1.00  0.00    -0.068 N  
HETATM   12  C   UNL     1      -9.039   3.176  71.653  1.00  0.00    -0.106 C  
HETATM   13  H   UNL     1      -7.107   3.127  72.413  1.00  0.00     0.000 HD 
HETATM   14  O   UNL     1     -10.108   3.768  71.527  1.00  0.00    -0.157 OA 
BRANCH  12  15
HETATM   15  C   UNL     1      -8.760   1.837  71.004  1.00  0.00    -0.098 C  
BRANCH  15  16
HETATM   16  C   UNL     1      -8.838   1.954  69.484  1.00  0.00    -0.132 C  
BRANCH  16  17
HETATM   17  C   UNL     1      -7.804   2.910  68.923  1.00  0.00    -0.046 C  
HETATM   18  O   UNL     1      -6.638   2.886  69.313  1.00  0.00    -0.032 OA 
HETATM   19  N   UNL     1      -8.255   3.810  67.991  1.00  0.00    -0.087 N  
HETATM   20  O   UNL     1      -9.549   3.811  67.443  1.00  0.00    -0.198 OA 
BRANCH  19  21
HETATM   21  C   UNL     1      -7.420   4.846  67.402  1.00  0.00    -0.082 C  
BRANCH  21  22
HETATM   22  C   UNL     1      -7.211   6.034  68.345  1.00  0.00    -0.084 C  
BRANCH  22  23
HETATM   23  C   UNL     1      -7.748   7.359  67.771  1.00  0.00    -0.112 C  
BRANCH  23  24
HETATM   24  C   UNL     1      -7.266   7.640  66.348  1.00  0.00    -0.078 C  
BRANCH  24  25
HETATM   25  C   UNL     1      -7.738   9.007  65.856  1.00  0.00    -0.094 C  
BRANCH  25  26
HETATM   26  N   UNL     1      -8.393   9.758  66.909  1.00  0.00    -0.120 N  
HETATM   27  H   UNL     1      -7.832  10.132  67.673  1.00  0.00     0.000 HD 
HETATM   28  C   UNL     1      -9.750   9.978  66.905  1.00  0.00    -0.189 C  
HETATM   29  O   UNL     1     -10.499   9.583  66.017  1.00  0.00    -0.146 OA 
BRANCH  28  30
HETATM   30  C   UNL     1     -10.264  10.748  68.095  1.00  0.00    -0.194 C  
BRANCH  30  31
HETATM   31  C   UNL     1     -10.963  12.012  67.621  1.00  0.00    -0.287 C  
BRANCH  31  32
HETATM   32  C   UNL     1     -10.199  13.247  68.051  1.00  0.00    -0.240 C  
HETATM   33  N   UNL     1     -10.883  14.247  68.698  1.00  0.00    -0.246 N  
HETATM   34  O   UNL     1      -8.978  13.290  67.885  1.00  0.00    -0.180 OA 
HETATM   35  O   UNL     1     -12.271  14.381  68.502  1.00  0.00    -0.268 OA 
BRANCH  33  36
HETATM   36  C   UNL     1     -10.250  15.508  69.087  1.00  0.00    -0.240 C  
BRANCH  36  37
HETATM   37  C   UNL     1     -10.850  16.707  68.350  1.00  0.00    -0.361 C  
BRANCH  37  38
HETATM   38  C   UNL     1      -9.796  17.476  67.546  1.00  0.00    -0.293 C  
BRANCH  38  39
HETATM   39  C   UNL     1     -10.438  18.515  66.621  1.00  0.00    -0.436 C  
BRANCH  39  40
HETATM   40  C   UNL     1      -9.591  19.781  66.482  1.00  0.00    -0.406 C  
HETATM   41  N   UNL     1      -9.878  20.743  67.542  1.00  0.00    -0.384 NA 
HETATM   42  H2  UNL     1      -9.770  20.322  68.465  1.00  0.00     0.000 HD 
HETATM   43  H1  UNL     1      -9.314  21.587  67.449  1.00  0.00     0.000 HD 
ENDBRANCH  39  40
ENDBRANCH  38  39
ENDBRANCH  37  38
ENDBRANCH  36  37
ENDBRANCH  33  36
ENDBRANCH  31  32
ENDBRANCH  30  31
ENDBRANCH  28  30
ENDBRANCH  25  26
ENDBRANCH  24  25
ENDBRANCH  23  24
ENDBRANCH  22  23
ENDBRANCH  21  22
ENDBRANCH  19  21
ENDBRANCH  16  17
ENDBRANCH  15  16
ENDBRANCH  12  15
ENDBRANCH  10  11
ENDBRANCH   9  10
ENDBRANCH   8   9
ENDBRANCH   7   8
ENDBRANCH   6   7
ENDBRANCH   3   6
TORSDOF 23
ENDMDL
MODEL      304
REMARK 921   NORMALIZED FREE ENERGY PREDICTED BY IDOCK:   -2.82 KCAL/MOL
REMARK 922        TOTAL FREE ENERGY PREDICTED BY IDOCK:   -9.37 KCAL/MOL
REMARK 923 INTER-LIGAND FREE ENERGY PREDICTED BY IDOCK:   -8.88 KCAL/MOL
REMARK 924 INTRA-LIGAND FREE ENERGY PREDICTED BY IDOCK:   -0.50 KCAL/MOL
REMARK 927      BINDING AFFINITY PREDICTED BY RF-SCORE:    0.00 PKD
ROOT
HETATM    1  C   UNL     1      -6.684  20.115  70.581  1.00  0.00     0.085 C  
HETATM    2  C   UNL     1      -6.324  19.773  69.159  1.00  0.00    -0.314 C  
HETATM    3  N   UNL     1      -7.358  19.661  68.268  1.00  0.00    -0.307 N  
HETATM    4  O   UNL     1      -5.149  19.575  68.847  1.00  0.00    -0.186 OA 
HETATM    5  O   UNL     1      -8.686  20.025  68.550  1.00  0.00    -0.182 OA 
ENDROOT
BRANCH   3   6
HETATM    6  C   UNL     1      -7.175  19.322  66.864  1.00  0.00    -0.206 C  
BRANCH   6   7
HETATM    7  C   UNL     1      -6.982  17.819  66.647  1.00  0.00    -0.248 C  
BRANCH   7   8
HETATM    8  C   UNL     1      -8.337  17.113  66.573  1.00  0.00    -0.309 C  
BRANCH   8   9
HETATM    9  C   UNL     1      -8.785  16.583  67.937  1.00  0.00    -0.188 C  
BRANCH   9  10
HETATM   10  C   UNL     1      -9.944  15.591  67.821  1.00  0.00    -0.222 C  
BRANCH  10  11
HETATM   11  N   UNL     1     -10.124  15.103  66.462  1.00  0.00    -0.260 N  
HETATM   12  C   UNL     1     -11.381  14.924  65.931  1.00  0.00    -0.306 C  
HETATM   13  H   UNL     1      -9.304  14.890  65.894  1.00  0.00     0.000 HD 
HETATM   14  O   UNL     1     -12.421  15.190  66.527  1.00  0.00     0.366 OA 
BRANCH  12  15
HETATM   15  C   UNL     1     -11.361  14.373  64.521  1.00  0.00    -0.328 C  
BRANCH  15  16
HETATM   16  C   UNL     1     -12.043  13.009  64.469  1.00  0.00    -0.468 C  
BRANCH  16  17
HETATM   17  C   UNL     1     -11.485  12.044  65.498  1.00  0.00    -0.313 C  
HETATM   18  O   UNL     1     -11.969  11.967  66.626  1.00  0.00    -0.614 OA 
HETATM   19  N   UNL     1     -10.403  11.300  65.104  1.00  0.00    -0.281 N  
HETATM   20  O   UNL     1      -9.878  11.280  63.800  1.00  0.00    -0.263 OA 
BRANCH  19  21
HETATM   21  C   UNL     1      -9.695  10.380  65.983  1.00  0.00    -0.211 C  
BRANCH  21  22
HETATM   22  C   UNL     1     -10.158  10.489  67.438  1.00  0.00    -0.236 C  
BRANCH  22  23
HETATM   23  C   UNL     1      -9.045  10.969  68.388  1.00  0.00    -0.161 C  
BRANCH  23  24
HETATM   24  C   UNL     1      -8.285   9.824  69.058  1.00  0.00    -0.121 C  
BRANCH  24  25
HETATM   25  C   UNL     1      -9.215   8.944  69.890  1.00  0.00    -0.166 C  
BRANCH  25  26
HETATM   26  N   UNL     1      -8.682   8.706  71.216  1.00  0.00    -0.176 N  
HETATM   27  H   UNL     1      -7.672   8.627  71.338  1.00  0.00     0.000 HD 
HETATM   28  C   UNL     1      -9.499   8.585  72.315  1.00  0.00    -0.295 C  
HETATM   29  O   UNL     1     -10.721   8.686  72.266  1.00  0.00    -0.344 OA 
BRANCH  28  30
HETATM   30  C   UNL     1      -8.775   8.306  73.608  1.00  0.00    -0.244 C  
BRANCH  30  31
HETATM   31  C   UNL     1      -9.317   7.029  74.230  1.00  0.00    -0.262 C  
BRANCH  31  32
HETATM   32  C   UNL     1      -8.816   5.810  73.485  1.00  0.00    -0.122 C  
HETATM   33  N   UNL     1      -9.735   4.884  73.055  1.00  0.00    -0.142 N  
HETATM   34  O   UNL     1      -7.617   5.718  73.213  1.00  0.00    -0.094 OA 
HETATM   35  O   UNL     1     -10.975   4.776  73.713  1.00  0.00    -0.292 OA 
BRANCH  33  36
HETATM   36  C   UNL     1      -9.344   3.638  72.392  1.00  0.00    -0.119 C  
BRANCH  36  37
HETATM   37  C   UNL     1      -9.530   3.710  70.875  1.00  0.00    -0.235 C  
BRANCH  37  38
HETATM   38  C   UNL     1      -9.643   5.154  70.375  1.00  0.00    -0.252 C  
BRANCH  38  39
HETATM   39  C   UNL     1     -10.637   5.275  69.216  1.00  0.00    -0.188 C  
BRANCH  39  40
HETATM   40  C   UNL     1      -9.952   5.259  67.849  1.00  0.00    -0.160 C  
HETATM   41  N   UNL     1     -10.808   5.818  66.808  1.00  0.00    -0.513 NA 
HETATM   42  H2  UNL     1     -11.127   6.755  67.053  1.00  0.00     0.000 HD 
HETATM   43  H1  UNL     1     -10.351   5.808  65.896  1.00  0.00     0.000 HD 
ENDBRANCH  39  40
ENDBRANCH  38  39
ENDBRANCH  37  38
ENDBRANCH  36  37
ENDBRANCH  33  36
ENDBRANCH  31  32
ENDBRANCH  30  31
ENDBRANCH  28  30
ENDBRANCH  25  26
ENDBRANCH  24  25
ENDBRANCH  23  24
ENDBRANCH  22  23
ENDBRANCH  21  22
ENDBRANCH  19  21
ENDBRANCH  16  17
ENDBRANCH  15  16
ENDBRANCH  12  15
ENDBRANCH  10  11
ENDBRANCH   9  10
ENDBRANCH   8   9
ENDBRANCH   7   8
ENDBRANCH   6   7
ENDBRANCH   3   6
TORSDOF 23
ENDMDL
MODEL      305
REMARK 921   NORMALIZED FREE ENERGY PREDICTED BY IDOCK:   -2.79 KCAL/MOL
REMARK 922        TOTAL FREE ENERGY PREDICTED BY IDOCK:   -9.30 KCAL/MOL
REMARK 923 INTER-LIGAND FREE ENERGY PREDICTED BY IDOCK:   -7.21 KCAL/MOL
REMARK 924 INTRA-LIGAND FREE ENERGY PREDICTED BY IDOCK:   -2.09 KCAL/MOL
REMARK 927      BINDING AFFINITY PREDICTED BY RF-SCORE:    0.00 PKD
ROOT
HETATM    1  C   UNL     1     -11.819   8.415  72.441  1.00  0.00    -0.452 C  
HETATM    2  C   UNL     1     -10.867   7.276  72.698  1.00  0.00    -0.290 C  
HETATM    3  N   UNL     1     -10.895   6.234  71.810  1.00  0.00    -0.239 N  
HETATM    4  O   UNL     1     -10.133   7.292  73.687  1.00  0.00    -0.299 OA 
HETATM    5  O   UNL     1     -11.604   6.249  70.597  1.00  0.00    -0.353 OA 
ENDROOT
BRANCH   3   6
HETATM    6  C   UNL     1     -10.049   5.055  71.930  1.00  0.00    -0.197 C  
BRANCH   6   7
HETATM    7  C   UNL     1     -10.005   4.234  70.640  1.00  0.00    -0.218 C  
BRANCH   7   8
HETATM    8  C   UNL     1      -9.347   2.876  70.892  1.00  0.00    -0.220 C  
BRANCH   8   9
HETATM    9  C   UNL     1      -8.270   2.557  69.854  1.00  0.00    -0.064 C  
BRANCH   9  10
HETATM   10  C   UNL     1      -8.385   3.436  68.609  1.00  0.00    -0.073 C  
BRANCH  10  11
HETATM   11  N   UNL     1      -7.094   3.937  68.161  1.00  0.00    -0.051 N  
HETATM   12  C   UNL     1      -6.742   5.256  68.337  1.00  0.00    -0.054 C  
HETATM   13  H   UNL     1      -6.440   3.299  67.708  1.00  0.00     0.000 HD 
HETATM   14  O   UNL     1      -7.449   6.084  68.905  1.00  0.00    -0.082 OA 
BRANCH  12  15
HETATM   15  C   UNL     1      -5.379   5.591  67.770  1.00  0.00    -0.004 C  
BRANCH  15  16
HETATM   16  C   UNL     1      -5.315   5.238  66.286  1.00  0.00    -0.012 C  
BRANCH  16  17
HETATM   17  C   UNL     1      -6.485   5.805  65.507  1.00  0.00    -0.043 C  
HETATM   18  O   UNL     1      -7.449   5.104  65.206  1.00  0.00    -0.071 OA 
HETATM   19  N   UNL     1      -6.384   7.122  65.137  1.00  0.00    -0.037 N  
HETATM   20  O   UNL     1      -5.353   7.988  65.540  1.00  0.00    -0.028 OA 
BRANCH  19  21
HETATM   21  C   UNL     1      -7.377   7.809  64.324  1.00  0.00    -0.089 C  
BRANCH  21  22
HETATM   22  C   UNL     1      -8.655   8.126  65.105  1.00  0.00    -0.097 C  
BRANCH  22  23
HETATM   23  C   UNL     1      -8.444   9.196  66.193  1.00  0.00    -0.136 C  
BRANCH  23  24
HETATM   24  C   UNL     1      -9.187   8.891  67.494  1.00  0.00    -0.153 C  
BRANCH  24  25
HETATM   25  C   UNL     1     -10.615   9.433  67.465  1.00  0.00    -0.267 C  
BRANCH  25  26
HETATM   26  N   UNL     1     -10.642  10.852  67.171  1.00  0.00    -0.240 N  
HETATM   27  H   UNL     1     -10.596  11.157  66.198  1.00  0.00     0.000 HD 
HETATM   28  C   UNL     1     -10.730  11.797  68.165  1.00  0.00    -0.214 C  
HETATM   29  O   UNL     1     -10.810  11.520  69.358  1.00  0.00    -0.210 OA 
BRANCH  28  30
HETATM   30  C   UNL     1     -10.712  13.223  67.678  1.00  0.00    -0.250 C  
BRANCH  30  31
HETATM   31  C   UNL     1     -10.283  14.143  68.810  1.00  0.00    -0.216 C  
BRANCH  31  32
HETATM   32  C   UNL     1      -9.882  15.503  68.279  1.00  0.00    -0.213 C  
HETATM   33  N   UNL     1     -10.783  16.535  68.378  1.00  0.00    -0.322 N  
HETATM   34  O   UNL     1      -8.738  15.671  67.850  1.00  0.00    -0.164 OA 
HETATM   35  O   UNL     1     -12.160  16.253  68.458  1.00  0.00    -0.004 OA 
BRANCH  33  36
HETATM   36  C   UNL     1     -10.517  17.867  67.829  1.00  0.00    -0.400 C  
BRANCH  36  37
HETATM   37  C   UNL     1      -9.943  18.820  68.880  1.00  0.00    -0.423 C  
BRANCH  37  38
HETATM   38  C   UNL     1      -8.615  19.440  68.431  1.00  0.00    -0.397 C  
BRANCH  38  39
HETATM   39  C   UNL     1      -7.414  18.697  69.024  1.00  0.00    -0.243 C  
BRANCH  39  40
HETATM   40  C   UNL     1      -6.493  18.116  67.950  1.00  0.00    -0.187 C  
HETATM   41  N   UNL     1      -7.148  18.064  66.647  1.00  0.00    -0.197 NA 
HETATM   42  H2  UNL     1      -7.507  18.978  66.374  1.00  0.00     0.000 HD 
HETATM   43  H1  UNL     1      -6.534  17.676  65.930  1.00  0.00     0.000 HD 
ENDBRANCH  39  40
ENDBRANCH  38  39
ENDBRANCH  37  38
ENDBRANCH  36  37
ENDBRANCH  33  36
ENDBRANCH  31  32
ENDBRANCH  30  31
ENDBRANCH  28  30
ENDBRANCH  25  26
ENDBRANCH  24  25
ENDBRANCH  23  24
ENDBRANCH  22  23
ENDBRANCH  21  22
ENDBRANCH  19  21
ENDBRANCH  16  17
ENDBRANCH  15  16
ENDBRANCH  12  15
ENDBRANCH  10  11
ENDBRANCH   9  10
ENDBRANCH   8   9
ENDBRANCH   7   8
ENDBRANCH   6   7
ENDBRANCH   3   6
TORSDOF 23
ENDMDL
MODEL      306
REMARK 921   NORMALIZED FREE ENERGY PREDICTED BY IDOCK:   -2.74 KCAL/MOL
REMARK 922        TOTAL FREE ENERGY PREDICTED BY IDOCK:   -9.18 KCAL/MOL
REMARK 923 INTER-LIGAND FREE ENERGY PREDICTED BY IDOCK:   -7.36 KCAL/MOL
REMARK 924 INTRA-LIGAND FREE ENERGY PREDICTED BY IDOCK:   -1.82 KCAL/MOL
REMARK 927      BINDING AFFINITY PREDICTED BY RF-SCORE:    0.00 PKD
ROOT
HETATM    1  C   UNL     1      -6.562  10.407  67.834  1.00  0.00    -0.061 C  
HETATM    2  C   UNL     1      -7.153  11.647  68.451  1.00  0.00    -0.083 C  
HETATM    3  N   UNL     1      -6.642  12.849  68.035  1.00  0.00    -0.091 N  
HETATM    4  O   UNL     1      -8.029  11.556  69.312  1.00  0.00     0.028 OA 
HETATM    5  O   UNL     1      -5.756  12.999  66.955  1.00  0.00    -0.298 OA 
ENDROOT
BRANCH   3   6
HETATM    6  C   UNL     1      -7.097  14.134  68.548  1.00  0.00    -0.103 C  
BRANCH   6   7
HETATM    7  C   UNL     1      -6.941  15.259  67.524  1.00  0.00    -0.225 C  
BRANCH   7   8
HETATM    8  C   UNL     1      -8.252  16.032  67.374  1.00  0.00    -0.189 C  
BRANCH   8   9
HETATM    9  C   UNL     1      -8.960  15.716  66.055  1.00  0.00    -0.297 C  
BRANCH   9  10
HETATM   10  C   UNL     1     -10.138  14.759  66.243  1.00  0.00    -0.285 C  
BRANCH  10  11
HETATM   11  N   UNL     1      -9.854  13.423  65.741  1.00  0.00    -0.428 N  
HETATM   12  C   UNL     1     -10.577  12.886  64.700  1.00  0.00    -0.363 C  
HETATM   13  H   UNL     1      -9.107  12.876  66.168  1.00  0.00     0.000 HD 
HETATM   14  O   UNL     1     -11.466  13.486  64.101  1.00  0.00    -0.384 OA 
BRANCH  12  15
HETATM   15  C   UNL     1     -10.159  11.474  64.348  1.00  0.00    -0.328 C  
BRANCH  15  16
HETATM   16  C   UNL     1      -9.140  10.951  65.359  1.00  0.00    -0.218 C  
BRANCH  16  17
HETATM   17  C   UNL     1      -9.426   9.523  65.782  1.00  0.00    -0.250 C  
HETATM   18  O   UNL     1      -8.902   8.572  65.205  1.00  0.00    -0.172 OA 
HETATM   19  N   UNL     1     -10.318   9.365  66.811  1.00  0.00    -0.248 N  
HETATM   20  O   UNL     1     -10.865  10.419  67.565  1.00  0.00    -0.270 OA 
BRANCH  19  21
HETATM   21  C   UNL     1     -10.764   8.068  67.298  1.00  0.00    -0.210 C  
BRANCH  21  22
HETATM   22  C   UNL     1      -9.974   7.599  68.523  1.00  0.00    -0.190 C  
BRANCH  22  23
HETATM   23  C   UNL     1     -10.805   7.625  69.820  1.00  0.00    -0.222 C  
BRANCH  23  24
HETATM   24  C   UNL     1     -10.591   6.394  70.700  1.00  0.00    -0.288 C  
BRANCH  24  25
HETATM   25  C   UNL     1      -9.114   6.196  71.038  1.00  0.00    -0.147 C  
BRANCH  25  26
HETATM   26  N   UNL     1      -8.526   5.126  70.258  1.00  0.00    -0.100 N  
HETATM   27  H   UNL     1      -8.060   5.352  69.379  1.00  0.00     0.000 HD 
HETATM   28  C   UNL     1      -8.577   3.815  70.670  1.00  0.00    -0.071 C  
HETATM   29  O   UNL     1      -9.098   3.455  71.721  1.00  0.00    -0.100 OA 
BRANCH  28  30
HETATM   30  C   UNL     1      -7.944   2.833  69.718  1.00  0.00    -0.053 C  
BRANCH  30  31
HETATM   31  C   UNL     1      -8.917   2.510  68.596  1.00  0.00    -0.177 C  
BRANCH  31  32
HETATM   32  C   UNL     1      -9.072   3.689  67.659  1.00  0.00    -0.157 C  
HETATM   33  N   UNL     1      -8.077   3.932  66.744  1.00  0.00    -0.096 N  
HETATM   34  O   UNL     1     -10.114   4.348  67.683  1.00  0.00    -0.099 OA 
HETATM   35  O   UNL     1      -6.770   3.476  66.999  1.00  0.00    -0.047 OA 
BRANCH  33  36
HETATM   36  C   UNL     1      -8.100   5.088  65.845  1.00  0.00    -0.108 C  
BRANCH  36  37
HETATM   37  C   UNL     1      -8.419   4.691  64.402  1.00  0.00    -0.130 C  
BRANCH  37  38
HETATM   38  C   UNL     1      -8.293   3.180  64.178  1.00  0.00    -0.089 C  
BRANCH  38  39
HETATM   39  C   UNL     1      -9.636   2.467  64.361  1.00  0.00    -0.118 C  
BRANCH  39  40
HETATM   40  C   UNL     1     -10.471   2.447  63.080  1.00  0.00    -0.173 C  
HETATM   41  N   UNL     1     -11.735   1.743  63.269  1.00  0.00    -0.519 NA 
HETATM   42  H2  UNL     1     -12.262   2.130  64.051  1.00  0.00     0.000 HD 
HETATM   43  H1  UNL     1     -12.292   1.730  62.415  1.00  0.00     0.000 HD 
ENDBRANCH  39  40
ENDBRANCH  38  39
ENDBRANCH  37  38
ENDBRANCH  36  37
ENDBRANCH  33  36
ENDBRANCH  31  32
ENDBRANCH  30  31
ENDBRANCH  28  30
ENDBRANCH  25  26
ENDBRANCH  24  25
ENDBRANCH  23  24
ENDBRANCH  22  23
ENDBRANCH  21  22
ENDBRANCH  19  21
ENDBRANCH  16  17
ENDBRANCH  15  16
ENDBRANCH  12  15
ENDBRANCH  10  11
ENDBRANCH   9  10
ENDBRANCH   8   9
ENDBRANCH   7   8
ENDBRANCH   6   7
ENDBRANCH   3   6
TORSDOF 23
ENDMDL
MODEL      307
REMARK 921   NORMALIZED FREE ENERGY PREDICTED BY IDOCK:   -2.72 KCAL/MOL
REMARK 922        TOTAL FREE ENERGY PREDICTED BY IDOCK:   -9.14 KCAL/MOL
REMARK 923 INTER-LIGAND FREE ENERGY PREDICTED BY IDOCK:   -7.64 KCAL/MOL
REMARK 924 INTRA-LIGAND FREE ENERGY PREDICTED BY IDOCK:   -1.49 KCAL/MOL
REMARK 927      BINDING AFFINITY PREDICTED BY RF-SCORE:    0.00 PKD
ROOT
HETATM    1  C   UNL     1      -7.675   3.866  66.814  1.00  0.00    -0.088 C  
HETATM    2  C   UNL     1      -7.568   4.742  68.035  1.00  0.00    -0.082 C  
HETATM    3  N   UNL     1      -7.975   4.198  69.225  1.00  0.00    -0.056 N  
HETATM    4  O   UNL     1      -7.161   5.900  67.935  1.00  0.00    -0.067 OA 
HETATM    5  O   UNL     1      -8.299   2.842  69.403  1.00  0.00    -0.057 OA 
ENDROOT
BRANCH   3   6
HETATM    6  C   UNL     1      -7.947   4.921  70.489  1.00  0.00    -0.077 C  
BRANCH   6   7
HETATM    7  C   UNL     1      -9.278   5.613  70.794  1.00  0.00    -0.175 C  
BRANCH   7   8
HETATM    8  C   UNL     1     -10.002   4.898  71.936  1.00  0.00    -0.250 C  
BRANCH   8   9
HETATM    9  C   UNL     1      -9.700   5.532  73.295  1.00  0.00    -0.160 C  
BRANCH   9  10
HETATM   10  C   UNL     1     -10.799   6.497  73.742  1.00  0.00    -0.052 C  
BRANCH  10  11
HETATM   11  N   UNL     1     -10.735   7.773  73.046  1.00  0.00    -0.382 N  
HETATM   12  C   UNL     1     -11.676   8.117  72.101  1.00  0.00    -0.359 C  
HETATM   13  H   UNL     1      -9.980   8.424  73.261  1.00  0.00     0.000 HD 
HETATM   14  O   UNL     1     -12.639   7.415  71.807  1.00  0.00    -0.320 OA 
BRANCH  12  15
HETATM   15  C   UNL     1     -11.416   9.465  71.463  1.00  0.00    -0.467 C  
BRANCH  15  16
HETATM   16  C   UNL     1     -12.637  10.370  71.610  1.00  0.00    -0.521 C  
BRANCH  16  17
HETATM   17  C   UNL     1     -12.492  11.667  70.837  1.00  0.00    -0.341 C  
HETATM   18  O   UNL     1     -11.968  11.689  69.725  1.00  0.00    -0.308 OA 
HETATM   19  N   UNL     1     -12.946  12.798  71.465  1.00  0.00    -0.350 N  
HETATM   20  O   UNL     1     -13.638  12.811  72.688  1.00  0.00    -0.462 OA 
BRANCH  19  21
HETATM   21  C   UNL     1     -12.820  14.136  70.904  1.00  0.00    -0.334 C  
BRANCH  21  22
HETATM   22  C   UNL     1     -11.364  14.603  70.826  1.00  0.00    -0.161 C  
BRANCH  22  23
HETATM   23  C   UNL     1     -11.206  16.116  71.066  1.00  0.00    -0.297 C  
BRANCH  23  24
HETATM   24  C   UNL     1     -10.306  16.801  70.037  1.00  0.00     0.163 C  
BRANCH  24  25
HETATM   25  C   UNL     1      -9.948  15.858  68.890  1.00  0.00    -0.225 C  
BRANCH  25  26
HETATM   26  N   UNL     1      -9.525  16.587  67.710  1.00  0.00    -0.221 N  
HETATM   27  H   UNL     1      -8.540  16.572  67.445  1.00  0.00     0.000 HD 
HETATM   28  C   UNL     1     -10.414  17.298  66.940  1.00  0.00    -0.272 C  
HETATM   29  O   UNL     1     -11.618  17.355  67.173  1.00  0.00     0.674 OA 
BRANCH  28  30
HETATM   30  C   UNL     1      -9.794  18.022  65.772  1.00  0.00     0.110 C  
BRANCH  30  31
HETATM   31  C   UNL     1      -9.098  19.281  66.264  1.00  0.00    -0.354 C  
BRANCH  31  32
HETATM   32  C   UNL     1      -7.624  19.027  66.500  1.00  0.00    -0.251 C  
HETATM   33  N   UNL     1      -7.127  19.191  67.770  1.00  0.00    -0.229 N  
HETATM   34  O   UNL     1      -6.928  18.604  65.574  1.00  0.00    -0.451 OA 
HETATM   35  O   UNL     1      -7.787  20.048  68.671  1.00  0.00    -0.224 OA 
BRANCH  33  36
HETATM   36  C   UNL     1      -5.704  19.041  68.083  1.00  0.00    -0.204 C  
BRANCH  36  37
HETATM   37  C   UNL     1      -5.477  18.244  69.369  1.00  0.00    -0.204 C  
BRANCH  37  38
HETATM   38  C   UNL     1      -6.546  17.164  69.574  1.00  0.00    -0.181 C  
BRANCH  38  39
HETATM   39  C   UNL     1      -6.075  15.798  69.067  1.00  0.00    -0.116 C  
BRANCH  39  40
HETATM   40  C   UNL     1      -6.103  14.725  70.156  1.00  0.00    -0.156 C  
HETATM   41  N   UNL     1      -5.206  15.050  71.260  1.00  0.00    -0.138 NA 
HETATM   42  H2  UNL     1      -5.407  15.973  71.643  1.00  0.00     0.000 HD 
HETATM   43  H1  UNL     1      -5.224  14.334  71.986  1.00  0.00     0.000 HD 
ENDBRANCH  39  40
ENDBRANCH  38  39
ENDBRANCH  37  38
ENDBRANCH  36  37
ENDBRANCH  33  36
ENDBRANCH  31  32
ENDBRANCH  30  31
ENDBRANCH  28  30
ENDBRANCH  25  26
ENDBRANCH  24  25
ENDBRANCH  23  24
ENDBRANCH  22  23
ENDBRANCH  21  22
ENDBRANCH  19  21
ENDBRANCH  16  17
ENDBRANCH  15  16
ENDBRANCH  12  15
ENDBRANCH  10  11
ENDBRANCH   9  10
ENDBRANCH   8   9
ENDBRANCH   7   8
ENDBRANCH   6   7
ENDBRANCH   3   6
TORSDOF 23
ENDMDL
MODEL      308
REMARK 921   NORMALIZED FREE ENERGY PREDICTED BY IDOCK:   -2.72 KCAL/MOL
REMARK 922        TOTAL FREE ENERGY PREDICTED BY IDOCK:   -9.13 KCAL/MOL
REMARK 923 INTER-LIGAND FREE ENERGY PREDICTED BY IDOCK:   -8.01 KCAL/MOL
REMARK 924 INTRA-LIGAND FREE ENERGY PREDICTED BY IDOCK:   -1.12 KCAL/MOL
REMARK 927      BINDING AFFINITY PREDICTED BY RF-SCORE:    0.00 PKD
ROOT
HETATM    1  C   UNL     1      -6.810   6.850  73.533  1.00  0.00    -0.074 C  
HETATM    2  C   UNL     1      -8.281   7.170  73.468  1.00  0.00    -0.114 C  
HETATM    3  N   UNL     1      -9.069   6.311  72.748  1.00  0.00    -0.132 N  
HETATM    4  O   UNL     1      -8.722   8.179  74.018  1.00  0.00    -0.258 OA 
HETATM    5  O   UNL     1      -8.632   5.077  72.238  1.00  0.00    -0.122 OA 
ENDROOT
BRANCH   3   6
HETATM    6  C   UNL     1     -10.504   6.491  72.577  1.00  0.00    -0.205 C  
BRANCH   6   7
HETATM    7  C   UNL     1     -10.995   6.010  71.210  1.00  0.00    -0.340 C  
BRANCH   7   8
HETATM    8  C   UNL     1     -10.502   6.947  70.106  1.00  0.00    -0.233 C  
BRANCH   8   9
HETATM    9  C   UNL     1     -11.519   8.045  69.786  1.00  0.00     0.236 C  
BRANCH   9  10
HETATM   10  C   UNL     1     -11.544   9.140  70.853  1.00  0.00    -0.291 C  
BRANCH  10  11
HETATM   11  N   UNL     1     -11.955  10.429  70.316  1.00  0.00    -0.303 N  
HETATM   12  C   UNL     1     -11.177  11.098  69.397  1.00  0.00    -0.270 C  
HETATM   13  H   UNL     1     -12.833  10.844  70.625  1.00  0.00     0.000 HD 
HETATM   14  O   UNL     1     -10.126  10.657  68.939  1.00  0.00    -0.184 OA 
BRANCH  12  15
HETATM   15  C   UNL     1     -11.754  12.437  68.989  1.00  0.00    -0.372 C  
BRANCH  15  16
HETATM   16  C   UNL     1     -10.654  13.493  68.918  1.00  0.00    -0.188 C  
BRANCH  16  17
HETATM   17  C   UNL     1     -11.026  14.656  68.019  1.00  0.00    -0.267 C  
HETATM   18  O   UNL     1     -12.077  15.273  68.180  1.00  0.00    -0.176 OA 
HETATM   19  N   UNL     1     -10.144  14.947  67.010  1.00  0.00    -0.242 N  
HETATM   20  O   UNL     1      -8.888  14.337  66.846  1.00  0.00    -0.228 OA 
BRANCH  19  21
HETATM   21  C   UNL     1     -10.375  15.980  66.011  1.00  0.00    -0.351 C  
BRANCH  21  22
HETATM   22  C   UNL     1     -11.197  15.472  64.824  1.00  0.00    -0.399 C  
BRANCH  22  23
HETATM   23  C   UNL     1     -10.790  14.056  64.374  1.00  0.00    -0.265 C  
BRANCH  23  24
HETATM   24  C   UNL     1     -11.959  13.237  63.825  1.00  0.00    -0.551 C  
BRANCH  24  25
HETATM   25  C   UNL     1     -11.753  11.741  64.053  1.00  0.00    -0.327 C  
BRANCH  25  26
HETATM   26  N   UNL     1     -10.682  11.217  63.230  1.00  0.00    -0.769 N  
HETATM   27  H   UNL     1     -10.664  11.445  62.236  1.00  0.00     0.000 HD 
HETATM   28  C   UNL     1      -9.690  10.421  63.750  1.00  0.00    -0.290 C  
HETATM   29  O   UNL     1      -9.621  10.112  64.936  1.00  0.00    -0.261 OA 
BRANCH  28  30
HETATM   30  C   UNL     1      -8.678   9.939  62.742  1.00  0.00    -0.215 C  
BRANCH  30  31
HETATM   31  C   UNL     1      -7.280  10.322  63.200  1.00  0.00    -0.112 C  
BRANCH  31  32
HETATM   32  C   UNL     1      -6.647   9.202  64.000  1.00  0.00    -0.089 C  
HETATM   33  N   UNL     1      -6.454   9.389  65.347  1.00  0.00    -0.068 N  
HETATM   34  O   UNL     1      -6.398   8.129  63.445  1.00  0.00    -0.071 OA 
HETATM   35  O   UNL     1      -6.338  10.695  65.860  1.00  0.00    -0.118 OA 
BRANCH  33  36
HETATM   36  C   UNL     1      -5.785   8.396  66.190  1.00  0.00    -0.043 C  
BRANCH  36  37
HETATM   37  C   UNL     1      -6.773   7.411  66.817  1.00  0.00    -0.064 C  
BRANCH  37  38
HETATM   38  C   UNL     1      -7.637   8.070  67.898  1.00  0.00    -0.112 C  
BRANCH  38  39
HETATM   39  C   UNL     1      -6.809   8.454  69.128  1.00  0.00    -0.055 C  
BRANCH  39  40
HETATM   40  C   UNL     1      -5.787   9.552  68.829  1.00  0.00    -0.039 C  
HETATM   41  N   UNL     1      -5.572  10.419  69.983  1.00  0.00    -0.046 NA 
HETATM   42  H2  UNL     1      -5.310   9.881  70.808  1.00  0.00     0.000 HD 
HETATM   43  H1  UNL     1      -4.890  11.151  69.784  1.00  0.00     0.000 HD 
ENDBRANCH  39  40
ENDBRANCH  38  39
ENDBRANCH  37  38
ENDBRANCH  36  37
ENDBRANCH  33  36
ENDBRANCH  31  32
ENDBRANCH  30  31
ENDBRANCH  28  30
ENDBRANCH  25  26
ENDBRANCH  24  25
ENDBRANCH  23  24
ENDBRANCH  22  23
ENDBRANCH  21  22
ENDBRANCH  19  21
ENDBRANCH  16  17
ENDBRANCH  15  16
ENDBRANCH  12  15
ENDBRANCH  10  11
ENDBRANCH   9  10
ENDBRANCH   8   9
ENDBRANCH   7   8
ENDBRANCH   6   7
ENDBRANCH   3   6
TORSDOF 23
ENDMDL
MODEL      309
REMARK 921   NORMALIZED FREE ENERGY PREDICTED BY IDOCK:   -2.71 KCAL/MOL
REMARK 922        TOTAL FREE ENERGY PREDICTED BY IDOCK:   -9.10 KCAL/MOL
REMARK 923 INTER-LIGAND FREE ENERGY PREDICTED BY IDOCK:   -7.14 KCAL/MOL
REMARK 924 INTRA-LIGAND FREE ENERGY PREDICTED BY IDOCK:   -1.96 KCAL/MOL
REMARK 927      BINDING AFFINITY PREDICTED BY RF-SCORE:    0.00 PKD
ROOT
HETATM    1  C   UNL     1      -7.853   7.316  66.782  1.00  0.00    -0.113 C  
HETATM    2  C   UNL     1      -7.810   6.084  67.648  1.00  0.00    -0.101 C  
HETATM    3  N   UNL     1      -7.270   4.955  67.091  1.00  0.00    -0.076 N  
HETATM    4  O   UNL     1      -8.276   6.110  68.788  1.00  0.00    -0.106 OA 
HETATM    5  O   UNL     1      -6.597   4.926  65.858  1.00  0.00    -0.042 OA 
ENDROOT
BRANCH   3   6
HETATM    6  C   UNL     1      -7.172   3.682  67.793  1.00  0.00    -0.059 C  
BRANCH   6   7
HETATM    7  C   UNL     1      -8.243   2.685  67.346  1.00  0.00    -0.083 C  
BRANCH   7   8
HETATM    8  C   UNL     1      -9.496   2.822  68.214  1.00  0.00    -0.216 C  
BRANCH   8   9
HETATM    9  C   UNL     1      -9.757   1.567  69.049  1.00  0.00    -0.064 C  
BRANCH   9  10
HETATM   10  C   UNL     1      -9.292   1.727  70.497  1.00  0.00    -0.106 C  
BRANCH  10  11
HETATM   11  N   UNL     1      -9.245   3.120  70.916  1.00  0.00    -0.119 N  
HETATM   12  C   UNL     1      -8.372   3.541  71.893  1.00  0.00    -0.074 C  
HETATM   13  H   UNL     1      -9.871   3.796  70.477  1.00  0.00     0.000 HD 
HETATM   14  O   UNL     1      -7.558   2.807  72.447  1.00  0.00    -0.050 OA 
BRANCH  12  15
HETATM   15  C   UNL     1      -8.502   5.015  72.215  1.00  0.00    -0.124 C  
BRANCH  15  16
HETATM   16  C   UNL     1      -9.480   5.227  73.367  1.00  0.00    -0.141 C  
BRANCH  16  17
HETATM   17  C   UNL     1     -10.639   6.127  72.984  1.00  0.00    -0.241 C  
HETATM   18  O   UNL     1     -11.721   5.657  72.639  1.00  0.00    -0.303 OA 
HETATM   19  N   UNL     1     -10.393   7.475  73.017  1.00  0.00    -0.289 N  
HETATM   20  O   UNL     1      -9.209   8.061  73.497  1.00  0.00    -0.272 OA 
BRANCH  19  21
HETATM   21  C   UNL     1     -11.364   8.481  72.611  1.00  0.00    -0.178 C  
BRANCH  21  22
HETATM   22  C   UNL     1     -11.601   8.488  71.098  1.00  0.00    -0.325 C  
BRANCH  22  23
HETATM   23  C   UNL     1     -10.293   8.492  70.286  1.00  0.00    -0.218 C  
BRANCH  23  24
HETATM   24  C   UNL     1     -10.371   9.343  69.018  1.00  0.00    -0.224 C  
BRANCH  24  25
HETATM   25  C   UNL     1      -9.552  10.625  69.151  1.00  0.00    -0.177 C  
BRANCH  25  26
HETATM   26  N   UNL     1      -9.689  11.472  67.983  1.00  0.00    -0.180 N  
HETATM   27  H   UNL     1      -9.184  11.226  67.131  1.00  0.00     0.000 HD 
HETATM   28  C   UNL     1     -10.479  12.596  67.991  1.00  0.00    -0.224 C  
HETATM   29  O   UNL     1     -11.136  12.956  68.963  1.00  0.00    -0.251 OA 
BRANCH  28  30
HETATM   30  C   UNL     1     -10.476  13.375  66.700  1.00  0.00    -0.280 C  
BRANCH  30  31
HETATM   31  C   UNL     1      -9.058  13.815  66.374  1.00  0.00    -0.083 C  
BRANCH  31  32
HETATM   32  C   UNL     1      -8.927  15.322  66.457  1.00  0.00    -0.305 C  
HETATM   33  N   UNL     1      -7.668  15.871  66.429  1.00  0.00    -0.071 N  
HETATM   34  O   UNL     1      -9.945  16.017  66.465  1.00  0.00    -0.254 OA 
HETATM   35  O   UNL     1      -6.563  15.102  66.842  1.00  0.00    -0.122 OA 
BRANCH  33  36
HETATM   36  C   UNL     1      -7.434  17.309  66.577  1.00  0.00    -0.280 C  
BRANCH  36  37
HETATM   37  C   UNL     1      -7.326  17.728  68.045  1.00  0.00    -0.220 C  
BRANCH  37  38
HETATM   38  C   UNL     1      -7.154  19.243  68.201  1.00  0.00    -0.299 C  
BRANCH  38  39
HETATM   39  C   UNL     1      -5.712  19.614  68.563  1.00  0.00    -0.234 C  
BRANCH  39  40
HETATM   40  C   UNL     1      -5.629  20.518  69.794  1.00  0.00    -0.349 C  
HETATM   41  N   UNL     1      -6.577  20.114  70.827  1.00  0.00    -0.285 NA 
HETATM   42  H2  UNL     1      -6.457  19.133  71.078  1.00  0.00     0.000 HD 
HETATM   43  H1  UNL     1      -6.522  20.717  71.648  1.00  0.00     0.000 HD 
ENDBRANCH  39  40
ENDBRANCH  38  39
ENDBRANCH  37  38
ENDBRANCH  36  37
ENDBRANCH  33  36
ENDBRANCH  31  32
ENDBRANCH  30  31
ENDBRANCH  28  30
ENDBRANCH  25  26
ENDBRANCH  24  25
ENDBRANCH  23  24
ENDBRANCH  22  23
ENDBRANCH  21  22
ENDBRANCH  19  21
ENDBRANCH  16  17
ENDBRANCH  15  16
ENDBRANCH  12  15
ENDBRANCH  10  11
ENDBRANCH   9  10
ENDBRANCH   8   9
ENDBRANCH   7   8
ENDBRANCH   6   7
ENDBRANCH   3   6
TORSDOF 23
ENDMDL
MODEL      310
REMARK 921   NORMALIZED FREE ENERGY PREDICTED BY IDOCK:   -2.69 KCAL/MOL
REMARK 922        TOTAL FREE ENERGY PREDICTED BY IDOCK:   -9.05 KCAL/MOL
REMARK 923 INTER-LIGAND FREE ENERGY PREDICTED BY IDOCK:   -6.37 KCAL/MOL
REMARK 924 INTRA-LIGAND FREE ENERGY PREDICTED BY IDOCK:   -2.68 KCAL/MOL
REMARK 927      BINDING AFFINITY PREDICTED BY RF-SCORE:    0.00 PKD
ROOT
HETATM    1  C   UNL     1      -9.125   9.492  65.346  1.00  0.00    -0.273 C  
HETATM    2  C   UNL     1      -9.763   8.690  66.450  1.00  0.00    -0.263 C  
HETATM    3  N   UNL     1      -9.682   7.325  66.350  1.00  0.00    -0.129 N  
HETATM    4  O   UNL     1     -10.351   9.258  67.371  1.00  0.00    -0.228 OA 
HETATM    5  O   UNL     1      -8.896   6.648  65.403  1.00  0.00    -0.060 OA 
ENDROOT
BRANCH   3   6
HETATM    6  C   UNL     1     -10.261   6.414  67.327  1.00  0.00    -0.187 C  
BRANCH   6   7
HETATM    7  C   UNL     1      -9.395   5.173  67.552  1.00  0.00    -0.131 C  
BRANCH   7   8
HETATM    8  C   UNL     1      -8.523   5.348  68.796  1.00  0.00    -0.096 C  
BRANCH   8   9
HETATM    9  C   UNL     1      -7.055   5.593  68.440  1.00  0.00    -0.070 C  
BRANCH   9  10
HETATM   10  C   UNL     1      -6.121   4.580  69.102  1.00  0.00    -0.026 C  
BRANCH  10  11
HETATM   11  N   UNL     1      -6.448   4.355  70.502  1.00  0.00    -0.033 N  
HETATM   12  C   UNL     1      -6.051   5.242  71.478  1.00  0.00    -0.029 C  
HETATM   13  H   UNL     1      -6.981   3.526  70.765  1.00  0.00     0.000 HD 
HETATM   14  O   UNL     1      -5.442   6.283  71.250  1.00  0.00    -0.021 OA 
BRANCH  12  15
HETATM   15  C   UNL     1      -6.452   4.813  72.873  1.00  0.00    -0.047 C  
BRANCH  15  16
HETATM   16  C   UNL     1      -7.459   3.667  72.811  1.00  0.00    -0.060 C  
BRANCH  16  17
HETATM   17  C   UNL     1      -8.851   4.139  72.440  1.00  0.00    -0.107 C  
HETATM   18  O   UNL     1      -9.401   3.750  71.411  1.00  0.00    -0.117 OA 
HETATM   19  N   UNL     1      -9.433   5.038  73.296  1.00  0.00    -0.133 N  
HETATM   20  O   UNL     1      -8.888   5.436  74.529  1.00  0.00    -0.116 OA 
BRANCH  19  21
HETATM   21  C   UNL     1     -10.731   5.652  73.059  1.00  0.00    -0.255 C  
BRANCH  21  22
HETATM   22  C   UNL     1     -10.633   7.164  72.841  1.00  0.00    -0.317 C  
BRANCH  22  23
HETATM   23  C   UNL     1     -11.245   7.619  71.502  1.00  0.00    -0.277 C  
BRANCH  23  24
HETATM   24  C   UNL     1     -10.510   8.803  70.873  1.00  0.00    -0.278 C  
BRANCH  24  25
HETATM   25  C   UNL     1      -9.002   8.570  70.832  1.00  0.00    -0.172 C  
BRANCH  25  26
HETATM   26  N   UNL     1      -8.404   9.141  69.642  1.00  0.00    -0.121 N  
HETATM   27  H   UNL     1      -8.772   8.878  68.728  1.00  0.00     0.000 HD 
HETATM   28  C   UNL     1      -7.354  10.025  69.711  1.00  0.00    -0.141 C  
HETATM   29  O   UNL     1      -6.861  10.412  70.766  1.00  0.00    -0.337 OA 
BRANCH  28  30
HETATM   30  C   UNL     1      -6.837  10.491  68.374  1.00  0.00    -0.064 C  
BRANCH  30  31
HETATM   31  C   UNL     1      -6.566  11.986  68.424  1.00  0.00    -0.058 C  
BRANCH  31  32
HETATM   32  C   UNL     1      -7.775  12.770  67.958  1.00  0.00    -0.137 C  
HETATM   33  N   UNL     1      -7.596  14.073  67.562  1.00  0.00    -0.178 N  
HETATM   34  O   UNL     1      -8.866  12.202  67.868  1.00  0.00    -0.161 OA 
HETATM   35  O   UNL     1      -6.500  14.807  68.054  1.00  0.00    -0.123 OA 
BRANCH  33  36
HETATM   36  C   UNL     1      -8.712  14.935  67.164  1.00  0.00    -0.219 C  
BRANCH  36  37
HETATM   37  C   UNL     1      -9.152  15.866  68.295  1.00  0.00    -0.185 C  
BRANCH  37  38
HETATM   38  C   UNL     1      -9.988  15.136  69.351  1.00  0.00    -0.232 C  
BRANCH  38  39
HETATM   39  C   UNL     1     -11.320  14.643  68.777  1.00  0.00    -0.302 C  
BRANCH  39  40
HETATM   40  C   UNL     1     -12.406  14.505  69.845  1.00  0.00    -0.298 C  
HETATM   41  N   UNL     1     -12.346  15.589  70.820  1.00  0.00    -0.385 NA 
HETATM   42  H2  UNL     1     -12.386  16.501  70.365  1.00  0.00     0.000 HD 
HETATM   43  H1  UNL     1     -13.071  15.497  71.532  1.00  0.00     0.000 HD 
ENDBRANCH  39  40
ENDBRANCH  38  39
ENDBRANCH  37  38
ENDBRANCH  36  37
ENDBRANCH  33  36
ENDBRANCH  31  32
ENDBRANCH  30  31
ENDBRANCH  28  30
ENDBRANCH  25  26
ENDBRANCH  24  25
ENDBRANCH  23  24
ENDBRANCH  22  23
ENDBRANCH  21  22
ENDBRANCH  19  21
ENDBRANCH  16  17
ENDBRANCH  15  16
ENDBRANCH  12  15
ENDBRANCH  10  11
ENDBRANCH   9  10
ENDBRANCH   8   9
ENDBRANCH   7   8
ENDBRANCH   6   7
ENDBRANCH   3   6
TORSDOF 23
ENDMDL
MODEL      311
REMARK 921   NORMALIZED FREE ENERGY PREDICTED BY IDOCK:   -2.65 KCAL/MOL
REMARK 922        TOTAL FREE ENERGY PREDICTED BY IDOCK:   -8.97 KCAL/MOL
REMARK 923 INTER-LIGAND FREE ENERGY PREDICTED BY IDOCK:   -7.65 KCAL/MOL
REMARK 924 INTRA-LIGAND FREE ENERGY PREDICTED BY IDOCK:   -1.32 KCAL/MOL
REMARK 927      BINDING AFFINITY PREDICTED BY RF-SCORE:    0.00 PKD
ROOT
HETATM    1  C   UNL     1      -7.302  16.235  68.519  1.00  0.00    -0.169 C  
HETATM    2  C   UNL     1      -7.620  14.931  67.836  1.00  0.00    -0.136 C  
HETATM    3  N   UNL     1      -6.717  13.913  67.994  1.00  0.00    -0.125 N  
HETATM    4  O   UNL     1      -8.636  14.822  67.148  1.00  0.00    -0.200 OA 
HETATM    5  O   UNL     1      -5.633  13.951  68.888  1.00  0.00    -0.079 OA 
ENDROOT
BRANCH   3   6
HETATM    6  C   UNL     1      -6.874  12.599  67.386  1.00  0.00    -0.140 C  
BRANCH   6   7
HETATM    7  C   UNL     1      -8.198  12.461  66.631  1.00  0.00     0.054 C  
BRANCH   7   8
HETATM    8  C   UNL     1      -8.699  11.016  66.692  1.00  0.00    -0.160 C  
BRANCH   8   9
HETATM    9  C   UNL     1     -10.058  10.850  66.010  1.00  0.00    -0.303 C  
BRANCH   9  10
HETATM   10  C   UNL     1     -10.865  12.149  65.999  1.00  0.00    -0.282 C  
BRANCH  10  11
HETATM   11  N   UNL     1     -11.595  12.359  67.240  1.00  0.00    -0.352 N  
HETATM   12  C   UNL     1     -12.036  13.612  67.604  1.00  0.00    -0.351 C  
HETATM   13  H   UNL     1     -11.785  11.564  67.851  1.00  0.00     0.000 HD 
HETATM   14  O   UNL     1     -11.888  14.617  66.914  1.00  0.00    -0.381 OA 
BRANCH  12  15
HETATM   15  C   UNL     1     -12.740  13.632  68.943  1.00  0.00     0.802 C  
BRANCH  15  16
HETATM   16  C   UNL     1     -11.761  13.301  70.067  1.00  0.00    -0.295 C  
BRANCH  16  17
HETATM   17  C   UNL     1     -11.918  11.879  70.571  1.00  0.00    -0.267 C  
HETATM   18  O   UNL     1     -11.305  10.949  70.050  1.00  0.00    -0.288 OA 
HETATM   19  N   UNL     1     -12.798  11.698  71.607  1.00  0.00    -0.383 N  
HETATM   20  O   UNL     1     -13.444  12.738  72.298  1.00  0.00    -0.565 OA 
BRANCH  19  21
HETATM   21  C   UNL     1     -13.127  10.396  72.166  1.00  0.00    -0.324 C  
BRANCH  21  22
HETATM   22  C   UNL     1     -13.094   9.283  71.115  1.00  0.00    -0.251 C  
BRANCH  22  23
HETATM   23  C   UNL     1     -12.142   8.131  71.490  1.00  0.00    -0.332 C  
BRANCH  23  24
HETATM   24  C   UNL     1     -12.022   7.066  70.399  1.00  0.00    -0.256 C  
BRANCH  24  25
HETATM   25  C   UNL     1     -10.586   6.568  70.257  1.00  0.00    -0.228 C  
BRANCH  25  26
HETATM   26  N   UNL     1      -9.637   7.663  70.251  1.00  0.00    -0.172 N  
HETATM   27  H   UNL     1      -9.832   8.484  69.678  1.00  0.00     0.000 HD 
HETATM   28  C   UNL     1      -8.482   7.627  70.996  1.00  0.00    -0.116 C  
HETATM   29  O   UNL     1      -8.177   6.690  71.728  1.00  0.00    -0.110 OA 
BRANCH  28  30
HETATM   30  C   UNL     1      -7.598   8.837  70.842  1.00  0.00    -0.109 C  
BRANCH  30  31
HETATM   31  C   UNL     1      -7.380   9.124  69.365  1.00  0.00    -0.076 C  
BRANCH  31  32
HETATM   32  C   UNL     1      -6.704   7.955  68.681  1.00  0.00    -0.058 C  
HETATM   33  N   UNL     1      -7.307   7.406  67.575  1.00  0.00    -0.099 N  
HETATM   34  O   UNL     1      -5.599   7.579  69.078  1.00  0.00    -0.021 OA 
HETATM   35  O   UNL     1      -8.698   7.541  67.402  1.00  0.00    -0.124 OA 
BRANCH  33  36
HETATM   36  C   UNL     1      -6.770   6.229  66.889  1.00  0.00    -0.061 C  
BRANCH  36  37
HETATM   37  C   UNL     1      -7.627   4.983  67.125  1.00  0.00    -0.088 C  
BRANCH  37  38
HETATM   38  C   UNL     1      -7.980   4.269  65.816  1.00  0.00    -0.095 C  
BRANCH  38  39
HETATM   39  C   UNL     1      -9.394   3.682  65.856  1.00  0.00    -0.166 C  
BRANCH  39  40
HETATM   40  C   UNL     1     -10.463   4.740  66.134  1.00  0.00    -0.290 C  
HETATM   41  N   UNL     1     -11.555   4.672  65.169  1.00  0.00    -1.055 NA 
HETATM   42  H2  UNL     1     -11.959   3.737  65.129  1.00  0.00     0.000 HD 
HETATM   43  H1  UNL     1     -12.268   5.378  65.354  1.00  0.00     0.000 HD 
ENDBRANCH  39  40
ENDBRANCH  38  39
ENDBRANCH  37  38
ENDBRANCH  36  37
ENDBRANCH  33  36
ENDBRANCH  31  32
ENDBRANCH  30  31
ENDBRANCH  28  30
ENDBRANCH  25  26
ENDBRANCH  24  25
ENDBRANCH  23  24
ENDBRANCH  22  23
ENDBRANCH  21  22
ENDBRANCH  19  21
ENDBRANCH  16  17
ENDBRANCH  15  16
ENDBRANCH  12  15
ENDBRANCH  10  11
ENDBRANCH   9  10
ENDBRANCH   8   9
ENDBRANCH   7   8
ENDBRANCH   6   7
ENDBRANCH   3   6
TORSDOF 23
ENDMDL
MODEL      312
REMARK 921   NORMALIZED FREE ENERGY PREDICTED BY IDOCK:   -2.64 KCAL/MOL
REMARK 922        TOTAL FREE ENERGY PREDICTED BY IDOCK:   -8.95 KCAL/MOL
REMARK 923 INTER-LIGAND FREE ENERGY PREDICTED BY IDOCK:   -7.28 KCAL/MOL
REMARK 924 INTRA-LIGAND FREE ENERGY PREDICTED BY IDOCK:   -1.67 KCAL/MOL
REMARK 927      BINDING AFFINITY PREDICTED BY RF-SCORE:    0.00 PKD
ROOT
HETATM    1  C   UNL     1     -11.568  12.291  64.433  1.00  0.00    -0.428 C  
HETATM    2  C   UNL     1     -10.234  12.377  65.129  1.00  0.00    -0.281 C  
HETATM    3  N   UNL     1      -9.438  11.263  65.078  1.00  0.00    -0.223 N  
HETATM    4  O   UNL     1      -9.915  13.400  65.735  1.00  0.00    -0.285 OA 
HETATM    5  O   UNL     1      -9.700  10.140  64.275  1.00  0.00    -0.310 OA 
ENDROOT
BRANCH   3   6
HETATM    6  C   UNL     1      -8.129  11.184  65.713  1.00  0.00     0.029 C  
BRANCH   6   7
HETATM    7  C   UNL     1      -7.204  10.182  65.020  1.00  0.00    -0.139 C  
BRANCH   7   8
HETATM    8  C   UNL     1      -6.680   9.154  66.025  1.00  0.00    -0.076 C  
BRANCH   8   9
HETATM    9  C   UNL     1      -6.306   7.831  65.354  1.00  0.00    -0.041 C  
BRANCH   9  10
HETATM   10  C   UNL     1      -7.534   6.982  65.023  1.00  0.00    -0.093 C  
BRANCH  10  11
HETATM   11  N   UNL     1      -8.713   7.394  65.770  1.00  0.00    -0.254 N  
HETATM   12  C   UNL     1      -9.387   6.509  66.582  1.00  0.00    -0.158 C  
HETATM   13  H   UNL     1      -9.045   8.355  65.691  1.00  0.00     0.000 HD 
HETATM   14  O   UNL     1      -9.036   5.347  66.768  1.00  0.00    -0.115 OA 
BRANCH  12  15
HETATM   15  C   UNL     1     -10.606   7.116  67.242  1.00  0.00    -0.398 C  
BRANCH  15  16
HETATM   16  C   UNL     1     -10.682   8.613  66.954  1.00  0.00    -0.152 C  
BRANCH  16  17
HETATM   17  C   UNL     1     -10.340   9.454  68.169  1.00  0.00    -0.211 C  
HETATM   18  O   UNL     1      -9.419   9.141  68.920  1.00  0.00    -0.149 OA 
HETATM   19  N   UNL     1     -11.135  10.549  68.389  1.00  0.00    -0.266 N  
HETATM   20  O   UNL     1     -12.133  11.002  67.508  1.00  0.00    -0.344 OA 
BRANCH  19  21
HETATM   21  C   UNL     1     -10.999  11.425  69.544  1.00  0.00    -0.166 C  
BRANCH  21  22
HETATM   22  C   UNL     1     -11.433  10.746  70.846  1.00  0.00    -0.096 C  
BRANCH  22  23
HETATM   23  C   UNL     1     -12.751   9.961  70.704  1.00  0.00    -0.227 C  
BRANCH  23  24
HETATM   24  C   UNL     1     -13.304   9.461  72.039  1.00  0.00    -0.525 C  
BRANCH  24  25
HETATM   25  C   UNL     1     -13.685   7.984  71.970  1.00  0.00    -0.261 C  
BRANCH  25  26
HETATM   26  N   UNL     1     -12.590   7.171  71.480  1.00  0.00    -0.374 N  
HETATM   27  H   UNL     1     -12.616   6.833  70.517  1.00  0.00     0.000 HD 
HETATM   28  C   UNL     1     -11.518   6.842  72.275  1.00  0.00    -0.275 C  
HETATM   29  O   UNL     1     -11.394   7.220  73.436  1.00  0.00    -0.173 OA 
BRANCH  28  30
HETATM   30  C   UNL     1     -10.490   5.962  71.610  1.00  0.00    -0.285 C  
BRANCH  30  31
HETATM   31  C   UNL     1      -9.157   6.691  71.552  1.00  0.00    -0.142 C  
BRANCH  31  32
HETATM   32  C   UNL     1      -8.028   5.790  72.006  1.00  0.00    -0.107 C  
HETATM   33  N   UNL     1      -7.444   4.958  71.082  1.00  0.00    -0.071 N  
HETATM   34  O   UNL     1      -7.608   5.883  73.161  1.00  0.00    -0.097 OA 
HETATM   35  O   UNL     1      -8.173   4.559  69.945  1.00  0.00    -0.066 OA 
BRANCH  33  36
HETATM   36  C   UNL     1      -6.396   3.999  71.438  1.00  0.00    -0.015 C  
BRANCH  36  37
HETATM   37  C   UNL     1      -6.863   3.003  72.502  1.00  0.00    -0.026 C  
BRANCH  37  38
HETATM   38  C   UNL     1      -7.880   2.000  71.947  1.00  0.00    -0.045 C  
BRANCH  38  39
HETATM   39  C   UNL     1      -9.313   2.375  72.335  1.00  0.00    -0.145 C  
BRANCH  39  40
HETATM   40  C   UNL     1      -9.367   3.395  73.474  1.00  0.00    -0.099 C  
HETATM   41  N   UNL     1     -10.661   3.384  74.149  1.00  0.00    -0.192 NA 
HETATM   42  H2  UNL     1     -10.902   2.449  74.476  1.00  0.00     0.000 HD 
HETATM   43  H1  UNL     1     -10.697   4.064  74.909  1.00  0.00     0.000 HD 
ENDBRANCH  39  40
ENDBRANCH  38  39
ENDBRANCH  37  38
ENDBRANCH  36  37
ENDBRANCH  33  36
ENDBRANCH  31  32
ENDBRANCH  30  31
ENDBRANCH  28  30
ENDBRANCH  25  26
ENDBRANCH  24  25
ENDBRANCH  23  24
ENDBRANCH  22  23
ENDBRANCH  21  22
ENDBRANCH  19  21
ENDBRANCH  16  17
ENDBRANCH  15  16
ENDBRANCH  12  15
ENDBRANCH  10  11
ENDBRANCH   9  10
ENDBRANCH   8   9
ENDBRANCH   7   8
ENDBRANCH   6   7
ENDBRANCH   3   6
TORSDOF 23
ENDMDL
MODEL      313
REMARK 921   NORMALIZED FREE ENERGY PREDICTED BY IDOCK:   -2.64 KCAL/MOL
REMARK 922        TOTAL FREE ENERGY PREDICTED BY IDOCK:   -8.94 KCAL/MOL
REMARK 923 INTER-LIGAND FREE ENERGY PREDICTED BY IDOCK:   -6.47 KCAL/MOL
REMARK 924 INTRA-LIGAND FREE ENERGY PREDICTED BY IDOCK:   -2.47 KCAL/MOL
REMARK 927      BINDING AFFINITY PREDICTED BY RF-SCORE:    0.00 PKD
ROOT
HETATM    1  C   UNL     1     -11.612  12.175  64.339  1.00  0.00    -0.422 C  
HETATM    2  C   UNL     1     -10.275  11.985  65.005  1.00  0.00    -0.276 C  
HETATM    3  N   UNL     1      -9.527  10.913  64.597  1.00  0.00    -0.230 N  
HETATM    4  O   UNL     1      -9.910  12.754  65.896  1.00  0.00    -0.263 OA 
HETATM    5  O   UNL     1      -9.839  10.108  63.488  1.00  0.00    -0.215 OA 
ENDROOT
BRANCH   3   6
HETATM    6  C   UNL     1      -8.222  10.586  65.155  1.00  0.00    -0.134 C  
BRANCH   6   7
HETATM    7  C   UNL     1      -7.328   9.849  64.156  1.00  0.00    -0.133 C  
BRANCH   7   8
HETATM    8  C   UNL     1      -6.737   8.590  64.794  1.00  0.00    -0.068 C  
BRANCH   8   9
HETATM    9  C   UNL     1      -6.630   7.435  63.797  1.00  0.00    -0.052 C  
BRANCH   9  10
HETATM   10  C   UNL     1      -7.916   6.612  63.723  1.00  0.00    -0.072 C  
BRANCH  10  11
HETATM   11  N   UNL     1      -8.779   6.824  64.875  1.00  0.00    -0.347 N  
HETATM   12  C   UNL     1      -9.244   5.765  65.622  1.00  0.00    -0.021 C  
HETATM   13  H   UNL     1      -9.044   7.774  65.134  1.00  0.00     0.000 HD 
HETATM   14  O   UNL     1      -8.945   4.593  65.409  1.00  0.00    -0.135 OA 
BRANCH  12  15
HETATM   15  C   UNL     1     -10.156   6.187  66.754  1.00  0.00    -0.234 C  
BRANCH  15  16
HETATM   16  C   UNL     1     -10.272   7.709  66.808  1.00  0.00    -0.333 C  
BRANCH  16  17
HETATM   17  C   UNL     1      -9.538   8.302  67.995  1.00  0.00    -0.153 C  
HETATM   18  O   UNL     1      -8.569   7.733  68.493  1.00  0.00    -0.128 OA 
HETATM   19  N   UNL     1     -10.038   9.480  68.488  1.00  0.00    -0.171 N  
HETATM   20  O   UNL     1     -11.078  10.217  67.895  1.00  0.00    -0.291 OA 
BRANCH  19  21
HETATM   21  C   UNL     1      -9.506  10.152  69.664  1.00  0.00    -0.200 C  
BRANCH  21  22
HETATM   22  C   UNL     1      -9.863   9.425  70.964  1.00  0.00    -0.317 C  
BRANCH  22  23
HETATM   23  C   UNL     1     -11.292   8.850  70.957  1.00  0.00    -0.350 C  
BRANCH  23  24
HETATM   24  C   UNL     1     -11.702   8.233  72.296  1.00  0.00    -0.453 C  
BRANCH  24  25
HETATM   25  C   UNL     1     -12.076   6.761  72.144  1.00  0.00    -0.252 C  
BRANCH  25  26
HETATM   26  N   UNL     1     -11.084   6.032  71.379  1.00  0.00    -0.281 N  
HETATM   27  H   UNL     1     -11.363   5.584  70.506  1.00  0.00     0.000 HD 
HETATM   28  C   UNL     1      -9.779   5.929  71.796  1.00  0.00    -0.155 C  
HETATM   29  O   UNL     1      -9.352   6.452  72.820  1.00  0.00    -0.142 OA 
BRANCH  28  30
HETATM   30  C   UNL     1      -8.895   5.106  70.894  1.00  0.00    -0.154 C  
BRANCH  30  31
HETATM   31  C   UNL     1      -9.414   3.678  70.836  1.00  0.00    -0.235 C  
BRANCH  31  32
HETATM   32  C   UNL     1      -9.195   3.079  69.463  1.00  0.00    -0.147 C  
HETATM   33  N   UNL     1      -8.131   2.229  69.282  1.00  0.00    -0.044 N  
HETATM   34  O   UNL     1     -10.016   3.299  68.570  1.00  0.00     0.134 OA 
HETATM   35  O   UNL     1      -7.013   2.323  70.133  1.00  0.00    -0.033 OA 
BRANCH  33  36
HETATM   36  C   UNL     1      -7.794   1.657  67.977  1.00  0.00    -0.057 C  
BRANCH  36  37
HETATM   37  C   UNL     1      -7.149   2.685  67.046  1.00  0.00    -0.049 C  
BRANCH  37  38
HETATM   38  C   UNL     1      -5.626   2.736  67.208  1.00  0.00    -0.018 C  
BRANCH  38  39
HETATM   39  C   UNL     1      -5.142   4.146  67.561  1.00  0.00    -0.011 C  
BRANCH  39  40
HETATM   40  C   UNL     1      -5.803   5.227  66.705  1.00  0.00    -0.018 C  
HETATM   41  N   UNL     1      -5.567   6.563  67.243  1.00  0.00    -0.012 NA 
HETATM   42  H2  UNL     1      -4.570   6.743  67.366  1.00  0.00     0.000 HD 
HETATM   43  H1  UNL     1      -6.007   7.284  66.671  1.00  0.00     0.000 HD 
ENDBRANCH  39  40
ENDBRANCH  38  39
ENDBRANCH  37  38
ENDBRANCH  36  37
ENDBRANCH  33  36
ENDBRANCH  31  32
ENDBRANCH  30  31
ENDBRANCH  28  30
ENDBRANCH  25  26
ENDBRANCH  24  25
ENDBRANCH  23  24
ENDBRANCH  22  23
ENDBRANCH  21  22
ENDBRANCH  19  21
ENDBRANCH  16  17
ENDBRANCH  15  16
ENDBRANCH  12  15
ENDBRANCH  10  11
ENDBRANCH   9  10
ENDBRANCH   8   9
ENDBRANCH   7   8
ENDBRANCH   6   7
ENDBRANCH   3   6
TORSDOF 23
ENDMDL
MODEL      314
REMARK 921   NORMALIZED FREE ENERGY PREDICTED BY IDOCK:   -2.56 KCAL/MOL
REMARK 922        TOTAL FREE ENERGY PREDICTED BY IDOCK:   -8.77 KCAL/MOL
REMARK 923 INTER-LIGAND FREE ENERGY PREDICTED BY IDOCK:   -7.47 KCAL/MOL
REMARK 924 INTRA-LIGAND FREE ENERGY PREDICTED BY IDOCK:   -1.30 KCAL/MOL
REMARK 927      BINDING AFFINITY PREDICTED BY RF-SCORE:    0.00 PKD
ROOT
HETATM    1  C   UNL     1     -11.159  12.813  63.835  1.00  0.00    -0.477 C  
HETATM    2  C   UNL     1     -10.531  11.538  64.334  1.00  0.00    -0.325 C  
HETATM    3  N   UNL     1      -9.309  11.205  63.813  1.00  0.00    -0.206 N  
HETATM    4  O   UNL     1     -11.126  10.831  65.149  1.00  0.00     0.020 OA 
HETATM    5  O   UNL     1      -8.537  12.055  63.003  1.00  0.00     0.312 OA 
ENDROOT
BRANCH   3   6
HETATM    6  C   UNL     1      -8.582   9.998  64.182  1.00  0.00    -0.188 C  
BRANCH   6   7
HETATM    7  C   UNL     1      -8.537   9.784  65.696  1.00  0.00    -0.154 C  
BRANCH   7   8
HETATM    8  C   UNL     1      -8.425   8.293  66.022  1.00  0.00    -0.148 C  
BRANCH   8   9
HETATM    9  C   UNL     1      -9.567   7.813  66.920  1.00  0.00    -0.256 C  
BRANCH   9  10
HETATM   10  C   UNL     1      -9.676   8.632  68.207  1.00  0.00    -0.155 C  
BRANCH  10  11
HETATM   11  N   UNL     1      -8.380   9.083  68.690  1.00  0.00    -0.122 N  
HETATM   12  C   UNL     1      -8.268   9.817  69.850  1.00  0.00    -0.183 C  
HETATM   13  H   UNL     1      -7.540   8.851  68.160  1.00  0.00     0.000 HD 
HETATM   14  O   UNL     1      -9.219  10.108  70.570  1.00  0.00     0.144 OA 
BRANCH  12  15
HETATM   15  C   UNL     1      -6.844  10.224  70.163  1.00  0.00    -0.152 C  
BRANCH  15  16
HETATM   16  C   UNL     1      -6.024   9.011  70.595  1.00  0.00    -0.038 C  
BRANCH  16  17
HETATM   17  C   UNL     1      -6.531   8.400  71.887  1.00  0.00    -0.067 C  
HETATM   18  O   UNL     1      -6.340   8.951  72.969  1.00  0.00    -0.267 OA 
HETATM   19  N   UNL     1      -7.177   7.195  71.773  1.00  0.00    -0.075 N  
HETATM   20  O   UNL     1      -7.506   6.577  70.554  1.00  0.00    -0.086 OA 
BRANCH  19  21
HETATM   21  C   UNL     1      -7.664   6.432  72.912  1.00  0.00    -0.102 C  
BRANCH  21  22
HETATM   22  C   UNL     1      -8.484   7.287  73.882  1.00  0.00    -0.201 C  
BRANCH  22  23
HETATM   23  C   UNL     1      -9.842   7.721  73.299  1.00  0.00    -0.362 C  
BRANCH  23  24
HETATM   24  C   UNL     1     -10.842   6.571  73.176  1.00  0.00    -0.286 C  
BRANCH  24  25
HETATM   25  C   UNL     1     -11.576   6.606  71.836  1.00  0.00    -0.303 C  
BRANCH  25  26
HETATM   26  N   UNL     1     -12.369   7.810  71.693  1.00  0.00    -0.311 N  
HETATM   27  H   UNL     1     -11.898   8.693  71.492  1.00  0.00     0.000 HD 
HETATM   28  C   UNL     1     -13.738   7.797  71.820  1.00  0.00    -0.339 C  
HETATM   29  O   UNL     1     -14.387   6.780  72.041  1.00  0.00    -0.274 OA 
BRANCH  28  30
HETATM   30  C   UNL     1     -14.395   9.145  71.673  1.00  0.00    -0.159 C  
BRANCH  30  31
HETATM   31  C   UNL     1     -13.530  10.208  72.331  1.00  0.00    -0.164 C  
BRANCH  31  32
HETATM   32  C   UNL     1     -12.722  10.964  71.297  1.00  0.00    -0.437 C  
HETATM   33  N   UNL     1     -12.385  12.270  71.558  1.00  0.00     0.004 N  
HETATM   34  O   UNL     1     -12.321  10.373  70.293  1.00  0.00    -0.287 OA 
HETATM   35  O   UNL     1     -13.171  13.029  72.446  1.00  0.00    -0.480 OA 
BRANCH  33  36
HETATM   36  C   UNL     1     -11.670  13.106  70.591  1.00  0.00     0.180 C  
BRANCH  36  37
HETATM   37  C   UNL     1     -11.979  14.593  70.773  1.00  0.00    -0.380 C  
BRANCH  37  38
HETATM   38  C   UNL     1     -10.769  15.477  70.456  1.00  0.00    -0.309 C  
BRANCH  38  39
HETATM   39  C   UNL     1     -10.819  16.013  69.022  1.00  0.00    -0.283 C  
BRANCH  39  40
HETATM   40  C   UNL     1     -11.246  14.947  68.011  1.00  0.00    -0.308 C  
HETATM   41  N   UNL     1     -10.096  14.344  67.345  1.00  0.00    -0.241 NA 
HETATM   42  H2  UNL     1      -9.429  13.970  68.020  1.00  0.00     0.000 HD 
HETATM   43  H1  UNL     1     -10.380  13.633  66.670  1.00  0.00     0.000 HD 
ENDBRANCH  39  40
ENDBRANCH  38  39
ENDBRANCH  37  38
ENDBRANCH  36  37
ENDBRANCH  33  36
ENDBRANCH  31  32
ENDBRANCH  30  31
ENDBRANCH  28  30
ENDBRANCH  25  26
ENDBRANCH  24  25
ENDBRANCH  23  24
ENDBRANCH  22  23
ENDBRANCH  21  22
ENDBRANCH  19  21
ENDBRANCH  16  17
ENDBRANCH  15  16
ENDBRANCH  12  15
ENDBRANCH  10  11
ENDBRANCH   9  10
ENDBRANCH   8   9
ENDBRANCH   7   8
ENDBRANCH   6   7
ENDBRANCH   3   6
TORSDOF 23
ENDMDL
MODEL      315
REMARK 921   NORMALIZED FREE ENERGY PREDICTED BY IDOCK:   -2.51 KCAL/MOL
REMARK 922        TOTAL FREE ENERGY PREDICTED BY IDOCK:   -8.65 KCAL/MOL
REMARK 923 INTER-LIGAND FREE ENERGY PREDICTED BY IDOCK:   -5.89 KCAL/MOL
REMARK 924 INTRA-LIGAND FREE ENERGY PREDICTED BY IDOCK:   -2.76 KCAL/MOL
REMARK 927      BINDING AFFINITY PREDICTED BY RF-SCORE:    0.00 PKD
ROOT
HETATM    1  C   UNL     1     -12.253  14.264  67.211  1.00  0.00    -0.287 C  
HETATM    2  C   UNL     1     -10.905  14.906  67.011  1.00  0.00    -0.315 C  
HETATM    3  N   UNL     1      -9.815  14.076  67.039  1.00  0.00    -0.253 N  
HETATM    4  O   UNL     1     -10.813  16.125  66.865  1.00  0.00    -0.282 OA 
HETATM    5  O   UNL     1      -9.891  12.673  67.051  1.00  0.00    -0.218 OA 
ENDROOT
BRANCH   3   6
HETATM    6  C   UNL     1      -8.446  14.545  66.878  1.00  0.00    -0.150 C  
BRANCH   6   7
HETATM    7  C   UNL     1      -7.654  14.494  68.186  1.00  0.00    -0.125 C  
BRANCH   7   8
HETATM    8  C   UNL     1      -7.583  13.060  68.712  1.00  0.00    -0.027 C  
BRANCH   8   9
HETATM    9  C   UNL     1      -6.352  12.316  68.191  1.00  0.00    -0.062 C  
BRANCH   9  10
HETATM   10  C   UNL     1      -6.614  11.626  66.852  1.00  0.00    -0.129 C  
BRANCH  10  11
HETATM   11  N   UNL     1      -7.691  10.650  66.931  1.00  0.00    -0.117 N  
HETATM   12  C   UNL     1      -8.168  10.022  65.803  1.00  0.00    -0.130 C  
HETATM   13  H   UNL     1      -8.099  10.428  67.839  1.00  0.00     0.000 HD 
HETATM   14  O   UNL     1      -7.711  10.197  64.677  1.00  0.00    -0.143 OA 
BRANCH  12  15
HETATM   15  C   UNL     1      -9.312   9.072  66.086  1.00  0.00    -0.294 C  
BRANCH  15  16
HETATM   16  C   UNL     1      -8.935   8.100  67.202  1.00  0.00    -0.154 C  
BRANCH  16  17
HETATM   17  C   UNL     1      -7.878   7.103  66.769  1.00  0.00    -0.103 C  
HETATM   18  O   UNL     1      -8.138   6.211  65.963  1.00  0.00    -0.108 OA 
HETATM   19  N   UNL     1      -6.644   7.240  67.349  1.00  0.00    -0.061 N  
HETATM   20  O   UNL     1      -6.271   8.298  68.196  1.00  0.00    -0.048 OA 
BRANCH  19  21
HETATM   21  C   UNL     1      -5.534   6.329  67.107  1.00  0.00    -0.009 C  
BRANCH  21  22
HETATM   22  C   UNL     1      -5.209   5.466  68.329  1.00  0.00    -0.003 C  
BRANCH  22  23
HETATM   23  C   UNL     1      -6.346   4.495  68.699  1.00  0.00    -0.036 C  
BRANCH  23  24
HETATM   24  C   UNL     1      -7.067   4.874  69.994  1.00  0.00    -0.053 C  
BRANCH  24  25
HETATM   25  C   UNL     1      -6.534   4.080  71.185  1.00  0.00    -0.026 C  
BRANCH  25  26
HETATM   26  N   UNL     1      -7.603   3.665  72.072  1.00  0.00    -0.056 N  
HETATM   27  H   UNL     1      -8.564   3.920  71.843  1.00  0.00     0.000 HD 
HETATM   28  C   UNL     1      -7.358   2.937  73.212  1.00  0.00    -0.046 C  
HETATM   29  O   UNL     1      -6.238   2.570  73.554  1.00  0.00    -0.011 OA 
BRANCH  28  30
HETATM   30  C   UNL     1      -8.584   2.623  74.031  1.00  0.00    -0.072 C  
BRANCH  30  31
HETATM   31  C   UNL     1      -9.229   3.918  74.499  1.00  0.00    -0.115 C  
BRANCH  31  32
HETATM   32  C   UNL     1     -10.410   4.281  73.623  1.00  0.00    -0.180 C  
HETATM   33  N   UNL     1     -10.552   5.589  73.228  1.00  0.00    -0.230 N  
HETATM   34  O   UNL     1     -11.161   3.390  73.221  1.00  0.00    -0.186 OA 
HETATM   35  O   UNL     1      -9.981   6.617  74.002  1.00  0.00    -0.253 OA 
BRANCH  33  36
HETATM   36  C   UNL     1     -11.698   6.052  72.442  1.00  0.00    -0.271 C  
BRANCH  36  37
HETATM   37  C   UNL     1     -11.587   7.534  72.079  1.00  0.00    -0.326 C  
BRANCH  37  38
HETATM   38  C   UNL     1     -11.012   7.743  70.675  1.00  0.00    -0.255 C  
BRANCH  38  39
HETATM   39  C   UNL     1      -9.552   8.204  70.725  1.00  0.00    -0.185 C  
BRANCH  39  40
HETATM   40  C   UNL     1      -9.396   9.697  70.432  1.00  0.00    -0.211 C  
HETATM   41  N   UNL     1      -7.993  10.080  70.308  1.00  0.00    -0.358 NA 
HETATM   42  H2  UNL     1      -7.513   9.512  69.611  1.00  0.00     0.000 HD 
HETATM   43  H1  UNL     1      -7.889  11.076  70.113  1.00  0.00     0.000 HD 
ENDBRANCH  39  40
ENDBRANCH  38  39
ENDBRANCH  37  38
ENDBRANCH  36  37
ENDBRANCH  33  36
ENDBRANCH  31  32
ENDBRANCH  30  31
ENDBRANCH  28  30
ENDBRANCH  25  26
ENDBRANCH  24  25
ENDBRANCH  23  24
ENDBRANCH  22  23
ENDBRANCH  21  22
ENDBRANCH  19  21
ENDBRANCH  16  17
ENDBRANCH  15  16
ENDBRANCH  12  15
ENDBRANCH  10  11
ENDBRANCH   9  10
ENDBRANCH   8   9
ENDBRANCH   7   8
ENDBRANCH   6   7
ENDBRANCH   3   6
TORSDOF 23
ENDMDL
MODEL      316
REMARK 921   NORMALIZED FREE ENERGY PREDICTED BY IDOCK:   -2.48 KCAL/MOL
REMARK 922        TOTAL FREE ENERGY PREDICTED BY IDOCK:   -8.56 KCAL/MOL
REMARK 923 INTER-LIGAND FREE ENERGY PREDICTED BY IDOCK:   -8.03 KCAL/MOL
REMARK 924 INTRA-LIGAND FREE ENERGY PREDICTED BY IDOCK:   -0.53 KCAL/MOL
REMARK 927      BINDING AFFINITY PREDICTED BY RF-SCORE:    0.00 PKD
ROOT
HETATM    1  C   UNL     1      -5.437   5.074  66.830  1.00  0.00    -0.013 C  
HETATM    2  C   UNL     1      -5.744   6.472  67.298  1.00  0.00    -0.013 C  
HETATM    3  N   UNL     1      -5.681   6.702  68.647  1.00  0.00    -0.016 N  
HETATM    4  O   UNL     1      -6.064   7.342  66.487  1.00  0.00    -0.038 OA 
HETATM    5  O   UNL     1      -5.176   5.782  69.582  1.00  0.00    -0.004 OA 
ENDROOT
BRANCH   3   6
HETATM    6  C   UNL     1      -5.965   7.994  69.255  1.00  0.00    -0.034 C  
BRANCH   6   7
HETATM    7  C   UNL     1      -7.157   7.940  70.212  1.00  0.00    -0.049 C  
BRANCH   7   8
HETATM    8  C   UNL     1      -6.723   7.396  71.575  1.00  0.00    -0.050 C  
BRANCH   8   9
HETATM    9  C   UNL     1      -7.138   8.319  72.722  1.00  0.00    -0.126 C  
BRANCH   9  10
HETATM   10  C   UNL     1      -8.609   8.147  73.102  1.00  0.00    -0.233 C  
BRANCH  10  11
HETATM   11  N   UNL     1      -9.510   8.526  72.023  1.00  0.00    -0.269 N  
HETATM   12  C   UNL     1     -10.862   8.277  72.103  1.00  0.00    -0.320 C  
HETATM   13  H   UNL     1      -9.133   8.984  71.194  1.00  0.00     0.000 HD 
HETATM   14  O   UNL     1     -11.407   7.767  73.078  1.00  0.00    -0.399 OA 
BRANCH  12  15
HETATM   15  C   UNL     1     -11.623   8.709  70.868  1.00  0.00    -0.307 C  
BRANCH  15  16
HETATM   16  C   UNL     1     -12.788   9.618  71.249  1.00  0.00    -0.438 C  
BRANCH  16  17
HETATM   17  C   UNL     1     -12.711  10.972  70.570  1.00  0.00    -0.247 C  
HETATM   18  O   UNL     1     -12.352  11.076  69.399  1.00  0.00    -0.348 OA 
HETATM   19  N   UNL     1     -13.032  12.057  71.345  1.00  0.00    -0.335 N  
HETATM   20  O   UNL     1     -13.541  11.981  72.654  1.00  0.00    -0.107 OA 
BRANCH  19  21
HETATM   21  C   UNL     1     -12.943  13.433  70.881  1.00  0.00    -0.123 C  
BRANCH  21  22
HETATM   22  C   UNL     1     -11.539  14.020  71.056  1.00  0.00     0.109 C  
BRANCH  22  23
HETATM   23  C   UNL     1     -11.555  15.516  71.423  1.00  0.00    -0.481 C  
BRANCH  23  24
HETATM   24  C   UNL     1     -10.982  16.413  70.325  1.00  0.00    -0.262 C  
BRANCH  24  25
HETATM   25  C   UNL     1     -11.895  16.455  69.102  1.00  0.00     0.077 C  
BRANCH  25  26
HETATM   26  N   UNL     1     -11.140  16.626  67.877  1.00  0.00    -0.273 N  
HETATM   27  H   UNL     1     -11.092  15.852  67.213  1.00  0.00     0.000 HD 
HETATM   28  C   UNL     1     -10.488  17.799  67.584  1.00  0.00    -0.388 C  
HETATM   29  O   UNL     1     -10.508  18.786  68.314  1.00  0.00    -0.354 OA 
BRANCH  28  30
HETATM   30  C   UNL     1      -9.725  17.786  66.284  1.00  0.00    -0.277 C  
BRANCH  30  31
HETATM   31  C   UNL     1      -8.433  17.004  66.459  1.00  0.00    -0.306 C  
BRANCH  31  32
HETATM   32  C   UNL     1      -8.705  15.516  66.519  1.00  0.00    -0.305 C  
HETATM   33  N   UNL     1      -8.178  14.797  67.563  1.00  0.00    -0.171 N  
HETATM   34  O   UNL     1      -9.455  15.005  65.684  1.00  0.00    -0.295 OA 
HETATM   35  O   UNL     1      -7.030  15.271  68.227  1.00  0.00    -0.106 OA 
BRANCH  33  36
HETATM   36  C   UNL     1      -8.324  13.343  67.670  1.00  0.00    -0.179 C  
BRANCH  36  37
HETATM   37  C   UNL     1      -9.759  12.886  67.400  1.00  0.00    -0.201 C  
BRANCH  37  38
HETATM   38  C   UNL     1      -9.814  11.702  66.429  1.00  0.00    -0.233 C  
BRANCH  38  39
HETATM   39  C   UNL     1      -9.891  10.365  67.171  1.00  0.00    -0.221 C  
BRANCH  39  40
HETATM   40  C   UNL     1      -9.603   9.170  66.261  1.00  0.00    -0.255 C  
HETATM   41  N   UNL     1      -9.673   9.535  64.850  1.00  0.00    -0.438 NA 
HETATM   42  H2  UNL     1      -9.057  10.320  64.639  1.00  0.00     0.000 HD 
HETATM   43  H1  UNL     1      -9.480   8.738  64.243  1.00  0.00     0.000 HD 
ENDBRANCH  39  40
ENDBRANCH  38  39
ENDBRANCH  37  38
ENDBRANCH  36  37
ENDBRANCH  33  36
ENDBRANCH  31  32
ENDBRANCH  30  31
ENDBRANCH  28  30
ENDBRANCH  25  26
ENDBRANCH  24  25
ENDBRANCH  23  24
ENDBRANCH  22  23
ENDBRANCH  21  22
ENDBRANCH  19  21
ENDBRANCH  16  17
ENDBRANCH  15  16
ENDBRANCH  12  15
ENDBRANCH  10  11
ENDBRANCH   9  10
ENDBRANCH   8   9
ENDBRANCH   7   8
ENDBRANCH   6   7
ENDBRANCH   3   6
TORSDOF 23
ENDMDL
MODEL      317
REMARK 921   NORMALIZED FREE ENERGY PREDICTED BY IDOCK:   -2.46 KCAL/MOL
REMARK 922        TOTAL FREE ENERGY PREDICTED BY IDOCK:   -8.52 KCAL/MOL
REMARK 923 INTER-LIGAND FREE ENERGY PREDICTED BY IDOCK:   -7.54 KCAL/MOL
REMARK 924 INTRA-LIGAND FREE ENERGY PREDICTED BY IDOCK:   -0.98 KCAL/MOL
REMARK 927      BINDING AFFINITY PREDICTED BY RF-SCORE:    0.00 PKD
ROOT
HETATM    1  C   UNL     1     -13.955  13.762  72.328  1.00  0.00    -0.672 C  
HETATM    2  C   UNL     1     -13.086  14.477  71.326  1.00  0.00    -0.350 C  
HETATM    3  N   UNL     1     -12.245  13.703  70.572  1.00  0.00    -0.358 N  
HETATM    4  O   UNL     1     -13.127  15.705  71.233  1.00  0.00    -0.484 OA 
HETATM    5  O   UNL     1     -12.278  12.298  70.542  1.00  0.00    -0.360 OA 
ENDROOT
BRANCH   3   6
HETATM    6  C   UNL     1     -11.333  14.246  69.574  1.00  0.00    -0.269 C  
BRANCH   6   7
HETATM    7  C   UNL     1     -11.713  13.832  68.151  1.00  0.00    -0.392 C  
BRANCH   7   8
HETATM    8  C   UNL     1     -11.946  15.067  67.279  1.00  0.00    -0.046 C  
BRANCH   8   9
HETATM    9  C   UNL     1     -11.195  14.982  65.949  1.00  0.00    -0.313 C  
BRANCH   9  10
HETATM   10  C   UNL     1      -9.953  14.095  66.039  1.00  0.00    -0.322 C  
BRANCH  10  11
HETATM   11  N   UNL     1      -9.796  13.238  64.874  1.00  0.00    -0.574 N  
HETATM   12  C   UNL     1     -10.298  11.957  64.858  1.00  0.00    -0.286 C  
HETATM   13  H   UNL     1      -9.304  13.594  64.054  1.00  0.00     0.000 HD 
HETATM   14  O   UNL     1     -10.936  11.460  65.783  1.00  0.00    -0.266 OA 
BRANCH  12  15
HETATM   15  C   UNL     1     -10.000  11.213  63.574  1.00  0.00    -0.425 C  
BRANCH  15  16
HETATM   16  C   UNL     1      -9.451   9.822  63.876  1.00  0.00    -0.098 C  
BRANCH  16  17
HETATM   17  C   UNL     1      -8.011   9.859  64.350  1.00  0.00    -0.146 C  
HETATM   18  O   UNL     1      -7.684  10.506  65.343  1.00  0.00    -0.149 OA 
HETATM   19  N   UNL     1      -7.107   9.160  63.591  1.00  0.00    -0.092 N  
HETATM   20  O   UNL     1      -7.445   8.328  62.509  1.00  0.00    -0.095 OA 
BRANCH  19  21
HETATM   21  C   UNL     1      -5.675   9.146  63.854  1.00  0.00    -0.070 C  
BRANCH  21  22
HETATM   22  C   UNL     1      -5.348   8.713  65.286  1.00  0.00    -0.035 C  
BRANCH  22  23
HETATM   23  C   UNL     1      -5.417   7.187  65.483  1.00  0.00    -0.028 C  
BRANCH  23  24
HETATM   24  C   UNL     1      -6.808   6.690  65.879  1.00  0.00    -0.053 C  
BRANCH  24  25
HETATM   25  C   UNL     1      -7.188   5.422  65.118  1.00  0.00    -0.067 C  
BRANCH  25  26
HETATM   26  N   UNL     1      -7.885   4.477  65.968  1.00  0.00    -0.094 N  
HETATM   27  H   UNL     1      -8.903   4.423  65.918  1.00  0.00     0.000 HD 
HETATM   28  C   UNL     1      -7.214   3.652  66.839  1.00  0.00    -0.064 C  
HETATM   29  O   UNL     1      -5.992   3.635  66.950  1.00  0.00    -0.023 OA 
BRANCH  28  30
HETATM   30  C   UNL     1      -8.101   2.759  67.667  1.00  0.00    -0.078 C  
BRANCH  30  31
HETATM   31  C   UNL     1      -9.446   3.435  67.882  1.00  0.00    -0.220 C  
BRANCH  31  32
HETATM   32  C   UNL     1      -9.583   3.925  69.309  1.00  0.00    -0.162 C  
HETATM   33  N   UNL     1      -9.611   5.279  69.535  1.00  0.00    -0.140 N  
HETATM   34  O   UNL     1      -9.748   3.106  70.216  1.00  0.00    -0.151 OA 
HETATM   35  O   UNL     1      -9.015   6.153  68.606  1.00  0.00    -0.126 OA 
BRANCH  33  36
HETATM   36  C   UNL     1      -9.667   5.851  70.882  1.00  0.00    -0.172 C  
BRANCH  36  37
HETATM   37  C   UNL     1      -8.951   4.974  71.911  1.00  0.00    -0.147 C  
BRANCH  37  38
HETATM   38  C   UNL     1      -7.601   5.565  72.333  1.00  0.00    -0.101 C  
BRANCH  38  39
HETATM   39  C   UNL     1      -6.711   4.518  73.008  1.00  0.00    -0.056 C  
BRANCH  39  40
HETATM   40  C   UNL     1      -7.055   3.090  72.581  1.00  0.00    -0.039 C  
HETATM   41  N   UNL     1      -6.066   2.550  71.654  1.00  0.00    -0.014 NA 
HETATM   42  H2  UNL     1      -5.124   2.605  72.042  1.00  0.00     0.000 HD 
HETATM   43  H1  UNL     1      -6.295   1.597  71.369  1.00  0.00     0.000 HD 
ENDBRANCH  39  40
ENDBRANCH  38  39
ENDBRANCH  37  38
ENDBRANCH  36  37
ENDBRANCH  33  36
ENDBRANCH  31  32
ENDBRANCH  30  31
ENDBRANCH  28  30
ENDBRANCH  25  26
ENDBRANCH  24  25
ENDBRANCH  23  24
ENDBRANCH  22  23
ENDBRANCH  21  22
ENDBRANCH  19  21
ENDBRANCH  16  17
ENDBRANCH  15  16
ENDBRANCH  12  15
ENDBRANCH  10  11
ENDBRANCH   9  10
ENDBRANCH   8   9
ENDBRANCH   7   8
ENDBRANCH   6   7
ENDBRANCH   3   6
TORSDOF 23
ENDMDL
MODEL      318
REMARK 921   NORMALIZED FREE ENERGY PREDICTED BY IDOCK:   -2.39 KCAL/MOL
REMARK 922        TOTAL FREE ENERGY PREDICTED BY IDOCK:   -8.37 KCAL/MOL
REMARK 923 INTER-LIGAND FREE ENERGY PREDICTED BY IDOCK:   -9.34 KCAL/MOL
REMARK 924 INTRA-LIGAND FREE ENERGY PREDICTED BY IDOCK:    0.98 KCAL/MOL
REMARK 927      BINDING AFFINITY PREDICTED BY RF-SCORE:    0.00 PKD
ROOT
HETATM    1  C   UNL     1      -8.408   9.381  65.615  1.00  0.00    -0.129 C  
HETATM    2  C   UNL     1      -9.246  10.107  64.596  1.00  0.00    -0.252 C  
HETATM    3  N   UNL     1     -10.220  10.942  65.077  1.00  0.00    -0.289 N  
HETATM    4  O   UNL     1      -9.066   9.915  63.393  1.00  0.00    -0.243 OA 
HETATM    5  O   UNL     1     -10.356  11.300  66.429  1.00  0.00    -0.229 OA 
ENDROOT
BRANCH   3   6
HETATM    6  C   UNL     1     -11.122  11.700  64.220  1.00  0.00    -0.338 C  
BRANCH   6   7
HETATM    7  C   UNL     1     -11.061  13.204  64.496  1.00  0.00    -0.380 C  
BRANCH   7   8
HETATM    8  C   UNL     1     -10.587  13.466  65.927  1.00  0.00    -0.286 C  
BRANCH   8   9
HETATM    9  C   UNL     1      -9.194  14.096  65.965  1.00  0.00    -0.005 C  
BRANCH   9  10
HETATM   10  C   UNL     1      -8.767  14.475  67.384  1.00  0.00    -0.199 C  
BRANCH  10  11
HETATM   11  N   UNL     1      -9.772  15.272  68.072  1.00  0.00    -0.210 N  
HETATM   12  C   UNL     1      -9.447  16.472  68.663  1.00  0.00    -0.243 C  
HETATM   13  H   UNL     1     -10.733  14.935  68.117  1.00  0.00     0.000 HD 
HETATM   14  O   UNL     1      -8.326  16.973  68.625  1.00  0.00    -0.250 OA 
BRANCH  12  15
HETATM   15  C   UNL     1     -10.618  17.131  69.361  1.00  0.00    -0.161 C  
BRANCH  15  16
HETATM   16  C   UNL     1     -11.803  16.172  69.437  1.00  0.00    -0.154 C  
BRANCH  16  17
HETATM   17  C   UNL     1     -11.915  15.497  70.791  1.00  0.00    -0.378 C  
HETATM   18  O   UNL     1     -10.920  15.295  71.484  1.00  0.00    -0.305 OA 
HETATM   19  N   UNL     1     -13.173  15.106  71.169  1.00  0.00    -0.437 N  
HETATM   20  O   UNL     1     -14.350  15.402  70.459  1.00  0.00     0.028 OA 
BRANCH  19  21
HETATM   21  C   UNL     1     -13.455  14.381  72.399  1.00  0.00    -0.462 C  
BRANCH  21  22
HETATM   22  C   UNL     1     -13.114  12.892  72.292  1.00  0.00    -0.421 C  
BRANCH  22  23
HETATM   23  C   UNL     1     -12.976  12.411  70.835  1.00  0.00    -0.061 C  
BRANCH  23  24
HETATM   24  C   UNL     1     -12.467  10.973  70.719  1.00  0.00    -0.491 C  
BRANCH  24  25
HETATM   25  C   UNL     1     -12.888  10.130  71.921  1.00  0.00    -0.427 C  
BRANCH  25  26
HETATM   26  N   UNL     1     -12.190   8.861  71.956  1.00  0.00    -0.361 N  
HETATM   27  H   UNL     1     -12.643   8.058  72.393  1.00  0.00     0.000 HD 
HETATM   28  C   UNL     1     -10.935   8.709  71.415  1.00  0.00    -0.271 C  
HETATM   29  O   UNL     1     -10.325   9.613  70.853  1.00  0.00    -0.300 OA 
BRANCH  28  30
HETATM   30  C   UNL     1     -10.348   7.329  71.572  1.00  0.00    -0.217 C  
BRANCH  30  31
HETATM   31  C   UNL     1     -10.304   6.958  73.046  1.00  0.00    -0.269 C  
BRANCH  31  32
HETATM   32  C   UNL     1     -10.817   5.550  73.264  1.00  0.00    -0.293 C  
HETATM   33  N   UNL     1     -10.113   4.721  74.104  1.00  0.00    -0.181 N  
HETATM   34  O   UNL     1     -11.886   5.210  72.754  1.00  0.00    -0.219 OA 
HETATM   35  O   UNL     1      -8.741   4.951  74.321  1.00  0.00    -0.113 OA 
BRANCH  33  36
HETATM   36  C   UNL     1     -10.487   3.322  74.323  1.00  0.00    -0.195 C  
BRANCH  36  37
HETATM   37  C   UNL     1      -9.609   2.359  73.522  1.00  0.00    -0.120 C  
BRANCH  37  38
HETATM   38  C   UNL     1     -10.239   1.988  72.175  1.00  0.00    -0.214 C  
BRANCH  38  39
HETATM   39  C   UNL     1      -9.189   1.904  71.063  1.00  0.00    -0.174 C  
BRANCH  39  40
HETATM   40  C   UNL     1      -8.340   3.172  70.959  1.00  0.00    -0.062 C  
HETATM   41  N   UNL     1      -6.913   2.873  71.010  1.00  0.00    -0.032 NA 
HETATM   42  H2  UNL     1      -6.650   2.191  70.299  1.00  0.00     0.000 HD 
HETATM   43  H1  UNL     1      -6.347   3.719  70.940  1.00  0.00     0.000 HD 
ENDBRANCH  39  40
ENDBRANCH  38  39
ENDBRANCH  37  38
ENDBRANCH  36  37
ENDBRANCH  33  36
ENDBRANCH  31  32
ENDBRANCH  30  31
ENDBRANCH  28  30
ENDBRANCH  25  26
ENDBRANCH  24  25
ENDBRANCH  23  24
ENDBRANCH  22  23
ENDBRANCH  21  22
ENDBRANCH  19  21
ENDBRANCH  16  17
ENDBRANCH  15  16
ENDBRANCH  12  15
ENDBRANCH  10  11
ENDBRANCH   9  10
ENDBRANCH   8   9
ENDBRANCH   7   8
ENDBRANCH   6   7
ENDBRANCH   3   6
TORSDOF 23
ENDMDL
MODEL      319
REMARK 921   NORMALIZED FREE ENERGY PREDICTED BY IDOCK:   -2.33 KCAL/MOL
REMARK 922        TOTAL FREE ENERGY PREDICTED BY IDOCK:   -8.22 KCAL/MOL
REMARK 923 INTER-LIGAND FREE ENERGY PREDICTED BY IDOCK:   -8.02 KCAL/MOL
REMARK 924 INTRA-LIGAND FREE ENERGY PREDICTED BY IDOCK:   -0.20 KCAL/MOL
REMARK 927      BINDING AFFINITY PREDICTED BY RF-SCORE:    0.00 PKD
ROOT
HETATM    1  C   UNL     1     -11.532  13.033  70.134  1.00  0.00    -0.009 C  
HETATM    2  C   UNL     1     -11.940  12.603  68.749  1.00  0.00    -0.237 C  
HETATM    3  N   UNL     1     -11.879  13.554  67.764  1.00  0.00    -0.359 N  
HETATM    4  O   UNL     1     -12.336  11.455  68.546  1.00  0.00    -0.504 OA 
HETATM    5  O   UNL     1     -11.294  14.821  67.924  1.00  0.00    -0.289 OA 
ENDROOT
BRANCH   3   6
HETATM    6  C   UNL     1     -12.255  13.299  66.380  1.00  0.00    -0.356 C  
BRANCH   6   7
HETATM    7  C   UNL     1     -12.691  14.572  65.650  1.00  0.00    -0.186 C  
BRANCH   7   8
HETATM    8  C   UNL     1     -11.728  14.886  64.504  1.00  0.00    -0.388 C  
BRANCH   8   9
HETATM    9  C   UNL     1     -10.321  14.349  64.770  1.00  0.00    -0.352 C  
BRANCH   9  10
HETATM   10  C   UNL     1     -10.306  12.831  64.955  1.00  0.00    -0.303 C  
BRANCH  10  11
HETATM   11  N   UNL     1      -9.330  12.176  64.098  1.00  0.00    -0.374 N  
HETATM   12  C   UNL     1      -9.724  11.308  63.103  1.00  0.00    -0.386 C  
HETATM   13  H   UNL     1      -8.337  12.362  64.236  1.00  0.00     0.000 HD 
HETATM   14  O   UNL     1     -10.896  11.055  62.841  1.00  0.00     0.076 OA 
BRANCH  12  15
HETATM   15  C   UNL     1      -8.562  10.700  62.347  1.00  0.00    -0.294 C  
BRANCH  15  16
HETATM   16  C   UNL     1      -8.511   9.191  62.569  1.00  0.00    -0.209 C  
BRANCH  16  17
HETATM   17  C   UNL     1      -7.911   8.824  63.912  1.00  0.00    -0.157 C  
HETATM   18  O   UNL     1      -7.616   9.689  64.734  1.00  0.00    -0.111 OA 
HETATM   19  N   UNL     1      -7.694   7.488  64.133  1.00  0.00    -0.126 N  
HETATM   20  O   UNL     1      -8.105   6.458  63.268  1.00  0.00    -0.107 OA 
BRANCH  19  21
HETATM   21  C   UNL     1      -7.061   6.962  65.333  1.00  0.00    -0.068 C  
BRANCH  21  22
HETATM   22  C   UNL     1      -8.073   6.373  66.319  1.00  0.00    -0.114 C  
BRANCH  22  23
HETATM   23  C   UNL     1      -7.457   5.314  67.252  1.00  0.00    -0.084 C  
BRANCH  23  24
HETATM   24  C   UNL     1      -6.598   5.916  68.366  1.00  0.00    -0.052 C  
BRANCH  24  25
HETATM   25  C   UNL     1      -7.427   6.218  69.612  1.00  0.00    -0.085 C  
BRANCH  25  26
HETATM   26  N   UNL     1      -8.227   5.078  70.012  1.00  0.00    -0.080 N  
HETATM   27  H   UNL     1      -9.230   5.087  69.826  1.00  0.00     0.000 HD 
HETATM   28  C   UNL     1      -7.672   3.986  70.636  1.00  0.00    -0.048 C  
HETATM   29  O   UNL     1      -6.474   3.882  70.880  1.00  0.00    -0.025 OA 
BRANCH  28  30
HETATM   30  C   UNL     1      -8.658   2.909  71.011  1.00  0.00    -0.107 C  
BRANCH  30  31
HETATM   31  C   UNL     1      -8.758   2.816  72.525  1.00  0.00    -0.089 C  
BRANCH  31  32
HETATM   32  C   UNL     1      -9.820   3.756  73.056  1.00  0.00    -0.132 C  
HETATM   33  N   UNL     1      -9.446   5.027  73.418  1.00  0.00    -0.136 N  
HETATM   34  O   UNL     1     -10.997   3.390  73.072  1.00  0.00    -0.139 OA 
HETATM   35  O   UNL     1      -8.112   5.280  73.792  1.00  0.00    -0.108 OA 
BRANCH  33  36
HETATM   36  C   UNL     1     -10.383   5.985  74.009  1.00  0.00    -0.291 C  
BRANCH  36  37
HETATM   37  C   UNL     1     -10.028   7.431  73.659  1.00  0.00    -0.379 C  
BRANCH  37  38
HETATM   38  C   UNL     1     -10.317   7.756  72.189  1.00  0.00    -0.279 C  
BRANCH  38  39
HETATM   39  C   UNL     1     -11.301   8.922  72.051  1.00  0.00    -0.427 C  
BRANCH  39  40
HETATM   40  C   UNL     1     -12.395   8.648  71.018  1.00  0.00    -0.143 C  
HETATM   41  N   UNL     1     -12.913   7.288  71.126  1.00  0.00    -0.558 NA 
HETATM   42  H2  UNL     1     -13.236   7.087  72.072  1.00  0.00     0.000 HD 
HETATM   43  H1  UNL     1     -13.643   7.106  70.437  1.00  0.00     0.000 HD 
ENDBRANCH  39  40
ENDBRANCH  38  39
ENDBRANCH  37  38
ENDBRANCH  36  37
ENDBRANCH  33  36
ENDBRANCH  31  32
ENDBRANCH  30  31
ENDBRANCH  28  30
ENDBRANCH  25  26
ENDBRANCH  24  25
ENDBRANCH  23  24
ENDBRANCH  22  23
ENDBRANCH  21  22
ENDBRANCH  19  21
ENDBRANCH  16  17
ENDBRANCH  15  16
ENDBRANCH  12  15
ENDBRANCH  10  11
ENDBRANCH   9  10
ENDBRANCH   8   9
ENDBRANCH   7   8
ENDBRANCH   6   7
ENDBRANCH   3   6
TORSDOF 23
ENDMDL
MODEL      320
REMARK 921   NORMALIZED FREE ENERGY PREDICTED BY IDOCK:   -2.26 KCAL/MOL
REMARK 922        TOTAL FREE ENERGY PREDICTED BY IDOCK:   -8.06 KCAL/MOL
REMARK 923 INTER-LIGAND FREE ENERGY PREDICTED BY IDOCK:   -7.01 KCAL/MOL
REMARK 924 INTRA-LIGAND FREE ENERGY PREDICTED BY IDOCK:   -1.05 KCAL/MOL
REMARK 927      BINDING AFFINITY PREDICTED BY RF-SCORE:    0.00 PKD
ROOT
HETATM    1  C   UNL     1      -6.734  15.322  68.668  1.00  0.00    -0.101 C  
HETATM    2  C   UNL     1      -7.295  14.165  67.884  1.00  0.00    -0.157 C  
HETATM    3  N   UNL     1      -6.870  12.912  68.241  1.00  0.00    -0.082 N  
HETATM    4  O   UNL     1      -8.072  14.366  66.950  1.00  0.00    -0.131 OA 
HETATM    5  O   UNL     1      -6.109  12.633  69.388  1.00  0.00    -0.092 OA 
ENDROOT
BRANCH   3   6
HETATM    6  C   UNL     1      -7.308  11.696  67.570  1.00  0.00    -0.119 C  
BRANCH   6   7
HETATM    7  C   UNL     1      -8.332  11.973  66.468  1.00  0.00    -0.024 C  
BRANCH   7   8
HETATM    8  C   UNL     1      -9.448  10.927  66.500  1.00  0.00    -0.210 C  
BRANCH   8   9
HETATM    9  C   UNL     1     -10.570  11.252  65.512  1.00  0.00    -0.306 C  
BRANCH   9  10
HETATM   10  C   UNL     1     -10.594  12.732  65.127  1.00  0.00    -0.302 C  
BRANCH  10  11
HETATM   11  N   UNL     1     -11.164  13.569  66.172  1.00  0.00    -0.293 N  
HETATM   12  C   UNL     1     -11.190  14.940  66.052  1.00  0.00    -0.327 C  
HETATM   13  H   UNL     1     -11.551  13.131  67.008  1.00  0.00     0.000 HD 
HETATM   14  O   UNL     1     -10.784  15.549  65.066  1.00  0.00    -0.413 OA 
BRANCH  12  15
HETATM   15  C   UNL     1     -11.787  15.634  67.258  1.00  0.00     0.332 C  
BRANCH  15  16
HETATM   16  C   UNL     1     -10.834  15.553  68.447  1.00  0.00    -0.273 C  
BRANCH  16  17
HETATM   17  C   UNL     1     -11.062  14.311  69.287  1.00  0.00    -0.265 C  
HETATM   18  O   UNL     1     -10.347  13.319  69.161  1.00  0.00    -0.037 OA 
HETATM   19  N   UNL     1     -12.119  14.356  70.159  1.00  0.00    -0.314 N  
HETATM   20  O   UNL     1     -12.900  15.498  70.410  1.00  0.00    -0.410 OA 
BRANCH  19  21
HETATM   21  C   UNL     1     -12.528  13.232  70.988  1.00  0.00    -0.336 C  
BRANCH  21  22
HETATM   22  C   UNL     1     -12.545  11.911  70.215  1.00  0.00    -0.091 C  
BRANCH  22  23
HETATM   23  C   UNL     1     -11.669  10.824  70.864  1.00  0.00    -0.334 C  
BRANCH  23  24
HETATM   24  C   UNL     1     -11.949   9.420  70.326  1.00  0.00     0.010 C  
BRANCH  24  25
HETATM   25  C   UNL     1     -10.656   8.678  69.994  1.00  0.00    -0.227 C  
BRANCH  25  26
HETATM   26  N   UNL     1     -10.910   7.480  69.220  1.00  0.00    -0.386 N  
HETATM   27  H   UNL     1     -11.648   6.844  69.520  1.00  0.00     0.000 HD 
HETATM   28  C   UNL     1     -10.184   7.177  68.093  1.00  0.00    -0.188 C  
HETATM   29  O   UNL     1      -9.292   7.893  67.648  1.00  0.00    -0.141 OA 
BRANCH  28  30
HETATM   30  C   UNL     1     -10.562   5.875  67.433  1.00  0.00    -0.356 C  
BRANCH  30  31
HETATM   31  C   UNL     1     -10.423   4.738  68.434  1.00  0.00     0.160 C  
BRANCH  31  32
HETATM   32  C   UNL     1      -9.047   4.739  69.066  1.00  0.00    -0.114 C  
HETATM   33  N   UNL     1      -8.957   4.700  70.436  1.00  0.00    -0.097 N  
HETATM   34  O   UNL     1      -8.050   4.692  68.342  1.00  0.00    -0.083 OA 
HETATM   35  O   UNL     1     -10.028   5.172  71.218  1.00  0.00    -0.175 OA 
BRANCH  33  36
HETATM   36  C   UNL     1      -7.676   4.770  71.142  1.00  0.00    -0.082 C  
BRANCH  36  37
HETATM   37  C   UNL     1      -7.469   6.122  71.828  1.00  0.00    -0.095 C  
BRANCH  37  38
HETATM   38  C   UNL     1      -7.116   5.967  73.312  1.00  0.00    -0.085 C  
BRANCH  38  39
HETATM   39  C   UNL     1      -7.550   7.189  74.127  1.00  0.00    -0.126 C  
BRANCH  39  40
HETATM   40  C   UNL     1      -8.946   7.684  73.746  1.00  0.00    -0.261 C  
HETATM   41  N   UNL     1      -9.991   6.958  74.461  1.00  0.00    -0.483 NA 
HETATM   42  H2  UNL     1      -9.845   6.995  75.470  1.00  0.00     0.000 HD 
HETATM   43  H1  UNL     1     -10.922   7.288  74.207  1.00  0.00     0.000 HD 
ENDBRANCH  39  40
ENDBRANCH  38  39
ENDBRANCH  37  38
ENDBRANCH  36  37
ENDBRANCH  33  36
ENDBRANCH  31  32
ENDBRANCH  30  31
ENDBRANCH  28  30
ENDBRANCH  25  26
ENDBRANCH  24  25
ENDBRANCH  23  24
ENDBRANCH  22  23
ENDBRANCH  21  22
ENDBRANCH  19  21
ENDBRANCH  16  17
ENDBRANCH  15  16
ENDBRANCH  12  15
ENDBRANCH  10  11
ENDBRANCH   9  10
ENDBRANCH   8   9
ENDBRANCH   7   8
ENDBRANCH   6   7
ENDBRANCH   3   6
TORSDOF 23
ENDMDL
MODEL      321
REMARK 921   NORMALIZED FREE ENERGY PREDICTED BY IDOCK:   -2.24 KCAL/MOL
REMARK 922        TOTAL FREE ENERGY PREDICTED BY IDOCK:   -8.01 KCAL/MOL
REMARK 923 INTER-LIGAND FREE ENERGY PREDICTED BY IDOCK:   -7.88 KCAL/MOL
REMARK 924 INTRA-LIGAND FREE ENERGY PREDICTED BY IDOCK:   -0.13 KCAL/MOL
REMARK 927      BINDING AFFINITY PREDICTED BY RF-SCORE:    0.00 PKD
ROOT
HETATM    1  C   UNL     1     -12.021  11.493  68.046  1.00  0.00    -0.174 C  
HETATM    2  C   UNL     1     -11.670  12.687  67.198  1.00  0.00    -0.371 C  
HETATM    3  N   UNL     1     -11.112  12.433  65.972  1.00  0.00    -0.295 N  
HETATM    4  O   UNL     1     -11.856  13.827  67.623  1.00  0.00    -0.344 OA 
HETATM    5  O   UNL     1     -11.024  11.155  65.394  1.00  0.00    -0.196 OA 
ENDROOT
BRANCH   3   6
HETATM    6  C   UNL     1     -10.704  13.479  65.044  1.00  0.00    -0.357 C  
BRANCH   6   7
HETATM    7  C   UNL     1     -11.868  14.387  64.641  1.00  0.00    -0.460 C  
BRANCH   7   8
HETATM    8  C   UNL     1     -11.363  15.798  64.334  1.00  0.00    -0.274 C  
BRANCH   8   9
HETATM    9  C   UNL     1     -11.566  16.751  65.513  1.00  0.00     1.056 C  
BRANCH   9  10
HETATM   10  C   UNL     1     -10.316  16.866  66.388  1.00  0.00    -0.300 C  
BRANCH  10  11
HETATM   11  N   UNL     1      -9.651  18.152  66.241  1.00  0.00    -0.275 N  
HETATM   12  C   UNL     1      -9.509  19.006  67.312  1.00  0.00    -0.308 C  
HETATM   13  H   UNL     1      -9.285  18.425  65.330  1.00  0.00     0.000 HD 
HETATM   14  O   UNL     1      -9.883  18.743  68.452  1.00  0.00    -0.340 OA 
BRANCH  12  15
HETATM   15  C   UNL     1      -8.826  20.307  66.951  1.00  0.00    -0.400 C  
BRANCH  15  16
HETATM   16  C   UNL     1      -7.698  20.060  65.952  1.00  0.00    -0.298 C  
BRANCH  16  17
HETATM   17  C   UNL     1      -6.773  18.941  66.389  1.00  0.00    -0.205 C  
HETATM   18  O   UNL     1      -6.659  17.914  65.724  1.00  0.00    -0.257 OA 
HETATM   19  N   UNL     1      -6.109  19.133  67.573  1.00  0.00    -0.190 N  
HETATM   20  O   UNL     1      -6.130  20.327  68.317  1.00  0.00    -0.249 OA 
BRANCH  19  21
HETATM   21  C   UNL     1      -5.240  18.137  68.181  1.00  0.00    -0.164 C  
BRANCH  21  22
HETATM   22  C   UNL     1      -5.997  17.196  69.122  1.00  0.00    -0.195 C  
BRANCH  22  23
HETATM   23  C   UNL     1      -7.234  16.556  68.464  1.00  0.00    -0.175 C  
BRANCH  23  24
HETATM   24  C   UNL     1      -7.990  15.607  69.394  1.00  0.00    -0.226 C  
BRANCH  24  25
HETATM   25  C   UNL     1      -7.281  14.260  69.518  1.00  0.00    -0.003 C  
BRANCH  25  26
HETATM   26  N   UNL     1      -7.818  13.285  68.591  1.00  0.00    -0.265 N  
HETATM   27  H   UNL     1      -8.778  12.961  68.712  1.00  0.00     0.000 HD 
HETATM   28  C   UNL     1      -7.071  12.783  67.551  1.00  0.00    -0.148 C  
HETATM   29  O   UNL     1      -5.917  13.130  67.318  1.00  0.00    -0.335 OA 
BRANCH  28  30
HETATM   30  C   UNL     1      -7.779  11.754  66.708  1.00  0.00    -0.086 C  
BRANCH  30  31
HETATM   31  C   UNL     1      -6.766  10.768  66.150  1.00  0.00    -0.126 C  
BRANCH  31  32
HETATM   32  C   UNL     1      -7.043   9.366  66.651  1.00  0.00    -0.085 C  
HETATM   33  N   UNL     1      -8.083   9.179  67.529  1.00  0.00    -0.104 N  
HETATM   34  O   UNL     1      -6.389   8.423  66.200  1.00  0.00    -0.048 OA 
HETATM   35  O   UNL     1      -8.517  10.251  68.333  1.00  0.00    -0.117 OA 
BRANCH  33  36
HETATM   36  C   UNL     1      -8.385   7.876  68.125  1.00  0.00    -0.124 C  
BRANCH  36  37
HETATM   37  C   UNL     1      -9.608   7.218  67.485  1.00  0.00    -0.171 C  
BRANCH  37  38
HETATM   38  C   UNL     1     -10.808   7.181  68.438  1.00  0.00    -0.148 C  
BRANCH  38  39
HETATM   39  C   UNL     1     -10.509   6.353  69.691  1.00  0.00    -0.278 C  
BRANCH  39  40
HETATM   40  C   UNL     1     -11.599   6.483  70.757  1.00  0.00    -0.377 C  
HETATM   41  N   UNL     1     -12.095   7.852  70.857  1.00  0.00    -0.468 NA 
HETATM   42  H2  UNL     1     -12.416   8.198  69.953  1.00  0.00     0.000 HD 
HETATM   43  H1  UNL     1     -12.822   7.939  71.568  1.00  0.00     0.000 HD 
ENDBRANCH  39  40
ENDBRANCH  38  39
ENDBRANCH  37  38
ENDBRANCH  36  37
ENDBRANCH  33  36
ENDBRANCH  31  32
ENDBRANCH  30  31
ENDBRANCH  28  30
ENDBRANCH  25  26
ENDBRANCH  24  25
ENDBRANCH  23  24
ENDBRANCH  22  23
ENDBRANCH  21  22
ENDBRANCH  19  21
ENDBRANCH  16  17
ENDBRANCH  15  16
ENDBRANCH  12  15
ENDBRANCH  10  11
ENDBRANCH   9  10
ENDBRANCH   8   9
ENDBRANCH   7   8
ENDBRANCH   6   7
ENDBRANCH   3   6
TORSDOF 23
ENDMDL
MODEL      322
REMARK 921   NORMALIZED FREE ENERGY PREDICTED BY IDOCK:   -2.21 KCAL/MOL
REMARK 922        TOTAL FREE ENERGY PREDICTED BY IDOCK:   -7.94 KCAL/MOL
REMARK 923 INTER-LIGAND FREE ENERGY PREDICTED BY IDOCK:   -7.49 KCAL/MOL
REMARK 924 INTRA-LIGAND FREE ENERGY PREDICTED BY IDOCK:   -0.44 KCAL/MOL
REMARK 927      BINDING AFFINITY PREDICTED BY RF-SCORE:    0.00 PKD
ROOT
HETATM    1  C   UNL     1      -9.612   9.172  71.184  1.00  0.00    -0.347 C  
HETATM    2  C   UNL     1     -10.384   8.145  71.970  1.00  0.00    -0.254 C  
HETATM    3  N   UNL     1     -11.006   7.157  71.253  1.00  0.00    -0.238 N  
HETATM    4  O   UNL     1     -10.465   8.233  73.196  1.00  0.00    -0.187 OA 
HETATM    5  O   UNL     1     -10.813   6.938  69.878  1.00  0.00    -0.233 OA 
ENDROOT
BRANCH   3   6
HETATM    6  C   UNL     1     -11.802   6.102  71.864  1.00  0.00    -0.257 C  
BRANCH   6   7
HETATM    7  C   UNL     1     -11.133   5.513  73.108  1.00  0.00    -0.337 C  
BRANCH   7   8
HETATM    8  C   UNL     1     -10.603   4.108  72.815  1.00  0.00    -0.226 C  
BRANCH   8   9
HETATM    9  C   UNL     1      -9.666   4.087  71.607  1.00  0.00    -0.242 C  
BRANCH   9  10
HETATM   10  C   UNL     1      -8.641   2.955  71.688  1.00  0.00    -0.068 C  
BRANCH  10  11
HETATM   11  N   UNL     1      -7.666   3.009  70.609  1.00  0.00    -0.043 N  
HETATM   12  C   UNL     1      -7.861   2.313  69.437  1.00  0.00    -0.042 C  
HETATM   13  H   UNL     1      -6.824   3.573  70.723  1.00  0.00     0.000 HD 
HETATM   14  O   UNL     1      -8.862   1.643  69.198  1.00  0.00    -0.060 OA 
BRANCH  12  15
HETATM   15  C   UNL     1      -6.720   2.466  68.455  1.00  0.00    -0.032 C  
BRANCH  15  16
HETATM   16  C   UNL     1      -7.255   2.643  67.036  1.00  0.00    -0.057 C  
BRANCH  16  17
HETATM   17  C   UNL     1      -8.127   3.876  66.897  1.00  0.00    -0.096 C  
HETATM   18  O   UNL     1      -9.324   3.783  66.633  1.00  0.00    -0.166 OA 
HETATM   19  N   UNL     1      -7.495   5.084  67.050  1.00  0.00    -0.086 N  
HETATM   20  O   UNL     1      -6.156   5.240  67.449  1.00  0.00    -0.028 OA 
BRANCH  19  21
HETATM   21  C   UNL     1      -8.158   6.368  66.878  1.00  0.00    -0.109 C  
BRANCH  21  22
HETATM   22  C   UNL     1      -8.525   6.645  65.418  1.00  0.00    -0.112 C  
BRANCH  22  23
HETATM   23  C   UNL     1      -7.712   7.801  64.804  1.00  0.00    -0.119 C  
BRANCH  23  24
HETATM   24  C   UNL     1      -8.249   9.183  65.177  1.00  0.00    -0.147 C  
BRANCH  24  25
HETATM   25  C   UNL     1      -7.346   9.879  66.194  1.00  0.00    -0.104 C  
BRANCH  25  26
HETATM   26  N   UNL     1      -8.096  10.777  67.049  1.00  0.00    -0.120 N  
HETATM   27  H   UNL     1      -7.676  11.664  67.327  1.00  0.00     0.000 HD 
HETATM   28  C   UNL     1      -9.358  10.466  67.497  1.00  0.00    -0.149 C  
HETATM   29  O   UNL     1      -9.948   9.432  67.198  1.00  0.00    -0.177 OA 
BRANCH  28  30
HETATM   30  C   UNL     1      -9.975  11.500  68.404  1.00  0.00    -0.206 C  
BRANCH  30  31
HETATM   31  C   UNL     1     -11.288  11.982  67.809  1.00  0.00    -0.370 C  
BRANCH  31  32
HETATM   32  C   UNL     1     -11.099  13.288  67.068  1.00  0.00    -0.282 C  
HETATM   33  N   UNL     1     -11.289  14.463  67.754  1.00  0.00    -0.296 N  
HETATM   34  O   UNL     1     -10.702  13.269  65.900  1.00  0.00    -0.271 OA 
HETATM   35  O   UNL     1     -12.119  14.480  68.890  1.00  0.00    -0.301 OA 
BRANCH  33  36
HETATM   36  C   UNL     1     -11.200  15.774  67.107  1.00  0.00    -0.110 C  
BRANCH  36  37
HETATM   37  C   UNL     1      -9.906  16.508  67.465  1.00  0.00    -0.248 C  
BRANCH  37  38
HETATM   38  C   UNL     1      -9.993  18.009  67.168  1.00  0.00    -0.326 C  
BRANCH  38  39
HETATM   39  C   UNL     1      -8.808  18.773  67.767  1.00  0.00    -0.313 C  
BRANCH  39  40
HETATM   40  C   UNL     1      -7.466  18.333  67.178  1.00  0.00    -0.214 C  
HETATM   41  N   UNL     1      -7.466  18.405  65.721  1.00  0.00    -0.521 NA 
HETATM   42  H2  UNL     1      -7.728  19.335  65.395  1.00  0.00     0.000 HD 
HETATM   43  H1  UNL     1      -6.571  18.111  65.328  1.00  0.00     0.000 HD 
ENDBRANCH  39  40
ENDBRANCH  38  39
ENDBRANCH  37  38
ENDBRANCH  36  37
ENDBRANCH  33  36
ENDBRANCH  31  32
ENDBRANCH  30  31
ENDBRANCH  28  30
ENDBRANCH  25  26
ENDBRANCH  24  25
ENDBRANCH  23  24
ENDBRANCH  22  23
ENDBRANCH  21  22
ENDBRANCH  19  21
ENDBRANCH  16  17
ENDBRANCH  15  16
ENDBRANCH  12  15
ENDBRANCH  10  11
ENDBRANCH   9  10
ENDBRANCH   8   9
ENDBRANCH   7   8
ENDBRANCH   6   7
ENDBRANCH   3   6
TORSDOF 23
ENDMDL
MODEL      323
REMARK 921   NORMALIZED FREE ENERGY PREDICTED BY IDOCK:   -2.19 KCAL/MOL
REMARK 922        TOTAL FREE ENERGY PREDICTED BY IDOCK:   -7.89 KCAL/MOL
REMARK 923 INTER-LIGAND FREE ENERGY PREDICTED BY IDOCK:   -5.44 KCAL/MOL
REMARK 924 INTRA-LIGAND FREE ENERGY PREDICTED BY IDOCK:   -2.45 KCAL/MOL
REMARK 927      BINDING AFFINITY PREDICTED BY RF-SCORE:    0.00 PKD
ROOT
HETATM    1  C   UNL     1     -13.159  14.627  65.465  1.00  0.00     0.273 C  
HETATM    2  C   UNL     1     -11.720  14.693  65.026  1.00  0.00    -0.385 C  
HETATM    3  N   UNL     1     -10.891  13.696  65.471  1.00  0.00    -0.288 N  
HETATM    4  O   UNL     1     -11.325  15.627  64.328  1.00  0.00    -0.318 OA 
HETATM    5  O   UNL     1     -11.333  12.540  66.138  1.00  0.00    -0.307 OA 
ENDROOT
BRANCH   3   6
HETATM    6  C   UNL     1      -9.473  13.627  65.147  1.00  0.00     0.449 C  
BRANCH   6   7
HETATM    7  C   UNL     1      -8.622  14.506  66.065  1.00  0.00     0.763 C  
BRANCH   7   8
HETATM    8  C   UNL     1      -8.420  13.825  67.420  1.00  0.00    -0.209 C  
BRANCH   8   9
HETATM    9  C   UNL     1      -6.974  13.367  67.624  1.00  0.00    -0.168 C  
BRANCH   9  10
HETATM   10  C   UNL     1      -6.657  12.087  66.852  1.00  0.00    -0.047 C  
BRANCH  10  11
HETATM   11  N   UNL     1      -7.703  11.083  66.985  1.00  0.00    -0.127 N  
HETATM   12  C   UNL     1      -7.949  10.175  65.980  1.00  0.00    -0.124 C  
HETATM   13  H   UNL     1      -8.262  11.053  67.837  1.00  0.00     0.000 HD 
HETATM   14  O   UNL     1      -7.301  10.112  64.939  1.00  0.00    -0.137 OA 
BRANCH  12  15
HETATM   15  C   UNL     1      -9.099   9.240  66.290  1.00  0.00    -0.213 C  
BRANCH  15  16
HETATM   16  C   UNL     1      -8.596   7.996  67.019  1.00  0.00    -0.127 C  
BRANCH  16  17
HETATM   17  C   UNL     1      -9.298   6.733  66.559  1.00  0.00    -0.161 C  
HETATM   18  O   UNL     1     -10.481   6.531  66.824  1.00  0.00    -0.234 OA 
HETATM   19  N   UNL     1      -8.529   5.831  65.869  1.00  0.00    -0.133 N  
HETATM   20  O   UNL     1      -7.204   6.060  65.458  1.00  0.00    -0.070 OA 
BRANCH  19  21
HETATM   21  C   UNL     1      -9.017   4.537  65.417  1.00  0.00    -0.141 C  
BRANCH  21  22
HETATM   22  C   UNL     1      -8.416   3.375  66.214  1.00  0.00    -0.110 C  
BRANCH  22  23
HETATM   23  C   UNL     1      -9.319   2.912  67.373  1.00  0.00    -0.201 C  
BRANCH  23  24
HETATM   24  C   UNL     1      -9.324   3.877  68.559  1.00  0.00    -0.224 C  
BRANCH  24  25
HETATM   25  C   UNL     1      -8.226   3.536  69.564  1.00  0.00    -0.052 C  
BRANCH  25  26
HETATM   26  N   UNL     1      -8.452   4.181  70.842  1.00  0.00    -0.078 N  
HETATM   27  H   UNL     1      -9.366   4.592  71.035  1.00  0.00     0.000 HD 
HETATM   28  C   UNL     1      -7.470   4.256  71.801  1.00  0.00    -0.069 C  
HETATM   29  O   UNL     1      -6.350   3.773  71.662  1.00  0.00    -0.014 OA 
BRANCH  28  30
HETATM   30  C   UNL     1      -7.870   4.992  73.054  1.00  0.00    -0.097 C  
BRANCH  30  31
HETATM   31  C   UNL     1      -8.066   6.466  72.738  1.00  0.00    -0.107 C  
BRANCH  31  32
HETATM   32  C   UNL     1      -9.523   6.770  72.461  1.00  0.00    -0.139 C  
HETATM   33  N   UNL     1      -9.842   7.976  71.885  1.00  0.00    -0.177 N  
HETATM   34  O   UNL     1     -10.374   5.905  72.681  1.00  0.00    -0.187 OA 
HETATM   35  O   UNL     1      -8.969   9.071  72.034  1.00  0.00    -0.374 OA 
BRANCH  33  36
HETATM   36  C   UNL     1     -11.225   8.393  71.646  1.00  0.00    -0.278 C  
BRANCH  36  37
HETATM   37  C   UNL     1     -11.330   9.881  71.308  1.00  0.00    -0.404 C  
BRANCH  37  38
HETATM   38  C   UNL     1     -11.322  10.132  69.797  1.00  0.00    -0.312 C  
BRANCH  38  39
HETATM   39  C   UNL     1     -10.745  11.508  69.455  1.00  0.00    -0.118 C  
BRANCH  39  40
HETATM   40  C   UNL     1     -11.787  12.624  69.550  1.00  0.00    -0.312 C  
HETATM   41  N   UNL     1     -11.217  13.851  70.097  1.00  0.00    -0.478 NA 
HETATM   42  H2  UNL     1     -10.400  14.150  69.565  1.00  0.00     0.000 HD 
HETATM   43  H1  UNL     1     -11.912  14.595  70.161  1.00  0.00     0.000 HD 
ENDBRANCH  39  40
ENDBRANCH  38  39
ENDBRANCH  37  38
ENDBRANCH  36  37
ENDBRANCH  33  36
ENDBRANCH  31  32
ENDBRANCH  30  31
ENDBRANCH  28  30
ENDBRANCH  25  26
ENDBRANCH  24  25
ENDBRANCH  23  24
ENDBRANCH  22  23
ENDBRANCH  21  22
ENDBRANCH  19  21
ENDBRANCH  16  17
ENDBRANCH  15  16
ENDBRANCH  12  15
ENDBRANCH  10  11
ENDBRANCH   9  10
ENDBRANCH   8   9
ENDBRANCH   7   8
ENDBRANCH   6   7
ENDBRANCH   3   6
TORSDOF 23
ENDMDL
MODEL      324
REMARK 921   NORMALIZED FREE ENERGY PREDICTED BY IDOCK:   -2.19 KCAL/MOL
REMARK 922        TOTAL FREE ENERGY PREDICTED BY IDOCK:   -7.89 KCAL/MOL
REMARK 923 INTER-LIGAND FREE ENERGY PREDICTED BY IDOCK:   -7.09 KCAL/MOL
REMARK 924 INTRA-LIGAND FREE ENERGY PREDICTED BY IDOCK:   -0.80 KCAL/MOL
REMARK 927      BINDING AFFINITY PREDICTED BY RF-SCORE:    0.00 PKD
ROOT
HETATM    1  C   UNL     1     -11.813  13.089  69.989  1.00  0.00    -0.355 C  
HETATM    2  C   UNL     1     -11.988  12.295  68.721  1.00  0.00    -0.231 C  
HETATM    3  N   UNL     1     -11.948  12.994  67.543  1.00  0.00    -0.342 N  
HETATM    4  O   UNL     1     -12.189  11.081  68.771  1.00  0.00    -0.546 OA 
HETATM    5  O   UNL     1     -11.573  14.344  67.438  1.00  0.00    -0.339 OA 
ENDROOT
BRANCH   3   6
HETATM    6  C   UNL     1     -12.117  12.374  66.236  1.00  0.00    -0.180 C  
BRANCH   6   7
HETATM    7  C   UNL     1     -12.621  13.362  65.182  1.00  0.00    -0.495 C  
BRANCH   7   8
HETATM    8  C   UNL     1     -11.873  13.163  63.863  1.00  0.00    -0.533 C  
BRANCH   8   9
HETATM    9  C   UNL     1     -10.382  12.899  64.080  1.00  0.00    -0.385 C  
BRANCH   9  10
HETATM   10  C   UNL     1     -10.081  11.414  64.290  1.00  0.00    -0.297 C  
BRANCH  10  11
HETATM   11  N   UNL     1      -8.731  11.058  63.882  1.00  0.00    -0.375 N  
HETATM   12  C   UNL     1      -8.506  10.078  62.941  1.00  0.00    -0.175 C  
HETATM   13  H   UNL     1      -7.937  11.542  64.301  1.00  0.00     0.000 HD 
HETATM   14  O   UNL     1      -9.400   9.471  62.357  1.00  0.00    -0.245 OA 
BRANCH  12  15
HETATM   15  C   UNL     1      -7.037   9.826  62.680  1.00  0.00    -0.112 C  
BRANCH  15  16
HETATM   16  C   UNL     1      -6.540   8.648  63.514  1.00  0.00    -0.088 C  
BRANCH  16  17
HETATM   17  C   UNL     1      -6.123   9.064  64.912  1.00  0.00    -0.065 C  
HETATM   18  O   UNL     1      -6.183  10.239  65.270  1.00  0.00    -0.110 OA 
HETATM   19  N   UNL     1      -5.651   8.065  65.724  1.00  0.00    -0.036 N  
HETATM   20  O   UNL     1      -5.655   6.699  65.396  1.00  0.00    -0.028 OA 
BRANCH  19  21
HETATM   21  C   UNL     1      -5.139   8.294  67.068  1.00  0.00    -0.028 C  
BRANCH  21  22
HETATM   22  C   UNL     1      -6.234   8.198  68.134  1.00  0.00    -0.050 C  
BRANCH  22  23
HETATM   23  C   UNL     1      -7.364   7.226  67.749  1.00  0.00    -0.093 C  
BRANCH  23  24
HETATM   24  C   UNL     1      -6.998   5.757  67.963  1.00  0.00    -0.065 C  
BRANCH  24  25
HETATM   25  C   UNL     1      -7.472   5.253  69.324  1.00  0.00    -0.062 C  
BRANCH  25  26
HETATM   26  N   UNL     1      -8.792   5.756  69.651  1.00  0.00    -0.121 N  
HETATM   27  H   UNL     1      -8.971   6.758  69.583  1.00  0.00     0.000 HD 
HETATM   28  C   UNL     1      -9.808   4.920  70.049  1.00  0.00    -0.233 C  
HETATM   29  O   UNL     1      -9.689   3.702  70.138  1.00  0.00    -0.192 OA 
BRANCH  28  30
HETATM   30  C   UNL     1     -11.102   5.619  70.380  1.00  0.00    -0.195 C  
BRANCH  30  31
HETATM   31  C   UNL     1     -11.429   5.415  71.851  1.00  0.00     0.025 C  
BRANCH  31  32
HETATM   32  C   UNL     1     -11.062   6.639  72.662  1.00  0.00    -0.257 C  
HETATM   33  N   UNL     1      -9.753   6.798  73.049  1.00  0.00    -0.157 N  
HETATM   34  O   UNL     1     -11.919   7.497  72.883  1.00  0.00    -0.117 OA 
HETATM   35  O   UNL     1      -8.920   5.669  73.168  1.00  0.00    -0.123 OA 
BRANCH  33  36
HETATM   36  C   UNL     1      -9.313   7.909  73.896  1.00  0.00    -0.032 C  
BRANCH  36  37
HETATM   37  C   UNL     1      -7.838   8.251  73.678  1.00  0.00    -0.213 C  
BRANCH  37  38
HETATM   38  C   UNL     1      -7.433   8.147  72.204  1.00  0.00    -0.124 C  
BRANCH  38  39
HETATM   39  C   UNL     1      -6.339   7.096  71.991  1.00  0.00    -0.044 C  
BRANCH  39  40
HETATM   40  C   UNL     1      -5.389   6.986  73.185  1.00  0.00    -0.038 C  
HETATM   41  N   UNL     1      -5.616   5.761  73.945  1.00  0.00    -0.035 NA 
HETATM   42  H2  UNL     1      -5.560   4.937  73.348  1.00  0.00     0.000 HD 
HETATM   43  H1  UNL     1      -4.983   5.688  74.742  1.00  0.00     0.000 HD 
ENDBRANCH  39  40
ENDBRANCH  38  39
ENDBRANCH  37  38
ENDBRANCH  36  37
ENDBRANCH  33  36
ENDBRANCH  31  32
ENDBRANCH  30  31
ENDBRANCH  28  30
ENDBRANCH  25  26
ENDBRANCH  24  25
ENDBRANCH  23  24
ENDBRANCH  22  23
ENDBRANCH  21  22
ENDBRANCH  19  21
ENDBRANCH  16  17
ENDBRANCH  15  16
ENDBRANCH  12  15
ENDBRANCH  10  11
ENDBRANCH   9  10
ENDBRANCH   8   9
ENDBRANCH   7   8
ENDBRANCH   6   7
ENDBRANCH   3   6
TORSDOF 23
ENDMDL
MODEL      325
REMARK 921   NORMALIZED FREE ENERGY PREDICTED BY IDOCK:   -2.19 KCAL/MOL
REMARK 922        TOTAL FREE ENERGY PREDICTED BY IDOCK:   -7.88 KCAL/MOL
REMARK 923 INTER-LIGAND FREE ENERGY PREDICTED BY IDOCK:   -6.16 KCAL/MOL
REMARK 924 INTRA-LIGAND FREE ENERGY PREDICTED BY IDOCK:   -1.72 KCAL/MOL
REMARK 927      BINDING AFFINITY PREDICTED BY RF-SCORE:    0.00 PKD
ROOT
HETATM    1  C   UNL     1     -10.101   9.215  65.809  1.00  0.00    -0.005 C  
HETATM    2  C   UNL     1     -10.377   8.638  67.172  1.00  0.00    -0.299 C  
HETATM    3  N   UNL     1     -10.695   7.307  67.228  1.00  0.00    -0.319 N  
HETATM    4  O   UNL     1     -10.344   9.359  68.170  1.00  0.00    -0.191 OA 
HETATM    5  O   UNL     1     -10.595   6.425  66.139  1.00  0.00     0.132 OA 
ENDROOT
BRANCH   3   6
HETATM    6  C   UNL     1     -11.002   6.606  68.468  1.00  0.00    -0.244 C  
BRANCH   6   7
HETATM    7  C   UNL     1     -10.362   5.218  68.528  1.00  0.00    -0.182 C  
BRANCH   7   8
HETATM    8  C   UNL     1      -9.190   5.212  69.511  1.00  0.00    -0.163 C  
BRANCH   8   9
HETATM    9  C   UNL     1      -7.843   5.075  68.799  1.00  0.00    -0.078 C  
BRANCH   9  10
HETATM   10  C   UNL     1      -7.194   3.712  69.044  1.00  0.00    -0.050 C  
BRANCH  10  11
HETATM   11  N   UNL     1      -7.283   3.296  70.436  1.00  0.00    -0.037 N  
HETATM   12  C   UNL     1      -6.625   3.987  71.429  1.00  0.00    -0.026 C  
HETATM   13  H   UNL     1      -7.842   2.479  70.680  1.00  0.00     0.000 HD 
HETATM   14  O   UNL     1      -5.962   5.003  71.233  1.00  0.00    -0.016 OA 
BRANCH  12  15
HETATM   15  C   UNL     1      -6.809   3.379  72.803  1.00  0.00    -0.038 C  
BRANCH  15  16
HETATM   16  C   UNL     1      -8.143   2.643  72.887  1.00  0.00    -0.066 C  
BRANCH  16  17
HETATM   17  C   UNL     1      -9.325   3.557  72.627  1.00  0.00    -0.110 C  
HETATM   18  O   UNL     1     -10.114   3.332  71.711  1.00  0.00    -0.154 OA 
HETATM   19  N   UNL     1      -9.435   4.651  73.447  1.00  0.00    -0.118 N  
HETATM   20  O   UNL     1      -8.619   4.897  74.565  1.00  0.00    -0.109 OA 
BRANCH  19  21
HETATM   21  C   UNL     1     -10.462   5.671  73.295  1.00  0.00    -0.231 C  
BRANCH  21  22
HETATM   22  C   UNL     1      -9.873   7.055  73.010  1.00  0.00    -0.217 C  
BRANCH  22  23
HETATM   23  C   UNL     1     -10.647   7.825  71.923  1.00  0.00    -0.270 C  
BRANCH  23  24
HETATM   24  C   UNL     1      -9.801   8.881  71.212  1.00  0.00    -0.361 C  
BRANCH  24  25
HETATM   25  C   UNL     1      -8.378   8.385  70.962  1.00  0.00    -0.134 C  
BRANCH  25  26
HETATM   26  N   UNL     1      -7.848   8.890  69.711  1.00  0.00    -0.086 N  
HETATM   27  H   UNL     1      -8.121   8.437  68.839  1.00  0.00     0.000 HD 
HETATM   28  C   UNL     1      -6.987   9.961  69.668  1.00  0.00    -0.086 C  
HETATM   29  O   UNL     1      -6.621  10.577  70.664  1.00  0.00    -0.313 OA 
BRANCH  28  30
HETATM   30  C   UNL     1      -6.509  10.326  68.286  1.00  0.00    -0.056 C  
BRANCH  30  31
HETATM   31  C   UNL     1      -6.260  11.825  68.213  1.00  0.00    -0.050 C  
BRANCH  31  32
HETATM   32  C   UNL     1      -7.539  12.598  68.456  1.00  0.00    -0.121 C  
HETATM   33  N   UNL     1      -8.612  12.363  67.631  1.00  0.00    -0.161 N  
HETATM   34  O   UNL     1      -7.613  13.352  69.428  1.00  0.00     0.221 OA 
HETATM   35  O   UNL     1      -8.397  11.861  66.334  1.00  0.00    -0.118 OA 
BRANCH  33  36
HETATM   36  C   UNL     1      -9.866  13.111  67.740  1.00  0.00    -0.228 C  
BRANCH  36  37
HETATM   37  C   UNL     1     -10.178  13.902  66.468  1.00  0.00    -0.280 C  
BRANCH  37  38
HETATM   38  C   UNL     1     -11.628  13.711  66.010  1.00  0.00    -0.358 C  
BRANCH  38  39
HETATM   39  C   UNL     1     -12.143  14.931  65.241  1.00  0.00    -0.117 C  
BRANCH  39  40
HETATM   40  C   UNL     1     -11.020  15.715  64.560  1.00  0.00    -0.200 C  
HETATM   41  N   UNL     1     -11.305  17.146  64.523  1.00  0.00    -0.926 NA 
HETATM   42  H2  UNL     1     -11.501  17.510  65.455  1.00  0.00     0.000 HD 
HETATM   43  H1  UNL     1     -10.556  17.669  64.069  1.00  0.00     0.000 HD 
ENDBRANCH  39  40
ENDBRANCH  38  39
ENDBRANCH  37  38
ENDBRANCH  36  37
ENDBRANCH  33  36
ENDBRANCH  31  32
ENDBRANCH  30  31
ENDBRANCH  28  30
ENDBRANCH  25  26
ENDBRANCH  24  25
ENDBRANCH  23  24
ENDBRANCH  22  23
ENDBRANCH  21  22
ENDBRANCH  19  21
ENDBRANCH  16  17
ENDBRANCH  15  16
ENDBRANCH  12  15
ENDBRANCH  10  11
ENDBRANCH   9  10
ENDBRANCH   8   9
ENDBRANCH   7   8
ENDBRANCH   6   7
ENDBRANCH   3   6
TORSDOF 23
ENDMDL
MODEL      326
REMARK 921   NORMALIZED FREE ENERGY PREDICTED BY IDOCK:   -2.18 KCAL/MOL
REMARK 922        TOTAL FREE ENERGY PREDICTED BY IDOCK:   -7.86 KCAL/MOL
REMARK 923 INTER-LIGAND FREE ENERGY PREDICTED BY IDOCK:   -6.62 KCAL/MOL
REMARK 924 INTRA-LIGAND FREE ENERGY PREDICTED BY IDOCK:   -1.24 KCAL/MOL
REMARK 927      BINDING AFFINITY PREDICTED BY RF-SCORE:    0.00 PKD
ROOT
HETATM    1  C   UNL     1     -10.608   3.540  63.543  1.00  0.00    -0.263 C  
HETATM    2  C   UNL     1      -9.713   3.577  64.754  1.00  0.00    -0.165 C  
HETATM    3  N   UNL     1      -8.442   3.088  64.600  1.00  0.00    -0.093 N  
HETATM    4  O   UNL     1     -10.139   4.002  65.828  1.00  0.00    -0.179 OA 
HETATM    5  O   UNL     1      -7.875   2.738  63.362  1.00  0.00    -0.069 OA 
ENDROOT
BRANCH   3   6
HETATM    6  C   UNL     1      -7.465   3.040  65.678  1.00  0.00    -0.073 C  
BRANCH   6   7
HETATM    7  C   UNL     1      -6.413   4.145  65.561  1.00  0.00    -0.036 C  
BRANCH   7   8
HETATM    8  C   UNL     1      -5.490   4.136  66.781  1.00  0.00    -0.013 C  
BRANCH   8   9
HETATM    9  C   UNL     1      -5.502   5.474  67.522  1.00  0.00    -0.012 C  
BRANCH   9  10
HETATM   10  C   UNL     1      -6.814   5.710  68.271  1.00  0.00    -0.063 C  
BRANCH  10  11
HETATM   11  N   UNL     1      -7.164   7.121  68.348  1.00  0.00    -0.088 N  
HETATM   12  C   UNL     1      -6.300   8.040  68.900  1.00  0.00    -0.040 C  
HETATM   13  H   UNL     1      -8.065   7.433  67.987  1.00  0.00     0.000 HD 
HETATM   14  O   UNL     1      -5.182   7.761  69.322  1.00  0.00    -0.018 OA 
BRANCH  12  15
HETATM   15  C   UNL     1      -6.860   9.446  68.923  1.00  0.00    -0.055 C  
BRANCH  15  16
HETATM   16  C   UNL     1      -7.290   9.827  70.338  1.00  0.00    -0.151 C  
BRANCH  16  17
HETATM   17  C   UNL     1      -7.550   8.614  71.209  1.00  0.00    -0.110 C  
HETATM   18  O   UNL     1      -6.733   8.248  72.051  1.00  0.00    -0.067 OA 
HETATM   19  N   UNL     1      -8.724   7.943  70.977  1.00  0.00    -0.130 N  
HETATM   20  O   UNL     1      -9.732   8.377  70.099  1.00  0.00    -0.171 OA 
BRANCH  19  21
HETATM   21  C   UNL     1      -9.102   6.719  71.667  1.00  0.00    -0.144 C  
BRANCH  21  22
HETATM   22  C   UNL     1     -10.166   6.959  72.743  1.00  0.00    -0.214 C  
BRANCH  22  23
HETATM   23  C   UNL     1     -11.535   6.353  72.379  1.00  0.00    -0.320 C  
BRANCH  23  24
HETATM   24  C   UNL     1     -11.923   6.572  70.916  1.00  0.00    -0.353 C  
BRANCH  24  25
HETATM   25  C   UNL     1     -13.286   7.250  70.793  1.00  0.00     0.187 C  
BRANCH  25  26
HETATM   26  N   UNL     1     -13.163   8.693  70.757  1.00  0.00    -0.299 N  
HETATM   27  H   UNL     1     -12.891   9.146  69.884  1.00  0.00     0.000 HD 
HETATM   28  C   UNL     1     -13.404   9.469  71.866  1.00  0.00    -0.437 C  
HETATM   29  O   UNL     1     -13.754   9.012  72.950  1.00  0.00    -0.365 OA 
BRANCH  28  30
HETATM   30  C   UNL     1     -13.196  10.947  71.655  1.00  0.00    -0.471 C  
BRANCH  30  31
HETATM   31  C   UNL     1     -11.771  11.199  71.186  1.00  0.00     0.209 C  
BRANCH  31  32
HETATM   32  C   UNL     1     -11.739  11.537  69.711  1.00  0.00    -0.353 C  
HETATM   33  N   UNL     1     -11.716  12.860  69.343  1.00  0.00    -0.309 N  
HETATM   34  O   UNL     1     -11.653  10.626  68.884  1.00  0.00    -0.274 OA 
HETATM   35  O   UNL     1     -12.231  13.835  70.218  1.00  0.00    -0.326 OA 
BRANCH  33  36
HETATM   36  C   UNL     1     -11.758  13.288  67.943  1.00  0.00    -0.357 C  
BRANCH  36  37
HETATM   37  C   UNL     1     -10.396  13.155  67.258  1.00  0.00    -0.243 C  
BRANCH  37  38
HETATM   38  C   UNL     1      -9.270  13.778  68.089  1.00  0.00    -0.199 C  
BRANCH  38  39
HETATM   39  C   UNL     1      -8.173  12.758  68.410  1.00  0.00    -0.128 C  
BRANCH  39  40
HETATM   40  C   UNL     1      -6.776  13.263  68.046  1.00  0.00    -0.127 C  
HETATM   41  N   UNL     1      -6.827  14.548  67.356  1.00  0.00    -0.303 NA 
HETATM   42  H2  UNL     1      -7.343  15.240  67.899  1.00  0.00     0.000 HD 
HETATM   43  H1  UNL     1      -5.895  14.885  67.114  1.00  0.00     0.000 HD 
ENDBRANCH  39  40
ENDBRANCH  38  39
ENDBRANCH  37  38
ENDBRANCH  36  37
ENDBRANCH  33  36
ENDBRANCH  31  32
ENDBRANCH  30  31
ENDBRANCH  28  30
ENDBRANCH  25  26
ENDBRANCH  24  25
ENDBRANCH  23  24
ENDBRANCH  22  23
ENDBRANCH  21  22
ENDBRANCH  19  21
ENDBRANCH  16  17
ENDBRANCH  15  16
ENDBRANCH  12  15
ENDBRANCH  10  11
ENDBRANCH   9  10
ENDBRANCH   8   9
ENDBRANCH   7   8
ENDBRANCH   6   7
ENDBRANCH   3   6
TORSDOF 23
ENDMDL
MODEL      327
REMARK 921   NORMALIZED FREE ENERGY PREDICTED BY IDOCK:   -2.06 KCAL/MOL
REMARK 922        TOTAL FREE ENERGY PREDICTED BY IDOCK:   -7.59 KCAL/MOL
REMARK 923 INTER-LIGAND FREE ENERGY PREDICTED BY IDOCK:   -7.20 KCAL/MOL
REMARK 924 INTRA-LIGAND FREE ENERGY PREDICTED BY IDOCK:   -0.39 KCAL/MOL
REMARK 927      BINDING AFFINITY PREDICTED BY RF-SCORE:    0.00 PKD
ROOT
HETATM    1  C   UNL     1      -9.962   1.490  66.756  1.00  0.00     1.019 C  
HETATM    2  C   UNL     1      -8.666   2.139  67.164  1.00  0.00    -0.119 C  
HETATM    3  N   UNL     1      -8.481   3.443  66.788  1.00  0.00    -0.104 N  
HETATM    4  O   UNL     1      -7.815   1.494  67.777  1.00  0.00    -0.057 OA 
HETATM    5  O   UNL     1      -9.483   4.252  66.224  1.00  0.00    -0.152 OA 
ENDROOT
BRANCH   3   6
HETATM    6  C   UNL     1      -7.277   4.203  67.092  1.00  0.00    -0.068 C  
BRANCH   6   7
HETATM    7  C   UNL     1      -7.495   5.713  66.978  1.00  0.00    -0.084 C  
BRANCH   7   8
HETATM    8  C   UNL     1      -6.153   6.442  66.889  1.00  0.00    -0.025 C  
BRANCH   8   9
HETATM    9  C   UNL     1      -5.424   6.472  68.234  1.00  0.00    -0.012 C  
BRANCH   9  10
HETATM   10  C   UNL     1      -6.274   7.097  69.340  1.00  0.00    -0.035 C  
BRANCH  10  11
HETATM   11  N   UNL     1      -7.641   6.598  69.341  1.00  0.00    -0.094 N  
HETATM   12  C   UNL     1      -8.712   7.454  69.465  1.00  0.00    -0.137 C  
HETATM   13  H   UNL     1      -7.808   5.596  69.248  1.00  0.00     0.000 HD 
HETATM   14  O   UNL     1      -8.607   8.675  69.542  1.00  0.00    -0.126 OA 
BRANCH  12  15
HETATM   15  C   UNL     1     -10.047   6.742  69.482  1.00  0.00    -0.192 C  
BRANCH  15  16
HETATM   16  C   UNL     1     -10.513   6.515  70.918  1.00  0.00    -0.263 C  
BRANCH  16  17
HETATM   17  C   UNL     1     -11.842   7.184  71.208  1.00  0.00    -0.318 C  
HETATM   18  O   UNL     1     -12.863   6.858  70.606  1.00  0.00    -0.168 OA 
HETATM   19  N   UNL     1     -11.824   8.184  72.146  1.00  0.00    -0.336 N  
HETATM   20  O   UNL     1     -10.708   8.524  72.930  1.00  0.00    -0.151 OA 
BRANCH  19  21
HETATM   21  C   UNL     1     -12.990   8.982  72.496  1.00  0.00    -0.361 C  
BRANCH  21  22
HETATM   22  C   UNL     1     -13.094  10.262  71.662  1.00  0.00    -0.553 C  
BRANCH  22  23
HETATM   23  C   UNL     1     -11.827  10.541  70.830  1.00  0.00    -0.455 C  
BRANCH  23  24
HETATM   24  C   UNL     1     -12.107  10.689  69.334  1.00  0.00    -0.250 C  
BRANCH  24  25
HETATM   25  C   UNL     1     -11.231  11.770  68.704  1.00  0.00    -0.257 C  
BRANCH  25  26
HETATM   26  N   UNL     1     -11.527  11.946  67.297  1.00  0.00    -0.321 N  
HETATM   27  H   UNL     1     -12.205  12.657  67.019  1.00  0.00     0.000 HD 
HETATM   28  C   UNL     1     -10.922  11.183  66.326  1.00  0.00    -0.163 C  
HETATM   29  O   UNL     1     -10.083  10.321  66.568  1.00  0.00    -0.213 OA 
BRANCH  28  30
HETATM   30  C   UNL     1     -11.377  11.480  64.920  1.00  0.00    -0.189 C  
BRANCH  30  31
HETATM   31  C   UNL     1     -12.580  12.409  64.959  1.00  0.00    -0.305 C  
BRANCH  31  32
HETATM   32  C   UNL     1     -12.185  13.821  64.580  1.00  0.00    -0.406 C  
HETATM   33  N   UNL     1     -11.905  14.714  65.586  1.00  0.00    -0.314 N  
HETATM   34  O   UNL     1     -12.046  14.111  63.390  1.00  0.00    -0.399 OA 
HETATM   35  O   UNL     1     -12.460  14.519  66.865  1.00  0.00    -0.229 OA 
BRANCH  33  36
HETATM   36  C   UNL     1     -11.585  16.119  65.324  1.00  0.00     0.364 C  
BRANCH  36  37
HETATM   37  C   UNL     1     -10.158  16.475  65.746  1.00  0.00    -0.328 C  
BRANCH  37  38
HETATM   38  C   UNL     1     -10.082  17.847  66.424  1.00  0.00    -0.369 C  
BRANCH  38  39
HETATM   39  C   UNL     1      -8.666  18.156  66.918  1.00  0.00    -0.267 C  
BRANCH  39  40
HETATM   40  C   UNL     1      -8.626  18.516  68.404  1.00  0.00    -0.331 C  
HETATM   41  N   UNL     1      -9.818  19.250  68.814  1.00  0.00    -0.430 NA 
HETATM   42  H2  UNL     1     -10.669  18.740  68.577  1.00  0.00     0.000 HD 
HETATM   43  H1  UNL     1      -9.792  19.491  69.805  1.00  0.00     0.000 HD 
ENDBRANCH  39  40
ENDBRANCH  38  39
ENDBRANCH  37  38
ENDBRANCH  36  37
ENDBRANCH  33  36
ENDBRANCH  31  32
ENDBRANCH  30  31
ENDBRANCH  28  30
ENDBRANCH  25  26
ENDBRANCH  24  25
ENDBRANCH  23  24
ENDBRANCH  22  23
ENDBRANCH  21  22
ENDBRANCH  19  21
ENDBRANCH  16  17
ENDBRANCH  15  16
ENDBRANCH  12  15
ENDBRANCH  10  11
ENDBRANCH   9  10
ENDBRANCH   8   9
ENDBRANCH   7   8
ENDBRANCH   6   7
ENDBRANCH   3   6
TORSDOF 23
ENDMDL
MODEL      328
REMARK 921   NORMALIZED FREE ENERGY PREDICTED BY IDOCK:   -2.05 KCAL/MOL
REMARK 922        TOTAL FREE ENERGY PREDICTED BY IDOCK:   -7.55 KCAL/MOL
REMARK 923 INTER-LIGAND FREE ENERGY PREDICTED BY IDOCK:   -6.59 KCAL/MOL
REMARK 924 INTRA-LIGAND FREE ENERGY PREDICTED BY IDOCK:   -0.97 KCAL/MOL
REMARK 927      BINDING AFFINITY PREDICTED BY RF-SCORE:    0.00 PKD
ROOT
HETATM    1  C   UNL     1     -12.172  10.642  70.814  1.00  0.00    -0.474 C  
HETATM    2  C   UNL     1     -11.496  10.782  69.475  1.00  0.00    -0.294 C  
HETATM    3  N   UNL     1     -11.364  12.053  68.979  1.00  0.00    -0.255 N  
HETATM    4  O   UNL     1     -11.118   9.783  68.862  1.00  0.00    -0.191 OA 
HETATM    5  O   UNL     1     -11.642  13.219  69.711  1.00  0.00    -0.276 OA 
ENDROOT
BRANCH   3   6
HETATM    6  C   UNL     1     -10.748  12.352  67.694  1.00  0.00    -0.221 C  
BRANCH   6   7
HETATM    7  C   UNL     1     -10.204  13.780  67.626  1.00  0.00    -0.242 C  
BRANCH   7   8
HETATM    8  C   UNL     1     -10.951  14.586  66.562  1.00  0.00    -0.321 C  
BRANCH   8   9
HETATM    9  C   UNL     1     -10.761  16.094  66.743  1.00  0.00    -0.235 C  
BRANCH   9  10
HETATM   10  C   UNL     1     -10.890  16.523  68.205  1.00  0.00    -0.352 C  
BRANCH  10  11
HETATM   11  N   UNL     1      -9.596  16.736  68.838  1.00  0.00    -0.254 N  
HETATM   12  C   UNL     1      -8.715  17.678  68.357  1.00  0.00    -0.284 C  
HETATM   13  H   UNL     1      -9.339  16.177  69.652  1.00  0.00     0.000 HD 
HETATM   14  O   UNL     1      -8.956  18.420  67.410  1.00  0.00    -0.258 OA 
BRANCH  12  15
HETATM   15  C   UNL     1      -7.411  17.722  69.125  1.00  0.00    -0.114 C  
BRANCH  15  16
HETATM   16  C   UNL     1      -6.236  17.410  68.202  1.00  0.00    -0.155 C  
BRANCH  16  17
HETATM   17  C   UNL     1      -6.439  16.125  67.421  1.00  0.00    -0.182 C  
HETATM   18  O   UNL     1      -6.631  16.142  66.207  1.00  0.00     0.114 OA 
HETATM   19  N   UNL     1      -6.426  14.965  68.153  1.00  0.00    -0.120 N  
HETATM   20  O   UNL     1      -6.113  14.887  69.521  1.00  0.00    -0.100 OA 
BRANCH  19  21
HETATM   21  C   UNL     1      -6.676  13.650  67.582  1.00  0.00    -0.174 C  
BRANCH  21  22
HETATM   22  C   UNL     1      -5.823  12.558  68.232  1.00  0.00    -0.062 C  
BRANCH  22  23
HETATM   23  C   UNL     1      -6.645  11.602  69.118  1.00  0.00    -0.101 C  
BRANCH  23  24
HETATM   24  C   UNL     1      -7.304  10.467  68.332  1.00  0.00    -0.086 C  
BRANCH  24  25
HETATM   25  C   UNL     1      -6.434  10.017  67.161  1.00  0.00    -0.069 C  
BRANCH  25  26
HETATM   26  N   UNL     1      -6.975   8.839  66.514  1.00  0.00    -0.078 N  
HETATM   27  H   UNL     1      -7.582   8.954  65.702  1.00  0.00     0.000 HD 
HETATM   28  C   UNL     1      -6.695   7.570  66.964  1.00  0.00    -0.066 C  
HETATM   29  O   UNL     1      -5.961   7.338  67.920  1.00  0.00    -0.031 OA 
BRANCH  28  30
HETATM   30  C   UNL     1      -7.371   6.466  66.192  1.00  0.00    -0.080 C  
BRANCH  30  31
HETATM   31  C   UNL     1      -8.880   6.623  66.294  1.00  0.00    -0.156 C  
BRANCH  31  32
HETATM   32  C   UNL     1      -9.329   6.599  67.740  1.00  0.00    -0.119 C  
HETATM   33  N   UNL     1      -9.593   5.383  68.322  1.00  0.00    -0.119 N  
HETATM   34  O   UNL     1      -9.369   7.653  68.378  1.00  0.00    -0.146 OA 
HETATM   35  O   UNL     1      -9.953   4.287  67.514  1.00  0.00    -0.146 OA 
BRANCH  33  36
HETATM   36  C   UNL     1     -10.102   5.259  69.689  1.00  0.00    -0.257 C  
BRANCH  36  37
HETATM   37  C   UNL     1      -8.980   5.033  70.704  1.00  0.00    -0.164 C  
BRANCH  37  38
HETATM   38  C   UNL     1      -9.065   3.651  71.360  1.00  0.00    -0.180 C  
BRANCH  38  39
HETATM   39  C   UNL     1     -10.410   3.440  72.062  1.00  0.00    -0.028 C  
BRANCH  39  40
HETATM   40  C   UNL     1     -10.935   4.715  72.723  1.00  0.00    -0.160 C  
HETATM   41  N   UNL     1     -11.876   4.419  73.799  1.00  0.00    -0.152 NA 
HETATM   42  H2  UNL     1     -11.467   3.786  74.485  1.00  0.00     0.000 HD 
HETATM   43  H1  UNL     1     -12.226   5.270  74.240  1.00  0.00     0.000 HD 
ENDBRANCH  39  40
ENDBRANCH  38  39
ENDBRANCH  37  38
ENDBRANCH  36  37
ENDBRANCH  33  36
ENDBRANCH  31  32
ENDBRANCH  30  31
ENDBRANCH  28  30
ENDBRANCH  25  26
ENDBRANCH  24  25
ENDBRANCH  23  24
ENDBRANCH  22  23
ENDBRANCH  21  22
ENDBRANCH  19  21
ENDBRANCH  16  17
ENDBRANCH  15  16
ENDBRANCH  12  15
ENDBRANCH  10  11
ENDBRANCH   9  10
ENDBRANCH   8   9
ENDBRANCH   7   8
ENDBRANCH   6   7
ENDBRANCH   3   6
TORSDOF 23
ENDMDL
MODEL      329
REMARK 921   NORMALIZED FREE ENERGY PREDICTED BY IDOCK:   -2.01 KCAL/MOL
REMARK 922        TOTAL FREE ENERGY PREDICTED BY IDOCK:   -7.46 KCAL/MOL
REMARK 923 INTER-LIGAND FREE ENERGY PREDICTED BY IDOCK:   -6.84 KCAL/MOL
REMARK 924 INTRA-LIGAND FREE ENERGY PREDICTED BY IDOCK:   -0.62 KCAL/MOL
REMARK 927      BINDING AFFINITY PREDICTED BY RF-SCORE:    0.00 PKD
ROOT
HETATM    1  C   UNL     1     -12.810  10.817  72.081  1.00  0.00    -0.199 C  
HETATM    2  C   UNL     1     -13.192   9.428  71.640  1.00  0.00    -0.397 C  
HETATM    3  N   UNL     1     -12.173   8.606  71.234  1.00  0.00    -0.294 N  
HETATM    4  O   UNL     1     -14.374   9.084  71.624  1.00  0.00    -0.281 OA 
HETATM    5  O   UNL     1     -10.809   8.908  71.381  1.00  0.00    -0.256 OA 
ENDROOT
BRANCH   3   6
HETATM    6  C   UNL     1     -12.381   7.243  70.766  1.00  0.00    -0.182 C  
BRANCH   6   7
HETATM    7  C   UNL     1     -11.255   6.763  69.848  1.00  0.00    -0.379 C  
BRANCH   7   8
HETATM    8  C   UNL     1     -10.696   5.427  70.341  1.00  0.00    -0.276 C  
BRANCH   8   9
HETATM    9  C   UNL     1      -9.254   5.554  70.838  1.00  0.00    -0.179 C  
BRANCH   9  10
HETATM   10  C   UNL     1      -8.437   6.539  70.000  1.00  0.00    -0.135 C  
BRANCH  10  11
HETATM   11  N   UNL     1      -7.239   6.994  70.690  1.00  0.00    -0.067 N  
HETATM   12  C   UNL     1      -7.316   7.871  71.748  1.00  0.00    -0.073 C  
HETATM   13  H   UNL     1      -6.327   6.656  70.383  1.00  0.00     0.000 HD 
HETATM   14  O   UNL     1      -8.371   8.297  72.209  1.00  0.00    -0.143 OA 
BRANCH  12  15
HETATM   15  C   UNL     1      -5.962   8.254  72.306  1.00  0.00    -0.053 C  
BRANCH  15  16
HETATM   16  C   UNL     1      -5.137   8.986  71.251  1.00  0.00    -0.031 C  
BRANCH  16  17
HETATM   17  C   UNL     1      -5.904  10.122  70.602  1.00  0.00    -0.096 C  
HETATM   18  O   UNL     1      -6.533   9.950  69.560  1.00  0.00    -0.044 OA 
HETATM   19  N   UNL     1      -5.825  11.339  71.227  1.00  0.00     0.186 N  
HETATM   20  O   UNL     1      -5.204  11.562  72.469  1.00  0.00    -0.315 OA 
BRANCH  19  21
HETATM   21  C   UNL     1      -6.437  12.553  70.707  1.00  0.00     1.139 C  
BRANCH  21  22
HETATM   22  C   UNL     1      -6.025  13.800  71.495  1.00  0.00     0.052 C  
BRANCH  22  23
HETATM   23  C   UNL     1      -5.623  14.978  70.588  1.00  0.00    -0.134 C  
BRANCH  23  24
HETATM   24  C   UNL     1      -6.818  15.686  69.950  1.00  0.00    -0.073 C  
BRANCH  24  25
HETATM   25  C   UNL     1      -6.420  17.036  69.357  1.00  0.00    -0.236 C  
BRANCH  25  26
HETATM   26  N   UNL     1      -7.181  17.341  68.162  1.00  0.00    -0.190 N  
HETATM   27  H   UNL     1      -7.348  16.602  67.479  1.00  0.00     0.000 HD 
HETATM   28  C   UNL     1      -7.685  18.598  67.924  1.00  0.00    -0.256 C  
HETATM   29  O   UNL     1      -7.551  19.540  68.699  1.00  0.00    -0.336 OA 
BRANCH  28  30
HETATM   30  C   UNL     1      -8.421  18.742  66.617  1.00  0.00    -0.299 C  
BRANCH  30  31
HETATM   31  C   UNL     1      -8.662  17.367  66.014  1.00  0.00    -0.097 C  
BRANCH  31  32
HETATM   32  C   UNL     1      -9.712  16.609  66.800  1.00  0.00    -0.261 C  
HETATM   33  N   UNL     1     -10.365  15.569  66.185  1.00  0.00    -0.298 N  
HETATM   34  O   UNL     1      -9.895  16.887  67.987  1.00  0.00    -0.251 OA 
HETATM   35  O   UNL     1     -10.464  15.542  64.781  1.00  0.00    -0.390 OA 
BRANCH  33  36
HETATM   36  C   UNL     1     -11.445  14.824  66.835  1.00  0.00    -0.347 C  
BRANCH  36  37
HETATM   37  C   UNL     1     -10.923  13.616  67.616  1.00  0.00    -0.283 C  
BRANCH  37  38
HETATM   38  C   UNL     1     -10.587  13.969  69.069  1.00  0.00    -0.205 C  
BRANCH  38  39
HETATM   39  C   UNL     1     -11.847  14.286  69.880  1.00  0.00    -0.382 C  
BRANCH  39  40
HETATM   40  C   UNL     1     -11.761  15.633  70.598  1.00  0.00    -0.369 C  
HETATM   41  N   UNL     1     -12.546  15.641  71.829  1.00  0.00    -0.412 NA 
HETATM   42  H2  UNL     1     -12.279  14.873  72.445  1.00  0.00     0.000 HD 
HETATM   43  H1  UNL     1     -12.489  16.540  72.308  1.00  0.00     0.000 HD 
ENDBRANCH  39  40
ENDBRANCH  38  39
ENDBRANCH  37  38
ENDBRANCH  36  37
ENDBRANCH  33  36
ENDBRANCH  31  32
ENDBRANCH  30  31
ENDBRANCH  28  30
ENDBRANCH  25  26
ENDBRANCH  24  25
ENDBRANCH  23  24
ENDBRANCH  22  23
ENDBRANCH  21  22
ENDBRANCH  19  21
ENDBRANCH  16  17
ENDBRANCH  15  16
ENDBRANCH  12  15
ENDBRANCH  10  11
ENDBRANCH   9  10
ENDBRANCH   8   9
ENDBRANCH   7   8
ENDBRANCH   6   7
ENDBRANCH   3   6
TORSDOF 23
ENDMDL
MODEL      330
REMARK 921   NORMALIZED FREE ENERGY PREDICTED BY IDOCK:   -1.95 KCAL/MOL
REMARK 922        TOTAL FREE ENERGY PREDICTED BY IDOCK:   -7.33 KCAL/MOL
REMARK 923 INTER-LIGAND FREE ENERGY PREDICTED BY IDOCK:   -5.97 KCAL/MOL
REMARK 924 INTRA-LIGAND FREE ENERGY PREDICTED BY IDOCK:   -1.35 KCAL/MOL
REMARK 927      BINDING AFFINITY PREDICTED BY RF-SCORE:    0.00 PKD
ROOT
HETATM    1  C   UNL     1     -12.811   4.713  72.805  1.00  0.00     1.295 C  
HETATM    2  C   UNL     1     -11.398   5.224  72.905  1.00  0.00    -0.301 C  
HETATM    3  N   UNL     1     -11.030   6.201  72.017  1.00  0.00    -0.246 N  
HETATM    4  O   UNL     1     -10.621   4.747  73.732  1.00  0.00    -0.218 OA 
HETATM    5  O   UNL     1     -11.924   6.873  71.166  1.00  0.00    -0.329 OA 
ENDROOT
BRANCH   3   6
HETATM    6  C   UNL     1      -9.697   6.787  71.976  1.00  0.00    -0.153 C  
BRANCH   6   7
HETATM    7  C   UNL     1      -8.835   6.196  70.858  1.00  0.00    -0.136 C  
BRANCH   7   8
HETATM    8  C   UNL     1      -7.350   6.402  71.163  1.00  0.00    -0.080 C  
BRANCH   8   9
HETATM    9  C   UNL     1      -6.841   7.753  70.656  1.00  0.00    -0.042 C  
BRANCH   9  10
HETATM   10  C   UNL     1      -7.660   8.276  69.475  1.00  0.00    -0.095 C  
BRANCH  10  11
HETATM   11  N   UNL     1      -6.833   8.929  68.471  1.00  0.00    -0.063 N  
HETATM   12  C   UNL     1      -6.030   9.999  68.796  1.00  0.00    -0.037 C  
HETATM   13  H   UNL     1      -6.849   8.588  67.511  1.00  0.00     0.000 HD 
HETATM   14  O   UNL     1      -5.919  10.451  69.933  1.00  0.00    -0.046 OA 
BRANCH  12  15
HETATM   15  C   UNL     1      -5.279  10.564  67.610  1.00  0.00    -0.036 C  
BRANCH  15  16
HETATM   16  C   UNL     1      -5.139   9.509  66.515  1.00  0.00    -0.039 C  
BRANCH  16  17
HETATM   17  C   UNL     1      -6.093   9.746  65.360  1.00  0.00    -0.074 C  
HETATM   18  O   UNL     1      -6.066  10.792  64.716  1.00  0.00    -0.042 OA 
HETATM   19  N   UNL     1      -6.996   8.744  65.107  1.00  0.00    -0.078 N  
HETATM   20  O   UNL     1      -7.002   7.493  65.747  1.00  0.00    -0.058 OA 
BRANCH  19  21
HETATM   21  C   UNL     1      -8.030   8.832  64.087  1.00  0.00    -0.154 C  
BRANCH  21  22
HETATM   22  C   UNL     1      -9.264   9.600  64.570  1.00  0.00    -0.277 C  
BRANCH  22  23
HETATM   23  C   UNL     1      -9.552   9.392  66.068  1.00  0.00    -0.328 C  
BRANCH  23  24
HETATM   24  C   UNL     1     -11.034   9.525  66.423  1.00  0.00     0.420 C  
BRANCH  24  25
HETATM   25  C   UNL     1     -11.245  10.471  67.603  1.00  0.00    -0.265 C  
BRANCH  25  26
HETATM   26  N   UNL     1     -11.581  11.810  67.162  1.00  0.00    -0.303 N  
HETATM   27  H   UNL     1     -11.512  12.037  66.170  1.00  0.00     0.000 HD 
HETATM   28  C   UNL     1     -11.991  12.783  68.043  1.00  0.00    -0.264 C  
HETATM   29  O   UNL     1     -12.122  12.593  69.248  1.00  0.00    -0.259 OA 
BRANCH  28  30
HETATM   30  C   UNL     1     -12.265  14.124  67.414  1.00  0.00    -0.278 C  
BRANCH  30  31
HETATM   31  C   UNL     1     -10.951  14.848  67.164  1.00  0.00    -0.323 C  
BRANCH  31  32
HETATM   32  C   UNL     1     -10.911  16.168  67.905  1.00  0.00    -0.318 C  
HETATM   33  N   UNL     1     -10.179  17.198  67.367  1.00  0.00    -0.312 N  
HETATM   34  O   UNL     1     -11.596  16.311  68.920  1.00  0.00    -0.330 OA 
HETATM   35  O   UNL     1      -9.110  16.913  66.497  1.00  0.00    -0.244 OA 
BRANCH  33  36
HETATM   36  C   UNL     1     -10.020  18.487  68.044  1.00  0.00    -0.355 C  
BRANCH  36  37
HETATM   37  C   UNL     1      -8.570  18.975  68.022  1.00  0.00    -0.337 C  
BRANCH  37  38
HETATM   38  C   UNL     1      -8.461  20.438  67.579  1.00  0.00    -0.349 C  
BRANCH  38  39
HETATM   39  C   UNL     1      -7.016  20.821  67.247  1.00  0.00    -0.414 C  
BRANCH  39  40
HETATM   40  C   UNL     1      -6.402  19.924  66.170  1.00  0.00    -0.189 C  
HETATM   41  N   UNL     1      -6.988  20.176  64.858  1.00  0.00    -0.313 NA 
HETATM   42  H2  UNL     1      -6.921  21.161  64.604  1.00  0.00     0.000 HD 
HETATM   43  H1  UNL     1      -6.579  19.578  64.140  1.00  0.00     0.000 HD 
ENDBRANCH  39  40
ENDBRANCH  38  39
ENDBRANCH  37  38
ENDBRANCH  36  37
ENDBRANCH  33  36
ENDBRANCH  31  32
ENDBRANCH  30  31
ENDBRANCH  28  30
ENDBRANCH  25  26
ENDBRANCH  24  25
ENDBRANCH  23  24
ENDBRANCH  22  23
ENDBRANCH  21  22
ENDBRANCH  19  21
ENDBRANCH  16  17
ENDBRANCH  15  16
ENDBRANCH  12  15
ENDBRANCH  10  11
ENDBRANCH   9  10
ENDBRANCH   8   9
ENDBRANCH   7   8
ENDBRANCH   6   7
ENDBRANCH   3   6
TORSDOF 23
ENDMDL
MODEL      331
REMARK 921   NORMALIZED FREE ENERGY PREDICTED BY IDOCK:   -1.94 KCAL/MOL
REMARK 922        TOTAL FREE ENERGY PREDICTED BY IDOCK:   -7.31 KCAL/MOL
REMARK 923 INTER-LIGAND FREE ENERGY PREDICTED BY IDOCK:   -6.24 KCAL/MOL
REMARK 924 INTRA-LIGAND FREE ENERGY PREDICTED BY IDOCK:   -1.07 KCAL/MOL
REMARK 927      BINDING AFFINITY PREDICTED BY RF-SCORE:    0.00 PKD
ROOT
HETATM    1  C   UNL     1     -10.784  19.489  65.830  1.00  0.00    -0.518 C  
HETATM    2  C   UNL     1     -10.051  18.276  66.339  1.00  0.00    -0.396 C  
HETATM    3  N   UNL     1     -10.400  17.068  65.793  1.00  0.00    -0.314 N  
HETATM    4  O   UNL     1      -9.205  18.388  67.227  1.00  0.00    -0.265 OA 
HETATM    5  O   UNL     1     -11.244  16.919  64.680  1.00  0.00    -0.915 OA 
ENDROOT
BRANCH   3   6
HETATM    6  C   UNL     1      -9.795  15.804  66.190  1.00  0.00    -0.315 C  
BRANCH   6   7
HETATM    7  C   UNL     1      -9.044  15.909  67.519  1.00  0.00    -0.204 C  
BRANCH   7   8
HETATM    8  C   UNL     1      -7.590  15.465  67.347  1.00  0.00    -0.233 C  
BRANCH   8   9
HETATM    9  C   UNL     1      -6.665  16.111  68.381  1.00  0.00    -0.127 C  
BRANCH   9  10
HETATM   10  C   UNL     1      -5.329  15.376  68.503  1.00  0.00    -0.097 C  
BRANCH  10  11
HETATM   11  N   UNL     1      -5.485  13.930  68.467  1.00  0.00    -0.088 N  
HETATM   12  C   UNL     1      -5.994  13.242  69.545  1.00  0.00    -0.107 C  
HETATM   13  H   UNL     1      -5.212  13.418  67.628  1.00  0.00     0.000 HD 
HETATM   14  O   UNL     1      -6.383  13.779  70.578  1.00  0.00    -0.099 OA 
BRANCH  12  15
HETATM   15  C   UNL     1      -6.041  11.744  69.329  1.00  0.00    -0.084 C  
BRANCH  15  16
HETATM   16  C   UNL     1      -7.484  11.274  69.161  1.00  0.00    -0.084 C  
BRANCH  16  17
HETATM   17  C   UNL     1      -7.991  11.461  67.744  1.00  0.00    -0.119 C  
HETATM   18  O   UNL     1      -8.679  12.433  67.438  1.00  0.00    -0.166 OA 
HETATM   19  N   UNL     1      -7.666  10.474  66.850  1.00  0.00    -0.110 N  
HETATM   20  O   UNL     1      -6.803   9.399  67.125  1.00  0.00    -0.081 OA 
BRANCH  19  21
HETATM   21  C   UNL     1      -8.128  10.453  65.470  1.00  0.00    -0.156 C  
BRANCH  21  22
HETATM   22  C   UNL     1      -8.670   9.082  65.056  1.00  0.00    -0.217 C  
BRANCH  22  23
HETATM   23  C   UNL     1      -8.297   8.700  63.611  1.00  0.00    -0.115 C  
BRANCH  23  24
HETATM   24  C   UNL     1      -8.543   7.225  63.293  1.00  0.00     0.470 C  
BRANCH  24  25
HETATM   25  C   UNL     1      -7.253   6.411  63.373  1.00  0.00    -0.059 C  
BRANCH  25  26
HETATM   26  N   UNL     1      -6.977   5.980  64.729  1.00  0.00    -0.053 N  
HETATM   27  H   UNL     1      -6.995   6.668  65.481  1.00  0.00     0.000 HD 
HETATM   28  C   UNL     1      -6.690   4.669  65.029  1.00  0.00    -0.045 C  
HETATM   29  O   UNL     1      -6.666   3.772  64.192  1.00  0.00    -0.041 OA 
BRANCH  28  30
HETATM   30  C   UNL     1      -6.395   4.408  66.484  1.00  0.00    -0.037 C  
BRANCH  30  31
HETATM   31  C   UNL     1      -6.780   5.627  67.308  1.00  0.00    -0.059 C  
BRANCH  31  32
HETATM   32  C   UNL     1      -8.173   5.474  67.881  1.00  0.00    -0.100 C  
HETATM   33  N   UNL     1      -8.302   5.094  69.195  1.00  0.00    -0.087 N  
HETATM   34  O   UNL     1      -9.148   5.771  67.187  1.00  0.00    -0.113 OA 
HETATM   35  O   UNL     1      -7.264   4.373  69.816  1.00  0.00    -0.048 OA 
BRANCH  33  36
HETATM   36  C   UNL     1      -9.604   4.849  69.819  1.00  0.00    -0.172 C  
BRANCH  36  37
HETATM   37  C   UNL     1      -9.962   5.924  70.847  1.00  0.00    -0.238 C  
BRANCH  37  38
HETATM   38  C   UNL     1      -8.809   6.906  71.081  1.00  0.00    -0.142 C  
BRANCH  38  39
HETATM   39  C   UNL     1      -9.022   8.219  70.321  1.00  0.00    -0.142 C  
BRANCH  39  40
HETATM   40  C   UNL     1     -10.497   8.611  70.224  1.00  0.00    -0.210 C  
HETATM   41  N   UNL     1     -10.903   9.467  71.333  1.00  0.00    -0.350 NA 
HETATM   42  H2  UNL     1     -10.304  10.289  71.407  1.00  0.00     0.000 HD 
HETATM   43  H1  UNL     1     -11.887   9.728  71.269  1.00  0.00     0.000 HD 
ENDBRANCH  39  40
ENDBRANCH  38  39
ENDBRANCH  37  38
ENDBRANCH  36  37
ENDBRANCH  33  36
ENDBRANCH  31  32
ENDBRANCH  30  31
ENDBRANCH  28  30
ENDBRANCH  25  26
ENDBRANCH  24  25
ENDBRANCH  23  24
ENDBRANCH  22  23
ENDBRANCH  21  22
ENDBRANCH  19  21
ENDBRANCH  16  17
ENDBRANCH  15  16
ENDBRANCH  12  15
ENDBRANCH  10  11
ENDBRANCH   9  10
ENDBRANCH   8   9
ENDBRANCH   7   8
ENDBRANCH   6   7
ENDBRANCH   3   6
TORSDOF 23
ENDMDL
MODEL      332
REMARK 921   NORMALIZED FREE ENERGY PREDICTED BY IDOCK:   -1.94 KCAL/MOL
REMARK 922        TOTAL FREE ENERGY PREDICTED BY IDOCK:   -7.30 KCAL/MOL
REMARK 923 INTER-LIGAND FREE ENERGY PREDICTED BY IDOCK:   -6.21 KCAL/MOL
REMARK 924 INTRA-LIGAND FREE ENERGY PREDICTED BY IDOCK:   -1.10 KCAL/MOL
REMARK 927      BINDING AFFINITY PREDICTED BY RF-SCORE:    0.00 PKD
ROOT
HETATM    1  C   UNL     1     -10.609   3.539  63.543  1.00  0.00    -0.263 C  
HETATM    2  C   UNL     1      -9.712   3.592  64.752  1.00  0.00    -0.165 C  
HETATM    3  N   UNL     1      -8.440   3.103  64.601  1.00  0.00    -0.093 N  
HETATM    4  O   UNL     1     -10.136   4.029  65.822  1.00  0.00    -0.179 OA 
HETATM    5  O   UNL     1      -7.875   2.740  63.366  1.00  0.00    -0.069 OA 
ENDROOT
BRANCH   3   6
HETATM    6  C   UNL     1      -7.460   3.071  65.678  1.00  0.00    -0.073 C  
BRANCH   6   7
HETATM    7  C   UNL     1      -6.407   4.172  65.541  1.00  0.00    -0.032 C  
BRANCH   7   8
HETATM    8  C   UNL     1      -5.480   4.178  66.759  1.00  0.00    -0.013 C  
BRANCH   8   9
HETATM    9  C   UNL     1      -5.483   5.529  67.477  1.00  0.00    -0.012 C  
BRANCH   9  10
HETATM   10  C   UNL     1      -6.785   5.778  68.239  1.00  0.00    -0.057 C  
BRANCH  10  11
HETATM   11  N   UNL     1      -7.141   7.188  68.286  1.00  0.00    -0.079 N  
HETATM   12  C   UNL     1      -6.264   8.128  68.777  1.00  0.00    -0.044 C  
HETATM   13  H   UNL     1      -8.057   7.484  67.949  1.00  0.00     0.000 HD 
HETATM   14  O   UNL     1      -5.129   7.868  69.166  1.00  0.00    -0.021 OA 
BRANCH  12  15
HETATM   15  C   UNL     1      -6.832   9.532  68.778  1.00  0.00    -0.052 C  
BRANCH  15  16
HETATM   16  C   UNL     1      -7.183   9.965  70.199  1.00  0.00    -0.159 C  
BRANCH  16  17
HETATM   17  C   UNL     1      -7.379   8.786  71.131  1.00  0.00    -0.097 C  
HETATM   18  O   UNL     1      -6.503   8.450  71.925  1.00  0.00    -0.055 OA 
HETATM   19  N   UNL     1      -8.566   8.110  71.010  1.00  0.00    -0.130 N  
HETATM   20  O   UNL     1      -9.635   8.514  70.190  1.00  0.00    -0.166 OA 
BRANCH  19  21
HETATM   21  C   UNL     1      -8.894   6.914  71.770  1.00  0.00    -0.131 C  
BRANCH  21  22
HETATM   22  C   UNL     1      -9.861   7.199  72.923  1.00  0.00    -0.221 C  
BRANCH  22  23
HETATM   23  C   UNL     1     -11.204   6.460  72.776  1.00  0.00    -0.261 C  
BRANCH  23  24
HETATM   24  C   UNL     1     -11.736   6.451  71.342  1.00  0.00    -0.364 C  
BRANCH  24  25
HETATM   25  C   UNL     1     -13.133   7.062  71.258  1.00  0.00    -0.262 C  
BRANCH  25  26
HETATM   26  N   UNL     1     -13.080   8.486  70.992  1.00  0.00    -0.500 N  
HETATM   27  H   UNL     1     -12.907   8.805  70.038  1.00  0.00     0.000 HD 
HETATM   28  C   UNL     1     -13.255   9.417  71.987  1.00  0.00    -0.449 C  
HETATM   29  O   UNL     1     -13.486   9.124  73.156  1.00  0.00    -0.183 OA 
BRANCH  28  30
HETATM   30  C   UNL     1     -13.133  10.850  71.535  1.00  0.00    -0.503 C  
BRANCH  30  31
HETATM   31  C   UNL     1     -11.760  11.075  70.922  1.00  0.00    -0.185 C  
BRANCH  31  32
HETATM   32  C   UNL     1     -11.847  11.145  69.412  1.00  0.00    -0.345 C  
HETATM   33  N   UNL     1     -10.686  11.307  68.696  1.00  0.00    -0.194 N  
HETATM   34  O   UNL     1     -12.937  10.975  68.861  1.00  0.00     0.299 OA 
HETATM   35  O   UNL     1      -9.569  11.908  69.308  1.00  0.00     0.254 OA 
BRANCH  33  36
HETATM   36  C   UNL     1     -10.674  11.459  67.240  1.00  0.00    -0.241 C  
BRANCH  36  37
HETATM   37  C   UNL     1     -10.855  10.122  66.519  1.00  0.00    -0.043 C  
BRANCH  37  38
HETATM   38  C   UNL     1      -9.911   9.042  67.060  1.00  0.00    -0.295 C  
BRANCH  38  39
HETATM   39  C   UNL     1     -10.682   7.820  67.568  1.00  0.00    -0.265 C  
BRANCH  39  40
HETATM   40  C   UNL     1     -10.169   6.510  66.968  1.00  0.00    -0.215 C  
HETATM   41  N   UNL     1      -9.154   6.744  65.946  1.00  0.00    -0.340 NA 
HETATM   42  H2  UNL     1      -8.388   7.313  66.306  1.00  0.00     0.000 HD 
HETATM   43  H1  UNL     1      -8.812   5.870  65.546  1.00  0.00     0.000 HD 
ENDBRANCH  39  40
ENDBRANCH  38  39
ENDBRANCH  37  38
ENDBRANCH  36  37
ENDBRANCH  33  36
ENDBRANCH  31  32
ENDBRANCH  30  31
ENDBRANCH  28  30
ENDBRANCH  25  26
ENDBRANCH  24  25
ENDBRANCH  23  24
ENDBRANCH  22  23
ENDBRANCH  21  22
ENDBRANCH  19  21
ENDBRANCH  16  17
ENDBRANCH  15  16
ENDBRANCH  12  15
ENDBRANCH  10  11
ENDBRANCH   9  10
ENDBRANCH   8   9
ENDBRANCH   7   8
ENDBRANCH   6   7
ENDBRANCH   3   6
TORSDOF 23
ENDMDL
MODEL      333
REMARK 921   NORMALIZED FREE ENERGY PREDICTED BY IDOCK:   -1.87 KCAL/MOL
REMARK 922        TOTAL FREE ENERGY PREDICTED BY IDOCK:   -7.14 KCAL/MOL
REMARK 923 INTER-LIGAND FREE ENERGY PREDICTED BY IDOCK:   -6.75 KCAL/MOL
REMARK 924 INTRA-LIGAND FREE ENERGY PREDICTED BY IDOCK:   -0.38 KCAL/MOL
REMARK 927      BINDING AFFINITY PREDICTED BY RF-SCORE:    0.00 PKD
ROOT
HETATM    1  C   UNL     1     -10.515  18.695  70.813  1.00  0.00     2.291 C  
HETATM    2  C   UNL     1     -10.219  18.659  69.337  1.00  0.00     0.240 C  
HETATM    3  N   UNL     1     -10.567  17.517  68.664  1.00  0.00    -0.330 N  
HETATM    4  O   UNL     1      -9.660  19.611  68.791  1.00  0.00    -0.383 OA 
HETATM    5  O   UNL     1     -11.337  16.479  69.215  1.00  0.00    -0.258 OA 
ENDROOT
BRANCH   3   6
HETATM    6  C   UNL     1     -10.333  17.322  67.240  1.00  0.00    -0.331 C  
BRANCH   6   7
HETATM    7  C   UNL     1     -11.024  16.068  66.701  1.00  0.00    -0.092 C  
BRANCH   7   8
HETATM    8  C   UNL     1     -10.590  15.796  65.259  1.00  0.00    -0.446 C  
BRANCH   8   9
HETATM    9  C   UNL     1     -10.818  14.338  64.855  1.00  0.00    -0.429 C  
BRANCH   9  10
HETATM   10  C   UNL     1     -11.608  13.561  65.909  1.00  0.00    -0.335 C  
BRANCH  10  11
HETATM   11  N   UNL     1     -10.781  13.154  67.035  1.00  0.00    -0.261 N  
HETATM   12  C   UNL     1     -11.181  12.150  67.887  1.00  0.00    -0.272 C  
HETATM   13  H   UNL     1      -9.889  13.622  67.195  1.00  0.00     0.000 HD 
HETATM   14  O   UNL     1     -12.218  11.506  67.747  1.00  0.00    -0.560 OA 
BRANCH  12  15
HETATM   15  C   UNL     1     -10.205  11.900  69.016  1.00  0.00    -0.016 C  
BRANCH  15  16
HETATM   16  C   UNL     1      -9.908  10.408  69.146  1.00  0.00    -0.237 C  
BRANCH  16  17
HETATM   17  C   UNL     1      -9.004   9.900  68.040  1.00  0.00    -0.121 C  
HETATM   18  O   UNL     1      -9.470   9.408  67.014  1.00  0.00    -0.145 OA 
HETATM   19  N   UNL     1      -7.655   9.993  68.270  1.00  0.00    -0.083 N  
HETATM   20  O   UNL     1      -7.076  10.635  69.378  1.00  0.00    -0.092 OA 
BRANCH  19  21
HETATM   21  C   UNL     1      -6.645   9.489  67.352  1.00  0.00    -0.070 C  
BRANCH  21  22
HETATM   22  C   UNL     1      -5.554   8.687  68.066  1.00  0.00    -0.035 C  
BRANCH  22  23
HETATM   23  C   UNL     1      -6.103   7.811  69.208  1.00  0.00    -0.034 C  
BRANCH  23  24
HETATM   24  C   UNL     1      -7.190   6.837  68.754  1.00  0.00    -0.092 C  
BRANCH  24  25
HETATM   25  C   UNL     1      -7.641   5.927  69.895  1.00  0.00    -0.080 C  
BRANCH  25  26
HETATM   26  N   UNL     1      -8.539   6.611  70.802  1.00  0.00    -0.134 N  
HETATM   27  H   UNL     1      -8.147   7.150  71.575  1.00  0.00     0.000 HD 
HETATM   28  C   UNL     1      -9.904   6.556  70.651  1.00  0.00    -0.183 C  
HETATM   29  O   UNL     1     -10.461   5.950  69.741  1.00  0.00    -0.218 OA 
BRANCH  28  30
HETATM   30  C   UNL     1     -10.683   7.299  71.706  1.00  0.00    -0.243 C  
BRANCH  30  31
HETATM   31  C   UNL     1     -12.117   6.791  71.733  1.00  0.00    -0.393 C  
BRANCH  31  32
HETATM   32  C   UNL     1     -13.097   7.933  71.564  1.00  0.00    -0.311 C  
HETATM   33  N   UNL     1     -12.605   9.214  71.501  1.00  0.00    -0.328 N  
HETATM   34  O   UNL     1     -14.294   7.682  71.404  1.00  0.00    -0.433 OA 
HETATM   35  O   UNL     1     -11.362   9.511  72.091  1.00  0.00    -0.108 OA 
BRANCH  33  36
HETATM   36  C   UNL     1     -13.476  10.387  71.412  1.00  0.00    -0.174 C  
BRANCH  36  37
HETATM   37  C   UNL     1     -12.718  11.690  71.671  1.00  0.00    -0.375 C  
BRANCH  37  38
HETATM   38  C   UNL     1     -13.593  12.740  72.364  1.00  0.00    -0.507 C  
BRANCH  38  39
HETATM   39  C   UNL     1     -13.372  14.137  71.777  1.00  0.00    -0.459 C  
BRANCH  39  40
HETATM   40  C   UNL     1     -11.968  14.676  72.052  1.00  0.00    -0.222 C  
HETATM   41  N   UNL     1     -12.007  15.977  72.712  1.00  0.00    -0.492 NA 
HETATM   42  H2  UNL     1     -12.567  15.945  73.564  1.00  0.00     0.000 HD 
HETATM   43  H1  UNL     1     -11.070  16.336  72.896  1.00  0.00     0.000 HD 
ENDBRANCH  39  40
ENDBRANCH  38  39
ENDBRANCH  37  38
ENDBRANCH  36  37
ENDBRANCH  33  36
ENDBRANCH  31  32
ENDBRANCH  30  31
ENDBRANCH  28  30
ENDBRANCH  25  26
ENDBRANCH  24  25
ENDBRANCH  23  24
ENDBRANCH  22  23
ENDBRANCH  21  22
ENDBRANCH  19  21
ENDBRANCH  16  17
ENDBRANCH  15  16
ENDBRANCH  12  15
ENDBRANCH  10  11
ENDBRANCH   9  10
ENDBRANCH   8   9
ENDBRANCH   7   8
ENDBRANCH   6   7
ENDBRANCH   3   6
TORSDOF 23
ENDMDL
MODEL      334
REMARK 921   NORMALIZED FREE ENERGY PREDICTED BY IDOCK:   -1.86 KCAL/MOL
REMARK 922        TOTAL FREE ENERGY PREDICTED BY IDOCK:   -7.12 KCAL/MOL
REMARK 923 INTER-LIGAND FREE ENERGY PREDICTED BY IDOCK:   -6.96 KCAL/MOL
REMARK 924 INTRA-LIGAND FREE ENERGY PREDICTED BY IDOCK:   -0.17 KCAL/MOL
REMARK 927      BINDING AFFINITY PREDICTED BY RF-SCORE:    0.00 PKD
ROOT
HETATM    1  C   UNL     1     -11.864   4.266  73.245  1.00  0.00     0.002 C  
HETATM    2  C   UNL     1     -10.625   5.118  73.333  1.00  0.00    -0.255 C  
HETATM    3  N   UNL     1     -10.616   6.275  72.599  1.00  0.00    -0.208 N  
HETATM    4  O   UNL     1      -9.666   4.753  74.015  1.00  0.00    -0.130 OA 
HETATM    5  O   UNL     1     -11.739   6.797  71.935  1.00  0.00    -0.280 OA 
ENDROOT
BRANCH   3   6
HETATM    6  C   UNL     1      -9.488   7.196  72.566  1.00  0.00    -0.142 C  
BRANCH   6   7
HETATM    7  C   UNL     1      -8.228   6.555  71.982  1.00  0.00    -0.107 C  
BRANCH   7   8
HETATM    8  C   UNL     1      -7.097   7.581  71.896  1.00  0.00    -0.063 C  
BRANCH   8   9
HETATM    9  C   UNL     1      -6.953   8.162  70.488  1.00  0.00    -0.037 C  
BRANCH   9  10
HETATM   10  C   UNL     1      -7.744   7.367  69.449  1.00  0.00    -0.106 C  
BRANCH  10  11
HETATM   11  N   UNL     1      -6.978   7.120  68.236  1.00  0.00    -0.073 N  
HETATM   12  C   UNL     1      -5.916   7.924  67.889  1.00  0.00    -0.042 C  
HETATM   13  H   UNL     1      -7.233   6.338  67.634  1.00  0.00     0.000 HD 
HETATM   14  O   UNL     1      -5.515   8.862  68.572  1.00  0.00    -0.037 OA 
BRANCH  12  15
HETATM   15  C   UNL     1      -5.272   7.530  66.577  1.00  0.00    -0.024 C  
BRANCH  15  16
HETATM   16  C   UNL     1      -5.198   6.010  66.454  1.00  0.00    -0.009 C  
BRANCH  16  17
HETATM   17  C   UNL     1      -6.355   5.436  65.660  1.00  0.00    -0.035 C  
HETATM   18  O   UNL     1      -6.704   5.936  64.592  1.00  0.00    -0.044 OA 
HETATM   19  N   UNL     1      -6.998   4.362  66.219  1.00  0.00    -0.065 N  
HETATM   20  O   UNL     1      -6.578   3.696  67.384  1.00  0.00    -0.040 OA 
BRANCH  19  21
HETATM   21  C   UNL     1      -8.172   3.732  65.634  1.00  0.00    -0.105 C  
BRANCH  21  22
HETATM   22  C   UNL     1      -9.375   4.678  65.574  1.00  0.00    -0.159 C  
BRANCH  22  23
HETATM   23  C   UNL     1      -9.655   5.379  66.916  1.00  0.00    -0.150 C  
BRANCH  23  24
HETATM   24  C   UNL     1     -11.029   6.049  66.973  1.00  0.00    -0.364 C  
BRANCH  24  25
HETATM   25  C   UNL     1     -10.963   7.406  67.670  1.00  0.00    -0.066 C  
BRANCH  25  26
HETATM   26  N   UNL     1     -10.122   8.338  66.947  1.00  0.00    -0.270 N  
HETATM   27  H   UNL     1      -9.279   7.992  66.488  1.00  0.00     0.000 HD 
HETATM   28  C   UNL     1     -10.427   9.676  66.862  1.00  0.00    -0.212 C  
HETATM   29  O   UNL     1     -11.429  10.175  67.366  1.00  0.00    -0.212 OA 
BRANCH  28  30
HETATM   30  C   UNL     1      -9.423  10.502  66.100  1.00  0.00    -0.222 C  
BRANCH  30  31
HETATM   31  C   UNL     1      -8.273  10.882  67.019  1.00  0.00    -0.134 C  
BRANCH  31  32
HETATM   32  C   UNL     1      -8.535  12.213  67.691  1.00  0.00    -0.163 C  
HETATM   33  N   UNL     1      -7.632  13.231  67.500  1.00  0.00    -0.164 N  
HETATM   34  O   UNL     1      -9.583  12.377  68.319  1.00  0.00    -0.212 OA 
HETATM   35  O   UNL     1      -6.298  12.925  67.168  1.00  0.00    -0.249 OA 
BRANCH  33  36
HETATM   36  C   UNL     1      -7.758  14.530  68.165  1.00  0.00    -0.128 C  
BRANCH  36  37
HETATM   37  C   UNL     1      -9.058  15.245  67.791  1.00  0.00    -0.182 C  
BRANCH  37  38
HETATM   38  C   UNL     1      -8.990  15.876  66.397  1.00  0.00    -0.361 C  
BRANCH  38  39
HETATM   39  C   UNL     1     -10.205  16.766  66.118  1.00  0.00    -0.363 C  
BRANCH  39  40
HETATM   40  C   UNL     1     -11.292  16.045  65.320  1.00  0.00     0.008 C  
HETATM   41  N   UNL     1     -11.311  16.472  63.925  1.00  0.00    -1.559 NA 
HETATM   42  H2  UNL     1     -10.395  16.362  63.490  1.00  0.00     0.000 HD 
HETATM   43  H1  UNL     1     -12.036  15.991  63.392  1.00  0.00     0.000 HD 
ENDBRANCH  39  40
ENDBRANCH  38  39
ENDBRANCH  37  38
ENDBRANCH  36  37
ENDBRANCH  33  36
ENDBRANCH  31  32
ENDBRANCH  30  31
ENDBRANCH  28  30
ENDBRANCH  25  26
ENDBRANCH  24  25
ENDBRANCH  23  24
ENDBRANCH  22  23
ENDBRANCH  21  22
ENDBRANCH  19  21
ENDBRANCH  16  17
ENDBRANCH  15  16
ENDBRANCH  12  15
ENDBRANCH  10  11
ENDBRANCH   9  10
ENDBRANCH   8   9
ENDBRANCH   7   8
ENDBRANCH   6   7
ENDBRANCH   3   6
TORSDOF 23
ENDMDL
MODEL      335
REMARK 921   NORMALIZED FREE ENERGY PREDICTED BY IDOCK:   -1.78 KCAL/MOL
REMARK 922        TOTAL FREE ENERGY PREDICTED BY IDOCK:   -6.92 KCAL/MOL
REMARK 923 INTER-LIGAND FREE ENERGY PREDICTED BY IDOCK:   -5.36 KCAL/MOL
REMARK 924 INTRA-LIGAND FREE ENERGY PREDICTED BY IDOCK:   -1.56 KCAL/MOL
REMARK 927      BINDING AFFINITY PREDICTED BY RF-SCORE:    0.00 PKD
ROOT
HETATM    1  C   UNL     1     -11.684   9.071  70.848  1.00  0.00    -0.327 C  
HETATM    2  C   UNL     1     -11.351   9.240  69.389  1.00  0.00     0.157 C  
HETATM    3  N   UNL     1     -11.426  10.510  68.880  1.00  0.00    -0.248 N  
HETATM    4  O   UNL     1     -11.061   8.261  68.700  1.00  0.00     0.128 OA 
HETATM    5  O   UNL     1     -11.604  11.664  69.660  1.00  0.00    -0.290 OA 
ENDROOT
BRANCH   3   6
HETATM    6  C   UNL     1     -11.150  10.833  67.487  1.00  0.00    -0.308 C  
BRANCH   6   7
HETATM    7  C   UNL     1     -10.875  12.324  67.277  1.00  0.00    -0.283 C  
BRANCH   7   8
HETATM    8  C   UNL     1     -11.894  12.924  66.307  1.00  0.00    -0.477 C  
BRANCH   8   9
HETATM    9  C   UNL     1     -12.048  14.434  66.495  1.00  0.00    -0.395 C  
BRANCH   9  10
HETATM   10  C   UNL     1     -12.379  14.807  67.941  1.00  0.00     0.195 C  
BRANCH  10  11
HETATM   11  N   UNL     1     -11.210  15.264  68.678  1.00  0.00    -0.279 N  
HETATM   12  C   UNL     1     -10.621  16.477  68.399  1.00  0.00    -0.323 C  
HETATM   13  H   UNL     1     -10.821  14.676  69.414  1.00  0.00     0.000 HD 
HETATM   14  O   UNL     1     -11.045  17.266  67.558  1.00  0.00    -0.169 OA 
BRANCH  12  15
HETATM   15  C   UNL     1      -9.398  16.756  69.245  1.00  0.00    -0.074 C  
BRANCH  15  16
HETATM   16  C   UNL     1      -8.172  16.965  68.359  1.00  0.00    -0.232 C  
BRANCH  16  17
HETATM   17  C   UNL     1      -8.046  15.901  67.285  1.00  0.00    -0.184 C  
HETATM   18  O   UNL     1      -8.077  16.196  66.092  1.00  0.00    -0.262 OA 
HETATM   19  N   UNL     1      -7.930  14.608  67.726  1.00  0.00    -0.142 N  
HETATM   20  O   UNL     1      -7.791  14.232  69.073  1.00  0.00    -0.121 OA 
BRANCH  19  21
HETATM   21  C   UNL     1      -7.874  13.456  66.838  1.00  0.00     0.253 C  
BRANCH  21  22
HETATM   22  C   UNL     1      -6.835  12.424  67.284  1.00  0.00    -0.127 C  
BRANCH  22  23
HETATM   23  C   UNL     1      -7.470  11.127  67.822  1.00  0.00    -0.095 C  
BRANCH  23  24
HETATM   24  C   UNL     1      -7.713  10.078  66.736  1.00  0.00    -0.103 C  
BRANCH  24  25
HETATM   25  C   UNL     1      -6.703  10.204  65.598  1.00  0.00    -0.116 C  
BRANCH  25  26
HETATM   26  N   UNL     1      -6.743   9.054  64.717  1.00  0.00    -0.076 N  
HETATM   27  H   UNL     1      -7.385   9.059  63.925  1.00  0.00     0.000 HD 
HETATM   28  C   UNL     1      -5.939   7.957  64.920  1.00  0.00    -0.045 C  
HETATM   29  O   UNL     1      -5.125   7.874  65.835  1.00  0.00    -0.024 OA 
BRANCH  28  30
HETATM   30  C   UNL     1      -6.139   6.841  63.927  1.00  0.00    -0.035 C  
BRANCH  30  31
HETATM   31  C   UNL     1      -7.506   6.210  64.137  1.00  0.00    -0.081 C  
BRANCH  31  32
HETATM   32  C   UNL     1      -7.713   5.839  65.590  1.00  0.00    -0.093 C  
HETATM   33  N   UNL     1      -8.792   6.372  66.254  1.00  0.00    -0.142 N  
HETATM   34  O   UNL     1      -6.965   5.011  66.115  1.00  0.00    -0.066 OA 
HETATM   35  O   UNL     1      -9.353   7.584  65.810  1.00  0.00     0.001 OA 
BRANCH  33  36
HETATM   36  C   UNL     1      -9.036   6.131  67.678  1.00  0.00    -0.111 C  
BRANCH  36  37
HETATM   37  C   UNL     1      -9.724   4.788  67.926  1.00  0.00    -0.200 C  
BRANCH  37  38
HETATM   38  C   UNL     1     -10.134   4.611  69.392  1.00  0.00    -0.194 C  
BRANCH  38  39
HETATM   39  C   UNL     1      -9.125   5.262  70.343  1.00  0.00    -0.173 C  
BRANCH  39  40
HETATM   40  C   UNL     1      -9.159   4.650  71.745  1.00  0.00    -0.135 C  
HETATM   41  N   UNL     1      -9.764   3.321  71.740  1.00  0.00    -0.159 NA 
HETATM   42  H2  UNL     1      -9.298   2.704  71.076  1.00  0.00     0.000 HD 
HETATM   43  H1  UNL     1      -9.786   2.913  72.675  1.00  0.00     0.000 HD 
ENDBRANCH  39  40
ENDBRANCH  38  39
ENDBRANCH  37  38
ENDBRANCH  36  37
ENDBRANCH  33  36
ENDBRANCH  31  32
ENDBRANCH  30  31
ENDBRANCH  28  30
ENDBRANCH  25  26
ENDBRANCH  24  25
ENDBRANCH  23  24
ENDBRANCH  22  23
ENDBRANCH  21  22
ENDBRANCH  19  21
ENDBRANCH  16  17
ENDBRANCH  15  16
ENDBRANCH  12  15
ENDBRANCH  10  11
ENDBRANCH   9  10
ENDBRANCH   8   9
ENDBRANCH   7   8
ENDBRANCH   6   7
ENDBRANCH   3   6
TORSDOF 23
ENDMDL
MODEL      336
REMARK 921   NORMALIZED FREE ENERGY PREDICTED BY IDOCK:   -1.77 KCAL/MOL
REMARK 922        TOTAL FREE ENERGY PREDICTED BY IDOCK:   -6.91 KCAL/MOL
REMARK 923 INTER-LIGAND FREE ENERGY PREDICTED BY IDOCK:   -6.73 KCAL/MOL
REMARK 924 INTRA-LIGAND FREE ENERGY PREDICTED BY IDOCK:   -0.18 KCAL/MOL
REMARK 927      BINDING AFFINITY PREDICTED BY RF-SCORE:    0.00 PKD
ROOT
HETATM    1  C   UNL     1      -8.990   3.794  62.821  1.00  0.00    -0.099 C  
HETATM    2  C   UNL     1      -8.785   3.386  64.256  1.00  0.00    -0.093 C  
HETATM    3  N   UNL     1      -7.773   2.497  64.508  1.00  0.00    -0.075 N  
HETATM    4  O   UNL     1      -9.528   3.820  65.138  1.00  0.00    -0.150 OA 
HETATM    5  O   UNL     1      -6.817   2.100  63.558  1.00  0.00    -0.032 OA 
ENDROOT
BRANCH   3   6
HETATM    6  C   UNL     1      -7.460   1.994  65.838  1.00  0.00    -0.066 C  
BRANCH   6   7
HETATM    7  C   UNL     1      -6.209   2.649  66.429  1.00  0.00    -0.024 C  
BRANCH   7   8
HETATM    8  C   UNL     1      -6.067   2.289  67.909  1.00  0.00    -0.024 C  
BRANCH   8   9
HETATM    9  C   UNL     1      -5.981   3.531  68.798  1.00  0.00    -0.024 C  
BRANCH   9  10
HETATM   10  C   UNL     1      -7.312   4.279  68.879  1.00  0.00    -0.055 C  
BRANCH  10  11
HETATM   11  N   UNL     1      -7.163   5.707  68.641  1.00  0.00    -0.076 N  
HETATM   12  C   UNL     1      -6.072   6.399  69.119  1.00  0.00    -0.029 C  
HETATM   13  H   UNL     1      -7.878   6.204  68.110  1.00  0.00     0.000 HD 
HETATM   14  O   UNL     1      -5.145   5.877  69.731  1.00  0.00    -0.004 OA 
BRANCH  12  15
HETATM   15  C   UNL     1      -6.118   7.878  68.801  1.00  0.00    -0.039 C  
BRANCH  15  16
HETATM   16  C   UNL     1      -6.355   8.690  70.072  1.00  0.00    -0.034 C  
BRANCH  16  17
HETATM   17  C   UNL     1      -6.950   7.855  71.190  1.00  0.00    -0.049 C  
HETATM   18  O   UNL     1      -6.265   7.488  72.142  1.00  0.00    -0.040 OA 
HETATM   19  N   UNL     1      -8.271   7.515  71.053  1.00  0.00    -0.107 N  
HETATM   20  O   UNL     1      -9.118   7.991  70.036  1.00  0.00    -0.150 OA 
BRANCH  19  21
HETATM   21  C   UNL     1      -8.983   6.659  71.990  1.00  0.00    -0.139 C  
BRANCH  21  22
HETATM   22  C   UNL     1      -9.772   7.459  73.030  1.00  0.00    -0.255 C  
BRANCH  22  23
HETATM   23  C   UNL     1     -11.273   7.116  73.040  1.00  0.00    -0.279 C  
BRANCH  23  24
HETATM   24  C   UNL     1     -11.841   6.843  71.647  1.00  0.00    -0.363 C  
BRANCH  24  25
HETATM   25  C   UNL     1     -13.264   7.380  71.506  1.00  0.00    -0.372 C  
BRANCH  25  26
HETATM   26  N   UNL     1     -13.284   8.681  70.868  1.00  0.00    -0.463 N  
HETATM   27  H   UNL     1     -13.426   8.736  69.859  1.00  0.00     0.000 HD 
HETATM   28  C   UNL     1     -13.118   9.843  71.583  1.00  0.00    -0.437 C  
HETATM   29  O   UNL     1     -12.963   9.873  72.800  1.00  0.00     0.019 OA 
BRANCH  28  30
HETATM   30  C   UNL     1     -13.134  11.100  70.752  1.00  0.00    -0.081 C  
BRANCH  30  31
HETATM   31  C   UNL     1     -12.224  10.924  69.546  1.00  0.00    -0.331 C  
BRANCH  31  32
HETATM   32  C   UNL     1     -11.653  12.254  69.101  1.00  0.00    -0.318 C  
HETATM   33  N   UNL     1     -11.615  12.533  67.757  1.00  0.00    -0.324 N  
HETATM   34  O   UNL     1     -11.315  13.081  69.951  1.00  0.00    -0.126 OA 
HETATM   35  O   UNL     1     -11.592  11.476  66.827  1.00  0.00    -0.492 OA 
BRANCH  33  36
HETATM   36  C   UNL     1     -11.015  13.758  67.224  1.00  0.00    -0.292 C  
BRANCH  36  37
HETATM   37  C   UNL     1      -9.495  13.777  67.392  1.00  0.00    -0.224 C  
BRANCH  37  38
HETATM   38  C   UNL     1      -8.879  15.099  66.920  1.00  0.00    -0.284 C  
BRANCH  38  39
HETATM   39  C   UNL     1      -9.903  15.970  66.187  1.00  0.00    -0.351 C  
BRANCH  39  40
HETATM   40  C   UNL     1     -10.050  17.358  66.813  1.00  0.00    -0.313 C  
HETATM   41  N   UNL     1     -11.109  17.389  67.816  1.00  0.00    -0.136 NA 
HETATM   42  H2  UNL     1     -10.968  16.672  68.528  1.00  0.00     0.000 HD 
HETATM   43  H1  UNL     1     -11.208  18.314  68.234  1.00  0.00     0.000 HD 
ENDBRANCH  39  40
ENDBRANCH  38  39
ENDBRANCH  37  38
ENDBRANCH  36  37
ENDBRANCH  33  36
ENDBRANCH  31  32
ENDBRANCH  30  31
ENDBRANCH  28  30
ENDBRANCH  25  26
ENDBRANCH  24  25
ENDBRANCH  23  24
ENDBRANCH  22  23
ENDBRANCH  21  22
ENDBRANCH  19  21
ENDBRANCH  16  17
ENDBRANCH  15  16
ENDBRANCH  12  15
ENDBRANCH  10  11
ENDBRANCH   9  10
ENDBRANCH   8   9
ENDBRANCH   7   8
ENDBRANCH   6   7
ENDBRANCH   3   6
TORSDOF 23
ENDMDL
MODEL      337
REMARK 921   NORMALIZED FREE ENERGY PREDICTED BY IDOCK:   -1.76 KCAL/MOL
REMARK 922        TOTAL FREE ENERGY PREDICTED BY IDOCK:   -6.88 KCAL/MOL
REMARK 923 INTER-LIGAND FREE ENERGY PREDICTED BY IDOCK:   -5.84 KCAL/MOL
REMARK 924 INTRA-LIGAND FREE ENERGY PREDICTED BY IDOCK:   -1.04 KCAL/MOL
REMARK 927      BINDING AFFINITY PREDICTED BY RF-SCORE:    0.00 PKD
ROOT
HETATM    1  C   UNL     1     -11.091  13.714  67.114  1.00  0.00    -0.311 C  
HETATM    2  C   UNL     1     -10.994  12.301  67.628  1.00  0.00    -0.244 C  
HETATM    3  N   UNL     1      -9.850  11.964  68.301  1.00  0.00    -0.196 N  
HETATM    4  O   UNL     1     -11.902  11.498  67.410  1.00  0.00    -0.607 OA 
HETATM    5  O   UNL     1      -8.866  12.886  68.698  1.00  0.00    -0.078 OA 
ENDROOT
BRANCH   3   6
HETATM    6  C   UNL     1      -9.600  10.636  68.845  1.00  0.00    -0.196 C  
BRANCH   6   7
HETATM    7  C   UNL     1      -8.341   9.994  68.260  1.00  0.00    -0.110 C  
BRANCH   7   8
HETATM    8  C   UNL     1      -8.218  10.319  66.770  1.00  0.00    -0.124 C  
BRANCH   8   9
HETATM    9  C   UNL     1      -9.100   9.413  65.908  1.00  0.00    -0.242 C  
BRANCH   9  10
HETATM   10  C   UNL     1      -8.281   8.546  64.951  1.00  0.00    -0.165 C  
BRANCH  10  11
HETATM   11  N   UNL     1      -8.549   7.126  65.119  1.00  0.00    -0.344 N  
HETATM   12  C   UNL     1      -7.832   6.367  66.017  1.00  0.00    -0.103 C  
HETATM   13  H   UNL     1      -9.281   6.685  64.563  1.00  0.00     0.000 HD 
HETATM   14  O   UNL     1      -6.962   6.821  66.756  1.00  0.00    -0.063 OA 
BRANCH  12  15
HETATM   15  C   UNL     1      -8.231   4.907  66.019  1.00  0.00    -0.112 C  
BRANCH  15  16
HETATM   16  C   UNL     1      -6.995   4.015  66.089  1.00  0.00    -0.062 C  
BRANCH  16  17
HETATM   17  C   UNL     1      -6.572   3.724  67.515  1.00  0.00    -0.042 C  
HETATM   18  O   UNL     1      -5.608   4.295  68.022  1.00  0.00    -0.015 OA 
HETATM   19  N   UNL     1      -7.302   2.773  68.181  1.00  0.00    -0.049 N  
HETATM   20  O   UNL     1      -8.468   2.166  67.681  1.00  0.00    -0.069 OA 
BRANCH  19  21
HETATM   21  C   UNL     1      -6.993   2.316  69.527  1.00  0.00    -0.033 C  
BRANCH  21  22
HETATM   22  C   UNL     1      -8.230   1.799  70.268  1.00  0.00    -0.059 C  
BRANCH  22  23
HETATM   23  C   UNL     1      -9.000   2.913  71.002  1.00  0.00    -0.162 C  
BRANCH  23  24
HETATM   24  C   UNL     1     -10.120   2.384  71.898  1.00  0.00    -0.174 C  
BRANCH  24  25
HETATM   25  C   UNL     1      -9.583   1.911  73.247  1.00  0.00    -0.072 C  
BRANCH  25  26
HETATM   26  N   UNL     1      -8.250   2.420  73.500  1.00  0.00    -0.061 N  
HETATM   27  H   UNL     1      -7.444   1.875  73.190  1.00  0.00     0.000 HD 
HETATM   28  C   UNL     1      -8.040   3.615  74.146  1.00  0.00    -0.078 C  
HETATM   29  O   UNL     1      -8.948   4.343  74.535  1.00  0.00    -0.103 OA 
BRANCH  28  30
HETATM   30  C   UNL     1      -6.590   3.970  74.353  1.00  0.00    -0.052 C  
BRANCH  30  31
HETATM   31  C   UNL     1      -6.141   4.934  73.266  1.00  0.00    -0.033 C  
BRANCH  31  32
HETATM   32  C   UNL     1      -7.215   5.961  72.977  1.00  0.00    -0.093 C  
HETATM   33  N   UNL     1      -7.684   6.073  71.691  1.00  0.00    -0.100 N  
HETATM   34  O   UNL     1      -7.696   6.610  73.908  1.00  0.00    -0.086 OA 
HETATM   35  O   UNL     1      -6.871   5.667  70.615  1.00  0.00    -0.049 OA 
BRANCH  33  36
HETATM   36  C   UNL     1      -8.667   7.085  71.297  1.00  0.00    -0.130 C  
BRANCH  36  37
HETATM   37  C   UNL     1      -9.973   6.459  70.804  1.00  0.00    -0.212 C  
BRANCH  37  38
HETATM   38  C   UNL     1     -10.815   5.897  71.955  1.00  0.00    -0.307 C  
BRANCH  38  39
HETATM   39  C   UNL     1     -12.059   6.750  72.215  1.00  0.00    -0.212 C  
BRANCH  39  40
HETATM   40  C   UNL     1     -11.969   8.134  71.568  1.00  0.00    -0.298 C  
HETATM   41  N   UNL     1     -12.945   9.060  72.134  1.00  0.00    -0.396 NA 
HETATM   42  H2  UNL     1     -12.858   9.117  73.148  1.00  0.00     0.000 HD 
HETATM   43  H1  UNL     1     -12.885   9.982  71.702  1.00  0.00     0.000 HD 
ENDBRANCH  39  40
ENDBRANCH  38  39
ENDBRANCH  37  38
ENDBRANCH  36  37
ENDBRANCH  33  36
ENDBRANCH  31  32
ENDBRANCH  30  31
ENDBRANCH  28  30
ENDBRANCH  25  26
ENDBRANCH  24  25
ENDBRANCH  23  24
ENDBRANCH  22  23
ENDBRANCH  21  22
ENDBRANCH  19  21
ENDBRANCH  16  17
ENDBRANCH  15  16
ENDBRANCH  12  15
ENDBRANCH  10  11
ENDBRANCH   9  10
ENDBRANCH   8   9
ENDBRANCH   7   8
ENDBRANCH   6   7
ENDBRANCH   3   6
TORSDOF 23
ENDMDL
MODEL      338
REMARK 921   NORMALIZED FREE ENERGY PREDICTED BY IDOCK:   -1.62 KCAL/MOL
REMARK 922        TOTAL FREE ENERGY PREDICTED BY IDOCK:   -6.56 KCAL/MOL
REMARK 923 INTER-LIGAND FREE ENERGY PREDICTED BY IDOCK:   -7.50 KCAL/MOL
REMARK 924 INTRA-LIGAND FREE ENERGY PREDICTED BY IDOCK:    0.94 KCAL/MOL
REMARK 927      BINDING AFFINITY PREDICTED BY RF-SCORE:    0.00 PKD
ROOT
HETATM    1  C   UNL     1     -12.173  10.746  70.824  1.00  0.00    -0.480 C  
HETATM    2  C   UNL     1     -11.426  10.933  69.529  1.00  0.00    -0.301 C  
HETATM    3  N   UNL     1     -11.345  12.210  69.040  1.00  0.00    -0.257 N  
HETATM    4  O   UNL     1     -10.950   9.961  68.941  1.00  0.00    -0.220 OA 
HETATM    5  O   UNL     1     -11.740  13.355  69.752  1.00  0.00    -0.293 OA 
ENDROOT
BRANCH   3   6
HETATM    6  C   UNL     1     -10.672  12.550  67.794  1.00  0.00    -0.219 C  
BRANCH   6   7
HETATM    7  C   UNL     1     -10.302  14.033  67.717  1.00  0.00    -0.236 C  
BRANCH   7   8
HETATM    8  C   UNL     1     -10.784  14.636  66.397  1.00  0.00    -0.309 C  
BRANCH   8   9
HETATM    9  C   UNL     1     -10.704  16.164  66.398  1.00  0.00    -0.211 C  
BRANCH   9  10
HETATM   10  C   UNL     1     -11.129  16.765  67.738  1.00  0.00    -0.135 C  
BRANCH  10  11
HETATM   11  N   UNL     1     -10.050  17.496  68.387  1.00  0.00    -0.335 N  
HETATM   12  C   UNL     1      -9.523  18.636  67.824  1.00  0.00    -0.300 C  
HETATM   13  H   UNL     1      -9.679  17.157  69.274  1.00  0.00     0.000 HD 
HETATM   14  O   UNL     1      -9.933  19.137  66.781  1.00  0.00    -0.317 OA 
BRANCH  12  15
HETATM   15  C   UNL     1      -8.385  19.228  68.628  1.00  0.00    -0.407 C  
BRANCH  15  16
HETATM   16  C   UNL     1      -7.067  19.092  67.870  1.00  0.00    -0.258 C  
BRANCH  16  17
HETATM   17  C   UNL     1      -6.814  17.672  67.401  1.00  0.00    -0.164 C  
HETATM   18  O   UNL     1      -6.866  17.378  66.209  1.00  0.00    -0.241 OA 
HETATM   19  N   UNL     1      -6.558  16.748  68.382  1.00  0.00    -0.145 N  
HETATM   20  O   UNL     1      -6.390  17.054  69.744  1.00  0.00    -0.234 OA 
BRANCH  19  21
HETATM   21  C   UNL     1      -6.365  15.330  68.121  1.00  0.00    -0.128 C  
BRANCH  21  22
HETATM   22  C   UNL     1      -5.340  14.696  69.065  1.00  0.00    -0.089 C  
BRANCH  22  23
HETATM   23  C   UNL     1      -5.989  13.848  70.175  1.00  0.00    -0.152 C  
BRANCH  23  24
HETATM   24  C   UNL     1      -6.375  12.442  69.714  1.00  0.00    -0.081 C  
BRANCH  24  25
HETATM   25  C   UNL     1      -5.143  11.565  69.496  1.00  0.00    -0.052 C  
BRANCH  25  26
HETATM   26  N   UNL     1      -5.507  10.190  69.220  1.00  0.00    -0.038 N  
HETATM   27  H   UNL     1      -5.628   9.894  68.252  1.00  0.00     0.000 HD 
HETATM   28  C   UNL     1      -5.695   9.273  70.227  1.00  0.00    -0.035 C  
HETATM   29  O   UNL     1      -5.553   9.535  71.418  1.00  0.00    -0.064 OA 
BRANCH  28  30
HETATM   30  C   UNL     1      -6.104   7.900  69.758  1.00  0.00    -0.026 C  
BRANCH  30  31
HETATM   31  C   UNL     1      -7.399   7.996  68.967  1.00  0.00    -0.084 C  
BRANCH  31  32
HETATM   32  C   UNL     1      -8.529   8.501  69.840  1.00  0.00    -0.125 C  
HETATM   33  N   UNL     1      -9.313   7.580  70.492  1.00  0.00    -0.161 N  
HETATM   34  O   UNL     1      -8.667   9.714  70.009  1.00  0.00    -0.200 OA 
HETATM   35  O   UNL     1      -9.425   6.273  69.979  1.00  0.00    -0.153 OA 
BRANCH  33  36
HETATM   36  C   UNL     1     -10.472   7.965  71.299  1.00  0.00    -0.203 C  
BRANCH  36  37
HETATM   37  C   UNL     1     -10.080   8.348  72.727  1.00  0.00    -0.268 C  
BRANCH  37  38
HETATM   38  C   UNL     1      -9.081   7.358  73.336  1.00  0.00    -0.234 C  
BRANCH  38  39
HETATM   39  C   UNL     1      -9.222   5.963  72.721  1.00  0.00    -0.142 C  
BRANCH  39  40
HETATM   40  C   UNL     1      -8.114   5.008  73.169  1.00  0.00    -0.104 C  
HETATM   41  N   UNL     1      -8.362   4.481  74.507  1.00  0.00    -0.097 NA 
HETATM   42  H2  UNL     1      -9.279   4.040  74.568  1.00  0.00     0.000 HD 
HETATM   43  H1  UNL     1      -7.622   3.844  74.805  1.00  0.00     0.000 HD 
ENDBRANCH  39  40
ENDBRANCH  38  39
ENDBRANCH  37  38
ENDBRANCH  36  37
ENDBRANCH  33  36
ENDBRANCH  31  32
ENDBRANCH  30  31
ENDBRANCH  28  30
ENDBRANCH  25  26
ENDBRANCH  24  25
ENDBRANCH  23  24
ENDBRANCH  22  23
ENDBRANCH  21  22
ENDBRANCH  19  21
ENDBRANCH  16  17
ENDBRANCH  15  16
ENDBRANCH  12  15
ENDBRANCH  10  11
ENDBRANCH   9  10
ENDBRANCH   8   9
ENDBRANCH   7   8
ENDBRANCH   6   7
ENDBRANCH   3   6
TORSDOF 23
ENDMDL
MODEL      339
REMARK 921   NORMALIZED FREE ENERGY PREDICTED BY IDOCK:   -1.40 KCAL/MOL
REMARK 922        TOTAL FREE ENERGY PREDICTED BY IDOCK:   -6.04 KCAL/MOL
REMARK 923 INTER-LIGAND FREE ENERGY PREDICTED BY IDOCK:   -5.23 KCAL/MOL
REMARK 924 INTRA-LIGAND FREE ENERGY PREDICTED BY IDOCK:   -0.81 KCAL/MOL
REMARK 927      BINDING AFFINITY PREDICTED BY RF-SCORE:    0.00 PKD
ROOT
HETATM    1  C   UNL     1      -9.975   8.399  66.287  1.00  0.00    -0.216 C  
HETATM    2  C   UNL     1     -10.058   7.670  67.602  1.00  0.00    -0.192 C  
HETATM    3  N   UNL     1     -10.519   6.380  67.566  1.00  0.00    -0.197 N  
HETATM    4  O   UNL     1      -9.751   8.241  68.649  1.00  0.00    -0.151 OA 
HETATM    5  O   UNL     1     -10.733   5.650  66.385  1.00  0.00    -0.261 OA 
ENDROOT
BRANCH   3   6
HETATM    6  C   UNL     1     -10.672   5.550  68.753  1.00  0.00    -0.125 C  
BRANCH   6   7
HETATM    7  C   UNL     1      -9.867   4.252  68.665  1.00  0.00    -0.118 C  
BRANCH   7   8
HETATM    8  C   UNL     1      -8.614   4.341  69.538  1.00  0.00    -0.106 C  
BRANCH   8   9
HETATM    9  C   UNL     1      -7.339   4.483  68.704  1.00  0.00    -0.060 C  
BRANCH   9  10
HETATM   10  C   UNL     1      -6.425   3.264  68.828  1.00  0.00    -0.030 C  
BRANCH  10  11
HETATM   11  N   UNL     1      -6.236   2.850  70.210  1.00  0.00    -0.023 N  
HETATM   12  C   UNL     1      -5.574   3.654  71.110  1.00  0.00    -0.012 C  
HETATM   13  H   UNL     1      -6.601   1.948  70.517  1.00  0.00     0.000 HD 
HETATM   14  O   UNL     1      -5.137   4.769  70.840  1.00  0.00    -0.003 OA 
BRANCH  12  15
HETATM   15  C   UNL     1      -5.446   3.032  72.485  1.00  0.00     0.000 C  
BRANCH  15  16
HETATM   16  C   UNL     1      -6.816   2.609  73.009  1.00  0.00    -0.027 C  
BRANCH  16  17
HETATM   17  C   UNL     1      -7.792   3.767  73.078  1.00  0.00    -0.078 C  
HETATM   18  O   UNL     1      -8.882   3.715  72.512  1.00  0.00    -0.092 OA 
HETATM   19  N   UNL     1      -7.372   4.871  73.775  1.00  0.00    -0.081 N  
HETATM   20  O   UNL     1      -6.181   4.942  74.519  1.00  0.00    -0.053 OA 
BRANCH  19  21
HETATM   21  C   UNL     1      -8.146   6.099  73.882  1.00  0.00    -0.106 C  
BRANCH  21  22
HETATM   22  C   UNL     1      -7.373   7.323  73.385  1.00  0.00    -0.083 C  
BRANCH  22  23
HETATM   23  C   UNL     1      -8.262   8.327  72.626  1.00  0.00    -0.223 C  
BRANCH  23  24
HETATM   24  C   UNL     1      -7.580   8.929  71.397  1.00  0.00    -0.118 C  
BRANCH  24  25
HETATM   25  C   UNL     1      -6.895   7.856  70.553  1.00  0.00    -0.041 C  
BRANCH  25  26
HETATM   26  N   UNL     1      -7.016   8.132  69.136  1.00  0.00    -0.059 N  
HETATM   27  H   UNL     1      -7.717   7.629  68.591  1.00  0.00     0.000 HD 
HETATM   28  C   UNL     1      -6.212   9.051  68.504  1.00  0.00    -0.049 C  
HETATM   29  O   UNL     1      -5.358   9.715  69.083  1.00  0.00    -0.036 OA 
BRANCH  28  30
HETATM   30  C   UNL     1      -6.455   9.183  67.022  1.00  0.00    -0.064 C  
BRANCH  30  31
HETATM   31  C   UNL     1      -6.385  10.649  66.623  1.00  0.00    -0.091 C  
BRANCH  31  32
HETATM   32  C   UNL     1      -7.176  11.510  67.587  1.00  0.00    -0.103 C  
HETATM   33  N   UNL     1      -8.545  11.521  67.481  1.00  0.00    -0.139 N  
HETATM   34  O   UNL     1      -6.584  12.109  68.487  1.00  0.00    -0.055 OA 
HETATM   35  O   UNL     1      -9.151  11.206  66.250  1.00  0.00    -0.181 OA 
BRANCH  33  36
HETATM   36  C   UNL     1      -9.391  12.375  68.317  1.00  0.00    -0.199 C  
BRANCH  36  37
HETATM   37  C   UNL     1     -10.197  13.378  67.488  1.00  0.00    -0.226 C  
BRANCH  37  38
HETATM   38  C   UNL     1     -11.542  13.716  68.140  1.00  0.00    -0.367 C  
BRANCH  38  39
HETATM   39  C   UNL     1     -11.361  14.270  69.556  1.00  0.00    -0.315 C  
BRANCH  39  40
HETATM   40  C   UNL     1     -12.691  14.462  70.287  1.00  0.00    -0.263 C  
HETATM   41  N   UNL     1     -13.139  15.849  70.239  1.00  0.00    -0.682 NA 
HETATM   42  H2  UNL     1     -13.190  16.190  69.279  1.00  0.00     0.000 HD 
HETATM   43  H1  UNL     1     -14.026  15.977  70.726  1.00  0.00     0.000 HD 
ENDBRANCH  39  40
ENDBRANCH  38  39
ENDBRANCH  37  38
ENDBRANCH  36  37
ENDBRANCH  33  36
ENDBRANCH  31  32
ENDBRANCH  30  31
ENDBRANCH  28  30
ENDBRANCH  25  26
ENDBRANCH  24  25
ENDBRANCH  23  24
ENDBRANCH  22  23
ENDBRANCH  21  22
ENDBRANCH  19  21
ENDBRANCH  16  17
ENDBRANCH  15  16
ENDBRANCH  12  15
ENDBRANCH  10  11
ENDBRANCH   9  10
ENDBRANCH   8   9
ENDBRANCH   7   8
ENDBRANCH   6   7
ENDBRANCH   3   6
TORSDOF 23
ENDMDL
MODEL      340
REMARK 921   NORMALIZED FREE ENERGY PREDICTED BY IDOCK:   -1.32 KCAL/MOL
REMARK 922        TOTAL FREE ENERGY PREDICTED BY IDOCK:   -5.85 KCAL/MOL
REMARK 923 INTER-LIGAND FREE ENERGY PREDICTED BY IDOCK:   -5.84 KCAL/MOL
REMARK 924 INTRA-LIGAND FREE ENERGY PREDICTED BY IDOCK:   -0.01 KCAL/MOL
REMARK 927      BINDING AFFINITY PREDICTED BY RF-SCORE:    0.00 PKD
ROOT
HETATM    1  C   UNL     1     -10.682  18.420  65.734  1.00  0.00    -0.161 C  
HETATM    2  C   UNL     1     -10.722  16.920  65.871  1.00  0.00    -0.149 C  
HETATM    3  N   UNL     1     -10.704  16.415  67.145  1.00  0.00    -0.279 N  
HETATM    4  O   UNL     1     -10.736  16.205  64.869  1.00  0.00    -0.612 OA 
HETATM    5  O   UNL     1     -10.841  17.195  68.306  1.00  0.00    -0.369 OA 
ENDROOT
BRANCH   3   6
HETATM    6  C   UNL     1     -10.722  14.989  67.443  1.00  0.00    -0.289 C  
BRANCH   6   7
HETATM    7  C   UNL     1     -10.521  14.702  68.932  1.00  0.00    -0.248 C  
BRANCH   7   8
HETATM    8  C   UNL     1      -9.040  14.806  69.300  1.00  0.00    -0.030 C  
BRANCH   8   9
HETATM    9  C   UNL     1      -8.215  13.666  68.700  1.00  0.00    -0.058 C  
BRANCH   9  10
HETATM   10  C   UNL     1      -8.950  12.327  68.756  1.00  0.00     0.140 C  
BRANCH  10  11
HETATM   11  N   UNL     1      -8.640  11.473  67.619  1.00  0.00    -0.132 N  
HETATM   12  C   UNL     1      -7.354  11.369  67.137  1.00  0.00    -0.138 C  
HETATM   13  H   UNL     1      -9.387  10.944  67.172  1.00  0.00     0.000 HD 
HETATM   14  O   UNL     1      -6.387  11.938  67.637  1.00  0.00    -0.065 OA 
BRANCH  12  15
HETATM   15  C   UNL     1      -7.241  10.465  65.928  1.00  0.00    -0.135 C  
BRANCH  15  16
HETATM   16  C   UNL     1      -6.168   9.403  66.153  1.00  0.00    -0.067 C  
BRANCH  16  17
HETATM   17  C   UNL     1      -6.227   8.807  67.547  1.00  0.00    -0.052 C  
HETATM   18  O   UNL     1      -5.251   8.839  68.294  1.00  0.00    -0.033 OA 
HETATM   19  N   UNL     1      -7.410   8.211  67.900  1.00  0.00    -0.094 N  
HETATM   20  O   UNL     1      -8.581   8.236  67.121  1.00  0.00    -0.121 OA 
BRANCH  19  21
HETATM   21  C   UNL     1      -7.621   7.526  69.166  1.00  0.00    -0.100 C  
BRANCH  21  22
HETATM   22  C   UNL     1      -7.733   8.496  70.345  1.00  0.00    -0.080 C  
BRANCH  22  23
HETATM   23  C   UNL     1      -9.147   8.542  70.953  1.00  0.00    -0.208 C  
BRANCH  23  24
HETATM   24  C   UNL     1      -9.158   8.370  72.473  1.00  0.00    -0.326 C  
BRANCH  24  25
HETATM   25  C   UNL     1     -10.486   7.797  72.963  1.00  0.00    -0.369 C  
BRANCH  25  26
HETATM   26  N   UNL     1     -10.746   6.489  72.397  1.00  0.00    -0.216 N  
HETATM   27  H   UNL     1     -11.687   6.268  72.071  1.00  0.00     0.000 HD 
HETATM   28  C   UNL     1      -9.760   5.537  72.287  1.00  0.00    -0.156 C  
HETATM   29  O   UNL     1      -8.598   5.722  72.634  1.00  0.00    -0.120 OA 
BRANCH  28  30
HETATM   30  C   UNL     1     -10.218   4.223  71.706  1.00  0.00    -0.182 C  
BRANCH  30  31
HETATM   31  C   UNL     1      -9.081   3.592  70.918  1.00  0.00    -0.182 C  
BRANCH  31  32
HETATM   32  C   UNL     1      -9.341   3.683  69.429  1.00  0.00    -0.176 C  
HETATM   33  N   UNL     1      -9.196   2.547  68.669  1.00  0.00    -0.165 N  
HETATM   34  O   UNL     1      -9.751   4.742  68.950  1.00  0.00    -0.156 OA 
HETATM   35  O   UNL     1      -8.353   1.513  69.116  1.00  0.00    -0.047 OA 
BRANCH  33  36
HETATM   36  C   UNL     1      -9.354   2.550  67.213  1.00  0.00    -0.078 C  
BRANCH  36  37
HETATM   37  C   UNL     1      -8.030   2.296  66.489  1.00  0.00    -0.077 C  
BRANCH  37  38
HETATM   38  C   UNL     1      -7.345   3.599  66.065  1.00  0.00    -0.076 C  
BRANCH  38  39
HETATM   39  C   UNL     1      -8.337   4.764  66.000  1.00  0.00    -0.112 C  
BRANCH  39  40
HETATM   40  C   UNL     1      -7.822   5.928  65.152  1.00  0.00    -0.107 C  
HETATM   41  N   UNL     1      -8.916   6.732  64.617  1.00  0.00    -0.014 NA 
HETATM   42  H2  UNL     1      -9.535   7.058  65.359  1.00  0.00     0.000 HD 
HETATM   43  H1  UNL     1      -8.572   7.509  64.051  1.00  0.00     0.000 HD 
ENDBRANCH  39  40
ENDBRANCH  38  39
ENDBRANCH  37  38
ENDBRANCH  36  37
ENDBRANCH  33  36
ENDBRANCH  31  32
ENDBRANCH  30  31
ENDBRANCH  28  30
ENDBRANCH  25  26
ENDBRANCH  24  25
ENDBRANCH  23  24
ENDBRANCH  22  23
ENDBRANCH  21  22
ENDBRANCH  19  21
ENDBRANCH  16  17
ENDBRANCH  15  16
ENDBRANCH  12  15
ENDBRANCH  10  11
ENDBRANCH   9  10
ENDBRANCH   8   9
ENDBRANCH   7   8
ENDBRANCH   6   7
ENDBRANCH   3   6
TORSDOF 23
ENDMDL
MODEL      341
REMARK 921   NORMALIZED FREE ENERGY PREDICTED BY IDOCK:   -1.29 KCAL/MOL
REMARK 922        TOTAL FREE ENERGY PREDICTED BY IDOCK:   -5.78 KCAL/MOL
REMARK 923 INTER-LIGAND FREE ENERGY PREDICTED BY IDOCK:   -4.38 KCAL/MOL
REMARK 924 INTRA-LIGAND FREE ENERGY PREDICTED BY IDOCK:   -1.40 KCAL/MOL
REMARK 927      BINDING AFFINITY PREDICTED BY RF-SCORE:    0.00 PKD
ROOT
HETATM    1  C   UNL     1     -13.400  12.326  64.605  1.00  0.00     0.805 C  
HETATM    2  C   UNL     1     -12.114  11.827  65.211  1.00  0.00     0.274 C  
HETATM    3  N   UNL     1     -11.117  11.473  64.341  1.00  0.00    -0.318 N  
HETATM    4  O   UNL     1     -12.003  11.722  66.433  1.00  0.00    -0.515 OA 
HETATM    5  O   UNL     1     -11.150  11.720  62.958  1.00  0.00    -0.207 OA 
ENDROOT
BRANCH   3   6
HETATM    6  C   UNL     1      -9.823  10.959  64.770  1.00  0.00    -0.288 C  
BRANCH   6   7
HETATM    7  C   UNL     1      -9.935   9.598  65.459  1.00  0.00    -0.279 C  
BRANCH   7   8
HETATM    8  C   UNL     1      -8.547   9.064  65.816  1.00  0.00    -0.180 C  
BRANCH   8   9
HETATM    9  C   UNL     1      -7.447   9.711  64.973  1.00  0.00    -0.116 C  
BRANCH   9  10
HETATM   10  C   UNL     1      -6.473  10.531  65.821  1.00  0.00    -0.124 C  
BRANCH  10  11
HETATM   11  N   UNL     1      -6.940  10.708  67.188  1.00  0.00    -0.084 N  
HETATM   12  C   UNL     1      -6.220  10.219  68.255  1.00  0.00    -0.048 C  
HETATM   13  H   UNL     1      -7.815  11.203  67.358  1.00  0.00     0.000 HD 
HETATM   14  O   UNL     1      -5.139   9.646  68.147  1.00  0.00    -0.037 OA 
BRANCH  12  15
HETATM   15  C   UNL     1      -6.888  10.469  69.590  1.00  0.00    -0.117 C  
BRANCH  15  16
HETATM   16  C   UNL     1      -7.398  11.905  69.672  1.00  0.00     0.434 C  
BRANCH  16  17
HETATM   17  C   UNL     1      -6.270  12.918  69.719  1.00  0.00    -0.105 C  
HETATM   18  O   UNL     1      -5.130  12.616  69.373  1.00  0.00    -0.072 OA 
HETATM   19  N   UNL     1      -6.595  14.162  70.195  1.00  0.00    -0.087 N  
HETATM   20  O   UNL     1      -7.899  14.584  70.507  1.00  0.00     0.841 OA 
BRANCH  19  21
HETATM   21  C   UNL     1      -5.626  15.233  70.378  1.00  0.00    -0.138 C  
BRANCH  21  22
HETATM   22  C   UNL     1      -6.284  16.555  70.783  1.00  0.00     0.828 C  
BRANCH  22  23
HETATM   23  C   UNL     1      -5.399  17.781  70.488  1.00  0.00    -0.270 C  
BRANCH  23  24
HETATM   24  C   UNL     1      -6.041  19.104  70.907  1.00  0.00     0.136 C  
BRANCH  24  25
HETATM   25  C   UNL     1      -6.379  19.972  69.697  1.00  0.00    -0.352 C  
BRANCH  25  26
HETATM   26  N   UNL     1      -6.979  19.194  68.632  1.00  0.00    -0.287 N  
HETATM   27  H   UNL     1      -7.010  18.178  68.717  1.00  0.00     0.000 HD 
HETATM   28  C   UNL     1      -7.508  19.787  67.510  1.00  0.00    -0.271 C  
HETATM   29  O   UNL     1      -7.532  21.001  67.333  1.00  0.00    -0.351 OA 
BRANCH  28  30
HETATM   30  C   UNL     1      -8.059  18.823  66.491  1.00  0.00    -0.302 C  
BRANCH  30  31
HETATM   31  C   UNL     1      -7.088  17.668  66.305  1.00  0.00    -0.337 C  
BRANCH  31  32
HETATM   32  C   UNL     1      -7.775  16.340  66.544  1.00  0.00    -0.225 C  
HETATM   33  N   UNL     1      -8.934  16.070  65.857  1.00  0.00    -0.296 N  
HETATM   34  O   UNL     1      -7.242  15.507  67.280  1.00  0.00    -0.197 OA 
HETATM   35  O   UNL     1      -9.727  17.133  65.384  1.00  0.00    -0.425 OA 
BRANCH  33  36
HETATM   36  C   UNL     1      -9.710  14.847  66.073  1.00  0.00    -0.328 C  
BRANCH  36  37
HETATM   37  C   UNL     1     -11.217  15.098  65.992  1.00  0.00    -0.275 C  
BRANCH  37  38
HETATM   38  C   UNL     1     -11.829  15.383  67.367  1.00  0.00     0.083 C  
BRANCH  38  39
HETATM   39  C   UNL     1     -11.307  14.413  68.431  1.00  0.00    -0.312 C  
BRANCH  39  40
HETATM   40  C   UNL     1     -12.248  14.294  69.631  1.00  0.00    -0.323 C  
HETATM   41  N   UNL     1     -12.032  13.052  70.367  1.00  0.00    -0.517 NA 
HETATM   42  H2  UNL     1     -11.057  12.951  70.647  1.00  0.00     0.000 HD 
HETATM   43  H1  UNL     1     -12.659  12.973  71.167  1.00  0.00     0.000 HD 
ENDBRANCH  39  40
ENDBRANCH  38  39
ENDBRANCH  37  38
ENDBRANCH  36  37
ENDBRANCH  33  36
ENDBRANCH  31  32
ENDBRANCH  30  31
ENDBRANCH  28  30
ENDBRANCH  25  26
ENDBRANCH  24  25
ENDBRANCH  23  24
ENDBRANCH  22  23
ENDBRANCH  21  22
ENDBRANCH  19  21
ENDBRANCH  16  17
ENDBRANCH  15  16
ENDBRANCH  12  15
ENDBRANCH  10  11
ENDBRANCH   9  10
ENDBRANCH   8   9
ENDBRANCH   7   8
ENDBRANCH   6   7
ENDBRANCH   3   6
TORSDOF 23
ENDMDL
MODEL      342
REMARK 921   NORMALIZED FREE ENERGY PREDICTED BY IDOCK:   -1.26 KCAL/MOL
REMARK 922        TOTAL FREE ENERGY PREDICTED BY IDOCK:   -5.71 KCAL/MOL
REMARK 923 INTER-LIGAND FREE ENERGY PREDICTED BY IDOCK:   -4.82 KCAL/MOL
REMARK 924 INTRA-LIGAND FREE ENERGY PREDICTED BY IDOCK:   -0.89 KCAL/MOL
REMARK 927      BINDING AFFINITY PREDICTED BY RF-SCORE:    0.00 PKD
ROOT
HETATM    1  C   UNL     1      -8.666   8.752  73.736  1.00  0.00     0.580 C  
HETATM    2  C   UNL     1      -7.823   8.121  72.659  1.00  0.00    -0.141 C  
HETATM    3  N   UNL     1      -6.595   8.682  72.426  1.00  0.00    -0.082 N  
HETATM    4  O   UNL     1      -8.255   7.166  72.011  1.00  0.00    -0.100 OA 
HETATM    5  O   UNL     1      -6.010   9.667  73.240  1.00  0.00    -0.291 OA 
ENDROOT
BRANCH   3   6
HETATM    6  C   UNL     1      -5.671   8.197  71.410  1.00  0.00    -0.034 C  
BRANCH   6   7
HETATM    7  C   UNL     1      -5.927   6.735  71.039  1.00  0.00    -0.032 C  
BRANCH   7   8
HETATM    8  C   UNL     1      -5.187   6.373  69.750  1.00  0.00    -0.013 C  
BRANCH   8   9
HETATM    9  C   UNL     1      -5.990   6.743  68.502  1.00  0.00    -0.025 C  
BRANCH   9  10
HETATM   10  C   UNL     1      -6.146   8.256  68.341  1.00  0.00    -0.046 C  
BRANCH  10  11
HETATM   11  N   UNL     1      -7.506   8.640  67.992  1.00  0.00    -0.095 N  
HETATM   12  C   UNL     1      -7.887   8.795  66.678  1.00  0.00    -0.100 C  
HETATM   13  H   UNL     1      -8.187   8.797  68.733  1.00  0.00     0.000 HD 
HETATM   14  O   UNL     1      -7.145   8.589  65.721  1.00  0.00    -0.073 OA 
BRANCH  12  15
HETATM   15  C   UNL     1      -9.327   9.234  66.522  1.00  0.00    -0.231 C  
BRANCH  15  16
HETATM   16  C   UNL     1      -9.471  10.720  66.843  1.00  0.00    -0.192 C  
BRANCH  16  17
HETATM   17  C   UNL     1      -9.662  10.975  68.325  1.00  0.00    -0.177 C  
HETATM   18  O   UNL     1      -8.710  11.251  69.052  1.00  0.00    -0.092 OA 
HETATM   19  N   UNL     1     -10.943  10.848  68.800  1.00  0.00    -0.217 N  
HETATM   20  O   UNL     1     -12.076  10.633  67.996  1.00  0.00    -0.366 OA 
BRANCH  19  21
HETATM   21  C   UNL     1     -11.298  10.985  70.205  1.00  0.00    -0.251 C  
BRANCH  21  22
HETATM   22  C   UNL     1     -11.015   9.711  71.006  1.00  0.00    -0.431 C  
BRANCH  22  23
HETATM   23  C   UNL     1     -12.198   9.287  71.897  1.00  0.00    -0.448 C  
BRANCH  23  24
HETATM   24  C   UNL     1     -12.681   7.863  71.623  1.00  0.00    -0.352 C  
BRANCH  24  25
HETATM   25  C   UNL     1     -11.639   6.827  72.040  1.00  0.00    -0.291 C  
BRANCH  25  26
HETATM   26  N   UNL     1     -11.255   5.978  70.930  1.00  0.00    -0.291 N  
HETATM   27  H   UNL     1     -11.652   6.159  70.008  1.00  0.00     0.000 HD 
HETATM   28  C   UNL     1     -10.371   4.937  71.085  1.00  0.00    -0.152 C  
HETATM   29  O   UNL     1      -9.831   4.660  72.151  1.00  0.00    -0.161 OA 
BRANCH  28  30
HETATM   30  C   UNL     1     -10.113   4.140  69.831  1.00  0.00     0.053 C  
BRANCH  30  31
HETATM   31  C   UNL     1      -9.005   4.801  69.027  1.00  0.00    -0.139 C  
BRANCH  31  32
HETATM   32  C   UNL     1      -8.328   3.800  68.115  1.00  0.00    -0.091 C  
HETATM   33  N   UNL     1      -8.878   3.566  66.878  1.00  0.00    -0.124 N  
HETATM   34  O   UNL     1      -7.265   3.284  68.467  1.00  0.00    -0.049 OA 
HETATM   35  O   UNL     1     -10.249   3.809  66.667  1.00  0.00     0.125 OA 
BRANCH  33  36
HETATM   36  C   UNL     1      -8.340   2.565  65.954  1.00  0.00    -0.093 C  
BRANCH  36  37
HETATM   37  C   UNL     1      -6.970   2.965  65.404  1.00  0.00    -0.053 C  
BRANCH  37  38
HETATM   38  C   UNL     1      -7.063   3.544  63.989  1.00  0.00    -0.050 C  
BRANCH  38  39
HETATM   39  C   UNL     1      -8.281   4.460  63.832  1.00  0.00    -0.099 C  
BRANCH  39  40
HETATM   40  C   UNL     1      -9.462   3.758  63.161  1.00  0.00    -0.123 C  
HETATM   41  N   UNL     1      -9.044   2.552  62.454  1.00  0.00    -0.081 NA 
HETATM   42  H2  UNL     1      -8.536   1.918  63.069  1.00  0.00     0.000 HD 
HETATM   43  H1  UNL     1      -9.832   2.084  62.006  1.00  0.00     0.000 HD 
ENDBRANCH  39  40
ENDBRANCH  38  39
ENDBRANCH  37  38
ENDBRANCH  36  37
ENDBRANCH  33  36
ENDBRANCH  31  32
ENDBRANCH  30  31
ENDBRANCH  28  30
ENDBRANCH  25  26
ENDBRANCH  24  25
ENDBRANCH  23  24
ENDBRANCH  22  23
ENDBRANCH  21  22
ENDBRANCH  19  21
ENDBRANCH  16  17
ENDBRANCH  15  16
ENDBRANCH  12  15
ENDBRANCH  10  11
ENDBRANCH   9  10
ENDBRANCH   8   9
ENDBRANCH   7   8
ENDBRANCH   6   7
ENDBRANCH   3   6
TORSDOF 23
ENDMDL
MODEL      343
REMARK 921   NORMALIZED FREE ENERGY PREDICTED BY IDOCK:   -1.17 KCAL/MOL
REMARK 922        TOTAL FREE ENERGY PREDICTED BY IDOCK:   -5.49 KCAL/MOL
REMARK 923 INTER-LIGAND FREE ENERGY PREDICTED BY IDOCK:   -7.40 KCAL/MOL
REMARK 924 INTRA-LIGAND FREE ENERGY PREDICTED BY IDOCK:    1.91 KCAL/MOL
REMARK 927      BINDING AFFINITY PREDICTED BY RF-SCORE:    0.00 PKD
ROOT
HETATM    1  C   UNL     1      -5.725   5.397  67.567  1.00  0.00    -0.013 C  
HETATM    2  C   UNL     1      -5.877   6.866  67.862  1.00  0.00    -0.024 C  
HETATM    3  N   UNL     1      -5.948   7.227  69.182  1.00  0.00    -0.025 N  
HETATM    4  O   UNL     1      -5.963   7.679  66.941  1.00  0.00    -0.043 OA 
HETATM    5  O   UNL     1      -5.703   6.354  70.255  1.00  0.00    -0.017 OA 
ENDROOT
BRANCH   3   6
HETATM    6  C   UNL     1      -6.110   8.604  69.629  1.00  0.00    -0.032 C  
BRANCH   6   7
HETATM    7  C   UNL     1      -6.830   8.699  70.975  1.00  0.00    -0.066 C  
BRANCH   7   8
HETATM    8  C   UNL     1      -6.213   7.727  71.981  1.00  0.00    -0.040 C  
BRANCH   8   9
HETATM    9  C   UNL     1      -6.556   8.098  73.425  1.00  0.00    -0.121 C  
BRANCH   9  10
HETATM   10  C   UNL     1      -8.062   8.073  73.688  1.00  0.00    -0.208 C  
BRANCH  10  11
HETATM   11  N   UNL     1      -8.832   8.567  72.556  1.00  0.00    -0.212 N  
HETATM   12  C   UNL     1     -10.177   8.299  72.438  1.00  0.00    -0.327 C  
HETATM   13  H   UNL     1      -8.366   9.122  71.839  1.00  0.00     0.000 HD 
HETATM   14  O   UNL     1     -10.827   7.674  73.272  1.00  0.00    -0.394 OA 
BRANCH  12  15
HETATM   15  C   UNL     1     -10.790   8.866  71.175  1.00  0.00    -0.352 C  
BRANCH  15  16
HETATM   16  C   UNL     1     -12.185   9.418  71.460  1.00  0.00    -0.448 C  
BRANCH  16  17
HETATM   17  C   UNL     1     -12.323  10.874  71.060  1.00  0.00    -0.393 C  
HETATM   18  O   UNL     1     -11.671  11.343  70.130  1.00  0.00    -0.314 OA 
HETATM   19  N   UNL     1     -13.186  11.628  71.814  1.00  0.00    -0.421 N  
HETATM   20  O   UNL     1     -14.025  11.117  72.820  1.00  0.00     0.766 OA 
BRANCH  19  21
HETATM   21  C   UNL     1     -13.387  13.057  71.620  1.00  0.00    -0.292 C  
BRANCH  21  22
HETATM   22  C   UNL     1     -12.076  13.800  71.350  1.00  0.00    -0.111 C  
BRANCH  22  23
HETATM   23  C   UNL     1     -12.201  15.324  71.536  1.00  0.00    -0.416 C  
BRANCH  23  24
HETATM   24  C   UNL     1     -11.639  16.125  70.360  1.00  0.00    -0.293 C  
BRANCH  24  25
HETATM   25  C   UNL     1     -12.329  15.756  69.049  1.00  0.00     0.146 C  
BRANCH  25  26
HETATM   26  N   UNL     1     -11.370  15.481  67.998  1.00  0.00    -0.339 N  
HETATM   27  H   UNL     1     -10.579  16.112  67.872  1.00  0.00     0.000 HD 
HETATM   28  C   UNL     1     -11.497  14.394  67.167  1.00  0.00    -0.362 C  
HETATM   29  O   UNL     1     -12.404  13.572  67.259  1.00  0.00    -0.297 OA 
BRANCH  28  30
HETATM   30  C   UNL     1     -10.428  14.283  66.110  1.00  0.00    -0.294 C  
BRANCH  30  31
HETATM   31  C   UNL     1     -10.728  15.253  64.978  1.00  0.00    -0.461 C  
BRANCH  31  32
HETATM   32  C   UNL     1     -10.406  16.675  65.385  1.00  0.00    -0.190 C  
HETATM   33  N   UNL     1      -9.133  16.960  65.816  1.00  0.00    -0.029 N  
HETATM   34  O   UNL     1     -11.261  17.553  65.244  1.00  0.00    -0.227 OA 
HETATM   35  O   UNL     1      -8.337  15.935  66.362  1.00  0.00    -0.288 OA 
BRANCH  33  36
HETATM   36  C   UNL     1      -8.744  18.286  66.299  1.00  0.00    -0.178 C  
BRANCH  36  37
HETATM   37  C   UNL     1      -9.307  18.582  67.691  1.00  0.00    -0.295 C  
BRANCH  37  38
HETATM   38  C   UNL     1      -8.383  18.080  68.805  1.00  0.00    -0.223 C  
BRANCH  38  39
HETATM   39  C   UNL     1      -6.917  18.419  68.520  1.00  0.00    -0.273 C  
BRANCH  39  40
HETATM   40  C   UNL     1      -5.975  17.249  68.811  1.00  0.00    -0.167 C  
HETATM   41  N   UNL     1      -5.701  16.464  67.611  1.00  0.00    -0.130 NA 
HETATM   42  H2  UNL     1      -5.344  17.051  66.857  1.00  0.00     0.000 HD 
HETATM   43  H1  UNL     1      -5.073  15.684  67.805  1.00  0.00     0.000 HD 
ENDBRANCH  39  40
ENDBRANCH  38  39
ENDBRANCH  37  38
ENDBRANCH  36  37
ENDBRANCH  33  36
ENDBRANCH  31  32
ENDBRANCH  30  31
ENDBRANCH  28  30
ENDBRANCH  25  26
ENDBRANCH  24  25
ENDBRANCH  23  24
ENDBRANCH  22  23
ENDBRANCH  21  22
ENDBRANCH  19  21
ENDBRANCH  16  17
ENDBRANCH  15  16
ENDBRANCH  12  15
ENDBRANCH  10  11
ENDBRANCH   9  10
ENDBRANCH   8   9
ENDBRANCH   7   8
ENDBRANCH   6   7
ENDBRANCH   3   6
TORSDOF 23
ENDMDL
MODEL      344
REMARK 921   NORMALIZED FREE ENERGY PREDICTED BY IDOCK:   -1.14 KCAL/MOL
REMARK 922        TOTAL FREE ENERGY PREDICTED BY IDOCK:   -5.44 KCAL/MOL
REMARK 923 INTER-LIGAND FREE ENERGY PREDICTED BY IDOCK:   -3.66 KCAL/MOL
REMARK 924 INTRA-LIGAND FREE ENERGY PREDICTED BY IDOCK:   -1.78 KCAL/MOL
REMARK 927      BINDING AFFINITY PREDICTED BY RF-SCORE:    0.00 PKD
ROOT
HETATM    1  C   UNL     1      -9.709  14.970  70.379  1.00  0.00     0.563 C  
HETATM    2  C   UNL     1     -10.485  16.197  69.975  1.00  0.00    -0.215 C  
HETATM    3  N   UNL     1      -9.762  17.251  69.481  1.00  0.00     0.105 N  
HETATM    4  O   UNL     1     -11.707  16.235  70.122  1.00  0.00    -0.244 OA 
HETATM    5  O   UNL     1      -8.396  17.191  69.159  1.00  0.00    -0.157 OA 
ENDROOT
BRANCH   3   6
HETATM    6  C   UNL     1     -10.364  18.510  69.063  1.00  0.00    -0.015 C  
BRANCH   6   7
HETATM    7  C   UNL     1     -10.107  18.817  67.587  1.00  0.00    -0.415 C  
BRANCH   7   8
HETATM    8  C   UNL     1     -11.270  18.319  66.726  1.00  0.00     0.595 C  
BRANCH   8   9
HETATM    9  C   UNL     1     -10.801  17.822  65.357  1.00  0.00     0.151 C  
BRANCH   9  10
HETATM   10  C   UNL     1     -11.651  16.661  64.840  1.00  0.00     0.431 C  
BRANCH  10  11
HETATM   11  N   UNL     1     -10.866  15.457  64.609  1.00  0.00    -0.640 N  
HETATM   12  C   UNL     1     -10.357  14.727  65.659  1.00  0.00    -0.349 C  
HETATM   13  H   UNL     1     -10.691  15.150  63.652  1.00  0.00     0.000 HD 
HETATM   14  O   UNL     1     -10.550  14.999  66.840  1.00  0.00    -0.285 OA 
BRANCH  12  15
HETATM   15  C   UNL     1      -9.538  13.534  65.214  1.00  0.00     0.131 C  
BRANCH  15  16
HETATM   16  C   UNL     1      -9.949  12.284  65.989  1.00  0.00    -0.270 C  
BRANCH  16  17
HETATM   17  C   UNL     1      -8.755  11.474  66.454  1.00  0.00    -0.179 C  
HETATM   18  O   UNL     1      -8.467  10.403  65.923  1.00  0.00    -0.144 OA 
HETATM   19  N   UNL     1      -8.049  11.989  67.511  1.00  0.00    -0.150 N  
HETATM   20  O   UNL     1      -8.278  13.252  68.085  1.00  0.00    -0.144 OA 
BRANCH  19  21
HETATM   21  C   UNL     1      -6.922  11.311  68.134  1.00  0.00    -0.069 C  
BRANCH  21  22
HETATM   22  C   UNL     1      -7.250  10.804  69.541  1.00  0.00    -0.132 C  
BRANCH  22  23
HETATM   23  C   UNL     1      -8.049   9.487  69.533  1.00  0.00    -0.117 C  
BRANCH  23  24
HETATM   24  C   UNL     1      -7.253   8.300  68.989  1.00  0.00    -0.073 C  
BRANCH  24  25
HETATM   25  C   UNL     1      -7.945   6.973  69.294  1.00  0.00    -0.119 C  
BRANCH  25  26
HETATM   26  N   UNL     1      -9.063   7.149  70.199  1.00  0.00    -0.152 N  
HETATM   27  H   UNL     1      -9.278   8.084  70.545  1.00  0.00     0.000 HD 
HETATM   28  C   UNL     1      -9.840   6.090  70.605  1.00  0.00    -0.181 C  
HETATM   29  O   UNL     1      -9.666   4.937  70.225  1.00  0.00    -0.179 OA 
BRANCH  28  30
HETATM   30  C   UNL     1     -10.937   6.453  71.574  1.00  0.00    -0.310 C  
BRANCH  30  31
HETATM   31  C   UNL     1     -11.284   5.242  72.427  1.00  0.00    -0.229 C  
BRANCH  31  32
HETATM   32  C   UNL     1     -10.171   4.934  73.406  1.00  0.00    -0.173 C  
HETATM   33  N   UNL     1      -9.553   3.710  73.329  1.00  0.00    -0.108 N  
HETATM   34  O   UNL     1      -9.795   5.810  74.188  1.00  0.00    -0.169 OA 
HETATM   35  O   UNL     1     -10.239   2.617  72.765  1.00  0.00    -0.139 OA 
BRANCH  33  36
HETATM   36  C   UNL     1      -8.518   3.291  74.277  1.00  0.00    -0.076 C  
BRANCH  36  37
HETATM   37  C   UNL     1      -7.130   3.248  73.634  1.00  0.00    -0.045 C  
BRANCH  37  38
HETATM   38  C   UNL     1      -7.197   3.377  72.108  1.00  0.00    -0.046 C  
BRANCH  38  39
HETATM   39  C   UNL     1      -6.101   4.302  71.571  1.00  0.00    -0.017 C  
BRANCH  39  40
HETATM   40  C   UNL     1      -5.843   5.501  72.485  1.00  0.00    -0.026 C  
HETATM   41  N   UNL     1      -6.794   6.581  72.243  1.00  0.00    -0.067 NA 
HETATM   42  H2  UNL     1      -7.756   6.253  72.323  1.00  0.00     0.000 HD 
HETATM   43  H1  UNL     1      -6.621   7.380  72.853  1.00  0.00     0.000 HD 
ENDBRANCH  39  40
ENDBRANCH  38  39
ENDBRANCH  37  38
ENDBRANCH  36  37
ENDBRANCH  33  36
ENDBRANCH  31  32
ENDBRANCH  30  31
ENDBRANCH  28  30
ENDBRANCH  25  26
ENDBRANCH  24  25
ENDBRANCH  23  24
ENDBRANCH  22  23
ENDBRANCH  21  22
ENDBRANCH  19  21
ENDBRANCH  16  17
ENDBRANCH  15  16
ENDBRANCH  12  15
ENDBRANCH  10  11
ENDBRANCH   9  10
ENDBRANCH   8   9
ENDBRANCH   7   8
ENDBRANCH   6   7
ENDBRANCH   3   6
TORSDOF 23
ENDMDL
MODEL      345
REMARK 921   NORMALIZED FREE ENERGY PREDICTED BY IDOCK:   -1.11 KCAL/MOL
REMARK 922        TOTAL FREE ENERGY PREDICTED BY IDOCK:   -5.36 KCAL/MOL
REMARK 923 INTER-LIGAND FREE ENERGY PREDICTED BY IDOCK:   -4.89 KCAL/MOL
REMARK 924 INTRA-LIGAND FREE ENERGY PREDICTED BY IDOCK:   -0.47 KCAL/MOL
REMARK 927      BINDING AFFINITY PREDICTED BY RF-SCORE:    0.00 PKD
ROOT
HETATM    1  C   UNL     1     -13.404   5.917  71.776  1.00  0.00     1.241 C  
HETATM    2  C   UNL     1     -11.934   6.025  72.086  1.00  0.00    -0.202 C  
HETATM    3  N   UNL     1     -11.198   6.875  71.304  1.00  0.00    -0.257 N  
HETATM    4  O   UNL     1     -11.438   5.345  72.985  1.00  0.00    -0.308 OA 
HETATM    5  O   UNL     1     -11.751   7.773  70.375  1.00  0.00    -0.176 OA 
ENDROOT
BRANCH   3   6
HETATM    6  C   UNL     1      -9.765   7.077  71.468  1.00  0.00    -0.165 C  
BRANCH   6   7
HETATM    7  C   UNL     1      -9.440   8.085  72.572  1.00  0.00    -0.297 C  
BRANCH   7   8
HETATM    8  C   UNL     1      -7.929   8.304  72.669  1.00  0.00    -0.193 C  
BRANCH   8   9
HETATM    9  C   UNL     1      -7.308   8.634  71.311  1.00  0.00    -0.105 C  
BRANCH   9  10
HETATM   10  C   UNL     1      -5.915   9.250  71.445  1.00  0.00    -0.075 C  
BRANCH  10  11
HETATM   11  N   UNL     1      -5.677  10.305  70.471  1.00  0.00    -0.075 N  
HETATM   12  C   UNL     1      -5.377  10.010  69.160  1.00  0.00    -0.035 C  
HETATM   13  H   UNL     1      -5.734  11.280  70.765  1.00  0.00     0.000 HD 
HETATM   14  O   UNL     1      -5.326   8.869  68.710  1.00  0.00    -0.033 OA 
BRANCH  12  15
HETATM   15  C   UNL     1      -5.126  11.239  68.313  1.00  0.00    -0.039 C  
BRANCH  15  16
HETATM   16  C   UNL     1      -6.426  12.010  68.093  1.00  0.00    -0.054 C  
BRANCH  16  17
HETATM   17  C   UNL     1      -6.208  13.510  68.051  1.00  0.00    -0.136 C  
HETATM   18  O   UNL     1      -6.192  14.121  66.985  1.00  0.00    -0.017 OA 
HETATM   19  N   UNL     1      -6.001  14.125  69.259  1.00  0.00    -0.092 N  
HETATM   20  O   UNL     1      -6.108  13.489  70.509  1.00  0.00    -0.154 OA 
BRANCH  19  21
HETATM   21  C   UNL     1      -5.703  15.542  69.402  1.00  0.00    -0.111 C  
BRANCH  21  22
HETATM   22  C   UNL     1      -6.930  16.358  69.819  1.00  0.00     0.076 C  
BRANCH  22  23
HETATM   23  C   UNL     1      -8.124  16.179  68.863  1.00  0.00    -0.228 C  
BRANCH  23  24
HETATM   24  C   UNL     1      -9.450  15.944  69.588  1.00  0.00    -0.148 C  
BRANCH  24  25
HETATM   25  C   UNL     1      -9.642  14.471  69.943  1.00  0.00     0.639 C  
BRANCH  25  26
HETATM   26  N   UNL     1      -9.681  13.636  68.759  1.00  0.00    -0.405 N  
HETATM   27  H   UNL     1      -8.817  13.205  68.429  1.00  0.00     0.000 HD 
HETATM   28  C   UNL     1     -10.848  13.410  68.069  1.00  0.00    -0.247 C  
HETATM   29  O   UNL     1     -11.934  13.871  68.406  1.00  0.00    -0.354 OA 
BRANCH  28  30
HETATM   30  C   UNL     1     -10.695  12.545  66.844  1.00  0.00    -0.268 C  
BRANCH  30  31
HETATM   31  C   UNL     1     -12.054  12.340  66.192  1.00  0.00    -0.189 C  
BRANCH  31  32
HETATM   32  C   UNL     1     -12.471  13.571  65.414  1.00  0.00    -0.497 C  
HETATM   33  N   UNL     1     -11.542  14.179  64.605  1.00  0.00    -0.390 N  
HETATM   34  O   UNL     1     -13.644  13.946  65.461  1.00  0.00    -0.579 OA 
HETATM   35  O   UNL     1     -10.170  14.021  64.879  1.00  0.00    -0.405 OA 
BRANCH  33  36
HETATM   36  C   UNL     1     -11.827  15.413  63.870  1.00  0.00     0.232 C  
BRANCH  36  37
HETATM   37  C   UNL     1     -11.196  16.638  64.535  1.00  0.00     0.072 C  
BRANCH  37  38
HETATM   38  C   UNL     1     -10.639  16.318  65.926  1.00  0.00    -0.307 C  
BRANCH  38  39
HETATM   39  C   UNL     1     -10.976  17.418  66.937  1.00  0.00     0.135 C  
BRANCH  39  40
HETATM   40  C   UNL     1     -10.233  18.725  66.653  1.00  0.00    -0.408 C  
HETATM   41  N   UNL     1      -9.829  19.395  67.885  1.00  0.00    -0.339 NA 
HETATM   42  H2  UNL     1      -9.280  18.777  68.482  1.00  0.00     0.000 HD 
HETATM   43  H1  UNL     1      -9.334  20.267  67.696  1.00  0.00     0.000 HD 
ENDBRANCH  39  40
ENDBRANCH  38  39
ENDBRANCH  37  38
ENDBRANCH  36  37
ENDBRANCH  33  36
ENDBRANCH  31  32
ENDBRANCH  30  31
ENDBRANCH  28  30
ENDBRANCH  25  26
ENDBRANCH  24  25
ENDBRANCH  23  24
ENDBRANCH  22  23
ENDBRANCH  21  22
ENDBRANCH  19  21
ENDBRANCH  16  17
ENDBRANCH  15  16
ENDBRANCH  12  15
ENDBRANCH  10  11
ENDBRANCH   9  10
ENDBRANCH   8   9
ENDBRANCH   7   8
ENDBRANCH   6   7
ENDBRANCH   3   6
TORSDOF 23
ENDMDL
MODEL      346
REMARK 921   NORMALIZED FREE ENERGY PREDICTED BY IDOCK:   -1.07 KCAL/MOL
REMARK 922        TOTAL FREE ENERGY PREDICTED BY IDOCK:   -5.26 KCAL/MOL
REMARK 923 INTER-LIGAND FREE ENERGY PREDICTED BY IDOCK:   -4.92 KCAL/MOL
REMARK 924 INTRA-LIGAND FREE ENERGY PREDICTED BY IDOCK:   -0.34 KCAL/MOL
REMARK 927      BINDING AFFINITY PREDICTED BY RF-SCORE:    0.00 PKD
ROOT
HETATM    1  C   UNL     1     -11.944   4.013  73.124  1.00  0.00     0.248 C  
HETATM    2  C   UNL     1     -10.800   4.944  73.427  1.00  0.00    -0.295 C  
HETATM    3  N   UNL     1     -10.854   6.194  72.868  1.00  0.00    -0.248 N  
HETATM    4  O   UNL     1      -9.857   4.564  74.122  1.00  0.00    -0.133 OA 
HETATM    5  O   UNL     1     -11.976   6.712  72.200  1.00  0.00    -0.305 OA 
ENDROOT
BRANCH   3   6
HETATM    6  C   UNL     1      -9.819   7.201  73.054  1.00  0.00    -0.195 C  
BRANCH   6   7
HETATM    7  C   UNL     1      -8.491   6.799  72.409  1.00  0.00    -0.121 C  
BRANCH   7   8
HETATM    8  C   UNL     1      -7.427   7.869  72.664  1.00  0.00    -0.127 C  
BRANCH   8   9
HETATM    9  C   UNL     1      -7.281   8.828  71.481  1.00  0.00    -0.107 C  
BRANCH   9  10
HETATM   10  C   UNL     1      -7.931   8.283  70.209  1.00  0.00    -0.102 C  
BRANCH  10  11
HETATM   11  N   UNL     1      -7.121   8.523  69.024  1.00  0.00    -0.064 N  
HETATM   12  C   UNL     1      -6.213   9.557  68.980  1.00  0.00    -0.042 C  
HETATM   13  H   UNL     1      -7.228   7.914  68.213  1.00  0.00     0.000 HD 
HETATM   14  O   UNL     1      -5.990  10.314  69.921  1.00  0.00    -0.044 OA 
BRANCH  12  15
HETATM   15  C   UNL     1      -5.497   9.665  67.651  1.00  0.00    -0.036 C  
BRANCH  15  16
HETATM   16  C   UNL     1      -5.129   8.279  67.127  1.00  0.00    -0.032 C  
BRANCH  16  17
HETATM   17  C   UNL     1      -6.153   7.741  66.146  1.00  0.00    -0.038 C  
HETATM   18  O   UNL     1      -6.609   8.450  65.251  1.00  0.00    -0.055 OA 
HETATM   19  N   UNL     1      -6.553   6.444  66.340  1.00  0.00    -0.047 N  
HETATM   20  O   UNL     1      -5.990   5.566  67.283  1.00  0.00    -0.020 OA 
BRANCH  19  21
HETATM   21  C   UNL     1      -7.578   5.789  65.542  1.00  0.00    -0.083 C  
BRANCH  21  22
HETATM   22  C   UNL     1      -8.961   6.417  65.737  1.00  0.00    -0.068 C  
BRANCH  22  23
HETATM   23  C   UNL     1      -9.314   6.642  67.220  1.00  0.00    -0.144 C  
BRANCH  23  24
HETATM   24  C   UNL     1     -10.808   6.868  67.458  1.00  0.00    -0.363 C  
BRANCH  24  25
HETATM   25  C   UNL     1     -11.052   8.006  68.447  1.00  0.00     0.388 C  
BRANCH  25  26
HETATM   26  N   UNL     1     -11.123   9.290  67.779  1.00  0.00    -0.478 N  
HETATM   27  H   UNL     1     -10.751   9.377  66.833  1.00  0.00     0.000 HD 
HETATM   28  C   UNL     1     -11.676  10.393  68.385  1.00  0.00     0.082 C  
HETATM   29  O   UNL     1     -12.164  10.374  69.510  1.00  0.00    -0.155 OA 
BRANCH  28  30
HETATM   30  C   UNL     1     -11.634  11.651  67.555  1.00  0.00    -0.345 C  
BRANCH  30  31
HETATM   31  C   UNL     1     -10.261  12.294  67.674  1.00  0.00    -0.208 C  
BRANCH  31  32
HETATM   32  C   UNL     1     -10.259  13.370  68.739  1.00  0.00    -0.119 C  
HETATM   33  N   UNL     1      -9.992  14.663  68.361  1.00  0.00    -0.220 N  
HETATM   34  O   UNL     1     -10.574  13.078  69.895  1.00  0.00     0.580 OA 
HETATM   35  O   UNL     1      -9.245  14.907  67.193  1.00  0.00    -0.202 OA 
BRANCH  33  36
HETATM   36  C   UNL     1      -9.895  15.761  69.326  1.00  0.00    -0.265 C  
BRANCH  36  37
HETATM   37  C   UNL     1      -8.778  16.744  68.971  1.00  0.00    -0.176 C  
BRANCH  37  38
HETATM   38  C   UNL     1      -9.318  18.145  68.665  1.00  0.00    -0.309 C  
BRANCH  38  39
HETATM   39  C   UNL     1      -8.188  19.169  68.525  1.00  0.00    -0.399 C  
BRANCH  39  40
HETATM   40  C   UNL     1      -8.634  20.443  67.805  1.00  0.00    -0.148 C  
HETATM   41  N   UNL     1      -8.098  20.514  66.450  1.00  0.00    -0.530 NA 
HETATM   42  H2  UNL     1      -8.336  19.681  65.912  1.00  0.00     0.000 HD 
HETATM   43  H1  UNL     1      -8.395  21.364  65.970  1.00  0.00     0.000 HD 
ENDBRANCH  39  40
ENDBRANCH  38  39
ENDBRANCH  37  38
ENDBRANCH  36  37
ENDBRANCH  33  36
ENDBRANCH  31  32
ENDBRANCH  30  31
ENDBRANCH  28  30
ENDBRANCH  25  26
ENDBRANCH  24  25
ENDBRANCH  23  24
ENDBRANCH  22  23
ENDBRANCH  21  22
ENDBRANCH  19  21
ENDBRANCH  16  17
ENDBRANCH  15  16
ENDBRANCH  12  15
ENDBRANCH  10  11
ENDBRANCH   9  10
ENDBRANCH   8   9
ENDBRANCH   7   8
ENDBRANCH   6   7
ENDBRANCH   3   6
TORSDOF 23
ENDMDL
MODEL      347
REMARK 921   NORMALIZED FREE ENERGY PREDICTED BY IDOCK:   -1.04 KCAL/MOL
REMARK 922        TOTAL FREE ENERGY PREDICTED BY IDOCK:   -5.19 KCAL/MOL
REMARK 923 INTER-LIGAND FREE ENERGY PREDICTED BY IDOCK:   -5.45 KCAL/MOL
REMARK 924 INTRA-LIGAND FREE ENERGY PREDICTED BY IDOCK:    0.25 KCAL/MOL
REMARK 927      BINDING AFFINITY PREDICTED BY RF-SCORE:    0.00 PKD
ROOT
HETATM    1  C   UNL     1     -11.846   4.281  73.241  1.00  0.00     0.002 C  
HETATM    2  C   UNL     1     -10.641   5.172  73.394  1.00  0.00    -0.255 C  
HETATM    3  N   UNL     1     -10.662   6.362  72.715  1.00  0.00    -0.228 N  
HETATM    4  O   UNL     1      -9.683   4.809  74.077  1.00  0.00    -0.130 OA 
HETATM    5  O   UNL     1     -11.791   6.875  72.054  1.00  0.00    -0.291 OA 
ENDROOT
BRANCH   3   6
HETATM    6  C   UNL     1      -9.569   7.324  72.749  1.00  0.00    -0.158 C  
BRANCH   6   7
HETATM    7  C   UNL     1      -8.289   6.774  72.116  1.00  0.00    -0.107 C  
BRANCH   7   8
HETATM    8  C   UNL     1      -7.181   7.829  72.148  1.00  0.00    -0.079 C  
BRANCH   8   9
HETATM    9  C   UNL     1      -7.045   8.562  70.812  1.00  0.00    -0.055 C  
BRANCH   9  10
HETATM   10  C   UNL     1      -7.784   7.846  69.680  1.00  0.00    -0.103 C  
BRANCH  10  11
HETATM   11  N   UNL     1      -7.005   7.799  68.452  1.00  0.00    -0.070 N  
HETATM   12  C   UNL     1      -6.018   8.724  68.198  1.00  0.00    -0.046 C  
HETATM   13  H   UNL     1      -7.195   7.067  67.767  1.00  0.00     0.000 HD 
HETATM   14  O   UNL     1      -5.695   9.613  68.981  1.00  0.00    -0.036 OA 
BRANCH  12  15
HETATM   15  C   UNL     1      -5.350   8.530  66.853  1.00  0.00    -0.036 C  
BRANCH  15  16
HETATM   16  C   UNL     1      -5.133   7.046  66.573  1.00  0.00    -0.021 C  
BRANCH  16  17
HETATM   17  C   UNL     1      -6.226   6.456  65.702  1.00  0.00    -0.037 C  
HETATM   18  O   UNL     1      -6.618   7.038  64.692  1.00  0.00    -0.041 OA 
HETATM   19  N   UNL     1      -6.763   5.268  66.127  1.00  0.00    -0.055 N  
HETATM   20  O   UNL     1      -6.283   4.518  67.215  1.00  0.00    -0.036 OA 
BRANCH  19  21
HETATM   21  C   UNL     1      -7.867   4.598  65.457  1.00  0.00    -0.094 C  
BRANCH  21  22
HETATM   22  C   UNL     1      -9.161   5.416  65.501  1.00  0.00    -0.126 C  
BRANCH  22  23
HETATM   23  C   UNL     1      -9.475   5.969  66.904  1.00  0.00    -0.146 C  
BRANCH  23  24
HETATM   24  C   UNL     1     -10.920   6.444  67.056  1.00  0.00    -0.463 C  
BRANCH  24  25
HETATM   25  C   UNL     1     -11.002   7.739  67.862  1.00  0.00     0.110 C  
BRANCH  25  26
HETATM   26  N   UNL     1     -10.425   8.856  67.141  1.00  0.00    -0.283 N  
HETATM   27  H   UNL     1      -9.627   8.689  66.527  1.00  0.00     0.000 HD 
HETATM   28  C   UNL     1     -10.921  10.132  67.262  1.00  0.00    -0.183 C  
HETATM   29  O   UNL     1     -11.888  10.420  67.961  1.00  0.00    -0.328 OA 
BRANCH  28  30
HETATM   30  C   UNL     1     -10.176  11.173  66.466  1.00  0.00    -0.275 C  
BRANCH  30  31
HETATM   31  C   UNL     1      -8.906  11.566  67.204  1.00  0.00    -0.168 C  
BRANCH  31  32
HETATM   32  C   UNL     1      -9.171  12.702  68.170  1.00  0.00    -0.209 C  
HETATM   33  N   UNL     1      -8.503  13.888  67.983  1.00  0.00    -0.162 N  
HETATM   34  O   UNL     1     -10.032  12.566  69.041  1.00  0.00     0.026 OA 
HETATM   35  O   UNL     1      -7.272  13.894  67.300  1.00  0.00    -0.139 OA 
BRANCH  33  36
HETATM   36  C   UNL     1      -8.637  15.019  68.904  1.00  0.00    -0.189 C  
BRANCH  36  37
HETATM   37  C   UNL     1      -7.305  15.737  69.133  1.00  0.00    -0.194 C  
BRANCH  37  38
HETATM   38  C   UNL     1      -6.414  14.994  70.134  1.00  0.00    -0.136 C  
BRANCH  38  39
HETATM   39  C   UNL     1      -5.347  14.153  69.427  1.00  0.00    -0.082 C  
BRANCH  39  40
HETATM   40  C   UNL     1      -5.703  12.666  69.385  1.00  0.00    -0.087 C  
HETATM   41  N   UNL     1      -6.252  12.206  70.656  1.00  0.00    -0.534 NA 
HETATM   42  H2  UNL     1      -7.052  12.771  70.942  1.00  0.00     0.000 HD 
HETATM   43  H1  UNL     1      -6.489  11.214  70.628  1.00  0.00     0.000 HD 
ENDBRANCH  39  40
ENDBRANCH  38  39
ENDBRANCH  37  38
ENDBRANCH  36  37
ENDBRANCH  33  36
ENDBRANCH  31  32
ENDBRANCH  30  31
ENDBRANCH  28  30
ENDBRANCH  25  26
ENDBRANCH  24  25
ENDBRANCH  23  24
ENDBRANCH  22  23
ENDBRANCH  21  22
ENDBRANCH  19  21
ENDBRANCH  16  17
ENDBRANCH  15  16
ENDBRANCH  12  15
ENDBRANCH  10  11
ENDBRANCH   9  10
ENDBRANCH   8   9
ENDBRANCH   7   8
ENDBRANCH   6   7
ENDBRANCH   3   6
TORSDOF 23
ENDMDL
MODEL      348
REMARK 921   NORMALIZED FREE ENERGY PREDICTED BY IDOCK:   -0.94 KCAL/MOL
REMARK 922        TOTAL FREE ENERGY PREDICTED BY IDOCK:   -4.95 KCAL/MOL
REMARK 923 INTER-LIGAND FREE ENERGY PREDICTED BY IDOCK:   -6.45 KCAL/MOL
REMARK 924 INTRA-LIGAND FREE ENERGY PREDICTED BY IDOCK:    1.49 KCAL/MOL
REMARK 927      BINDING AFFINITY PREDICTED BY RF-SCORE:    0.00 PKD
ROOT
HETATM    1  C   UNL     1     -11.943   6.828  70.299  1.00  0.00    -0.294 C  
HETATM    2  C   UNL     1     -11.459   6.694  71.720  1.00  0.00    -0.291 C  
HETATM    3  N   UNL     1     -10.503   7.583  72.134  1.00  0.00    -0.207 N  
HETATM    4  O   UNL     1     -11.895   5.797  72.442  1.00  0.00    -0.293 OA 
HETATM    5  O   UNL     1     -10.094   8.705  71.393  1.00  0.00    -0.209 OA 
ENDROOT
BRANCH   3   6
HETATM    6  C   UNL     1      -9.923   7.573  73.470  1.00  0.00    -0.315 C  
BRANCH   6   7
HETATM    7  C   UNL     1      -9.075   6.327  73.729  1.00  0.00    -0.136 C  
BRANCH   7   8
HETATM    8  C   UNL     1      -8.362   5.890  72.448  1.00  0.00    -0.117 C  
BRANCH   8   9
HETATM    9  C   UNL     1      -7.829   7.083  71.651  1.00  0.00    -0.098 C  
BRANCH   9  10
HETATM   10  C   UNL     1      -7.532   6.721  70.195  1.00  0.00    -0.094 C  
BRANCH  10  11
HETATM   11  N   UNL     1      -7.725   5.304  69.924  1.00  0.00    -0.068 N  
HETATM   12  C   UNL     1      -7.646   4.807  68.643  1.00  0.00    -0.069 C  
HETATM   13  H   UNL     1      -7.923   4.669  70.697  1.00  0.00     0.000 HD 
HETATM   14  O   UNL     1      -7.374   5.490  67.659  1.00  0.00    -0.074 OA 
BRANCH  12  15
HETATM   15  C   UNL     1      -7.914   3.319  68.562  1.00  0.00    -0.063 C  
BRANCH  15  16
HETATM   16  C   UNL     1      -8.966   3.023  67.496  1.00  0.00    -0.189 C  
BRANCH  16  17
HETATM   17  C   UNL     1      -8.431   3.210  66.089  1.00  0.00    -0.109 C  
HETATM   18  O   UNL     1      -7.274   2.907  65.803  1.00  0.00    -0.063 OA 
HETATM   19  N   UNL     1      -9.299   3.760  65.181  1.00  0.00    -0.149 N  
HETATM   20  O   UNL     1     -10.655   4.029  65.433  1.00  0.00    -0.108 OA 
BRANCH  19  21
HETATM   21  C   UNL     1      -8.934   4.078  63.808  1.00  0.00    -0.125 C  
BRANCH  21  22
HETATM   22  C   UNL     1      -8.168   2.939  63.128  1.00  0.00    -0.081 C  
BRANCH  22  23
HETATM   23  C   UNL     1      -6.688   3.280  62.871  1.00  0.00    -0.030 C  
BRANCH  23  24
HETATM   24  C   UNL     1      -6.470   4.722  62.413  1.00  0.00    -0.025 C  
BRANCH  24  25
HETATM   25  C   UNL     1      -5.602   5.499  63.401  1.00  0.00    -0.014 C  
BRANCH  25  26
HETATM   26  N   UNL     1      -6.374   6.482  64.134  1.00  0.00    -0.036 N  
HETATM   27  H   UNL     1      -6.186   6.619  65.127  1.00  0.00     0.000 HD 
HETATM   28  C   UNL     1      -7.352   7.235  63.529  1.00  0.00    -0.082 C  
HETATM   29  O   UNL     1      -7.631   7.151  62.336  1.00  0.00    -0.090 OA 
BRANCH  28  30
HETATM   30  C   UNL     1      -8.075   8.183  64.451  1.00  0.00    -0.138 C  
BRANCH  30  31
HETATM   31  C   UNL     1      -7.116   9.262  64.927  1.00  0.00    -0.101 C  
BRANCH  31  32
HETATM   32  C   UNL     1      -7.859  10.363  65.654  1.00  0.00    -0.154 C  
HETATM   33  N   UNL     1      -8.984  10.890  65.068  1.00  0.00    -0.192 N  
HETATM   34  O   UNL     1      -7.489  10.700  66.781  1.00  0.00    -0.108 OA 
HETATM   35  O   UNL     1      -9.140  10.818  63.670  1.00  0.00    -0.197 OA 
BRANCH  33  36
HETATM   36  C   UNL     1      -9.728  12.006  65.656  1.00  0.00    -0.223 C  
BRANCH  36  37
HETATM   37  C   UNL     1     -11.085  11.566  66.210  1.00  0.00    -0.321 C  
BRANCH  37  38
HETATM   38  C   UNL     1     -12.141  12.671  66.094  1.00  0.00    -0.399 C  
BRANCH  38  39
HETATM   39  C   UNL     1     -11.761  13.904  66.919  1.00  0.00    -0.425 C  
BRANCH  39  40
HETATM   40  C   UNL     1     -11.965  13.695  68.420  1.00  0.00    -0.356 C  
HETATM   41  N   UNL     1     -10.705  13.774  69.153  1.00  0.00    -0.400 NA 
HETATM   42  H2  UNL     1     -10.219  14.650  68.962  1.00  0.00     0.000 HD 
HETATM   43  H1  UNL     1     -10.841  13.634  70.154  1.00  0.00     0.000 HD 
ENDBRANCH  39  40
ENDBRANCH  38  39
ENDBRANCH  37  38
ENDBRANCH  36  37
ENDBRANCH  33  36
ENDBRANCH  31  32
ENDBRANCH  30  31
ENDBRANCH  28  30
ENDBRANCH  25  26
ENDBRANCH  24  25
ENDBRANCH  23  24
ENDBRANCH  22  23
ENDBRANCH  21  22
ENDBRANCH  19  21
ENDBRANCH  16  17
ENDBRANCH  15  16
ENDBRANCH  12  15
ENDBRANCH  10  11
ENDBRANCH   9  10
ENDBRANCH   8   9
ENDBRANCH   7   8
ENDBRANCH   6   7
ENDBRANCH   3   6
TORSDOF 23
ENDMDL
MODEL      349
REMARK 921   NORMALIZED FREE ENERGY PREDICTED BY IDOCK:   -0.93 KCAL/MOL
REMARK 922        TOTAL FREE ENERGY PREDICTED BY IDOCK:   -4.93 KCAL/MOL
REMARK 923 INTER-LIGAND FREE ENERGY PREDICTED BY IDOCK:   -5.33 KCAL/MOL
REMARK 924 INTRA-LIGAND FREE ENERGY PREDICTED BY IDOCK:    0.40 KCAL/MOL
REMARK 927      BINDING AFFINITY PREDICTED BY RF-SCORE:    0.00 PKD
ROOT
HETATM    1  C   UNL     1     -13.274   6.884  70.629  1.00  0.00     0.447 C  
HETATM    2  C   UNL     1     -11.863   7.151  71.086  1.00  0.00    -0.325 C  
HETATM    3  N   UNL     1     -11.655   8.291  71.818  1.00  0.00    -0.280 N  
HETATM    4  O   UNL     1     -10.954   6.381  70.776  1.00  0.00    -0.256 OA 
HETATM    5  O   UNL     1     -12.684   9.108  72.317  1.00  0.00    -0.383 OA 
ENDROOT
BRANCH   3   6
HETATM    6  C   UNL     1     -10.349   8.695  72.318  1.00  0.00    -0.306 C  
BRANCH   6   7
HETATM    7  C   UNL     1      -9.428   7.501  72.576  1.00  0.00    -0.207 C  
BRANCH   7   8
HETATM    8  C   UNL     1      -8.356   7.408  71.488  1.00  0.00    -0.109 C  
BRANCH   8   9
HETATM    9  C   UNL     1      -6.943   7.529  72.060  1.00  0.00    -0.063 C  
BRANCH   9  10
HETATM   10  C   UNL     1      -6.846   6.987  73.487  1.00  0.00    -0.070 C  
BRANCH  10  11
HETATM   11  N   UNL     1      -6.135   5.720  73.554  1.00  0.00    -0.059 N  
HETATM   12  C   UNL     1      -6.726   4.548  73.138  1.00  0.00    -0.057 C  
HETATM   13  H   UNL     1      -5.181   5.700  73.914  1.00  0.00     0.000 HD 
HETATM   14  O   UNL     1      -7.853   4.484  72.655  1.00  0.00    -0.084 OA 
BRANCH  12  15
HETATM   15  C   UNL     1      -5.841   3.334  73.322  1.00  0.00    -0.004 C  
BRANCH  15  16
HETATM   16  C   UNL     1      -5.504   2.709  71.971  1.00  0.00    -0.004 C  
BRANCH  16  17
HETATM   17  C   UNL     1      -5.564   3.715  70.837  1.00  0.00    -0.012 C  
HETATM   18  O   UNL     1      -5.126   4.855  70.975  1.00  0.00    -0.004 OA 
HETATM   19  N   UNL     1      -6.158   3.285  69.679  1.00  0.00    -0.023 N  
HETATM   20  O   UNL     1      -6.582   1.966  69.440  1.00  0.00    -0.029 OA 
BRANCH  19  21
HETATM   21  C   UNL     1      -6.368   4.136  68.517  1.00  0.00    -0.036 C  
BRANCH  21  22
HETATM   22  C   UNL     1      -6.671   5.587  68.902  1.00  0.00    -0.053 C  
BRANCH  22  23
HETATM   23  C   UNL     1      -7.914   6.150  68.188  1.00  0.00    -0.107 C  
BRANCH  23  24
HETATM   24  C   UNL     1      -7.881   5.955  66.672  1.00  0.00    -0.101 C  
BRANCH  24  25
HETATM   25  C   UNL     1      -8.707   7.018  65.952  1.00  0.00    -0.126 C  
BRANCH  25  26
HETATM   26  N   UNL     1      -9.030   8.128  66.826  1.00  0.00    -0.139 N  
HETATM   27  H   UNL     1      -8.351   8.881  66.943  1.00  0.00     0.000 HD 
HETATM   28  C   UNL     1     -10.225   8.196  67.501  1.00  0.00    -0.243 C  
HETATM   29  O   UNL     1     -11.107   7.348  67.405  1.00  0.00    -0.185 OA 
BRANCH  28  30
HETATM   30  C   UNL     1     -10.376   9.403  68.391  1.00  0.00    -0.238 C  
BRANCH  30  31
HETATM   31  C   UNL     1     -10.521  10.652  67.535  1.00  0.00    -0.272 C  
BRANCH  31  32
HETATM   32  C   UNL     1      -9.273  11.506  67.610  1.00  0.00    -0.171 C  
HETATM   33  N   UNL     1      -9.417  12.859  67.802  1.00  0.00    -0.195 N  
HETATM   34  O   UNL     1      -8.166  10.964  67.580  1.00  0.00    -0.115 OA 
HETATM   35  O   UNL     1     -10.613  13.493  67.416  1.00  0.00    -0.249 OA 
BRANCH  33  36
HETATM   36  C   UNL     1      -8.277  13.777  67.816  1.00  0.00    -0.174 C  
BRANCH  36  37
HETATM   37  C   UNL     1      -8.280  14.719  66.610  1.00  0.00     0.092 C  
BRANCH  37  38
HETATM   38  C   UNL     1      -8.541  16.174  67.015  1.00  0.00    -0.233 C  
BRANCH  38  39
HETATM   39  C   UNL     1      -9.978  16.600  66.700  1.00  0.00    -0.290 C  
BRANCH  39  40
HETATM   40  C   UNL     1     -10.546  17.567  67.740  1.00  0.00    -0.375 C  
HETATM   41  N   UNL     1     -10.873  16.887  68.989  1.00  0.00    -0.295 NA 
HETATM   42  H2  UNL     1     -10.070  16.377  69.355  1.00  0.00     0.000 HD 
HETATM   43  H1  UNL     1     -11.253  17.532  69.682  1.00  0.00     0.000 HD 
ENDBRANCH  39  40
ENDBRANCH  38  39
ENDBRANCH  37  38
ENDBRANCH  36  37
ENDBRANCH  33  36
ENDBRANCH  31  32
ENDBRANCH  30  31
ENDBRANCH  28  30
ENDBRANCH  25  26
ENDBRANCH  24  25
ENDBRANCH  23  24
ENDBRANCH  22  23
ENDBRANCH  21  22
ENDBRANCH  19  21
ENDBRANCH  16  17
ENDBRANCH  15  16
ENDBRANCH  12  15
ENDBRANCH  10  11
ENDBRANCH   9  10
ENDBRANCH   8   9
ENDBRANCH   7   8
ENDBRANCH   6   7
ENDBRANCH   3   6
TORSDOF 23
ENDMDL
MODEL      350
REMARK 921   NORMALIZED FREE ENERGY PREDICTED BY IDOCK:   -0.11 KCAL/MOL
REMARK 922        TOTAL FREE ENERGY PREDICTED BY IDOCK:   -3.00 KCAL/MOL
REMARK 923 INTER-LIGAND FREE ENERGY PREDICTED BY IDOCK:   -2.66 KCAL/MOL
REMARK 924 INTRA-LIGAND FREE ENERGY PREDICTED BY IDOCK:   -0.34 KCAL/MOL
REMARK 927      BINDING AFFINITY PREDICTED BY RF-SCORE:    0.00 PKD
ROOT
HETATM    1  C   UNL     1     -12.368  11.714  70.887  1.00  0.00    -0.436 C  
HETATM    2  C   UNL     1     -12.756  10.625  69.922  1.00  0.00    -0.015 C  
HETATM    3  N   UNL     1     -11.770   9.751  69.548  1.00  0.00     0.063 N  
HETATM    4  O   UNL     1     -13.903  10.567  69.479  1.00  0.00     1.209 OA 
HETATM    5  O   UNL     1     -10.498   9.693  70.142  1.00  0.00    -0.233 OA 
ENDROOT
BRANCH   3   6
HETATM    6  C   UNL     1     -11.982   8.655  68.611  1.00  0.00     2.509 C  
BRANCH   6   7
HETATM    7  C   UNL     1     -10.669   8.025  68.143  1.00  0.00    -0.093 C  
BRANCH   7   8
HETATM    8  C   UNL     1     -10.426   6.698  68.863  1.00  0.00    -0.239 C  
BRANCH   8   9
HETATM    9  C   UNL     1      -9.428   6.841  70.013  1.00  0.00    -0.158 C  
BRANCH   9  10
HETATM   10  C   UNL     1      -8.393   7.936  69.750  1.00  0.00    -0.127 C  
BRANCH  10  11
HETATM   11  N   UNL     1      -7.338   7.956  70.752  1.00  0.00    -0.060 N  
HETATM   12  C   UNL     1      -7.553   8.493  72.002  1.00  0.00    -0.091 C  
HETATM   13  H   UNL     1      -6.424   7.565  70.525  1.00  0.00     0.000 HD 
HETATM   14  O   UNL     1      -8.630   8.949  72.375  1.00  0.00    -0.399 OA 
BRANCH  12  15
HETATM   15  C   UNL     1      -6.325   8.456  72.887  1.00  0.00    -0.102 C  
BRANCH  15  16
HETATM   16  C   UNL     1      -5.137   9.102  72.180  1.00  0.00    -0.055 C  
BRANCH  16  17
HETATM   17  C   UNL     1      -5.556  10.232  71.259  1.00  0.00    -0.027 C  
HETATM   18  O   UNL     1      -5.801  10.027  70.072  1.00  0.00    -0.041 OA 
HETATM   19  N   UNL     1      -5.610  11.481  71.821  1.00  0.00     0.385 N  
HETATM   20  O   UNL     1      -5.435  11.750  73.190  1.00  0.00     0.199 OA 
BRANCH  19  21
HETATM   21  C   UNL     1      -5.921  12.689  71.071  1.00  0.00     0.357 C  
BRANCH  21  22
HETATM   22  C   UNL     1      -5.390  13.953  71.753  1.00  0.00    -0.218 C  
BRANCH  22  23
HETATM   23  C   UNL     1      -5.159  15.115  70.768  1.00  0.00    -0.137 C  
BRANCH  23  24
HETATM   24  C   UNL     1      -6.453  15.657  70.158  1.00  0.00    -0.016 C  
BRANCH  24  25
HETATM   25  C   UNL     1      -6.208  16.946  69.378  1.00  0.00    -0.226 C  
BRANCH  25  26
HETATM   26  N   UNL     1      -7.010  17.003  68.173  1.00  0.00    -0.167 N  
HETATM   27  H   UNL     1      -6.901  16.272  67.470  1.00  0.00     0.000 HD 
HETATM   28  C   UNL     1      -7.914  18.015  67.950  1.00  0.00    -0.241 C  
HETATM   29  O   UNL     1      -8.125  18.923  68.748  1.00  0.00    -0.344 OA 
BRANCH  28  30
HETATM   30  C   UNL     1      -8.636  17.933  66.629  1.00  0.00    -0.283 C  
BRANCH  30  31
HETATM   31  C   UNL     1      -8.424  16.557  66.018  1.00  0.00    -0.206 C  
BRANCH  31  32
HETATM   32  C   UNL     1      -9.747  15.857  65.789  1.00  0.00    -0.325 C  
HETATM   33  N   UNL     1      -9.926  14.606  66.327  1.00  0.00    -0.276 N  
HETATM   34  O   UNL     1     -10.652  16.453  65.202  1.00  0.00    -0.610 OA 
HETATM   35  O   UNL     1      -8.806  13.798  66.601  1.00  0.00    -0.182 OA 
BRANCH  33  36
HETATM   36  C   UNL     1     -11.140  13.819  66.101  1.00  0.00    -0.296 C  
BRANCH  36  37
HETATM   37  C   UNL     1     -11.466  13.676  64.613  1.00  0.00    -0.383 C  
BRANCH  37  38
HETATM   38  C   UNL     1     -10.681  12.535  63.958  1.00  0.00    -0.449 C  
BRANCH  38  39
HETATM   39  C   UNL     1     -10.830  11.225  64.737  1.00  0.00    -0.314 C  
BRANCH  39  40
HETATM   40  C   UNL     1      -9.527  10.427  64.801  1.00  0.00    -0.273 C  
HETATM   41  N   UNL     1      -8.385  11.281  65.109  1.00  0.00    -0.363 NA 
HETATM   42  H2  UNL     1      -8.538  11.812  65.966  1.00  0.00     0.000 HD 
HETATM   43  H1  UNL     1      -7.515  10.748  65.152  1.00  0.00     0.000 HD 
ENDBRANCH  39  40
ENDBRANCH  38  39
ENDBRANCH  37  38
ENDBRANCH  36  37
ENDBRANCH  33  36
ENDBRANCH  31  32
ENDBRANCH  30  31
ENDBRANCH  28  30
ENDBRANCH  25  26
ENDBRANCH  24  25
ENDBRANCH  23  24
ENDBRANCH  22  23
ENDBRANCH  21  22
ENDBRANCH  19  21
ENDBRANCH  16  17
ENDBRANCH  15  16
ENDBRANCH  12  15
ENDBRANCH  10  11
ENDBRANCH   9  10
ENDBRANCH   8   9
ENDBRANCH   7   8
ENDBRANCH   6   7
ENDBRANCH   3   6
TORSDOF 23
ENDMDL
MODEL      351
REMARK 921   NORMALIZED FREE ENERGY PREDICTED BY IDOCK:    0.02 KCAL/MOL
REMARK 922        TOTAL FREE ENERGY PREDICTED BY IDOCK:   -2.72 KCAL/MOL
REMARK 923 INTER-LIGAND FREE ENERGY PREDICTED BY IDOCK:   -3.97 KCAL/MOL
REMARK 924 INTRA-LIGAND FREE ENERGY PREDICTED BY IDOCK:    1.25 KCAL/MOL
REMARK 927      BINDING AFFINITY PREDICTED BY RF-SCORE:    0.00 PKD
ROOT
HETATM    1  C   UNL     1     -11.204   9.933  71.219  1.00  0.00    -0.356 C  
HETATM    2  C   UNL     1     -10.289   8.776  71.522  1.00  0.00    -0.303 C  
HETATM    3  N   UNL     1     -10.629   7.562  70.986  1.00  0.00    -0.219 N  
HETATM    4  O   UNL     1      -9.306   8.935  72.246  1.00  0.00    -0.360 OA 
HETATM    5  O   UNL     1     -11.649   7.374  70.039  1.00  0.00    -0.142 OA 
ENDROOT
BRANCH   3   6
HETATM    6  C   UNL     1      -9.855   6.346  71.199  1.00  0.00    -0.179 C  
BRANCH   6   7
HETATM    7  C   UNL     1      -9.018   5.966  69.977  1.00  0.00    -0.146 C  
BRANCH   7   8
HETATM    8  C   UNL     1      -9.837   5.105  69.015  1.00  0.00    -0.246 C  
BRANCH   8   9
HETATM    9  C   UNL     1      -9.936   5.731  67.622  1.00  0.00    -0.165 C  
BRANCH   9  10
HETATM   10  C   UNL     1     -10.671   7.072  67.640  1.00  0.00    -0.261 C  
BRANCH  10  11
HETATM   11  N   UNL     1      -9.765   8.205  67.530  1.00  0.00    -0.153 N  
HETATM   12  C   UNL     1     -10.212   9.436  67.105  1.00  0.00    -0.254 C  
HETATM   13  H   UNL     1      -8.782   8.084  67.771  1.00  0.00     0.000 HD 
HETATM   14  O   UNL     1     -11.384   9.682  66.832  1.00  0.00     0.263 OA 
BRANCH  12  15
HETATM   15  C   UNL     1      -9.113  10.473  67.020  1.00  0.00    -0.156 C  
BRANCH  15  16
HETATM   16  C   UNL     1      -7.761   9.848  67.354  1.00  0.00    -0.091 C  
BRANCH  16  17
HETATM   17  C   UNL     1      -6.995  10.648  68.390  1.00  0.00    -0.066 C  
HETATM   18  O   UNL     1      -7.178  10.472  69.593  1.00  0.00    -0.121 OA 
HETATM   19  N   UNL     1      -6.122  11.588  67.904  1.00  0.00    -0.047 N  
HETATM   20  O   UNL     1      -5.806  11.758  66.545  1.00  0.00    -0.203 OA 
BRANCH  19  21
HETATM   21  C   UNL     1      -5.360  12.494  68.750  1.00  0.00    -0.054 C  
BRANCH  21  22
HETATM   22  C   UNL     1      -5.145  13.862  68.098  1.00  0.00    -0.112 C  
BRANCH  22  23
HETATM   23  C   UNL     1      -6.151  14.923  68.583  1.00  0.00    -0.087 C  
BRANCH  23  24
HETATM   24  C   UNL     1      -6.382  14.891  70.094  1.00  0.00    -0.162 C  
BRANCH  24  25
HETATM   25  C   UNL     1      -7.858  15.074  70.440  1.00  0.00     0.852 C  
BRANCH  25  26
HETATM   26  N   UNL     1      -8.583  15.724  69.367  1.00  0.00    -0.256 N  
HETATM   27  H   UNL     1      -8.090  16.386  68.767  1.00  0.00     0.000 HD 
HETATM   28  C   UNL     1      -9.914  15.474  69.135  1.00  0.00    -0.246 C  
HETATM   29  O   UNL     1     -10.579  14.679  69.792  1.00  0.00    -0.166 OA 
BRANCH  28  30
HETATM   30  C   UNL     1     -10.513  16.264  67.999  1.00  0.00    -0.293 C  
BRANCH  30  31
HETATM   31  C   UNL     1      -9.477  16.441  66.900  1.00  0.00    -0.249 C  
BRANCH  31  32
HETATM   32  C   UNL     1      -9.218  15.132  66.185  1.00  0.00    -0.283 C  
HETATM   33  N   UNL     1     -10.240  14.571  65.458  1.00  0.00    -0.348 N  
HETATM   34  O   UNL     1      -8.085  14.647  66.203  1.00  0.00     0.741 OA 
HETATM   35  O   UNL     1     -11.575  14.878  65.782  1.00  0.00    -0.325 OA 
BRANCH  33  36
HETATM   36  C   UNL     1     -10.111  13.273  64.792  1.00  0.00    -0.227 C  
BRANCH  36  37
HETATM   37  C   UNL     1     -10.913  13.210  63.490  1.00  0.00     0.040 C  
BRANCH  37  38
HETATM   38  C   UNL     1     -12.268  13.915  63.612  1.00  0.00    -0.232 C  
BRANCH  38  39
HETATM   39  C   UNL     1     -13.266  13.085  64.425  1.00  0.00     0.399 C  
BRANCH  39  40
HETATM   40  C   UNL     1     -13.345  11.633  63.952  1.00  0.00     0.727 C  
HETATM   41  N   UNL     1     -12.824  11.476  62.598  1.00  0.00    -0.480 NA 
HETATM   42  H2  UNL     1     -11.875  11.841  62.520  1.00  0.00     0.000 HD 
HETATM   43  H1  UNL     1     -12.877  10.507  62.282  1.00  0.00     0.000 HD 
ENDBRANCH  39  40
ENDBRANCH  38  39
ENDBRANCH  37  38
ENDBRANCH  36  37
ENDBRANCH  33  36
ENDBRANCH  31  32
ENDBRANCH  30  31
ENDBRANCH  28  30
ENDBRANCH  25  26
ENDBRANCH  24  25
ENDBRANCH  23  24
ENDBRANCH  22  23
ENDBRANCH  21  22
ENDBRANCH  19  21
ENDBRANCH  16  17
ENDBRANCH  15  16
ENDBRANCH  12  15
ENDBRANCH  10  11
ENDBRANCH   9  10
ENDBRANCH   8   9
ENDBRANCH   7   8
ENDBRANCH   6   7
ENDBRANCH   3   6
TORSDOF 23
ENDMDL
MODEL      352
REMARK 921   NORMALIZED FREE ENERGY PREDICTED BY IDOCK:    0.10 KCAL/MOL
REMARK 922        TOTAL FREE ENERGY PREDICTED BY IDOCK:   -2.53 KCAL/MOL
REMARK 923 INTER-LIGAND FREE ENERGY PREDICTED BY IDOCK:   -2.57 KCAL/MOL
REMARK 924 INTRA-LIGAND FREE ENERGY PREDICTED BY IDOCK:    0.04 KCAL/MOL
REMARK 927      BINDING AFFINITY PREDICTED BY RF-SCORE:    0.00 PKD
ROOT
HETATM    1  C   UNL     1      -8.198   8.924  73.940  1.00  0.00     0.588 C  
HETATM    2  C   UNL     1      -7.910   7.761  73.027  1.00  0.00    -0.119 C  
HETATM    3  N   UNL     1      -6.622   7.629  72.580  1.00  0.00    -0.060 N  
HETATM    4  O   UNL     1      -8.816   7.000  72.687  1.00  0.00    -0.123 OA 
HETATM    5  O   UNL     1      -5.538   8.382  73.062  1.00  0.00    -0.050 OA 
ENDROOT
BRANCH   3   6
HETATM    6  C   UNL     1      -6.189   6.568  71.681  1.00  0.00    -0.042 C  
BRANCH   6   7
HETATM    7  C   UNL     1      -7.080   5.327  71.772  1.00  0.00    -0.075 C  
BRANCH   7   8
HETATM    8  C   UNL     1      -6.625   4.269  70.765  1.00  0.00    -0.034 C  
BRANCH   8   9
HETATM    9  C   UNL     1      -6.749   4.758  69.321  1.00  0.00    -0.048 C  
BRANCH   9  10
HETATM   10  C   UNL     1      -5.913   6.011  69.060  1.00  0.00    -0.024 C  
BRANCH  10  11
HETATM   11  N   UNL     1      -6.518   6.885  68.066  1.00  0.00    -0.048 N  
HETATM   12  C   UNL     1      -6.204   6.771  66.730  1.00  0.00    -0.040 C  
HETATM   13  H   UNL     1      -7.187   7.595  68.365  1.00  0.00     0.000 HD 
HETATM   14  O   UNL     1      -5.442   5.921  66.277  1.00  0.00    -0.012 OA 
BRANCH  12  15
HETATM   15  C   UNL     1      -6.906   7.793  65.862  1.00  0.00    -0.057 C  
BRANCH  15  16
HETATM   16  C   UNL     1      -6.317   9.183  66.090  1.00  0.00    -0.064 C  
BRANCH  16  17
HETATM   17  C   UNL     1      -6.579   9.698  67.492  1.00  0.00    -0.070 C  
HETATM   18  O   UNL     1      -5.684   9.732  68.334  1.00  0.00    -0.043 OA 
HETATM   19  N   UNL     1      -7.865  10.087  67.763  1.00  0.00    -0.094 N  
HETATM   20  O   UNL     1      -8.896  10.160  66.810  1.00  0.00    -0.132 OA 
BRANCH  19  21
HETATM   21  C   UNL     1      -8.312  10.537  69.073  1.00  0.00    -0.154 C  
BRANCH  21  22
HETATM   22  C   UNL     1      -8.759   9.379  69.969  1.00  0.00    -0.227 C  
BRANCH  22  23
HETATM   23  C   UNL     1     -10.189   9.558  70.512  1.00  0.00    -0.349 C  
BRANCH  23  24
HETATM   24  C   UNL     1     -11.181   8.536  69.953  1.00  0.00    -0.035 C  
BRANCH  24  25
HETATM   25  C   UNL     1     -10.781   7.108  70.319  1.00  0.00    -0.238 C  
BRANCH  25  26
HETATM   26  N   UNL     1     -10.629   6.277  69.142  1.00  0.00    -0.237 N  
HETATM   27  H   UNL     1     -10.779   6.690  68.221  1.00  0.00     0.000 HD 
HETATM   28  C   UNL     1     -10.287   4.948  69.231  1.00  0.00    -0.050 C  
HETATM   29  O   UNL     1     -10.069   4.375  70.294  1.00  0.00    -0.218 OA 
BRANCH  28  30
HETATM   30  C   UNL     1     -10.207   4.230  67.908  1.00  0.00     0.161 C  
BRANCH  30  31
HETATM   31  C   UNL     1      -9.028   4.764  67.110  1.00  0.00    -0.114 C  
BRANCH  31  32
HETATM   32  C   UNL     1      -8.501   3.713  66.156  1.00  0.00    -0.111 C  
HETATM   33  N   UNL     1      -9.248   3.404  65.045  1.00  0.00    -0.142 N  
HETATM   34  O   UNL     1      -7.386   3.224  66.352  1.00  0.00    -0.072 OA 
HETATM   35  O   UNL     1     -10.638   3.628  65.057  1.00  0.00     0.010 OA 
BRANCH  33  36
HETATM   36  C   UNL     1      -8.860   2.352  64.104  1.00  0.00    -0.099 C  
BRANCH  36  37
HETATM   37  C   UNL     1      -7.770   2.817  63.136  1.00  0.00    -0.063 C  
BRANCH  37  38
HETATM   38  C   UNL     1      -8.160   4.106  62.404  1.00  0.00    -0.067 C  
BRANCH  38  39
HETATM   39  C   UNL     1      -7.551   5.342  63.072  1.00  0.00    -0.068 C  
BRANCH  39  40
HETATM   40  C   UNL     1      -8.612   6.322  63.575  1.00  0.00     0.364 C  
HETATM   41  N   UNL     1      -8.760   7.466  62.681  1.00  0.00    -0.309 NA 
HETATM   42  H2  UNL     1      -8.953   7.167  61.725  1.00  0.00     0.000 HD 
HETATM   43  H1  UNL     1      -9.468   8.119  63.016  1.00  0.00     0.000 HD 
ENDBRANCH  39  40
ENDBRANCH  38  39
ENDBRANCH  37  38
ENDBRANCH  36  37
ENDBRANCH  33  36
ENDBRANCH  31  32
ENDBRANCH  30  31
ENDBRANCH  28  30
ENDBRANCH  25  26
ENDBRANCH  24  25
ENDBRANCH  23  24
ENDBRANCH  22  23
ENDBRANCH  21  22
ENDBRANCH  19  21
ENDBRANCH  16  17
ENDBRANCH  15  16
ENDBRANCH  12  15
ENDBRANCH  10  11
ENDBRANCH   9  10
ENDBRANCH   8   9
ENDBRANCH   7   8
ENDBRANCH   6   7
ENDBRANCH   3   6
TORSDOF 23
ENDMDL
MODEL      353
REMARK 921   NORMALIZED FREE ENERGY PREDICTED BY IDOCK:    0.13 KCAL/MOL
REMARK 922        TOTAL FREE ENERGY PREDICTED BY IDOCK:   -2.46 KCAL/MOL
REMARK 923 INTER-LIGAND FREE ENERGY PREDICTED BY IDOCK:   -4.06 KCAL/MOL
REMARK 924 INTRA-LIGAND FREE ENERGY PREDICTED BY IDOCK:    1.60 KCAL/MOL
REMARK 927      BINDING AFFINITY PREDICTED BY RF-SCORE:    0.00 PKD
ROOT
HETATM    1  C   UNL     1      -8.970  20.559  68.012  1.00  0.00    -0.038 C  
HETATM    2  C   UNL     1      -9.950  19.437  67.789  1.00  0.00    -0.379 C  
HETATM    3  N   UNL     1      -9.908  18.394  68.676  1.00  0.00    -0.364 N  
HETATM    4  O   UNL     1     -10.718  19.466  66.827  1.00  0.00    -0.452 OA 
HETATM    5  O   UNL     1      -9.156  18.396  69.863  1.00  0.00     0.936 OA 
ENDROOT
BRANCH   3   6
HETATM    6  C   UNL     1     -10.779  17.229  68.586  1.00  0.00    -0.280 C  
BRANCH   6   7
HETATM    7  C   UNL     1     -11.094  16.630  69.958  1.00  0.00    -0.105 C  
BRANCH   7   8
HETATM    8  C   UNL     1     -11.954  15.374  69.807  1.00  0.00    -0.381 C  
BRANCH   8   9
HETATM    9  C   UNL     1     -11.578  14.564  68.565  1.00  0.00    -0.344 C  
BRANCH   9  10
HETATM   10  C   UNL     1     -11.186  13.126  68.906  1.00  0.00    -0.277 C  
BRANCH  10  11
HETATM   11  N   UNL     1      -9.880  12.766  68.376  1.00  0.00    -0.288 N  
HETATM   12  C   UNL     1      -9.759  11.993  67.243  1.00  0.00    -0.185 C  
HETATM   13  H   UNL     1      -9.039  13.091  68.853  1.00  0.00     0.000 HD 
HETATM   14  O   UNL     1     -10.714  11.591  66.584  1.00  0.00    -0.245 OA 
BRANCH  12  15
HETATM   15  C   UNL     1      -8.322  11.694  66.874  1.00  0.00    -0.169 C  
BRANCH  15  16
HETATM   16  C   UNL     1      -7.577  11.098  68.066  1.00  0.00    -0.100 C  
BRANCH  16  17
HETATM   17  C   UNL     1      -8.217   9.818  68.567  1.00  0.00    -0.106 C  
HETATM   18  O   UNL     1      -9.132   9.280  67.947  1.00  0.00    -0.128 OA 
HETATM   19  N   UNL     1      -7.737   9.327  69.754  1.00  0.00    -0.086 N  
HETATM   20  O   UNL     1      -6.631   9.848  70.446  1.00  0.00    -0.096 OA 
BRANCH  19  21
HETATM   21  C   UNL     1      -8.283   8.152  70.418  1.00  0.00    -0.114 C  
BRANCH  21  22
HETATM   22  C   UNL     1      -7.195   7.159  70.836  1.00  0.00    -0.070 C  
BRANCH  22  23
HETATM   23  C   UNL     1      -7.718   5.716  70.967  1.00  0.00    -0.104 C  
BRANCH  23  24
HETATM   24  C   UNL     1      -6.928   4.709  70.129  1.00  0.00    -0.048 C  
BRANCH  24  25
HETATM   25  C   UNL     1      -6.828   5.149  68.670  1.00  0.00    -0.052 C  
BRANCH  25  26
HETATM   26  N   UNL     1      -8.059   4.897  67.949  1.00  0.00    -0.093 N  
HETATM   27  H   UNL     1      -8.332   5.531  67.198  1.00  0.00     0.000 HD 
HETATM   28  C   UNL     1      -8.870   3.827  68.249  1.00  0.00    -0.112 C  
HETATM   29  O   UNL     1      -8.610   3.004  69.121  1.00  0.00    -0.064 OA 
BRANCH  28  30
HETATM   30  C   UNL     1     -10.126   3.740  67.421  1.00  0.00     0.364 C  
BRANCH  30  31
HETATM   31  C   UNL     1      -9.760   3.666  65.947  1.00  0.00    -0.096 C  
BRANCH  31  32
HETATM   32  C   UNL     1      -8.314   3.253  65.769  1.00  0.00    -0.103 C  
HETATM   33  N   UNL     1      -7.458   4.124  65.138  1.00  0.00    -0.072 N  
HETATM   34  O   UNL     1      -7.923   2.193  66.261  1.00  0.00    -0.075 OA 
HETATM   35  O   UNL     1      -7.973   5.080  64.242  1.00  0.00    -0.092 OA 
BRANCH  33  36
HETATM   36  C   UNL     1      -6.062   3.787  64.855  1.00  0.00    -0.023 C  
BRANCH  36  37
HETATM   37  C   UNL     1      -5.145   5.008  64.939  1.00  0.00    -0.009 C  
BRANCH  37  38
HETATM   38  C   UNL     1      -5.868   6.235  65.506  1.00  0.00    -0.025 C  
BRANCH  38  39
HETATM   39  C   UNL     1      -5.557   7.498  64.698  1.00  0.00    -0.033 C  
BRANCH  39  40
HETATM   40  C   UNL     1      -5.893   8.781  65.460  1.00  0.00    -0.047 C  
HETATM   41  N   UNL     1      -6.148   9.897  64.555  1.00  0.00    -0.104 NA 
HETATM   42  H2  UNL     1      -6.874   9.666  63.877  1.00  0.00     0.000 HD 
HETATM   43  H1  UNL     1      -6.372  10.753  65.063  1.00  0.00     0.000 HD 
ENDBRANCH  39  40
ENDBRANCH  38  39
ENDBRANCH  37  38
ENDBRANCH  36  37
ENDBRANCH  33  36
ENDBRANCH  31  32
ENDBRANCH  30  31
ENDBRANCH  28  30
ENDBRANCH  25  26
ENDBRANCH  24  25
ENDBRANCH  23  24
ENDBRANCH  22  23
ENDBRANCH  21  22
ENDBRANCH  19  21
ENDBRANCH  16  17
ENDBRANCH  15  16
ENDBRANCH  12  15
ENDBRANCH  10  11
ENDBRANCH   9  10
ENDBRANCH   8   9
ENDBRANCH   7   8
ENDBRANCH   6   7
ENDBRANCH   3   6
TORSDOF 23
ENDMDL
MODEL      354
REMARK 921   NORMALIZED FREE ENERGY PREDICTED BY IDOCK:    0.35 KCAL/MOL
REMARK 922        TOTAL FREE ENERGY PREDICTED BY IDOCK:   -1.94 KCAL/MOL
REMARK 923 INTER-LIGAND FREE ENERGY PREDICTED BY IDOCK:   -2.94 KCAL/MOL
REMARK 924 INTRA-LIGAND FREE ENERGY PREDICTED BY IDOCK:    1.00 KCAL/MOL
REMARK 927      BINDING AFFINITY PREDICTED BY RF-SCORE:    0.00 PKD
ROOT
HETATM    1  C   UNL     1     -10.959  18.374  65.902  1.00  0.00     0.176 C  
HETATM    2  C   UNL     1     -11.236  16.959  66.337  1.00  0.00     0.551 C  
HETATM    3  N   UNL     1     -11.065  16.675  67.666  1.00  0.00    -0.183 N  
HETATM    4  O   UNL     1     -11.568  16.109  65.510  1.00  0.00     0.251 OA 
HETATM    5  O   UNL     1     -10.837  17.644  68.658  1.00  0.00    -0.213 OA 
ENDROOT
BRANCH   3   6
HETATM    6  C   UNL     1     -11.278  15.353  68.238  1.00  0.00    -0.323 C  
BRANCH   6   7
HETATM    7  C   UNL     1     -11.063  15.331  69.753  1.00  0.00    -0.293 C  
BRANCH   7   8
HETATM    8  C   UNL     1      -9.569  15.344  70.081  1.00  0.00     0.173 C  
BRANCH   8   9
HETATM    9  C   UNL     1      -8.812  14.226  69.363  1.00  0.00     0.410 C  
BRANCH   9  10
HETATM   10  C   UNL     1      -9.705  13.022  69.060  1.00  0.00     0.342 C  
BRANCH  10  11
HETATM   11  N   UNL     1      -9.376  12.392  67.790  1.00  0.00    -0.189 N  
HETATM   12  C   UNL     1      -8.073  12.307  67.353  1.00  0.00    -0.175 C  
HETATM   13  H   UNL     1     -10.124  12.007  67.214  1.00  0.00     0.000 HD 
HETATM   14  O   UNL     1      -7.107  12.708  67.997  1.00  0.00    -0.082 OA 
BRANCH  12  15
HETATM   15  C   UNL     1      -7.940  11.653  65.994  1.00  0.00     0.270 C  
BRANCH  15  16
HETATM   16  C   UNL     1      -6.875  10.560  66.029  1.00  0.00    -0.134 C  
BRANCH  16  17
HETATM   17  C   UNL     1      -6.884   9.786  67.333  1.00  0.00    -0.083 C  
HETATM   18  O   UNL     1      -5.879   9.717  68.038  1.00  0.00    -0.040 OA 
HETATM   19  N   UNL     1      -8.057   9.151  67.652  1.00  0.00    -0.104 N  
HETATM   20  O   UNL     1      -9.257   9.281  66.931  1.00  0.00    -0.137 OA 
BRANCH  19  21
HETATM   21  C   UNL     1      -8.222   8.305  68.824  1.00  0.00    -0.117 C  
BRANCH  21  22
HETATM   22  C   UNL     1      -8.252   9.110  70.126  1.00  0.00    -0.161 C  
BRANCH  22  23
HETATM   23  C   UNL     1      -9.666   9.229  70.726  1.00  0.00    -0.348 C  
BRANCH  23  24
HETATM   24  C   UNL     1      -9.782   8.625  72.126  1.00  0.00    -0.383 C  
BRANCH  24  25
HETATM   25  C   UNL     1     -10.752   7.445  72.149  1.00  0.00    -0.225 C  
BRANCH  25  26
HETATM   26  N   UNL     1     -10.708   6.692  70.911  1.00  0.00    -0.228 N  
HETATM   27  H   UNL     1     -11.167   7.072  70.084  1.00  0.00     0.000 HD 
HETATM   28  C   UNL     1     -10.064   5.480  70.822  1.00  0.00    -0.212 C  
HETATM   29  O   UNL     1      -9.469   4.959  71.760  1.00  0.00    -0.143 OA 
BRANCH  28  30
HETATM   30  C   UNL     1     -10.149   4.823  69.468  1.00  0.00    -0.260 C  
BRANCH  30  31
HETATM   31  C   UNL     1      -8.836   4.121  69.160  1.00  0.00    -0.142 C  
BRANCH  31  32
HETATM   32  C   UNL     1      -8.170   4.729  67.944  1.00  0.00    -0.096 C  
HETATM   33  N   UNL     1      -8.948   5.020  66.849  1.00  0.00    -0.112 N  
HETATM   34  O   UNL     1      -6.974   5.023  67.993  1.00  0.00    -0.058 OA 
HETATM   35  O   UNL     1     -10.153   4.320  66.645  1.00  0.00    -0.221 OA 
BRANCH  33  36
HETATM   36  C   UNL     1      -8.386   5.542  65.601  1.00  0.00    -0.133 C  
BRANCH  36  37
HETATM   37  C   UNL     1      -8.438   4.513  64.471  1.00  0.00    -0.128 C  
BRANCH  37  38
HETATM   38  C   UNL     1      -7.314   3.476  64.583  1.00  0.00    -0.071 C  
BRANCH  38  39
HETATM   39  C   UNL     1      -7.546   2.515  65.752  1.00  0.00    -0.075 C  
BRANCH  39  40
HETATM   40  C   UNL     1      -6.311   1.672  66.075  1.00  0.00    -0.023 C  
HETATM   41  N   UNL     1      -5.441   2.335  67.041  1.00  0.00    -0.016 NA 
HETATM   42  H2  UNL     1      -5.950   2.587  67.888  1.00  0.00     0.000 HD 
HETATM   43  H1  UNL     1      -4.617   1.773  67.256  1.00  0.00     0.000 HD 
ENDBRANCH  39  40
ENDBRANCH  38  39
ENDBRANCH  37  38
ENDBRANCH  36  37
ENDBRANCH  33  36
ENDBRANCH  31  32
ENDBRANCH  30  31
ENDBRANCH  28  30
ENDBRANCH  25  26
ENDBRANCH  24  25
ENDBRANCH  23  24
ENDBRANCH  22  23
ENDBRANCH  21  22
ENDBRANCH  19  21
ENDBRANCH  16  17
ENDBRANCH  15  16
ENDBRANCH  12  15
ENDBRANCH  10  11
ENDBRANCH   9  10
ENDBRANCH   8   9
ENDBRANCH   7   8
ENDBRANCH   6   7
ENDBRANCH   3   6
TORSDOF 23
ENDMDL
MODEL      355
REMARK 921   NORMALIZED FREE ENERGY PREDICTED BY IDOCK:    0.76 KCAL/MOL
REMARK 922        TOTAL FREE ENERGY PREDICTED BY IDOCK:   -0.97 KCAL/MOL
REMARK 923 INTER-LIGAND FREE ENERGY PREDICTED BY IDOCK:   -5.30 KCAL/MOL
REMARK 924 INTRA-LIGAND FREE ENERGY PREDICTED BY IDOCK:    4.33 KCAL/MOL
REMARK 927      BINDING AFFINITY PREDICTED BY RF-SCORE:    0.00 PKD
ROOT
HETATM    1  C   UNL     1      -7.116   3.541  66.657  1.00  0.00    -0.059 C  
HETATM    2  C   UNL     1      -8.437   3.882  67.295  1.00  0.00    -0.100 C  
HETATM    3  N   UNL     1      -8.395   4.591  68.466  1.00  0.00    -0.085 N  
HETATM    4  O   UNL     1      -9.491   3.500  66.783  1.00  0.00    -0.196 OA 
HETATM    5  O   UNL     1      -7.229   5.170  68.997  1.00  0.00    -0.055 OA 
ENDROOT
BRANCH   3   6
HETATM    6  C   UNL     1      -9.584   4.983  69.211  1.00  0.00    -0.162 C  
BRANCH   6   7
HETATM    7  C   UNL     1      -9.637   6.489  69.475  1.00  0.00    -0.152 C  
BRANCH   7   8
HETATM    8  C   UNL     1      -9.960   7.246  68.185  1.00  0.00    -0.181 C  
BRANCH   8   9
HETATM    9  C   UNL     1      -9.891   8.762  68.376  1.00  0.00    -0.189 C  
BRANCH   9  10
HETATM   10  C   UNL     1      -8.778   9.176  69.339  1.00  0.00    -0.140 C  
BRANCH  10  11
HETATM   11  N   UNL     1      -7.866  10.146  68.752  1.00  0.00    -0.092 N  
HETATM   12  C   UNL     1      -7.146  11.015  69.540  1.00  0.00    -0.113 C  
HETATM   13  H   UNL     1      -7.759  10.183  67.738  1.00  0.00     0.000 HD 
HETATM   14  O   UNL     1      -7.182  11.016  70.768  1.00  0.00     0.526 OA 
BRANCH  12  15
HETATM   15  C   UNL     1      -6.285  11.971  68.743  1.00  0.00    -0.063 C  
BRANCH  15  16
HETATM   16  C   UNL     1      -5.284  12.676  69.654  1.00  0.00    -0.076 C  
BRANCH  16  17
HETATM   17  C   UNL     1      -5.480  14.180  69.675  1.00  0.00    -0.094 C  
HETATM   18  O   UNL     1      -5.500  14.804  70.734  1.00  0.00    -0.132 OA 
HETATM   19  N   UNL     1      -5.664  14.783  68.457  1.00  0.00    -0.093 N  
HETATM   20  O   UNL     1      -5.551  14.130  67.217  1.00  0.00    -0.296 OA 
BRANCH  19  21
HETATM   21  C   UNL     1      -5.940  16.202  68.294  1.00  0.00    -0.110 C  
BRANCH  21  22
HETATM   22  C   UNL     1      -7.257  16.462  67.559  1.00  0.00    -0.171 C  
BRANCH  22  23
HETATM   23  C   UNL     1      -8.496  16.117  68.406  1.00  0.00    -0.184 C  
BRANCH  23  24
HETATM   24  C   UNL     1      -9.717  15.739  67.566  1.00  0.00    -0.226 C  
BRANCH  24  25
HETATM   25  C   UNL     1      -9.312  15.033  66.274  1.00  0.00    -0.307 C  
BRANCH  25  26
HETATM   26  N   UNL     1     -10.418  14.294  65.698  1.00  0.00    -0.308 N  
HETATM   27  H   UNL     1     -10.414  14.096  64.698  1.00  0.00     0.000 HD 
HETATM   28  C   UNL     1     -11.472  13.854  66.463  1.00  0.00    -0.348 C  
HETATM   29  O   UNL     1     -11.550  14.030  67.675  1.00  0.00    -0.313 OA 
BRANCH  28  30
HETATM   30  C   UNL     1     -12.549  13.133  65.692  1.00  0.00    -0.414 C  
BRANCH  30  31
HETATM   31  C   UNL     1     -12.104  12.945  64.250  1.00  0.00    -0.487 C  
BRANCH  31  32
HETATM   32  C   UNL     1     -10.616  12.673  64.175  1.00  0.00    -0.407 C  
HETATM   33  N   UNL     1     -10.195  11.375  64.021  1.00  0.00    -0.311 N  
HETATM   34  O   UNL     1      -9.828  13.622  64.171  1.00  0.00     0.004 OA 
HETATM   35  O   UNL     1     -11.024  10.319  64.445  1.00  0.00     0.676 OA 
BRANCH  33  36
HETATM   36  C   UNL     1      -8.779  11.003  64.010  1.00  0.00     0.091 C  
BRANCH  36  37
HETATM   37  C   UNL     1      -8.266  10.644  65.407  1.00  0.00    -0.125 C  
BRANCH  37  38
HETATM   38  C   UNL     1      -6.782  10.262  65.396  1.00  0.00    -0.123 C  
BRANCH  38  39
HETATM   39  C   UNL     1      -6.586   8.750  65.532  1.00  0.00    -0.067 C  
BRANCH  39  40
HETATM   40  C   UNL     1      -6.821   8.005  64.217  1.00  0.00    -0.065 C  
HETATM   41  N   UNL     1      -8.243   7.854  63.927  1.00  0.00    -0.351 NA 
HETATM   42  H2  UNL     1      -8.721   8.754  63.935  1.00  0.00     0.000 HD 
HETATM   43  H1  UNL     1      -8.399   7.357  63.050  1.00  0.00     0.000 HD 
ENDBRANCH  39  40
ENDBRANCH  38  39
ENDBRANCH  37  38
ENDBRANCH  36  37
ENDBRANCH  33  36
ENDBRANCH  31  32
ENDBRANCH  30  31
ENDBRANCH  28  30
ENDBRANCH  25  26
ENDBRANCH  24  25
ENDBRANCH  23  24
ENDBRANCH  22  23
ENDBRANCH  21  22
ENDBRANCH  19  21
ENDBRANCH  16  17
ENDBRANCH  15  16
ENDBRANCH  12  15
ENDBRANCH  10  11
ENDBRANCH   9  10
ENDBRANCH   8   9
ENDBRANCH   7   8
ENDBRANCH   6   7
ENDBRANCH   3   6
TORSDOF 23
ENDMDL
MODEL      356
REMARK 921   NORMALIZED FREE ENERGY PREDICTED BY IDOCK:    0.84 KCAL/MOL
REMARK 922        TOTAL FREE ENERGY PREDICTED BY IDOCK:   -0.79 KCAL/MOL
REMARK 923 INTER-LIGAND FREE ENERGY PREDICTED BY IDOCK:   -3.18 KCAL/MOL
REMARK 924 INTRA-LIGAND FREE ENERGY PREDICTED BY IDOCK:    2.39 KCAL/MOL
REMARK 927      BINDING AFFINITY PREDICTED BY RF-SCORE:    0.00 PKD
ROOT
HETATM    1  C   UNL     1     -11.977  11.633  68.064  1.00  0.00    -0.187 C  
HETATM    2  C   UNL     1     -11.636  12.951  67.420  1.00  0.00    -0.360 C  
HETATM    3  N   UNL     1     -10.372  13.079  66.907  1.00  0.00    -0.244 N  
HETATM    4  O   UNL     1     -12.461  13.864  67.398  1.00  0.00    -0.215 OA 
HETATM    5  O   UNL     1      -9.460  12.018  66.778  1.00  0.00    -0.197 OA 
ENDROOT
BRANCH   3   6
HETATM    6  C   UNL     1      -9.885  14.294  66.268  1.00  0.00    -0.307 C  
BRANCH   6   7
HETATM    7  C   UNL     1     -10.339  14.409  64.811  1.00  0.00    -0.352 C  
BRANCH   7   8
HETATM    8  C   UNL     1     -10.357  15.874  64.371  1.00  0.00     1.153 C  
BRANCH   8   9
HETATM    9  C   UNL     1     -11.210  16.743  65.297  1.00  0.00     0.130 C  
BRANCH   9  10
HETATM   10  C   UNL     1     -10.401  17.321  66.458  1.00  0.00    -0.308 C  
BRANCH  10  11
HETATM   11  N   UNL     1      -9.261  18.105  66.006  1.00  0.00    -0.092 N  
HETATM   12  C   UNL     1      -9.296  19.481  66.014  1.00  0.00    -0.231 C  
HETATM   13  H   UNL     1      -8.423  17.626  65.677  1.00  0.00     0.000 HD 
HETATM   14  O   UNL     1     -10.246  20.140  66.428  1.00  0.00    -0.450 OA 
BRANCH  12  15
HETATM   15  C   UNL     1      -8.032  20.113  65.471  1.00  0.00     0.117 C  
BRANCH  15  16
HETATM   16  C   UNL     1      -6.877  19.116  65.509  1.00  0.00    -0.280 C  
BRANCH  16  17
HETATM   17  C   UNL     1      -6.429  18.803  66.924  1.00  0.00    -0.184 C  
HETATM   18  O   UNL     1      -5.682  17.856  67.159  1.00  0.00    -0.129 OA 
HETATM   19  N   UNL     1      -6.932  19.613  67.910  1.00  0.00    -0.248 N  
HETATM   20  O   UNL     1      -7.707  20.763  67.682  1.00  0.00    -0.274 OA 
BRANCH  19  21
HETATM   21  C   UNL     1      -6.669  19.414  69.327  1.00  0.00    -0.335 C  
BRANCH  21  22
HETATM   22  C   UNL     1      -7.736  18.551  70.005  1.00  0.00     1.294 C  
BRANCH  22  23
HETATM   23  C   UNL     1      -8.623  17.793  68.999  1.00  0.00    -0.013 C  
BRANCH  23  24
HETATM   24  C   UNL     1      -9.598  16.821  69.665  1.00  0.00     0.272 C  
BRANCH  24  25
HETATM   25  C   UNL     1      -8.915  15.504  70.030  1.00  0.00     0.334 C  
BRANCH  25  26
HETATM   26  N   UNL     1      -8.064  15.028  68.958  1.00  0.00    -0.168 N  
HETATM   27  H   UNL     1      -8.491  14.554  68.161  1.00  0.00     0.000 HD 
HETATM   28  C   UNL     1      -6.700  15.196  68.984  1.00  0.00    -0.120 C  
HETATM   29  O   UNL     1      -6.106  15.771  69.890  1.00  0.00    -0.159 OA 
BRANCH  28  30
HETATM   30  C   UNL     1      -5.973  14.608  67.802  1.00  0.00    -0.119 C  
BRANCH  30  31
HETATM   31  C   UNL     1      -5.126  13.431  68.260  1.00  0.00    -0.095 C  
BRANCH  31  32
HETATM   32  C   UNL     1      -5.961  12.434  69.036  1.00  0.00    -0.071 C  
HETATM   33  N   UNL     1      -6.338  11.270  68.410  1.00  0.00    -0.046 N  
HETATM   34  O   UNL     1      -6.210  12.649  70.224  1.00  0.00    -0.111 OA 
HETATM   35  O   UNL     1      -6.424  11.231  67.006  1.00  0.00    -0.090 OA 
BRANCH  33  36
HETATM   36  C   UNL     1      -7.205  10.279  69.051  1.00  0.00    -0.080 C  
BRANCH  36  37
HETATM   37  C   UNL     1      -6.830   8.848  68.663  1.00  0.00    -0.063 C  
BRANCH  37  38
HETATM   38  C   UNL     1      -7.910   8.180  67.804  1.00  0.00    -0.118 C  
BRANCH  38  39
HETATM   39  C   UNL     1      -9.318   8.545  68.283  1.00  0.00    -0.143 C  
BRANCH  39  40
HETATM   40  C   UNL     1     -10.406   7.713  67.602  1.00  0.00    -0.237 C  
HETATM   41  N   UNL     1     -10.043   7.369  66.231  1.00  0.00    -0.459 NA 
HETATM   42  H2  UNL     1      -9.138   6.901  66.192  1.00  0.00     0.000 HD 
HETATM   43  H1  UNL     1     -10.769   6.813  65.776  1.00  0.00     0.000 HD 
ENDBRANCH  39  40
ENDBRANCH  38  39
ENDBRANCH  37  38
ENDBRANCH  36  37
ENDBRANCH  33  36
ENDBRANCH  31  32
ENDBRANCH  30  31
ENDBRANCH  28  30
ENDBRANCH  25  26
ENDBRANCH  24  25
ENDBRANCH  23  24
ENDBRANCH  22  23
ENDBRANCH  21  22
ENDBRANCH  19  21
ENDBRANCH  16  17
ENDBRANCH  15  16
ENDBRANCH  12  15
ENDBRANCH  10  11
ENDBRANCH   9  10
ENDBRANCH   8   9
ENDBRANCH   7   8
ENDBRANCH   6   7
ENDBRANCH   3   6
TORSDOF 23
ENDMDL
MODEL      357
REMARK 921   NORMALIZED FREE ENERGY PREDICTED BY IDOCK:    0.92 KCAL/MOL
REMARK 922        TOTAL FREE ENERGY PREDICTED BY IDOCK:   -0.61 KCAL/MOL
REMARK 923 INTER-LIGAND FREE ENERGY PREDICTED BY IDOCK:   -0.35 KCAL/MOL
REMARK 924 INTRA-LIGAND FREE ENERGY PREDICTED BY IDOCK:   -0.26 KCAL/MOL
REMARK 927      BINDING AFFINITY PREDICTED BY RF-SCORE:    0.00 PKD
ROOT
HETATM    1  C   UNL     1      -7.649   9.361  73.918  1.00  0.00     1.497 C  
HETATM    2  C   UNL     1      -7.642   8.083  73.121  1.00  0.00    -0.145 C  
HETATM    3  N   UNL     1      -6.420   7.611  72.719  1.00  0.00    -0.060 N  
HETATM    4  O   UNL     1      -8.702   7.527  72.830  1.00  0.00    -0.119 OA 
HETATM    5  O   UNL     1      -5.190   8.130  73.157  1.00  0.00    -0.040 OA 
ENDROOT
BRANCH   3   6
HETATM    6  C   UNL     1      -6.249   6.399  71.930  1.00  0.00    -0.042 C  
BRANCH   6   7
HETATM    7  C   UNL     1      -7.427   5.434  72.080  1.00  0.00    -0.095 C  
BRANCH   7   8
HETATM    8  C   UNL     1      -7.297   4.275  71.090  1.00  0.00    -0.044 C  
BRANCH   8   9
HETATM    9  C   UNL     1      -7.138   4.764  69.649  1.00  0.00    -0.054 C  
BRANCH   9  10
HETATM   10  C   UNL     1      -6.092   5.871  69.525  1.00  0.00    -0.029 C  
BRANCH  10  11
HETATM   11  N   UNL     1      -6.415   6.827  68.476  1.00  0.00    -0.038 N  
HETATM   12  C   UNL     1      -5.898   6.694  67.207  1.00  0.00    -0.013 C  
HETATM   13  H   UNL     1      -7.037   7.608  68.684  1.00  0.00     0.000 HD 
HETATM   14  O   UNL     1      -5.175   5.765  66.856  1.00  0.00    -0.005 OA 
BRANCH  12  15
HETATM   15  C   UNL     1      -6.320   7.806  66.270  1.00  0.00    -0.046 C  
BRANCH  15  16
HETATM   16  C   UNL     1      -5.550   9.087  66.580  1.00  0.00    -0.039 C  
BRANCH  16  17
HETATM   17  C   UNL     1      -5.939   9.686  67.918  1.00  0.00    -0.051 C  
HETATM   18  O   UNL     1      -5.187   9.620  68.888  1.00  0.00    -0.037 OA 
HETATM   19  N   UNL     1      -7.179  10.269  67.981  1.00  0.00    -0.084 N  
HETATM   20  O   UNL     1      -8.031  10.458  66.879  1.00  0.00    -0.111 OA 
BRANCH  19  21
HETATM   21  C   UNL     1      -7.745  10.828  69.200  1.00  0.00    -0.138 C  
BRANCH  21  22
HETATM   22  C   UNL     1      -8.364   9.756  70.102  1.00  0.00    -0.201 C  
BRANCH  22  23
HETATM   23  C   UNL     1      -9.837  10.041  70.449  1.00  0.00    -0.071 C  
BRANCH  23  24
HETATM   24  C   UNL     1     -10.820   9.145  69.696  1.00  0.00    -0.210 C  
BRANCH  24  25
HETATM   25  C   UNL     1     -10.364   7.687  69.695  1.00  0.00    -0.213 C  
BRANCH  25  26
HETATM   26  N   UNL     1     -10.094   7.212  68.353  1.00  0.00    -0.162 N  
HETATM   27  H   UNL     1      -9.198   7.434  67.919  1.00  0.00     0.000 HD 
HETATM   28  C   UNL     1     -11.012   6.469  67.649  1.00  0.00    -0.337 C  
HETATM   29  O   UNL     1     -12.104   6.137  68.099  1.00  0.00     1.752 OA 
BRANCH  28  30
HETATM   30  C   UNL     1     -10.576   6.089  66.257  1.00  0.00    -0.024 C  
BRANCH  30  31
HETATM   31  C   UNL     1     -10.335   4.589  66.190  1.00  0.00    -0.258 C  
BRANCH  31  32
HETATM   32  C   UNL     1     -10.109   4.141  64.761  1.00  0.00    -0.192 C  
HETATM   33  N   UNL     1      -8.956   4.534  64.127  1.00  0.00    -0.148 N  
HETATM   34  O   UNL     1     -10.918   3.375  64.233  1.00  0.00    -0.163 OA 
HETATM   35  O   UNL     1      -8.289   5.699  64.553  1.00  0.00    -0.135 OA 
BRANCH  33  36
HETATM   36  C   UNL     1      -8.680   4.214  62.725  1.00  0.00    -0.103 C  
BRANCH  36  37
HETATM   37  C   UNL     1      -8.118   2.801  62.556  1.00  0.00    -0.072 C  
BRANCH  37  38
HETATM   38  C   UNL     1      -6.692   2.678  63.104  1.00  0.00    -0.027 C  
BRANCH  38  39
HETATM   39  C   UNL     1      -6.647   1.826  64.376  1.00  0.00    -0.022 C  
BRANCH  39  40
HETATM   40  C   UNL     1      -5.965   2.544  65.541  1.00  0.00    -0.019 C  
HETATM   41  N   UNL     1      -6.936   3.140  66.452  1.00  0.00    -0.053 NA 
HETATM   42  H2  UNL     1      -7.607   2.448  66.784  1.00  0.00     0.000 HD 
HETATM   43  H1  UNL     1      -6.481   3.619  67.230  1.00  0.00     0.000 HD 
ENDBRANCH  39  40
ENDBRANCH  38  39
ENDBRANCH  37  38
ENDBRANCH  36  37
ENDBRANCH  33  36
ENDBRANCH  31  32
ENDBRANCH  30  31
ENDBRANCH  28  30
ENDBRANCH  25  26
ENDBRANCH  24  25
ENDBRANCH  23  24
ENDBRANCH  22  23
ENDBRANCH  21  22
ENDBRANCH  19  21
ENDBRANCH  16  17
ENDBRANCH  15  16
ENDBRANCH  12  15
ENDBRANCH  10  11
ENDBRANCH   9  10
ENDBRANCH   8   9
ENDBRANCH   7   8
ENDBRANCH   6   7
ENDBRANCH   3   6
TORSDOF 23
ENDMDL
MODEL      358
REMARK 921   NORMALIZED FREE ENERGY PREDICTED BY IDOCK:    1.96 KCAL/MOL
REMARK 922        TOTAL FREE ENERGY PREDICTED BY IDOCK:    1.84 KCAL/MOL
REMARK 923 INTER-LIGAND FREE ENERGY PREDICTED BY IDOCK:   -3.61 KCAL/MOL
REMARK 924 INTRA-LIGAND FREE ENERGY PREDICTED BY IDOCK:    5.45 KCAL/MOL
REMARK 927      BINDING AFFINITY PREDICTED BY RF-SCORE:    0.00 PKD
ROOT
HETATM    1  C   UNL     1     -13.023  13.316  68.525  1.00  0.00     2.003 C  
HETATM    2  C   UNL     1     -11.954  13.999  67.713  1.00  0.00    -0.357 C  
HETATM    3  N   UNL     1     -10.668  13.903  68.176  1.00  0.00    -0.245 N  
HETATM    4  O   UNL     1     -12.253  14.635  66.701  1.00  0.00    -0.317 OA 
HETATM    5  O   UNL     1     -10.270  13.067  69.233  1.00  0.00     0.159 OA 
ENDROOT
BRANCH   3   6
HETATM    6  C   UNL     1      -9.528  14.521  67.513  1.00  0.00    -0.203 C  
BRANCH   6   7
HETATM    7  C   UNL     1      -8.261  13.669  67.618  1.00  0.00    -0.178 C  
BRANCH   7   8
HETATM    8  C   UNL     1      -8.321  12.499  66.635  1.00  0.00     0.040 C  
BRANCH   8   9
HETATM    9  C   UNL     1      -9.650  12.450  65.878  1.00  0.00    -0.193 C  
BRANCH   9  10
HETATM   10  C   UNL     1      -9.667  11.359  64.807  1.00  0.00    -0.244 C  
BRANCH  10  11
HETATM   11  N   UNL     1      -9.741  10.022  65.377  1.00  0.00    -0.282 N  
HETATM   12  C   UNL     1     -10.411   9.787  66.557  1.00  0.00    -0.142 C  
HETATM   13  H   UNL     1      -9.289   9.246  64.894  1.00  0.00     0.000 HD 
HETATM   14  O   UNL     1     -11.016  10.651  67.185  1.00  0.00    -0.285 OA 
BRANCH  12  15
HETATM   15  C   UNL     1     -10.343   8.342  67.004  1.00  0.00    -0.385 C  
BRANCH  15  16
HETATM   16  C   UNL     1      -8.987   7.736  66.649  1.00  0.00    -0.175 C  
BRANCH  16  17
HETATM   17  C   UNL     1      -8.380   6.960  67.802  1.00  0.00    -0.120 C  
HETATM   18  O   UNL     1      -8.959   5.993  68.292  1.00  0.00    -0.115 OA 
HETATM   19  N   UNL     1      -7.178   7.421  68.274  1.00  0.00    -0.088 N  
HETATM   20  O   UNL     1      -6.432   8.457  67.686  1.00  0.00    -0.055 OA 
BRANCH  19  21
HETATM   21  C   UNL     1      -6.489   6.845  69.420  1.00  0.00    -0.044 C  
BRANCH  21  22
HETATM   22  C   UNL     1      -6.065   5.394  69.178  1.00  0.00    -0.025 C  
BRANCH  22  23
HETATM   23  C   UNL     1      -5.255   5.214  67.880  1.00  0.00    -0.004 C  
BRANCH  23  24
HETATM   24  C   UNL     1      -5.868   4.191  66.923  1.00  0.00    -0.023 C  
BRANCH  24  25
HETATM   25  C   UNL     1      -6.970   3.379  67.599  1.00  0.00    -0.050 C  
BRANCH  25  26
HETATM   26  N   UNL     1      -6.723   3.220  69.018  1.00  0.00    -0.037 N  
HETATM   27  H   UNL     1      -6.002   3.788  69.462  1.00  0.00     0.000 HD 
HETATM   28  C   UNL     1      -7.434   2.324  69.782  1.00  0.00    -0.043 C  
HETATM   29  O   UNL     1      -8.331   1.616  69.336  1.00  0.00    -0.044 OA 
BRANCH  28  30
HETATM   30  C   UNL     1      -7.020   2.267  71.230  1.00  0.00    -0.032 C  
BRANCH  30  31
HETATM   31  C   UNL     1      -8.082   2.934  72.090  1.00  0.00    -0.055 C  
BRANCH  31  32
HETATM   32  C   UNL     1      -9.067   3.703  71.234  1.00  0.00    -0.114 C  
HETATM   33  N   UNL     1      -9.680   4.807  71.774  1.00  0.00    -0.159 N  
HETATM   34  O   UNL     1      -9.232   3.372  70.058  1.00  0.00    -0.118 OA 
HETATM   35  O   UNL     1      -9.816   4.914  73.172  1.00  0.00    -0.146 OA 
BRANCH  33  36
HETATM   36  C   UNL     1     -10.699   5.572  71.053  1.00  0.00    -0.205 C  
BRANCH  36  37
HETATM   37  C   UNL     1     -11.503   6.482  71.984  1.00  0.00    -0.342 C  
BRANCH  37  38
HETATM   38  C   UNL     1     -11.181   7.963  71.762  1.00  0.00    -0.305 C  
BRANCH  38  39
HETATM   39  C   UNL     1      -9.842   8.351  72.396  1.00  0.00    -0.378 C  
BRANCH  39  40
HETATM   40  C   UNL     1      -8.885   9.006  71.398  1.00  0.00    -0.150 C  
HETATM   41  N   UNL     1      -9.232   8.673  70.020  1.00  0.00    -0.153 NA 
HETATM   42  H2  UNL     1     -10.203   8.909  69.814  1.00  0.00     0.000 HD 
HETATM   43  H1  UNL     1      -8.594   9.110  69.353  1.00  0.00     0.000 HD 
ENDBRANCH  39  40
ENDBRANCH  38  39
ENDBRANCH  37  38
ENDBRANCH  36  37
ENDBRANCH  33  36
ENDBRANCH  31  32
ENDBRANCH  30  31
ENDBRANCH  28  30
ENDBRANCH  25  26
ENDBRANCH  24  25
ENDBRANCH  23  24
ENDBRANCH  22  23
ENDBRANCH  21  22
ENDBRANCH  19  21
ENDBRANCH  16  17
ENDBRANCH  15  16
ENDBRANCH  12  15
ENDBRANCH  10  11
ENDBRANCH   9  10
ENDBRANCH   8   9
ENDBRANCH   7   8
ENDBRANCH   6   7
ENDBRANCH   3   6
TORSDOF 23
ENDMDL
MODEL      359
REMARK 921   NORMALIZED FREE ENERGY PREDICTED BY IDOCK:    2.03 KCAL/MOL
REMARK 922        TOTAL FREE ENERGY PREDICTED BY IDOCK:    2.01 KCAL/MOL
REMARK 923 INTER-LIGAND FREE ENERGY PREDICTED BY IDOCK:   -0.89 KCAL/MOL
REMARK 924 INTRA-LIGAND FREE ENERGY PREDICTED BY IDOCK:    2.90 KCAL/MOL
REMARK 927      BINDING AFFINITY PREDICTED BY RF-SCORE:    0.00 PKD
ROOT
HETATM    1  C   UNL     1     -12.853   6.487  69.509  1.00  0.00     3.544 C  
HETATM    2  C   UNL     1     -11.382   6.600  69.812  1.00  0.00    -0.354 C  
HETATM    3  N   UNL     1     -10.990   7.656  70.593  1.00  0.00    -0.246 N  
HETATM    4  O   UNL     1     -10.586   5.787  69.340  1.00  0.00    -0.257 OA 
HETATM    5  O   UNL     1     -11.877   8.510  71.269  1.00  0.00    -0.281 OA 
ENDROOT
BRANCH   3   6
HETATM    6  C   UNL     1      -9.604   7.910  70.960  1.00  0.00    -0.159 C  
BRANCH   6   7
HETATM    7  C   UNL     1      -8.737   6.652  70.875  1.00  0.00    -0.138 C  
BRANCH   7   8
HETATM    8  C   UNL     1      -7.814   6.721  69.658  1.00  0.00    -0.115 C  
BRANCH   8   9
HETATM    9  C   UNL     1      -6.338   6.616  70.048  1.00  0.00    -0.039 C  
BRANCH   9  10
HETATM   10  C   UNL     1      -6.102   5.584  71.151  1.00  0.00    -0.033 C  
BRANCH  10  11
HETATM   11  N   UNL     1      -5.587   4.325  70.633  1.00  0.00    -0.012 N  
HETATM   12  C   UNL     1      -6.333   3.548  69.776  1.00  0.00    -0.028 C  
HETATM   13  H   UNL     1      -4.656   4.013  70.910  1.00  0.00     0.000 HD 
HETATM   14  O   UNL     1      -7.445   3.863  69.359  1.00  0.00    -0.052 OA 
BRANCH  12  15
HETATM   15  C   UNL     1      -5.641   2.262  69.380  1.00  0.00    -0.017 C  
BRANCH  15  16
HETATM   16  C   UNL     1      -5.190   2.324  67.923  1.00  0.00    -0.012 C  
BRANCH  16  17
HETATM   17  C   UNL     1      -5.247   3.731  67.360  1.00  0.00    -0.012 C  
HETATM   18  O   UNL     1      -5.140   4.713  68.091  1.00  0.00    -0.003 OA 
HETATM   19  N   UNL     1      -5.454   3.833  66.008  1.00  0.00    -0.013 N  
HETATM   20  O   UNL     1      -5.483   2.745  65.119  1.00  0.00    -0.009 OA 
BRANCH  19  21
HETATM   21  C   UNL     1      -5.609   5.101  65.310  1.00  0.00    -0.014 C  
BRANCH  21  22
HETATM   22  C   UNL     1      -6.154   6.206  66.219  1.00  0.00    -0.029 C  
BRANCH  22  23
HETATM   23  C   UNL     1      -7.647   6.499  65.979  1.00  0.00    -0.087 C  
BRANCH  23  24
HETATM   24  C   UNL     1      -7.983   6.757  64.509  1.00  0.00    -0.106 C  
BRANCH  24  25
HETATM   25  C   UNL     1      -8.807   8.032  64.338  1.00  0.00     0.502 C  
BRANCH  25  26
HETATM   26  N   UNL     1      -8.673   8.913  65.481  1.00  0.00    -0.173 N  
HETATM   27  H   UNL     1      -7.967   9.648  65.460  1.00  0.00     0.000 HD 
HETATM   28  C   UNL     1      -9.472   8.785  66.592  1.00  0.00    -0.203 C  
HETATM   29  O   UNL     1     -10.359   7.943  66.696  1.00  0.00    -0.291 OA 
BRANCH  28  30
HETATM   30  C   UNL     1      -9.171   9.764  67.698  1.00  0.00    -0.143 C  
BRANCH  30  31
HETATM   31  C   UNL     1      -9.940  11.054  67.459  1.00  0.00    -0.199 C  
BRANCH  31  32
HETATM   32  C   UNL     1      -9.009  12.164  67.017  1.00  0.00    -0.201 C  
HETATM   33  N   UNL     1      -9.104  13.384  67.641  1.00  0.00    -0.192 N  
HETATM   34  O   UNL     1      -8.143  11.926  66.173  1.00  0.00     0.086 OA 
HETATM   35  O   UNL     1     -10.313  13.761  68.255  1.00  0.00    -0.234 OA 
BRANCH  33  36
HETATM   36  C   UNL     1      -8.300  14.539  67.236  1.00  0.00    -0.212 C  
BRANCH  36  37
HETATM   37  C   UNL     1      -9.158  15.666  66.659  1.00  0.00    -0.313 C  
BRANCH  37  38
HETATM   38  C   UNL     1      -8.848  17.019  67.309  1.00  0.00    -0.221 C  
BRANCH  38  39
HETATM   39  C   UNL     1      -7.956  16.861  68.544  1.00  0.00    -0.242 C  
BRANCH  39  40
HETATM   40  C   UNL     1      -6.822  17.887  68.585  1.00  0.00    -0.248 C  
HETATM   41  N   UNL     1      -5.516  17.257  68.417  1.00  0.00    -0.135 NA 
HETATM   42  H2  UNL     1      -5.481  16.698  67.565  1.00  0.00     0.000 HD 
HETATM   43  H1  UNL     1      -4.760  17.941  68.445  1.00  0.00     0.000 HD 
ENDBRANCH  39  40
ENDBRANCH  38  39
ENDBRANCH  37  38
ENDBRANCH  36  37
ENDBRANCH  33  36
ENDBRANCH  31  32
ENDBRANCH  30  31
ENDBRANCH  28  30
ENDBRANCH  25  26
ENDBRANCH  24  25
ENDBRANCH  23  24
ENDBRANCH  22  23
ENDBRANCH  21  22
ENDBRANCH  19  21
ENDBRANCH  16  17
ENDBRANCH  15  16
ENDBRANCH  12  15
ENDBRANCH  10  11
ENDBRANCH   9  10
ENDBRANCH   8   9
ENDBRANCH   7   8
ENDBRANCH   6   7
ENDBRANCH   3   6
TORSDOF 23
ENDMDL
MODEL      360
REMARK 921   NORMALIZED FREE ENERGY PREDICTED BY IDOCK:    2.32 KCAL/MOL
REMARK 922        TOTAL FREE ENERGY PREDICTED BY IDOCK:    2.69 KCAL/MOL
REMARK 923 INTER-LIGAND FREE ENERGY PREDICTED BY IDOCK:   -6.76 KCAL/MOL
REMARK 924 INTRA-LIGAND FREE ENERGY PREDICTED BY IDOCK:    9.45 KCAL/MOL
REMARK 927      BINDING AFFINITY PREDICTED BY RF-SCORE:    0.00 PKD
ROOT
HETATM    1  C   UNL     1      -8.346   9.508  65.754  1.00  0.00    -0.132 C  
HETATM    2  C   UNL     1      -9.314   9.881  64.663  1.00  0.00    -0.277 C  
HETATM    3  N   UNL     1     -10.065  11.010  64.862  1.00  0.00    -0.278 N  
HETATM    4  O   UNL     1      -9.429   9.170  63.664  1.00  0.00     0.382 OA 
HETATM    5  O   UNL     1      -9.856  11.923  65.910  1.00  0.00    -0.227 OA 
ENDROOT
BRANCH   3   6
HETATM    6  C   UNL     1     -11.054  11.494  63.909  1.00  0.00    -0.380 C  
BRANCH   6   7
HETATM    7  C   UNL     1     -11.410  12.965  64.133  1.00  0.00    -0.442 C  
BRANCH   7   8
HETATM    8  C   UNL     1     -11.221  13.342  65.603  1.00  0.00    -0.307 C  
BRANCH   8   9
HETATM    9  C   UNL     1      -9.786  13.107  66.078  1.00  0.00    -0.266 C  
BRANCH   9  10
HETATM   10  C   UNL     1      -9.616  13.391  67.571  1.00  0.00    -0.221 C  
BRANCH  10  11
HETATM   11  N   UNL     1     -10.397  14.538  68.011  1.00  0.00    -0.227 N  
HETATM   12  C   UNL     1      -9.786  15.708  68.403  1.00  0.00    -0.206 C  
HETATM   13  H   UNL     1     -11.414  14.473  68.029  1.00  0.00     0.000 HD 
HETATM   14  O   UNL     1      -8.572  15.889  68.376  1.00  0.00    -0.168 OA 
BRANCH  12  15
HETATM   15  C   UNL     1     -10.765  16.768  68.862  1.00  0.00    -0.333 C  
BRANCH  15  16
HETATM   16  C   UNL     1     -12.059  16.124  69.353  1.00  0.00     0.040 C  
BRANCH  16  17
HETATM   17  C   UNL     1     -11.871  15.369  70.655  1.00  0.00    -0.351 C  
HETATM   18  O   UNL     1     -10.758  14.993  71.017  1.00  0.00    -0.125 OA 
HETATM   19  N   UNL     1     -13.010  15.111  71.374  1.00  0.00    -0.367 N  
HETATM   20  O   UNL     1     -14.287  15.605  71.053  1.00  0.00    -0.428 OA 
BRANCH  19  21
HETATM   21  C   UNL     1     -13.027  14.338  72.606  1.00  0.00    -0.436 C  
BRANCH  21  22
HETATM   22  C   UNL     1     -12.791  12.845  72.363  1.00  0.00    -0.075 C  
BRANCH  22  23
HETATM   23  C   UNL     1     -13.376  12.355  71.025  1.00  0.00     0.351 C  
BRANCH  23  24
HETATM   24  C   UNL     1     -12.587  11.199  70.408  1.00  0.00    -0.328 C  
BRANCH  24  25
HETATM   25  C   UNL     1     -11.947  10.320  71.481  1.00  0.00    -0.268 C  
BRANCH  25  26
HETATM   26  N   UNL     1     -11.129   9.276  70.899  1.00  0.00    -0.279 N  
HETATM   27  H   UNL     1     -10.965   8.421  71.430  1.00  0.00     0.000 HD 
HETATM   28  C   UNL     1     -10.567   9.405  69.651  1.00  0.00    -0.225 C  
HETATM   29  O   UNL     1     -10.727  10.388  68.934  1.00  0.00    -0.197 OA 
BRANCH  28  30
HETATM   30  C   UNL     1      -9.719   8.235  69.220  1.00  0.00    -0.177 C  
BRANCH  30  31
HETATM   31  C   UNL     1      -8.660   7.958  70.275  1.00  0.00    -0.137 C  
BRANCH  31  32
HETATM   32  C   UNL     1      -8.343   6.479  70.347  1.00  0.00    -0.127 C  
HETATM   33  N   UNL     1      -7.034   6.084  70.217  1.00  0.00    -0.060 N  
HETATM   34  O   UNL     1      -9.246   5.679  70.600  1.00  0.00    -0.147 OA 
HETATM   35  O   UNL     1      -6.122   6.908  69.530  1.00  0.00    -0.031 OA 
BRANCH  33  36
HETATM   36  C   UNL     1      -6.635   4.675  70.200  1.00  0.00    -0.036 C  
BRANCH  36  37
HETATM   37  C   UNL     1      -6.508   4.129  68.777  1.00  0.00    -0.037 C  
BRANCH  37  38
HETATM   38  C   UNL     1      -7.848   3.627  68.229  1.00  0.00    -0.067 C  
BRANCH  38  39
HETATM   39  C   UNL     1      -7.964   3.854  66.719  1.00  0.00    -0.096 C  
BRANCH  39  40
HETATM   40  C   UNL     1      -6.611   4.129  66.061  1.00  0.00    -0.041 C  
HETATM   41  N   UNL     1      -6.217   5.527  66.196  1.00  0.00    -0.033 NA 
HETATM   42  H2  UNL     1      -6.222   5.822  67.172  1.00  0.00     0.000 HD 
HETATM   43  H1  UNL     1      -5.314   5.710  65.756  1.00  0.00     0.000 HD 
ENDBRANCH  39  40
ENDBRANCH  38  39
ENDBRANCH  37  38
ENDBRANCH  36  37
ENDBRANCH  33  36
ENDBRANCH  31  32
ENDBRANCH  30  31
ENDBRANCH  28  30
ENDBRANCH  25  26
ENDBRANCH  24  25
ENDBRANCH  23  24
ENDBRANCH  22  23
ENDBRANCH  21  22
ENDBRANCH  19  21
ENDBRANCH  16  17
ENDBRANCH  15  16
ENDBRANCH  12  15
ENDBRANCH  10  11
ENDBRANCH   9  10
ENDBRANCH   8   9
ENDBRANCH   7   8
ENDBRANCH   6   7
ENDBRANCH   3   6
TORSDOF 23
ENDMDL
MODEL      361
REMARK 921   NORMALIZED FREE ENERGY PREDICTED BY IDOCK:    2.33 KCAL/MOL
REMARK 922        TOTAL FREE ENERGY PREDICTED BY IDOCK:    2.70 KCAL/MOL
REMARK 923 INTER-LIGAND FREE ENERGY PREDICTED BY IDOCK:   -7.33 KCAL/MOL
REMARK 924 INTRA-LIGAND FREE ENERGY PREDICTED BY IDOCK:   10.03 KCAL/MOL
REMARK 927      BINDING AFFINITY PREDICTED BY RF-SCORE:    0.00 PKD
ROOT
HETATM    1  C   UNL     1      -8.346   9.506  65.754  1.00  0.00    -0.132 C  
HETATM    2  C   UNL     1      -9.325   9.884  64.673  1.00  0.00    -0.277 C  
HETATM    3  N   UNL     1     -10.070  11.015  64.882  1.00  0.00    -0.278 N  
HETATM    4  O   UNL     1      -9.452   9.175  63.675  1.00  0.00     0.382 OA 
HETATM    5  O   UNL     1      -9.848  11.926  65.928  1.00  0.00    -0.227 OA 
ENDROOT
BRANCH   3   6
HETATM    6  C   UNL     1     -11.068  11.503  63.939  1.00  0.00    -0.380 C  
BRANCH   6   7
HETATM    7  C   UNL     1     -11.417  12.975  64.169  1.00  0.00    -0.452 C  
BRANCH   7   8
HETATM    8  C   UNL     1     -11.204  13.351  65.636  1.00  0.00    -0.307 C  
BRANCH   8   9
HETATM    9  C   UNL     1      -9.766  13.101  66.093  1.00  0.00    -0.254 C  
BRANCH   9  10
HETATM   10  C   UNL     1      -9.574  13.379  67.584  1.00  0.00    -0.219 C  
BRANCH  10  11
HETATM   11  N   UNL     1     -10.338  14.531  68.037  1.00  0.00    -0.227 N  
HETATM   12  C   UNL     1      -9.711  15.694  68.423  1.00  0.00    -0.202 C  
HETATM   13  H   UNL     1     -11.355  14.476  68.069  1.00  0.00     0.000 HD 
HETATM   14  O   UNL     1      -8.495  15.864  68.380  1.00  0.00    -0.165 OA 
BRANCH  12  15
HETATM   15  C   UNL     1     -10.673  16.762  68.898  1.00  0.00    -0.333 C  
BRANCH  15  16
HETATM   16  C   UNL     1     -11.966  16.129  69.404  1.00  0.00    -0.074 C  
BRANCH  16  17
HETATM   17  C   UNL     1     -11.767  15.360  70.696  1.00  0.00    -0.339 C  
HETATM   18  O   UNL     1     -10.653  14.965  71.035  1.00  0.00     0.057 OA 
HETATM   19  N   UNL     1     -12.897  15.109  71.431  1.00  0.00    -0.351 N  
HETATM   20  O   UNL     1     -14.172  15.621  71.137  1.00  0.00    -0.514 OA 
BRANCH  19  21
HETATM   21  C   UNL     1     -12.903  14.323  72.656  1.00  0.00    -0.378 C  
BRANCH  21  22
HETATM   22  C   UNL     1     -12.688  12.830  72.394  1.00  0.00     0.172 C  
BRANCH  22  23
HETATM   23  C   UNL     1     -13.300  12.360  71.061  1.00  0.00     0.351 C  
BRANCH  23  24
HETATM   24  C   UNL     1     -12.534  11.203  70.418  1.00  0.00    -0.382 C  
BRANCH  24  25
HETATM   25  C   UNL     1     -11.884  10.307  71.470  1.00  0.00    -0.204 C  
BRANCH  25  26
HETATM   26  N   UNL     1     -11.083   9.263  70.863  1.00  0.00    -0.279 N  
HETATM   27  H   UNL     1     -10.916   8.401  71.383  1.00  0.00     0.000 HD 
HETATM   28  C   UNL     1     -10.540   9.402  69.608  1.00  0.00    -0.225 C  
HETATM   29  O   UNL     1     -10.705  10.395  68.905  1.00  0.00    -0.197 OA 
BRANCH  28  30
HETATM   30  C   UNL     1      -9.709   8.232  69.150  1.00  0.00    -0.171 C  
BRANCH  30  31
HETATM   31  C   UNL     1      -8.634   7.935  70.184  1.00  0.00    -0.134 C  
BRANCH  31  32
HETATM   32  C   UNL     1      -8.326   6.453  70.234  1.00  0.00    -0.126 C  
HETATM   33  N   UNL     1      -9.363   5.565  70.083  1.00  0.00    -0.143 N  
HETATM   34  O   UNL     1      -7.154   6.082  70.324  1.00  0.00    -0.069 OA 
HETATM   35  O   UNL     1     -10.675   5.964  70.405  1.00  0.00    -0.259 OA 
BRANCH  33  36
HETATM   36  C   UNL     1      -9.179   4.116  70.189  1.00  0.00    -0.140 C  
BRANCH  36  37
HETATM   37  C   UNL     1      -9.483   3.596  71.595  1.00  0.00    -0.215 C  
BRANCH  37  38
HETATM   38  C   UNL     1      -8.266   3.692  72.522  1.00  0.00    -0.081 C  
BRANCH  38  39
HETATM   39  C   UNL     1      -8.678   3.979  73.969  1.00  0.00    -0.093 C  
BRANCH  39  40
HETATM   40  C   UNL     1     -10.159   3.694  74.226  1.00  0.00    -0.154 C  
HETATM   41  N   UNL     1     -11.005   4.807  73.810  1.00  0.00    -0.308 NA 
HETATM   42  H2  UNL     1     -10.838   5.056  72.835  1.00  0.00     0.000 HD 
HETATM   43  H1  UNL     1     -11.992   4.617  73.982  1.00  0.00     0.000 HD 
ENDBRANCH  39  40
ENDBRANCH  38  39
ENDBRANCH  37  38
ENDBRANCH  36  37
ENDBRANCH  33  36
ENDBRANCH  31  32
ENDBRANCH  30  31
ENDBRANCH  28  30
ENDBRANCH  25  26
ENDBRANCH  24  25
ENDBRANCH  23  24
ENDBRANCH  22  23
ENDBRANCH  21  22
ENDBRANCH  19  21
ENDBRANCH  16  17
ENDBRANCH  15  16
ENDBRANCH  12  15
ENDBRANCH  10  11
ENDBRANCH   9  10
ENDBRANCH   8   9
ENDBRANCH   7   8
ENDBRANCH   6   7
ENDBRANCH   3   6
TORSDOF 23
ENDMDL
MODEL      362
REMARK 921   NORMALIZED FREE ENERGY PREDICTED BY IDOCK:    2.49 KCAL/MOL
REMARK 922        TOTAL FREE ENERGY PREDICTED BY IDOCK:    3.09 KCAL/MOL
REMARK 923 INTER-LIGAND FREE ENERGY PREDICTED BY IDOCK:   -6.73 KCAL/MOL
REMARK 924 INTRA-LIGAND FREE ENERGY PREDICTED BY IDOCK:    9.83 KCAL/MOL
REMARK 927      BINDING AFFINITY PREDICTED BY RF-SCORE:    0.00 PKD
ROOT
HETATM    1  C   UNL     1      -8.343   9.416  65.689  1.00  0.00    -0.129 C  
HETATM    2  C   UNL     1      -9.369   9.792  64.652  1.00  0.00    -0.256 C  
HETATM    3  N   UNL     1     -10.119  10.911  64.901  1.00  0.00    -0.290 N  
HETATM    4  O   UNL     1      -9.528   9.090  63.652  1.00  0.00     0.550 OA 
HETATM    5  O   UNL     1      -9.866  11.815  65.947  1.00  0.00    -0.226 OA 
ENDROOT
BRANCH   3   6
HETATM    6  C   UNL     1     -11.160  11.395  64.004  1.00  0.00    -0.322 C  
BRANCH   6   7
HETATM    7  C   UNL     1     -11.536  12.852  64.279  1.00  0.00    -0.427 C  
BRANCH   7   8
HETATM    8  C   UNL     1     -11.323  13.189  65.756  1.00  0.00    -0.331 C  
BRANCH   8   9
HETATM    9  C   UNL     1      -9.871  12.979  66.191  1.00  0.00    -0.275 C  
BRANCH   9  10
HETATM   10  C   UNL     1      -9.681  13.179  67.695  1.00  0.00    -0.213 C  
BRANCH  10  11
HETATM   11  N   UNL     1     -10.440  14.311  68.206  1.00  0.00    -0.241 N  
HETATM   12  C   UNL     1      -9.806  15.432  68.693  1.00  0.00    -0.208 C  
HETATM   13  H   UNL     1     -11.459  14.273  68.202  1.00  0.00     0.000 HD 
HETATM   14  O   UNL     1      -8.587  15.580  68.700  1.00  0.00    -0.160 OA 
BRANCH  12  15
HETATM   15  C   UNL     1     -10.765  16.481  69.213  1.00  0.00    -0.331 C  
BRANCH  15  16
HETATM   16  C   UNL     1     -12.098  15.844  69.597  1.00  0.00    -0.216 C  
BRANCH  16  17
HETATM   17  C   UNL     1     -11.987  14.969  70.830  1.00  0.00    -0.318 C  
HETATM   18  O   UNL     1     -10.907  14.496  71.179  1.00  0.00     0.313 OA 
HETATM   19  N   UNL     1     -13.156  14.717  71.500  1.00  0.00    -0.331 N  
HETATM   20  O   UNL     1     -14.394  15.312  71.199  1.00  0.00    -0.441 OA 
BRANCH  19  21
HETATM   21  C   UNL     1     -13.249  13.841  72.658  1.00  0.00    -0.470 C  
BRANCH  21  22
HETATM   22  C   UNL     1     -12.716  12.434  72.371  1.00  0.00     0.435 C  
BRANCH  22  23
HETATM   23  C   UNL     1     -12.911  12.006  70.904  1.00  0.00    -0.205 C  
BRANCH  23  24
HETATM   24  C   UNL     1     -11.864  10.999  70.424  1.00  0.00    -0.460 C  
BRANCH  24  25
HETATM   25  C   UNL     1     -12.511   9.693  69.970  1.00  0.00     0.463 C  
BRANCH  25  26
HETATM   26  N   UNL     1     -11.581   8.583  70.041  1.00  0.00    -0.451 N  
HETATM   27  H   UNL     1     -11.677   7.813  69.379  1.00  0.00     0.000 HD 
HETATM   28  C   UNL     1     -10.575   8.539  70.976  1.00  0.00    -0.216 C  
HETATM   29  O   UNL     1     -10.374   9.428  71.797  1.00  0.00    -0.260 OA 
BRANCH  28  30
HETATM   30  C   UNL     1      -9.726   7.294  70.926  1.00  0.00    -0.170 C  
BRANCH  30  31
HETATM   31  C   UNL     1     -10.616   6.065  71.012  1.00  0.00    -0.305 C  
BRANCH  31  32
HETATM   32  C   UNL     1     -10.197   5.021  69.999  1.00  0.00    -0.269 C  
HETATM   33  N   UNL     1      -9.723   5.446  68.781  1.00  0.00    -0.133 N  
HETATM   34  O   UNL     1     -10.214   3.830  70.316  1.00  0.00     0.134 OA 
HETATM   35  O   UNL     1     -10.099   6.710  68.290  1.00  0.00    -0.146 OA 
BRANCH  33  36
HETATM   36  C   UNL     1      -9.362   4.514  67.710  1.00  0.00    -0.147 C  
BRANCH  36  37
HETATM   37  C   UNL     1      -8.281   5.085  66.790  1.00  0.00    -0.107 C  
BRANCH  37  38
HETATM   38  C   UNL     1      -8.803   5.331  65.370  1.00  0.00    -0.152 C  
BRANCH  38  39
HETATM   39  C   UNL     1     -10.214   4.765  65.181  1.00  0.00     0.026 C  
BRANCH  39  40
HETATM   40  C   UNL     1     -10.277   3.696  64.089  1.00  0.00    -0.231 C  
HETATM   41  N   UNL     1     -10.369   2.353  64.651  1.00  0.00    -0.222 NA 
HETATM   42  H2  UNL     1     -11.156   2.274  65.295  1.00  0.00     0.000 HD 
HETATM   43  H1  UNL     1     -10.411   1.640  63.923  1.00  0.00     0.000 HD 
ENDBRANCH  39  40
ENDBRANCH  38  39
ENDBRANCH  37  38
ENDBRANCH  36  37
ENDBRANCH  33  36
ENDBRANCH  31  32
ENDBRANCH  30  31
ENDBRANCH  28  30
ENDBRANCH  25  26
ENDBRANCH  24  25
ENDBRANCH  23  24
ENDBRANCH  22  23
ENDBRANCH  21  22
ENDBRANCH  19  21
ENDBRANCH  16  17
ENDBRANCH  15  16
ENDBRANCH  12  15
ENDBRANCH  10  11
ENDBRANCH   9  10
ENDBRANCH   8   9
ENDBRANCH   7   8
ENDBRANCH   6   7
ENDBRANCH   3   6
TORSDOF 23
ENDMDL
MODEL      363
REMARK 921   NORMALIZED FREE ENERGY PREDICTED BY IDOCK:    2.87 KCAL/MOL
REMARK 922        TOTAL FREE ENERGY PREDICTED BY IDOCK:    3.98 KCAL/MOL
REMARK 923 INTER-LIGAND FREE ENERGY PREDICTED BY IDOCK:   -8.04 KCAL/MOL
REMARK 924 INTRA-LIGAND FREE ENERGY PREDICTED BY IDOCK:   12.02 KCAL/MOL
REMARK 927      BINDING AFFINITY PREDICTED BY RF-SCORE:    0.00 PKD
ROOT
HETATM    1  C   UNL     1      -9.037  10.701  65.633  1.00  0.00    -0.206 C  
HETATM    2  C   UNL     1      -9.971  11.233  64.578  1.00  0.00    -0.284 C  
HETATM    3  N   UNL     1     -10.497  12.480  64.789  1.00  0.00    -0.299 N  
HETATM    4  O   UNL     1     -10.256  10.545  63.597  1.00  0.00    -0.257 OA 
HETATM    5  O   UNL     1     -10.081  13.351  65.810  1.00  0.00    -0.289 OA 
ENDROOT
BRANCH   3   6
HETATM    6  C   UNL     1     -11.426  13.125  63.870  1.00  0.00    -0.401 C  
BRANCH   6   7
HETATM    7  C   UNL     1     -11.575  14.622  64.147  1.00  0.00    -0.118 C  
BRANCH   7   8
HETATM    8  C   UNL     1     -11.185  14.940  65.592  1.00  0.00    -0.347 C  
BRANCH   8   9
HETATM    9  C   UNL     1      -9.766  14.475  65.920  1.00  0.00    -0.324 C  
BRANCH   9  10
HETATM   10  C   UNL     1      -9.541  14.318  67.425  1.00  0.00    -0.214 C  
BRANCH  10  11
HETATM   11  N   UNL     1     -10.254  15.321  68.201  1.00  0.00    -0.228 N  
HETATM   12  C   UNL     1      -9.577  16.241  68.970  1.00  0.00    -0.257 C  
HETATM   13  H   UNL     1     -11.273  15.343  68.174  1.00  0.00     0.000 HD 
HETATM   14  O   UNL     1      -8.353  16.315  69.031  1.00  0.00    -0.232 OA 
BRANCH  12  15
HETATM   15  C   UNL     1     -10.495  17.174  69.731  1.00  0.00     0.077 C  
BRANCH  15  16
HETATM   16  C   UNL     1     -11.893  16.571  69.847  1.00  0.00     0.448 C  
BRANCH  16  17
HETATM   17  C   UNL     1     -11.924  15.355  70.753  1.00  0.00    -0.359 C  
HETATM   18  O   UNL     1     -10.895  14.744  71.034  1.00  0.00    -0.017 OA 
HETATM   19  N   UNL     1     -13.160  14.969  71.205  1.00  0.00    -0.383 N  
HETATM   20  O   UNL     1     -14.349  15.689  70.994  1.00  0.00    -0.428 OA 
BRANCH  19  21
HETATM   21  C   UNL     1     -13.387  13.786  72.021  1.00  0.00    -0.447 C  
BRANCH  21  22
HETATM   22  C   UNL     1     -12.604  12.570  71.518  1.00  0.00    -0.253 C  
BRANCH  22  23
HETATM   23  C   UNL     1     -13.280  11.232  71.871  1.00  0.00    -0.491 C  
BRANCH  23  24
HETATM   24  C   UNL     1     -12.904  10.095  70.920  1.00  0.00    -0.442 C  
BRANCH  24  25
HETATM   25  C   UNL     1     -12.488   8.839  71.684  1.00  0.00    -0.339 C  
BRANCH  25  26
HETATM   26  N   UNL     1     -11.377   8.166  71.042  1.00  0.00    -0.266 N  
HETATM   27  H   UNL     1     -11.478   7.853  70.076  1.00  0.00     0.000 HD 
HETATM   28  C   UNL     1     -10.190   7.937  71.698  1.00  0.00    -0.192 C  
HETATM   29  O   UNL     1      -9.974   8.296  72.851  1.00  0.00    -0.284 OA 
BRANCH  28  30
HETATM   30  C   UNL     1      -9.159   7.195  70.888  1.00  0.00    -0.152 C  
BRANCH  30  31
HETATM   31  C   UNL     1      -9.741   5.876  70.406  1.00  0.00    -0.217 C  
BRANCH  31  32
HETATM   32  C   UNL     1      -9.269   5.555  69.004  1.00  0.00    -0.119 C  
HETATM   33  N   UNL     1      -9.047   6.596  68.135  1.00  0.00    -0.120 N  
HETATM   34  O   UNL     1      -9.018   4.387  68.703  1.00  0.00    -0.103 OA 
HETATM   35  O   UNL     1      -9.715   7.820  68.329  1.00  0.00    -0.153 OA 
BRANCH  33  36
HETATM   36  C   UNL     1      -8.659   6.386  66.739  1.00  0.00    -0.113 C  
BRANCH  36  37
HETATM   37  C   UNL     1      -7.826   7.546  66.190  1.00  0.00    -0.096 C  
BRANCH  37  38
HETATM   38  C   UNL     1      -7.234   7.230  64.812  1.00  0.00    -0.072 C  
BRANCH  38  39
HETATM   39  C   UNL     1      -6.206   6.098  64.885  1.00  0.00    -0.030 C  
BRANCH  39  40
HETATM   40  C   UNL     1      -5.810   5.753  66.321  1.00  0.00    -0.018 C  
HETATM   41  N   UNL     1      -5.412   6.940  67.072  1.00  0.00    -0.016 NA 
HETATM   42  H2  UNL     1      -6.137   7.656  67.047  1.00  0.00     0.000 HD 
HETATM   43  H1  UNL     1      -5.147   6.710  68.030  1.00  0.00     0.000 HD 
ENDBRANCH  39  40
ENDBRANCH  38  39
ENDBRANCH  37  38
ENDBRANCH  36  37
ENDBRANCH  33  36
ENDBRANCH  31  32
ENDBRANCH  30  31
ENDBRANCH  28  30
ENDBRANCH  25  26
ENDBRANCH  24  25
ENDBRANCH  23  24
ENDBRANCH  22  23
ENDBRANCH  21  22
ENDBRANCH  19  21
ENDBRANCH  16  17
ENDBRANCH  15  16
ENDBRANCH  12  15
ENDBRANCH  10  11
ENDBRANCH   9  10
ENDBRANCH   8   9
ENDBRANCH   7   8
ENDBRANCH   6   7
ENDBRANCH   3   6
TORSDOF 23
ENDMDL
MODEL      364
REMARK 921   NORMALIZED FREE ENERGY PREDICTED BY IDOCK:    3.20 KCAL/MOL
REMARK 922        TOTAL FREE ENERGY PREDICTED BY IDOCK:    4.75 KCAL/MOL
REMARK 923 INTER-LIGAND FREE ENERGY PREDICTED BY IDOCK:   -5.91 KCAL/MOL
REMARK 924 INTRA-LIGAND FREE ENERGY PREDICTED BY IDOCK:   10.66 KCAL/MOL
REMARK 927      BINDING AFFINITY PREDICTED BY RF-SCORE:    0.00 PKD
ROOT
HETATM    1  C   UNL     1      -9.019  10.713  65.623  1.00  0.00    -0.203 C  
HETATM    2  C   UNL     1      -9.916  11.300  64.564  1.00  0.00    -0.284 C  
HETATM    3  N   UNL     1     -10.313  12.599  64.741  1.00  0.00    -0.309 N  
HETATM    4  O   UNL     1     -10.286  10.612  63.612  1.00  0.00    -0.310 OA 
HETATM    5  O   UNL     1      -9.794  13.457  65.725  1.00  0.00    -0.266 OA 
ENDROOT
BRANCH   3   6
HETATM    6  C   UNL     1     -11.190  13.303  63.815  1.00  0.00    -0.191 C  
BRANCH   6   7
HETATM    7  C   UNL     1     -11.474  14.739  64.258  1.00  0.00    -0.159 C  
BRANCH   7   8
HETATM    8  C   UNL     1     -11.180  14.907  65.750  1.00  0.00    -0.334 C  
BRANCH   8   9
HETATM    9  C   UNL     1      -9.695  14.718  66.068  1.00  0.00    -0.350 C  
BRANCH   9  10
HETATM   10  C   UNL     1      -9.456  14.380  67.540  1.00  0.00    -0.207 C  
BRANCH  10  11
HETATM   11  N   UNL     1     -10.370  15.084  68.427  1.00  0.00    -0.227 N  
HETATM   12  C   UNL     1      -9.910  16.013  69.333  1.00  0.00    -0.254 C  
HETATM   13  H   UNL     1     -11.369  14.885  68.376  1.00  0.00     0.000 HD 
HETATM   14  O   UNL     1      -8.732  16.343  69.436  1.00  0.00    -0.174 OA 
BRANCH  12  15
HETATM   15  C   UNL     1     -11.008  16.606  70.190  1.00  0.00    -0.110 C  
BRANCH  15  16
HETATM   16  C   UNL     1     -12.232  15.693  70.198  1.00  0.00    -0.387 C  
BRANCH  16  17
HETATM   17  C   UNL     1     -11.958  14.365  70.878  1.00  0.00    -0.327 C  
HETATM   18  O   UNL     1     -10.810  13.948  71.021  1.00  0.00     1.256 OA 
HETATM   19  N   UNL     1     -13.059  13.657  71.286  1.00  0.00    -0.312 N  
HETATM   20  O   UNL     1     -14.380  14.133  71.235  1.00  0.00    -0.193 OA 
BRANCH  19  21
HETATM   21  C   UNL     1     -12.988  12.333  71.888  1.00  0.00    -0.305 C  
BRANCH  21  22
HETATM   22  C   UNL     1     -12.036  11.399  71.135  1.00  0.00    -0.197 C  
BRANCH  22  23
HETATM   23  C   UNL     1     -12.049   9.960  71.684  1.00  0.00    -0.457 C  
BRANCH  23  24
HETATM   24  C   UNL     1     -11.683   8.909  70.635  1.00  0.00    -0.212 C  
BRANCH  24  25
HETATM   25  C   UNL     1     -10.638   7.929  71.163  1.00  0.00    -0.213 C  
BRANCH  25  26
HETATM   26  N   UNL     1      -9.694   7.546  70.132  1.00  0.00    -0.172 N  
HETATM   27  H   UNL     1      -9.268   6.620  70.170  1.00  0.00     0.000 HD 
HETATM   28  C   UNL     1      -9.357   8.396  69.105  1.00  0.00    -0.151 C  
HETATM   29  O   UNL     1      -9.835   9.518  68.970  1.00  0.00    -0.166 OA 
BRANCH  28  30
HETATM   30  C   UNL     1      -8.336   7.844  68.144  1.00  0.00    -0.124 C  
BRANCH  30  31
HETATM   31  C   UNL     1      -7.089   7.428  68.909  1.00  0.00    -0.080 C  
BRANCH  31  32
HETATM   32  C   UNL     1      -6.507   6.150  68.340  1.00  0.00    -0.053 C  
HETATM   33  N   UNL     1      -7.367   5.221  67.808  1.00  0.00    -0.075 N  
HETATM   34  O   UNL     1      -5.283   6.012  68.294  1.00  0.00    -0.003 OA 
HETATM   35  O   UNL     1      -8.708   5.186  68.237  1.00  0.00    -0.102 OA 
BRANCH  33  36
HETATM   36  C   UNL     1      -6.909   3.925  67.302  1.00  0.00    -0.051 C  
BRANCH  36  37
HETATM   37  C   UNL     1      -7.817   3.385  66.195  1.00  0.00    -0.085 C  
BRANCH  37  38
HETATM   38  C   UNL     1      -7.224   2.146  65.516  1.00  0.00    -0.057 C  
BRANCH  38  39
HETATM   39  C   UNL     1      -5.930   2.476  64.765  1.00  0.00    -0.018 C  
BRANCH  39  40
HETATM   40  C   UNL     1      -5.683   3.982  64.654  1.00  0.00    -0.014 C  
HETATM   41  N   UNL     1      -6.520   4.592  63.626  1.00  0.00    -0.029 NA 
HETATM   42  H2  UNL     1      -7.507   4.388  63.781  1.00  0.00     0.000 HD 
HETATM   43  H1  UNL     1      -6.355   5.596  63.552  1.00  0.00     0.000 HD 
ENDBRANCH  39  40
ENDBRANCH  38  39
ENDBRANCH  37  38
ENDBRANCH  36  37
ENDBRANCH  33  36
ENDBRANCH  31  32
ENDBRANCH  30  31
ENDBRANCH  28  30
ENDBRANCH  25  26
ENDBRANCH  24  25
ENDBRANCH  23  24
ENDBRANCH  22  23
ENDBRANCH  21  22
ENDBRANCH  19  21
ENDBRANCH  16  17
ENDBRANCH  15  16
ENDBRANCH  12  15
ENDBRANCH  10  11
ENDBRANCH   9  10
ENDBRANCH   8   9
ENDBRANCH   7   8
ENDBRANCH   6   7
ENDBRANCH   3   6
TORSDOF 23
ENDMDL
MODEL      365
REMARK 921   NORMALIZED FREE ENERGY PREDICTED BY IDOCK:    4.02 KCAL/MOL
REMARK 922        TOTAL FREE ENERGY PREDICTED BY IDOCK:    6.68 KCAL/MOL
REMARK 923 INTER-LIGAND FREE ENERGY PREDICTED BY IDOCK:    3.04 KCAL/MOL
REMARK 924 INTRA-LIGAND FREE ENERGY PREDICTED BY IDOCK:    3.64 KCAL/MOL
REMARK 927      BINDING AFFINITY PREDICTED BY RF-SCORE:    0.00 PKD
ROOT
HETATM    1  C   UNL     1      -8.978  20.744  68.169  1.00  0.00     0.290 C  
HETATM    2  C   UNL     1     -10.113  19.755  68.231  1.00  0.00    -0.458 C  
HETATM    3  N   UNL     1     -10.150  18.923  69.318  1.00  0.00    -0.194 N  
HETATM    4  O   UNL     1     -10.936  19.697  67.316  1.00  0.00    -0.464 OA 
HETATM    5  O   UNL     1      -9.323  19.059  70.446  1.00  0.00     1.396 OA 
ENDROOT
BRANCH   3   6
HETATM    6  C   UNL     1     -11.173  17.904  69.514  1.00  0.00     1.848 C  
BRANCH   6   7
HETATM    7  C   UNL     1     -11.397  17.580  70.992  1.00  0.00     2.131 C  
BRANCH   7   8
HETATM    8  C   UNL     1     -12.164  16.265  71.140  1.00  0.00     0.005 C  
BRANCH   8   9
HETATM    9  C   UNL     1     -11.927  15.324  69.957  1.00  0.00    -0.375 C  
BRANCH   9  10
HETATM   10  C   UNL     1     -11.149  14.071  70.360  1.00  0.00     0.336 C  
BRANCH  10  11
HETATM   11  N   UNL     1      -9.958  13.871  69.547  1.00  0.00    -0.179 N  
HETATM   12  C   UNL     1      -9.954  12.980  68.497  1.00  0.00    -0.172 C  
HETATM   13  H   UNL     1      -9.113  14.400  69.759  1.00  0.00     0.000 HD 
HETATM   14  O   UNL     1     -10.935  12.331  68.145  1.00  0.00    -0.208 OA 
BRANCH  12  15
HETATM   15  C   UNL     1      -8.614  12.886  67.799  1.00  0.00    -0.185 C  
BRANCH  15  16
HETATM   16  C   UNL     1      -7.519  12.511  68.795  1.00  0.00    -0.049 C  
BRANCH  16  17
HETATM   17  C   UNL     1      -7.851  11.252  69.572  1.00  0.00     0.259 C  
HETATM   18  O   UNL     1      -8.881  10.619  69.348  1.00  0.00    -0.127 OA 
HETATM   19  N   UNL     1      -6.957  10.890  70.547  1.00  0.00     0.389 N  
HETATM   20  O   UNL     1      -5.721  11.521  70.773  1.00  0.00    -0.240 OA 
BRANCH  19  21
HETATM   21  C   UNL     1      -7.151   9.755  71.437  1.00  0.00     0.554 C  
BRANCH  21  22
HETATM   22  C   UNL     1      -5.948   8.808  71.448  1.00  0.00    -0.052 C  
BRANCH  22  23
HETATM   23  C   UNL     1      -5.876   7.944  72.722  1.00  0.00    -0.046 C  
BRANCH  23  24
HETATM   24  C   UNL     1      -5.858   6.442  72.433  1.00  0.00    -0.038 C  
BRANCH  24  25
HETATM   25  C   UNL     1      -7.024   6.029  71.539  1.00  0.00    -0.076 C  
BRANCH  25  26
HETATM   26  N   UNL     1      -8.293   6.128  72.233  1.00  0.00    -0.113 N  
HETATM   27  H   UNL     1      -9.150   6.218  71.688  1.00  0.00     0.000 HD 
HETATM   28  C   UNL     1      -8.372   6.105  73.605  1.00  0.00    -0.117 C  
HETATM   29  O   UNL     1      -7.396   5.981  74.338  1.00  0.00    -0.087 OA 
BRANCH  28  30
HETATM   30  C   UNL     1      -9.768   6.255  74.155  1.00  0.00    -0.244 C  
BRANCH  30  31
HETATM   31  C   UNL     1     -10.697   5.271  73.461  1.00  0.00    -0.337 C  
BRANCH  31  32
HETATM   32  C   UNL     1      -9.908   4.249  72.669  1.00  0.00    -0.149 C  
HETATM   33  N   UNL     1     -10.019   4.256  71.300  1.00  0.00    -0.182 N  
HETATM   34  O   UNL     1      -9.131   3.496  73.259  1.00  0.00    -0.097 OA 
HETATM   35  O   UNL     1     -11.173   4.791  70.697  1.00  0.00     0.787 OA 
BRANCH  33  36
HETATM   36  C   UNL     1      -9.354   3.264  70.452  1.00  0.00    -0.167 C  
BRANCH  36  37
HETATM   37  C   UNL     1      -8.984   3.833  69.081  1.00  0.00    -0.176 C  
BRANCH  37  38
HETATM   38  C   UNL     1      -9.249   5.339  68.990  1.00  0.00    -0.152 C  
BRANCH  38  39
HETATM   39  C   UNL     1      -9.972   5.709  67.692  1.00  0.00    -0.177 C  
BRANCH  39  40
HETATM   40  C   UNL     1      -9.861   7.197  67.359  1.00  0.00    -0.155 C  
HETATM   41  N   UNL     1     -10.364   7.492  66.022  1.00  0.00     0.055 NA 
HETATM   42  H2  UNL     1     -11.319   7.154  65.901  1.00  0.00     0.000 HD 
HETATM   43  H1  UNL     1     -10.290   8.485  65.800  1.00  0.00     0.000 HD 
ENDBRANCH  39  40
ENDBRANCH  38  39
ENDBRANCH  37  38
ENDBRANCH  36  37
ENDBRANCH  33  36
ENDBRANCH  31  32
ENDBRANCH  30  31
ENDBRANCH  28  30
ENDBRANCH  25  26
ENDBRANCH  24  25
ENDBRANCH  23  24
ENDBRANCH  22  23
ENDBRANCH  21  22
ENDBRANCH  19  21
ENDBRANCH  16  17
ENDBRANCH  15  16
ENDBRANCH  12  15
ENDBRANCH  10  11
ENDBRANCH   9  10
ENDBRANCH   8   9
ENDBRANCH   7   8
ENDBRANCH   6   7
ENDBRANCH   3   6
TORSDOF 23
ENDMDL
MODEL      366
REMARK 921   NORMALIZED FREE ENERGY PREDICTED BY IDOCK:    4.26 KCAL/MOL
REMARK 922        TOTAL FREE ENERGY PREDICTED BY IDOCK:    7.23 KCAL/MOL
REMARK 923 INTER-LIGAND FREE ENERGY PREDICTED BY IDOCK:   -1.67 KCAL/MOL
REMARK 924 INTRA-LIGAND FREE ENERGY PREDICTED BY IDOCK:    8.90 KCAL/MOL
REMARK 927      BINDING AFFINITY PREDICTED BY RF-SCORE:    0.00 PKD
ROOT
HETATM    1  C   UNL     1     -10.484   1.911  67.334  1.00  0.00     3.091 C  
HETATM    2  C   UNL     1      -9.194   2.535  67.799  1.00  0.00    -0.197 C  
HETATM    3  N   UNL     1      -9.000   3.856  67.493  1.00  0.00    -0.123 N  
HETATM    4  O   UNL     1      -8.356   1.857  68.394  1.00  0.00    -0.056 OA 
HETATM    5  O   UNL     1      -9.988   4.695  66.953  1.00  0.00    -0.199 OA 
ENDROOT
BRANCH   3   6
HETATM    6  C   UNL     1      -7.799   4.596  67.859  1.00  0.00    -0.082 C  
BRANCH   6   7
HETATM    7  C   UNL     1      -7.760   5.991  67.231  1.00  0.00    -0.097 C  
BRANCH   7   8
HETATM    8  C   UNL     1      -6.895   5.985  65.970  1.00  0.00    -0.061 C  
BRANCH   8   9
HETATM    9  C   UNL     1      -5.520   5.362  66.218  1.00  0.00    -0.013 C  
BRANCH   9  10
HETATM   10  C   UNL     1      -5.131   5.386  67.697  1.00  0.00    -0.004 C  
BRANCH  10  11
HETATM   11  N   UNL     1      -6.266   5.655  68.566  1.00  0.00    -0.031 N  
HETATM   12  C   UNL     1      -6.496   6.916  69.068  1.00  0.00    -0.036 C  
HETATM   13  H   UNL     1      -6.903   4.896  68.807  1.00  0.00     0.000 HD 
HETATM   14  O   UNL     1      -5.806   7.896  68.800  1.00  0.00    -0.033 OA 
BRANCH  12  15
HETATM   15  C   UNL     1      -7.701   6.985  69.981  1.00  0.00    -0.104 C  
BRANCH  15  16
HETATM   16  C   UNL     1      -7.281   6.792  71.436  1.00  0.00    -0.081 C  
BRANCH  16  17
HETATM   17  C   UNL     1      -7.227   8.100  72.201  1.00  0.00    -0.091 C  
HETATM   18  O   UNL     1      -8.061   8.984  72.010  1.00  0.00    -0.360 OA 
HETATM   19  N   UNL     1      -6.186   8.244  73.081  1.00  0.00    -0.080 N  
HETATM   20  O   UNL     1      -5.268   7.229  73.406  1.00  0.00    -0.041 OA 
BRANCH  19  21
HETATM   21  C   UNL     1      -5.936   9.458  73.843  1.00  0.00     0.210 C  
BRANCH  21  22
HETATM   22  C   UNL     1      -5.271  10.551  73.002  1.00  0.00     0.343 C  
BRANCH  22  23
HETATM   23  C   UNL     1      -5.132  10.164  71.517  1.00  0.00    -0.081 C  
BRANCH  23  24
HETATM   24  C   UNL     1      -6.390  10.450  70.697  1.00  0.00    -0.064 C  
BRANCH  24  25
HETATM   25  C   UNL     1      -6.122  11.478  69.599  1.00  0.00    -0.114 C  
BRANCH  25  26
HETATM   26  N   UNL     1      -7.354  11.981  69.025  1.00  0.00    -0.273 N  
HETATM   27  H   UNL     1      -7.925  12.630  69.568  1.00  0.00     0.000 HD 
HETATM   28  C   UNL     1      -7.775  11.609  67.771  1.00  0.00    -0.126 C  
HETATM   29  O   UNL     1      -7.144  10.851  67.041  1.00  0.00    -0.096 OA 
BRANCH  28  30
HETATM   30  C   UNL     1      -9.095  12.203  67.350  1.00  0.00    -0.181 C  
BRANCH  30  31
HETATM   31  C   UNL     1      -9.637  13.082  68.466  1.00  0.00    -0.113 C  
BRANCH  31  32
HETATM   32  C   UNL     1     -10.136  14.404  67.920  1.00  0.00    -0.228 C  
HETATM   33  N   UNL     1      -9.364  15.524  68.113  1.00  0.00    -0.196 N  
HETATM   34  O   UNL     1     -11.171  14.429  67.250  1.00  0.00    -0.300 OA 
HETATM   35  O   UNL     1      -8.460  15.570  69.191  1.00  0.00    -0.211 OA 
BRANCH  33  36
HETATM   36  C   UNL     1      -9.794  16.857  67.686  1.00  0.00    -0.259 C  
BRANCH  36  37
HETATM   37  C   UNL     1      -8.959  17.387  66.519  1.00  0.00    -0.285 C  
BRANCH  37  38
HETATM   38  C   UNL     1      -8.314  18.740  66.837  1.00  0.00    -0.277 C  
BRANCH  38  39
HETATM   39  C   UNL     1      -8.157  18.950  68.346  1.00  0.00    -0.376 C  
BRANCH  39  40
HETATM   40  C   UNL     1      -6.697  18.894  68.799  1.00  0.00    -0.278 C  
HETATM   41  N   UNL     1      -6.084  17.607  68.488  1.00  0.00    -0.175 NA 
HETATM   42  H2  UNL     1      -6.174  17.382  67.498  1.00  0.00     0.000 HD 
HETATM   43  H1  UNL     1      -5.110  17.569  68.791  1.00  0.00     0.000 HD 
ENDBRANCH  39  40
ENDBRANCH  38  39
ENDBRANCH  37  38
ENDBRANCH  36  37
ENDBRANCH  33  36
ENDBRANCH  31  32
ENDBRANCH  30  31
ENDBRANCH  28  30
ENDBRANCH  25  26
ENDBRANCH  24  25
ENDBRANCH  23  24
ENDBRANCH  22  23
ENDBRANCH  21  22
ENDBRANCH  19  21
ENDBRANCH  16  17
ENDBRANCH  15  16
ENDBRANCH  12  15
ENDBRANCH  10  11
ENDBRANCH   9  10
ENDBRANCH   8   9
ENDBRANCH   7   8
ENDBRANCH   6   7
ENDBRANCH   3   6
TORSDOF 23
ENDMDL
MODEL      367
REMARK 921   NORMALIZED FREE ENERGY PREDICTED BY IDOCK:    5.31 KCAL/MOL
REMARK 922        TOTAL FREE ENERGY PREDICTED BY IDOCK:    9.70 KCAL/MOL
REMARK 923 INTER-LIGAND FREE ENERGY PREDICTED BY IDOCK:   -1.08 KCAL/MOL
REMARK 924 INTRA-LIGAND FREE ENERGY PREDICTED BY IDOCK:   10.78 KCAL/MOL
REMARK 927      BINDING AFFINITY PREDICTED BY RF-SCORE:    0.00 PKD
ROOT
HETATM    1  C   UNL     1     -10.492   1.917  67.338  1.00  0.00     3.091 C  
HETATM    2  C   UNL     1      -9.226   2.569  67.829  1.00  0.00    -0.197 C  
HETATM    3  N   UNL     1      -9.064   3.899  67.543  1.00  0.00    -0.139 N  
HETATM    4  O   UNL     1      -8.378   1.906  68.428  1.00  0.00    -0.056 OA 
HETATM    5  O   UNL     1     -10.068   4.718  67.000  1.00  0.00    -0.202 OA 
ENDROOT
BRANCH   3   6
HETATM    6  C   UNL     1      -7.890   4.666  67.936  1.00  0.00    -0.082 C  
BRANCH   6   7
HETATM    7  C   UNL     1      -7.885   6.073  67.333  1.00  0.00    -0.102 C  
BRANCH   7   8
HETATM    8  C   UNL     1      -6.999   6.116  66.086  1.00  0.00    -0.066 C  
BRANCH   8   9
HETATM    9  C   UNL     1      -5.611   5.529  66.346  1.00  0.00    -0.017 C  
BRANCH   9  10
HETATM   10  C   UNL     1      -5.255   5.516  67.833  1.00  0.00    -0.004 C  
BRANCH  10  11
HETATM   11  N   UNL     1      -6.420   5.706  68.685  1.00  0.00    -0.041 N  
HETATM   12  C   UNL     1      -6.719   6.939  69.218  1.00  0.00    -0.050 C  
HETATM   13  H   UNL     1      -7.025   4.910  68.889  1.00  0.00     0.000 HD 
HETATM   14  O   UNL     1      -6.071   7.958  68.994  1.00  0.00    -0.037 OA 
BRANCH  12  15
HETATM   15  C   UNL     1      -7.945   6.924  70.106  1.00  0.00    -0.115 C  
BRANCH  15  16
HETATM   16  C   UNL     1      -7.547   6.707  71.564  1.00  0.00    -0.089 C  
BRANCH  16  17
HETATM   17  C   UNL     1      -7.574   7.992  72.368  1.00  0.00    -0.112 C  
HETATM   18  O   UNL     1      -8.130   9.000  71.937  1.00  0.00    -0.359 OA 
HETATM   19  N   UNL     1      -6.920   7.964  73.573  1.00  0.00    -0.095 N  
HETATM   20  O   UNL     1      -6.357   6.813  74.151  1.00  0.00    -0.067 OA 
BRANCH  19  21
HETATM   21  C   UNL     1      -6.782   9.125  74.441  1.00  0.00     0.203 C  
BRANCH  21  22
HETATM   22  C   UNL     1      -5.713  10.102  73.944  1.00  0.00     0.587 C  
BRANCH  22  23
HETATM   23  C   UNL     1      -5.145   9.721  72.564  1.00  0.00    -0.050 C  
BRANCH  23  24
HETATM   24  C   UNL     1      -5.993  10.233  71.399  1.00  0.00     0.184 C  
BRANCH  24  25
HETATM   25  C   UNL     1      -5.235  11.263  70.564  1.00  0.00    -0.106 C  
BRANCH  25  26
HETATM   26  N   UNL     1      -6.121  11.991  69.679  1.00  0.00    -0.116 N  
HETATM   27  H   UNL     1      -6.735  12.707  70.070  1.00  0.00     0.000 HD 
HETATM   28  C   UNL     1      -6.159  11.745  68.327  1.00  0.00    -0.049 C  
HETATM   29  O   UNL     1      -5.444  10.918  67.769  1.00  0.00    -0.040 OA 
BRANCH  28  30
HETATM   30  C   UNL     1      -7.164  12.571  67.566  1.00  0.00    -0.147 C  
BRANCH  30  31
HETATM   31  C   UNL     1      -8.069  11.655  66.756  1.00  0.00    -0.150 C  
BRANCH  31  32
HETATM   32  C   UNL     1      -9.518  12.072  66.889  1.00  0.00    -0.203 C  
HETATM   33  N   UNL     1     -10.338  11.336  67.710  1.00  0.00    -0.178 N  
HETATM   34  O   UNL     1      -9.905  13.098  66.327  1.00  0.00    -0.275 OA 
HETATM   35  O   UNL     1     -10.024   9.991  67.984  1.00  0.00    -0.143 OA 
BRANCH  33  36
HETATM   36  C   UNL     1     -11.769  11.615  67.847  1.00  0.00    -0.259 C  
BRANCH  36  37
HETATM   37  C   UNL     1     -12.158  11.934  69.292  1.00  0.00    -0.270 C  
BRANCH  37  38
HETATM   38  C   UNL     1     -12.709  10.707  70.026  1.00  0.00    -0.157 C  
BRANCH  38  39
HETATM   39  C   UNL     1     -11.812  10.300  71.199  1.00  0.00    -0.455 C  
BRANCH  39  40
HETATM   40  C   UNL     1     -10.651   9.402  70.768  1.00  0.00    -0.303 C  
HETATM   41  N   UNL     1     -10.976   8.637  69.568  1.00  0.00    -0.416 NA 
HETATM   42  H2  UNL     1     -11.275   9.248  68.808  1.00  0.00     0.000 HD 
HETATM   43  H1  UNL     1     -10.202   8.038  69.281  1.00  0.00     0.000 HD 
ENDBRANCH  39  40
ENDBRANCH  38  39
ENDBRANCH  37  38
ENDBRANCH  36  37
ENDBRANCH  33  36
ENDBRANCH  31  32
ENDBRANCH  30  31
ENDBRANCH  28  30
ENDBRANCH  25  26
ENDBRANCH  24  25
ENDBRANCH  23  24
ENDBRANCH  22  23
ENDBRANCH  21  22
ENDBRANCH  19  21
ENDBRANCH  16  17
ENDBRANCH  15  16
ENDBRANCH  12  15
ENDBRANCH  10  11
ENDBRANCH   9  10
ENDBRANCH   8   9
ENDBRANCH   7   8
ENDBRANCH   6   7
ENDBRANCH   3   6
TORSDOF 23
ENDMDL
MODEL      368
REMARK 921   NORMALIZED FREE ENERGY PREDICTED BY IDOCK:    6.14 KCAL/MOL
REMARK 922        TOTAL FREE ENERGY PREDICTED BY IDOCK:   11.63 KCAL/MOL
REMARK 923 INTER-LIGAND FREE ENERGY PREDICTED BY IDOCK:    6.93 KCAL/MOL
REMARK 924 INTRA-LIGAND FREE ENERGY PREDICTED BY IDOCK:    4.70 KCAL/MOL
REMARK 927      BINDING AFFINITY PREDICTED BY RF-SCORE:    0.00 PKD
ROOT
HETATM    1  C   UNL     1      -9.794  14.786  70.445  1.00  0.00     0.756 C  
HETATM    2  C   UNL     1     -10.626  15.945  69.961  1.00  0.00    -0.316 C  
HETATM    3  N   UNL     1     -10.268  17.191  70.403  1.00  0.00     0.899 N  
HETATM    4  O   UNL     1     -11.597  15.749  69.228  1.00  0.00    -0.333 OA 
HETATM    5  O   UNL     1      -9.086  17.469  71.111  1.00  0.00     5.883 OA 
ENDROOT
BRANCH   3   6
HETATM    6  C   UNL     1     -10.981  18.407  70.037  1.00  0.00     2.409 C  
BRANCH   6   7
HETATM    7  C   UNL     1     -10.091  19.404  69.293  1.00  0.00    -0.243 C  
BRANCH   7   8
HETATM    8  C   UNL     1     -10.249  19.235  67.780  1.00  0.00    -0.507 C  
BRANCH   8   9
HETATM    9  C   UNL     1      -8.969  19.597  67.024  1.00  0.00    -0.383 C  
BRANCH   9  10
HETATM   10  C   UNL     1      -8.686  18.635  65.870  1.00  0.00     0.203 C  
BRANCH  10  11
HETATM   11  N   UNL     1      -7.651  17.665  66.197  1.00  0.00    -0.291 N  
HETATM   12  C   UNL     1      -7.741  16.881  67.325  1.00  0.00    -0.169 C  
HETATM   13  H   UNL     1      -6.845  17.565  65.580  1.00  0.00     0.000 HD 
HETATM   14  O   UNL     1      -8.691  16.905  68.102  1.00  0.00    -0.213 OA 
BRANCH  12  15
HETATM   15  C   UNL     1      -6.551  15.964  67.511  1.00  0.00    -0.212 C  
BRANCH  15  16
HETATM   16  C   UNL     1      -6.784  14.634  66.798  1.00  0.00     1.496 C  
BRANCH  16  17
HETATM   17  C   UNL     1      -6.011  13.494  67.434  1.00  0.00     0.135 C  
HETATM   18  O   UNL     1      -5.564  12.572  66.755  1.00  0.00    -0.300 OA 
HETATM   19  N   UNL     1      -5.875  13.543  68.798  1.00  0.00    -0.079 N  
HETATM   20  O   UNL     1      -6.281  14.621  69.604  1.00  0.00    -0.113 OA 
BRANCH  19  21
HETATM   21  C   UNL     1      -5.230  12.499  69.581  1.00  0.00    -0.075 C  
BRANCH  21  22
HETATM   22  C   UNL     1      -6.107  11.253  69.729  1.00  0.00    -0.112 C  
BRANCH  22  23
HETATM   23  C   UNL     1      -6.373  10.542  68.389  1.00  0.00    -0.054 C  
BRANCH  23  24
HETATM   24  C   UNL     1      -5.225   9.631  67.949  1.00  0.00    -0.036 C  
BRANCH  24  25
HETATM   25  C   UNL     1      -5.735   8.431  67.154  1.00  0.00    -0.039 C  
BRANCH  25  26
HETATM   26  N   UNL     1      -7.183   8.395  67.110  1.00  0.00    -0.083 N  
HETATM   27  H   UNL     1      -7.708   9.224  67.388  1.00  0.00     0.000 HD 
HETATM   28  C   UNL     1      -7.868   7.274  66.703  1.00  0.00    -0.102 C  
HETATM   29  O   UNL     1      -7.319   6.242  66.332  1.00  0.00    -0.081 OA 
BRANCH  28  30
HETATM   30  C   UNL     1      -9.369   7.404  66.753  1.00  0.00    -0.202 C  
BRANCH  30  31
HETATM   31  C   UNL     1      -9.994   6.029  66.927  1.00  0.00    -0.207 C  
BRANCH  31  32
HETATM   32  C   UNL     1      -9.379   5.301  68.103  1.00  0.00    -0.118 C  
HETATM   33  N   UNL     1      -8.418   4.351  67.854  1.00  0.00    -0.098 N  
HETATM   34  O   UNL     1      -9.691   5.631  69.249  1.00  0.00    -0.140 OA 
HETATM   35  O   UNL     1      -8.386   3.703  66.604  1.00  0.00    -0.101 OA 
BRANCH  33  36
HETATM   36  C   UNL     1      -7.817   3.543  68.918  1.00  0.00    -0.051 C  
BRANCH  36  37
HETATM   37  C   UNL     1      -6.542   4.178  69.474  1.00  0.00    -0.033 C  
BRANCH  37  38
HETATM   38  C   UNL     1      -6.168   5.466  68.733  1.00  0.00    -0.033 C  
BRANCH  38  39
HETATM   39  C   UNL     1      -5.552   6.503  69.677  1.00  0.00    -0.014 C  
BRANCH  39  40
HETATM   40  C   UNL     1      -6.239   6.538  71.042  1.00  0.00    -0.040 C  
HETATM   41  N   UNL     1      -7.406   7.415  71.038  1.00  0.00    -0.072 NA 
HETATM   42  H2  UNL     1      -8.060   7.160  70.299  1.00  0.00     0.000 HD 
HETATM   43  H1  UNL     1      -7.864   7.439  71.949  1.00  0.00     0.000 HD 
ENDBRANCH  39  40
ENDBRANCH  38  39
ENDBRANCH  37  38
ENDBRANCH  36  37
ENDBRANCH  33  36
ENDBRANCH  31  32
ENDBRANCH  30  31
ENDBRANCH  28  30
ENDBRANCH  25  26
ENDBRANCH  24  25
ENDBRANCH  23  24
ENDBRANCH  22  23
ENDBRANCH  21  22
ENDBRANCH  19  21
ENDBRANCH  16  17
ENDBRANCH  15  16
ENDBRANCH  12  15
ENDBRANCH  10  11
ENDBRANCH   9  10
ENDBRANCH   8   9
ENDBRANCH   7   8
ENDBRANCH   6   7
ENDBRANCH   3   6
TORSDOF 23
ENDMDL
MODEL      369
REMARK 921   NORMALIZED FREE ENERGY PREDICTED BY IDOCK:    6.61 KCAL/MOL
REMARK 922        TOTAL FREE ENERGY PREDICTED BY IDOCK:   12.75 KCAL/MOL
REMARK 923 INTER-LIGAND FREE ENERGY PREDICTED BY IDOCK:    7.13 KCAL/MOL
REMARK 924 INTRA-LIGAND FREE ENERGY PREDICTED BY IDOCK:    5.62 KCAL/MOL
REMARK 927      BINDING AFFINITY PREDICTED BY RF-SCORE:    0.00 PKD
ROOT
HETATM    1  C   UNL     1      -9.119  20.890  68.360  1.00  0.00     0.703 C  
HETATM    2  C   UNL     1     -10.332  20.138  68.843  1.00  0.00    -0.075 C  
HETATM    3  N   UNL     1     -10.146  19.270  69.886  1.00  0.00     0.311 N  
HETATM    4  O   UNL     1     -11.420  20.291  68.287  1.00  0.00     1.101 OA 
HETATM    5  O   UNL     1      -8.963  19.181  70.639  1.00  0.00     2.050 OA 
ENDROOT
BRANCH   3   6
HETATM    6  C   UNL     1     -11.214  18.460  70.455  1.00  0.00     3.822 C  
BRANCH   6   7
HETATM    7  C   UNL     1     -10.923  18.041  71.898  1.00  0.00     2.851 C  
BRANCH   7   8
HETATM    8  C   UNL     1     -11.559  16.682  72.198  1.00  0.00    -0.081 C  
BRANCH   8   9
HETATM    9  C   UNL     1     -11.796  15.864  70.927  1.00  0.00    -0.453 C  
BRANCH   9  10
HETATM   10  C   UNL     1     -10.793  14.719  70.778  1.00  0.00     0.143 C  
BRANCH  10  11
HETATM   11  N   UNL     1     -10.181  14.684  69.458  1.00  0.00    -0.417 N  
HETATM   12  C   UNL     1     -10.700  13.899  68.454  1.00  0.00    -0.257 C  
HETATM   13  H   UNL     1      -9.354  15.252  69.275  1.00  0.00     0.000 HD 
HETATM   14  O   UNL     1     -11.713  13.215  68.573  1.00  0.00    -0.310 OA 
BRANCH  12  15
HETATM   15  C   UNL     1      -9.902  13.969  67.169  1.00  0.00    -0.240 C  
BRANCH  15  16
HETATM   16  C   UNL     1      -8.535  13.315  67.352  1.00  0.00    -0.206 C  
BRANCH  16  17
HETATM   17  C   UNL     1      -8.635  11.926  67.953  1.00  0.00    -0.162 C  
HETATM   18  O   UNL     1      -9.697  11.503  68.406  1.00  0.00    -0.191 OA 
HETATM   19  N   UNL     1      -7.473  11.198  67.988  1.00  0.00    -0.091 N  
HETATM   20  O   UNL     1      -6.262  11.596  67.396  1.00  0.00    -0.075 OA 
BRANCH  19  21
HETATM   21  C   UNL     1      -7.367   9.879  68.594  1.00  0.00    -0.074 C  
BRANCH  21  22
HETATM   22  C   UNL     1      -6.987   8.798  67.578  1.00  0.00    -0.075 C  
BRANCH  22  23
HETATM   23  C   UNL     1      -6.084   7.703  68.176  1.00  0.00    -0.040 C  
BRANCH  23  24
HETATM   24  C   UNL     1      -5.143   7.068  67.151  1.00  0.00    -0.013 C  
BRANCH  24  25
HETATM   25  C   UNL     1      -5.917   6.357  66.044  1.00  0.00    -0.025 C  
BRANCH  25  26
HETATM   26  N   UNL     1      -6.591   5.173  66.538  1.00  0.00    -0.048 N  
HETATM   27  H   UNL     1      -7.340   4.760  65.981  1.00  0.00     0.000 HD 
HETATM   28  C   UNL     1      -6.250   4.591  67.736  1.00  0.00    -0.036 C  
HETATM   29  O   UNL     1      -5.351   5.007  68.460  1.00  0.00    -0.006 OA 
BRANCH  28  30
HETATM   30  C   UNL     1      -7.079   3.388  68.107  1.00  0.00    -0.050 C  
BRANCH  30  31
HETATM   31  C   UNL     1      -7.234   2.482  66.896  1.00  0.00    -0.057 C  
BRANCH  31  32
HETATM   32  C   UNL     1      -6.497   3.047  65.700  1.00  0.00    -0.032 C  
HETATM   33  N   UNL     1      -7.233   3.494  64.630  1.00  0.00    -0.065 N  
HETATM   34  O   UNL     1      -5.271   3.168  65.748  1.00  0.00    -0.008 OA 
HETATM   35  O   UNL     1      -8.525   2.979  64.409  1.00  0.00    -0.092 OA 
BRANCH  33  36
HETATM   36  C   UNL     1      -6.611   3.990  63.400  1.00  0.00    -0.034 C  
BRANCH  36  37
HETATM   37  C   UNL     1      -7.439   5.095  62.740  1.00  0.00    -0.045 C  
BRANCH  37  38
HETATM   38  C   UNL     1      -6.583   6.309  62.361  1.00  0.00    -0.034 C  
BRANCH  38  39
HETATM   39  C   UNL     1      -7.236   7.621  62.805  1.00  0.00    -0.086 C  
BRANCH  39  40
HETATM   40  C   UNL     1      -7.943   7.500  64.156  1.00  0.00    -0.098 C  
HETATM   41  N   UNL     1      -8.662   8.722  64.501  1.00  0.00    -0.378 NA 
HETATM   42  H2  UNL     1      -9.313   8.991  63.764  1.00  0.00     0.000 HD 
HETATM   43  H1  UNL     1      -9.133   8.641  65.402  1.00  0.00     0.000 HD 
ENDBRANCH  39  40
ENDBRANCH  38  39
ENDBRANCH  37  38
ENDBRANCH  36  37
ENDBRANCH  33  36
ENDBRANCH  31  32
ENDBRANCH  30  31
ENDBRANCH  28  30
ENDBRANCH  25  26
ENDBRANCH  24  25
ENDBRANCH  23  24
ENDBRANCH  22  23
ENDBRANCH  21  22
ENDBRANCH  19  21
ENDBRANCH  16  17
ENDBRANCH  15  16
ENDBRANCH  12  15
ENDBRANCH  10  11
ENDBRANCH   9  10
ENDBRANCH   8   9
ENDBRANCH   7   8
ENDBRANCH   6   7
ENDBRANCH   3   6
TORSDOF 23
ENDMDL
MODEL      370
REMARK 921   NORMALIZED FREE ENERGY PREDICTED BY IDOCK:    7.21 KCAL/MOL
REMARK 922        TOTAL FREE ENERGY PREDICTED BY IDOCK:   14.16 KCAL/MOL
REMARK 923 INTER-LIGAND FREE ENERGY PREDICTED BY IDOCK:   10.57 KCAL/MOL
REMARK 924 INTRA-LIGAND FREE ENERGY PREDICTED BY IDOCK:    3.59 KCAL/MOL
REMARK 927      BINDING AFFINITY PREDICTED BY RF-SCORE:    0.00 PKD
ROOT
HETATM    1  C   UNL     1      -9.143  20.918  68.415  1.00  0.00     0.703 C  
HETATM    2  C   UNL     1     -10.353  20.354  69.114  1.00  0.00     0.234 C  
HETATM    3  N   UNL     1     -10.124  19.599  70.234  1.00  0.00     0.515 N  
HETATM    4  O   UNL     1     -11.480  20.550  68.659  1.00  0.00     1.528 OA 
HETATM    5  O   UNL     1      -8.874  19.480  70.865  1.00  0.00     1.953 OA 
ENDROOT
BRANCH   3   6
HETATM    6  C   UNL     1     -11.186  18.973  71.010  1.00  0.00     5.091 C  
BRANCH   6   7
HETATM    7  C   UNL     1     -10.759  18.673  72.448  1.00  0.00     3.472 C  
BRANCH   7   8
HETATM    8  C   UNL     1     -11.505  17.449  72.983  1.00  0.00     1.220 C  
BRANCH   8   9
HETATM    9  C   UNL     1     -12.046  16.567  71.856  1.00  0.00    -0.096 C  
BRANCH   9  10
HETATM   10  C   UNL     1     -11.240  15.278  71.691  1.00  0.00    -0.301 C  
BRANCH  10  11
HETATM   11  N   UNL     1     -10.885  15.019  70.303  1.00  0.00    -0.442 N  
HETATM   12  C   UNL     1     -11.689  14.248  69.494  1.00  0.00    -0.316 C  
HETATM   13  H   UNL     1     -10.025  15.415  69.924  1.00  0.00     0.000 HD 
HETATM   14  O   UNL     1     -12.759  13.765  69.854  1.00  0.00    -0.177 OA 
BRANCH  12  15
HETATM   15  C   UNL     1     -11.130  14.063  68.100  1.00  0.00    -0.280 C  
BRANCH  15  16
HETATM   16  C   UNL     1      -9.912  13.144  68.130  1.00  0.00    -0.234 C  
BRANCH  16  17
HETATM   17  C   UNL     1     -10.174  11.860  68.894  1.00  0.00    -0.075 C  
HETATM   18  O   UNL     1     -11.178  11.729  69.591  1.00  0.00    -0.232 OA 
HETATM   19  N   UNL     1      -9.217  10.885  68.783  1.00  0.00    -0.186 N  
HETATM   20  O   UNL     1      -8.106  10.948  67.924  1.00  0.00    -0.109 OA 
BRANCH  19  21
HETATM   21  C   UNL     1      -9.268   9.621  69.504  1.00  0.00    -0.203 C  
BRANCH  21  22
HETATM   22  C   UNL     1      -9.103   8.413  68.578  1.00  0.00    -0.136 C  
BRANCH  22  23
HETATM   23  C   UNL     1      -8.314   7.261  69.228  1.00  0.00    -0.132 C  
BRANCH  23  24
HETATM   24  C   UNL     1      -7.552   6.403  68.217  1.00  0.00    -0.103 C  
BRANCH  24  25
HETATM   25  C   UNL     1      -8.503   5.584  67.347  1.00  0.00    -0.109 C  
BRANCH  25  26
HETATM   26  N   UNL     1      -9.168   4.547  68.111  1.00  0.00    -0.124 N  
HETATM   27  H   UNL     1      -9.998   4.100  67.722  1.00  0.00     0.000 HD 
HETATM   28  C   UNL     1      -8.713   4.151  69.346  1.00  0.00    -0.084 C  
HETATM   29  O   UNL     1      -7.713   4.619  69.882  1.00  0.00    -0.057 OA 
BRANCH  28  30
HETATM   30  C   UNL     1      -9.547   3.086  70.011  1.00  0.00    -0.143 C  
BRANCH  30  31
HETATM   31  C   UNL     1     -10.495   3.731  71.010  1.00  0.00     0.631 C  
BRANCH  31  32
HETATM   32  C   UNL     1     -10.310   5.234  71.038  1.00  0.00    -0.228 C  
HETATM   33  N   UNL     1      -9.746   5.802  72.155  1.00  0.00    -0.153 N  
HETATM   34  O   UNL     1     -10.590   5.896  70.037  1.00  0.00    -0.240 OA 
HETATM   35  O   UNL     1      -9.831   5.138  73.393  1.00  0.00    -0.149 OA 
BRANCH  33  36
HETATM   36  C   UNL     1      -9.593   7.251  72.307  1.00  0.00    -0.146 C  
BRANCH  36  37
HETATM   37  C   UNL     1      -8.310   7.619  73.055  1.00  0.00    -0.178 C  
BRANCH  37  38
HETATM   38  C   UNL     1      -7.512   8.708  72.330  1.00  0.00    -0.036 C  
BRANCH  38  39
HETATM   39  C   UNL     1      -6.039   8.320  72.172  1.00  0.00    -0.054 C  
BRANCH  39  40
HETATM   40  C   UNL     1      -5.852   6.831  71.873  1.00  0.00    -0.037 C  
HETATM   41  N   UNL     1      -5.365   6.610  70.515  1.00  0.00    -0.018 NA 
HETATM   42  H2  UNL     1      -4.510   7.135  70.337  1.00  0.00     0.000 HD 
HETATM   43  H1  UNL     1      -5.241   5.617  70.315  1.00  0.00     0.000 HD 
ENDBRANCH  39  40
ENDBRANCH  38  39
ENDBRANCH  37  38
ENDBRANCH  36  37
ENDBRANCH  33  36
ENDBRANCH  31  32
ENDBRANCH  30  31
ENDBRANCH  28  30
ENDBRANCH  25  26
ENDBRANCH  24  25
ENDBRANCH  23  24
ENDBRANCH  22  23
ENDBRANCH  21  22
ENDBRANCH  19  21
ENDBRANCH  16  17
ENDBRANCH  15  16
ENDBRANCH  12  15
ENDBRANCH  10  11
ENDBRANCH   9  10
ENDBRANCH   8   9
ENDBRANCH   7   8
ENDBRANCH   6   7
ENDBRANCH   3   6
TORSDOF 23
ENDMDL
MODEL      371
REMARK 921   NORMALIZED FREE ENERGY PREDICTED BY IDOCK:    7.34 KCAL/MOL
REMARK 922        TOTAL FREE ENERGY PREDICTED BY IDOCK:   14.45 KCAL/MOL
REMARK 923 INTER-LIGAND FREE ENERGY PREDICTED BY IDOCK:   -0.28 KCAL/MOL
REMARK 924 INTRA-LIGAND FREE ENERGY PREDICTED BY IDOCK:   14.73 KCAL/MOL
REMARK 927      BINDING AFFINITY PREDICTED BY RF-SCORE:    0.00 PKD
ROOT
HETATM    1  C   UNL     1     -10.564   1.964  67.347  1.00  0.00     3.806 C  
HETATM    2  C   UNL     1      -9.340   2.675  67.862  1.00  0.00    -0.194 C  
HETATM    3  N   UNL     1      -9.199   3.993  67.516  1.00  0.00    -0.151 N  
HETATM    4  O   UNL     1      -8.506   2.067  68.533  1.00  0.00    -0.056 OA 
HETATM    5  O   UNL     1     -10.196   4.756  66.884  1.00  0.00    -0.216 OA 
ENDROOT
BRANCH   3   6
HETATM    6  C   UNL     1      -8.064   4.812  67.922  1.00  0.00    -0.092 C  
BRANCH   6   7
HETATM    7  C   UNL     1      -8.035   6.164  67.208  1.00  0.00    -0.102 C  
BRANCH   7   8
HETATM    8  C   UNL     1      -7.055   6.127  66.034  1.00  0.00    -0.067 C  
BRANCH   8   9
HETATM    9  C   UNL     1      -5.720   5.487  66.419  1.00  0.00    -0.017 C  
BRANCH   9  10
HETATM   10  C   UNL     1      -5.610   5.235  67.923  1.00  0.00    -0.012 C  
BRANCH  10  11
HETATM   11  N   UNL     1      -6.825   5.597  68.637  1.00  0.00    -0.057 N  
HETATM   12  C   UNL     1      -6.998   6.862  69.154  1.00  0.00    -0.078 C  
HETATM   13  H   UNL     1      -7.561   4.902  68.757  1.00  0.00     0.000 HD 
HETATM   14  O   UNL     1      -6.184   7.772  69.023  1.00  0.00    -0.034 OA 
BRANCH  12  15
HETATM   15  C   UNL     1      -8.308   7.031  69.894  1.00  0.00    -0.139 C  
BRANCH  15  16
HETATM   16  C   UNL     1      -8.114   6.780  71.387  1.00  0.00    -0.110 C  
BRANCH  16  17
HETATM   17  C   UNL     1      -8.015   8.068  72.181  1.00  0.00    -0.121 C  
HETATM   18  O   UNL     1      -8.281   9.154  71.669  1.00  0.00    -0.343 OA 
HETATM   19  N   UNL     1      -7.585   7.948  73.478  1.00  0.00    -0.136 N  
HETATM   20  O   UNL     1      -7.365   6.725  74.136  1.00  0.00    -0.093 OA 
BRANCH  19  21
HETATM   21  C   UNL     1      -7.361   9.082  74.361  1.00  0.00     0.278 C  
BRANCH  21  22
HETATM   22  C   UNL     1      -6.086   9.855  74.010  1.00  0.00     0.697 C  
BRANCH  22  23
HETATM   23  C   UNL     1      -5.469   9.416  72.668  1.00  0.00    -0.018 C  
BRANCH  23  24
HETATM   24  C   UNL     1      -6.130  10.074  71.456  1.00  0.00     0.211 C  
BRANCH  24  25
HETATM   25  C   UNL     1      -5.148  10.962  70.695  1.00  0.00    -0.082 C  
BRANCH  25  26
HETATM   26  N   UNL     1      -5.832  11.864  69.791  1.00  0.00    -0.105 N  
HETATM   27  H   UNL     1      -6.296  12.689  70.171  1.00  0.00     0.000 HD 
HETATM   28  C   UNL     1      -5.873  11.640  68.435  1.00  0.00    -0.045 C  
HETATM   29  O   UNL     1      -5.327  10.686  67.889  1.00  0.00    -0.037 OA 
BRANCH  28  30
HETATM   30  C   UNL     1      -6.657  12.662  67.653  1.00  0.00    -0.143 C  
BRANCH  30  31
HETATM   31  C   UNL     1      -8.048  12.122  67.360  1.00  0.00    -0.171 C  
BRANCH  31  32
HETATM   32  C   UNL     1      -9.111  13.136  67.730  1.00  0.00    -0.200 C  
HETATM   33  N   UNL     1      -8.849  14.467  67.512  1.00  0.00    -0.183 N  
HETATM   34  O   UNL     1     -10.206  12.742  68.138  1.00  0.00    -0.227 OA 
HETATM   35  O   UNL     1      -7.515  14.916  67.464  1.00  0.00    -0.169 OA 
BRANCH  33  36
HETATM   36  C   UNL     1      -9.782  15.526  67.903  1.00  0.00    -0.211 C  
BRANCH  36  37
HETATM   37  C   UNL     1     -10.890  15.730  66.868  1.00  0.00    -0.265 C  
BRANCH  37  38
HETATM   38  C   UNL     1     -10.617  14.961  65.571  1.00  0.00    -0.373 C  
BRANCH  38  39
HETATM   39  C   UNL     1     -11.872  14.246  65.063  1.00  0.00    -0.396 C  
BRANCH  39  40
HETATM   40  C   UNL     1     -11.545  13.049  64.168  1.00  0.00    -0.407 C  
HETATM   41  N   UNL     1     -12.244  11.843  64.602  1.00  0.00    -0.225 NA 
HETATM   42  H2  UNL     1     -13.250  11.998  64.663  1.00  0.00     0.000 HD 
HETATM   43  H1  UNL     1     -12.025  11.044  64.006  1.00  0.00     0.000 HD 
ENDBRANCH  39  40
ENDBRANCH  38  39
ENDBRANCH  37  38
ENDBRANCH  36  37
ENDBRANCH  33  36
ENDBRANCH  31  32
ENDBRANCH  30  31
ENDBRANCH  28  30
ENDBRANCH  25  26
ENDBRANCH  24  25
ENDBRANCH  23  24
ENDBRANCH  22  23
ENDBRANCH  21  22
ENDBRANCH  19  21
ENDBRANCH  16  17
ENDBRANCH  15  16
ENDBRANCH  12  15
ENDBRANCH  10  11
ENDBRANCH   9  10
ENDBRANCH   8   9
ENDBRANCH   7   8
ENDBRANCH   6   7
ENDBRANCH   3   6
TORSDOF 23
ENDMDL
MODEL      372
REMARK 921   NORMALIZED FREE ENERGY PREDICTED BY IDOCK:    7.58 KCAL/MOL
REMARK 922        TOTAL FREE ENERGY PREDICTED BY IDOCK:   15.01 KCAL/MOL
REMARK 923 INTER-LIGAND FREE ENERGY PREDICTED BY IDOCK:   11.97 KCAL/MOL
REMARK 924 INTRA-LIGAND FREE ENERGY PREDICTED BY IDOCK:    3.04 KCAL/MOL
REMARK 927      BINDING AFFINITY PREDICTED BY RF-SCORE:    0.00 PKD
ROOT
HETATM    1  C   UNL     1      -6.915  11.355  72.599  1.00  0.00     7.923 C  
HETATM    2  C   UNL     1      -7.432  10.046  72.062  1.00  0.00     2.626 C  
HETATM    3  N   UNL     1      -6.520   9.222  71.457  1.00  0.00    -0.048 N  
HETATM    4  O   UNL     1      -8.629   9.768  72.148  1.00  0.00     1.238 OA 
HETATM    5  O   UNL     1      -5.131   9.433  71.475  1.00  0.00    -0.042 OA 
ENDROOT
BRANCH   3   6
HETATM    6  C   UNL     1      -6.866   7.932  70.876  1.00  0.00    -0.041 C  
BRANCH   6   7
HETATM    7  C   UNL     1      -8.353   7.605  71.026  1.00  0.00    -0.112 C  
BRANCH   7   8
HETATM    8  C   UNL     1      -8.692   6.310  70.285  1.00  0.00    -0.142 C  
BRANCH   8   9
HETATM    9  C   UNL     1      -8.012   6.234  68.916  1.00  0.00    -0.109 C  
BRANCH   9  10
HETATM   10  C   UNL     1      -6.652   6.933  68.906  1.00  0.00    -0.044 C  
BRANCH  10  11
HETATM   11  N   UNL     1      -6.539   7.914  67.836  1.00  0.00    -0.055 N  
HETATM   12  C   UNL     1      -5.805   7.650  66.702  1.00  0.00    -0.039 C  
HETATM   13  H   UNL     1      -7.013   8.812  67.929  1.00  0.00     0.000 HD 
HETATM   14  O   UNL     1      -5.235   6.584  66.488  1.00  0.00    -0.012 OA 
BRANCH  12  15
HETATM   15  C   UNL     1      -5.777   8.807  65.726  1.00  0.00    -0.050 C  
BRANCH  15  16
HETATM   16  C   UNL     1      -5.370  10.096  66.436  1.00  0.00    -0.046 C  
BRANCH  16  17
HETATM   17  C   UNL     1      -6.286  10.430  67.597  1.00  0.00    -0.056 C  
HETATM   18  O   UNL     1      -5.886  10.377  68.759  1.00  0.00    -0.041 OA 
HETATM   19  N   UNL     1      -7.577  10.760  67.273  1.00  0.00    -0.099 N  
HETATM   20  O   UNL     1      -8.053  10.932  65.962  1.00  0.00    -0.159 OA 
BRANCH  19  21
HETATM   21  C   UNL     1      -8.609  11.038  68.261  1.00  0.00    -0.143 C  
BRANCH  21  22
HETATM   22  C   UNL     1      -9.418   9.791  68.629  1.00  0.00    -0.151 C  
BRANCH  22  23
HETATM   23  C   UNL     1     -10.933   9.975  68.423  1.00  0.00    -0.266 C  
BRANCH  23  24
HETATM   24  C   UNL     1     -11.516   9.049  67.355  1.00  0.00     1.467 C  
BRANCH  24  25
HETATM   25  C   UNL     1     -11.213   7.583  67.659  1.00  0.00     0.332 C  
BRANCH  25  26
HETATM   26  N   UNL     1     -10.325   7.004  66.670  1.00  0.00    -0.462 N  
HETATM   27  H   UNL     1      -9.460   7.490  66.436  1.00  0.00     0.000 HD 
HETATM   28  C   UNL     1     -10.617   5.818  66.040  1.00  0.00     0.191 C  
HETATM   29  O   UNL     1     -11.624   5.156  66.274  1.00  0.00     0.757 OA 
BRANCH  28  30
HETATM   30  C   UNL     1      -9.599   5.383  65.017  1.00  0.00     0.338 C  
BRANCH  30  31
HETATM   31  C   UNL     1      -9.686   3.878  64.819  1.00  0.00    -0.187 C  
BRANCH  31  32
HETATM   32  C   UNL     1      -8.306   3.253  64.812  1.00  0.00    -0.090 C  
HETATM   33  N   UNL     1      -7.569   3.285  65.970  1.00  0.00    -0.077 N  
HETATM   34  O   UNL     1      -7.915   2.664  63.802  1.00  0.00    -0.078 OA 
HETATM   35  O   UNL     1      -7.822   4.283  66.930  1.00  0.00    -0.095 OA 
BRANCH  33  36
HETATM   36  C   UNL     1      -6.199   2.773  66.044  1.00  0.00    -0.024 C  
BRANCH  36  37
HETATM   37  C   UNL     1      -6.099   1.513  66.907  1.00  0.00    -0.020 C  
BRANCH  37  38
HETATM   38  C   UNL     1      -5.629   1.825  68.331  1.00  0.00    -0.018 C  
BRANCH  38  39
HETATM   39  C   UNL     1      -6.784   2.300  69.217  1.00  0.00    -0.033 C  
BRANCH  39  40
HETATM   40  C   UNL     1      -8.056   1.473  69.019  1.00  0.00    -0.044 C  
HETATM   41  N   UNL     1      -9.258   2.258  69.281  1.00  0.00    -0.121 NA 
HETATM   42  H2  UNL     1      -9.276   3.109  68.719  1.00  0.00     0.000 HD 
HETATM   43  H1  UNL     1     -10.106   1.707  69.149  1.00  0.00     0.000 HD 
ENDBRANCH  39  40
ENDBRANCH  38  39
ENDBRANCH  37  38
ENDBRANCH  36  37
ENDBRANCH  33  36
ENDBRANCH  31  32
ENDBRANCH  30  31
ENDBRANCH  28  30
ENDBRANCH  25  26
ENDBRANCH  24  25
ENDBRANCH  23  24
ENDBRANCH  22  23
ENDBRANCH  21  22
ENDBRANCH  19  21
ENDBRANCH  16  17
ENDBRANCH  15  16
ENDBRANCH  12  15
ENDBRANCH  10  11
ENDBRANCH   9  10
ENDBRANCH   8   9
ENDBRANCH   7   8
ENDBRANCH   6   7
ENDBRANCH   3   6
TORSDOF 23
ENDMDL
MODEL      373
REMARK 921   NORMALIZED FREE ENERGY PREDICTED BY IDOCK:    8.76 KCAL/MOL
REMARK 922        TOTAL FREE ENERGY PREDICTED BY IDOCK:   17.78 KCAL/MOL
REMARK 923 INTER-LIGAND FREE ENERGY PREDICTED BY IDOCK:    3.52 KCAL/MOL
REMARK 924 INTRA-LIGAND FREE ENERGY PREDICTED BY IDOCK:   14.26 KCAL/MOL
REMARK 927      BINDING AFFINITY PREDICTED BY RF-SCORE:    0.00 PKD
ROOT
HETATM    1  C   UNL     1     -13.667  13.234  68.469  1.00  0.00     7.259 C  
HETATM    2  C   UNL     1     -12.535  14.228  68.452  1.00  0.00     0.235 C  
HETATM    3  N   UNL     1     -11.508  14.011  69.332  1.00  0.00    -0.276 N  
HETATM    4  O   UNL     1     -12.573  15.199  67.696  1.00  0.00     0.560 OA 
HETATM    5  O   UNL     1     -11.357  12.842  70.098  1.00  0.00    -0.012 OA 
ENDROOT
BRANCH   3   6
HETATM    6  C   UNL     1     -10.352  14.889  69.447  1.00  0.00    -0.208 C  
BRANCH   6   7
HETATM    7  C   UNL     1      -9.069  14.236  68.929  1.00  0.00    -0.031 C  
BRANCH   7   8
HETATM    8  C   UNL     1      -9.235  13.821  67.466  1.00  0.00    -0.216 C  
BRANCH   8   9
HETATM    9  C   UNL     1     -10.633  14.138  66.933  1.00  0.00    -0.280 C  
BRANCH   9  10
HETATM   10  C   UNL     1     -10.905  13.469  65.585  1.00  0.00    -0.287 C  
BRANCH  10  11
HETATM   11  N   UNL     1     -10.747  12.023  65.639  1.00  0.00    -0.263 N  
HETATM   12  C   UNL     1     -10.549  11.374  66.837  1.00  0.00    -0.252 C  
HETATM   13  H   UNL     1     -10.784  11.483  64.776  1.00  0.00     0.000 HD 
HETATM   14  O   UNL     1     -10.530  11.938  67.927  1.00  0.00    -0.195 OA 
BRANCH  12  15
HETATM   15  C   UNL     1     -10.368   9.879  66.682  1.00  0.00    -0.275 C  
BRANCH  15  16
HETATM   16  C   UNL     1      -9.677   9.558  65.360  1.00  0.00    -0.314 C  
BRANCH  16  17
HETATM   17  C   UNL     1      -8.541   8.567  65.527  1.00  0.00    -0.180 C  
HETATM   18  O   UNL     1      -8.746   7.430  65.948  1.00  0.00    -0.154 OA 
HETATM   19  N   UNL     1      -7.287   9.026  65.214  1.00  0.00    -0.091 N  
HETATM   20  O   UNL     1      -7.015  10.279  64.637  1.00  0.00    -0.133 OA 
BRANCH  19  21
HETATM   21  C   UNL     1      -6.075   8.238  65.383  1.00  0.00    -0.045 C  
BRANCH  21  22
HETATM   22  C   UNL     1      -6.063   6.987  64.501  1.00  0.00    -0.037 C  
BRANCH  22  23
HETATM   23  C   UNL     1      -6.487   7.273  63.048  1.00  0.00    -0.053 C  
BRANCH  23  24
HETATM   24  C   UNL     1      -7.634   6.383  62.566  1.00  0.00    -0.078 C  
BRANCH  24  25
HETATM   25  C   UNL     1      -7.953   5.283  63.576  1.00  0.00    -0.097 C  
BRANCH  25  26
HETATM   26  N   UNL     1      -6.812   4.982  64.418  1.00  0.00    -0.047 N  
HETATM   27  H   UNL     1      -5.892   5.335  64.151  1.00  0.00     0.000 HD 
HETATM   28  C   UNL     1      -6.933   4.236  65.566  1.00  0.00    -0.059 C  
HETATM   29  O   UNL     1      -8.001   3.789  65.973  1.00  0.00    -0.089 OA 
BRANCH  28  30
HETATM   30  C   UNL     1      -5.638   3.994  66.297  1.00  0.00    -0.018 C  
BRANCH  30  31
HETATM   31  C   UNL     1      -5.704   4.633  67.676  1.00  0.00    -0.021 C  
BRANCH  31  32
HETATM   32  C   UNL     1      -7.040   5.313  67.893  1.00  0.00    -0.067 C  
HETATM   33  N   UNL     1      -7.095   6.388  68.746  1.00  0.00    -0.080 N  
HETATM   34  O   UNL     1      -8.020   4.941  67.243  1.00  0.00    -0.095 OA 
HETATM   35  O   UNL     1      -6.129   6.522  69.761  1.00  0.00    -0.024 OA 
BRANCH  33  36
HETATM   36  C   UNL     1      -8.351   7.065  69.077  1.00  0.00    -0.126 C  
BRANCH  36  37
HETATM   37  C   UNL     1      -8.207   7.989  70.288  1.00  0.00    -0.123 C  
BRANCH  37  38
HETATM   38  C   UNL     1      -7.855   9.423  69.881  1.00  0.00    -0.126 C  
BRANCH  38  39
HETATM   39  C   UNL     1      -6.389   9.547  69.454  1.00  0.00    -0.043 C  
BRANCH  39  40
HETATM   40  C   UNL     1      -6.157  10.694  68.470  1.00  0.00    -0.046 C  
HETATM   41  N   UNL     1      -7.371  11.026  67.731  1.00  0.00    -0.091 NA 
HETATM   42  H2  UNL     1      -8.147  11.228  68.361  1.00  0.00     0.000 HD 
HETATM   43  H1  UNL     1      -7.217  11.792  67.074  1.00  0.00     0.000 HD 
ENDBRANCH  39  40
ENDBRANCH  38  39
ENDBRANCH  37  38
ENDBRANCH  36  37
ENDBRANCH  33  36
ENDBRANCH  31  32
ENDBRANCH  30  31
ENDBRANCH  28  30
ENDBRANCH  25  26
ENDBRANCH  24  25
ENDBRANCH  23  24
ENDBRANCH  22  23
ENDBRANCH  21  22
ENDBRANCH  19  21
ENDBRANCH  16  17
ENDBRANCH  15  16
ENDBRANCH  12  15
ENDBRANCH  10  11
ENDBRANCH   9  10
ENDBRANCH   8   9
ENDBRANCH   7   8
ENDBRANCH   6   7
ENDBRANCH   3   6
TORSDOF 23
ENDMDL
MODEL      374
REMARK 921   NORMALIZED FREE ENERGY PREDICTED BY IDOCK:    8.94 KCAL/MOL
REMARK 922        TOTAL FREE ENERGY PREDICTED BY IDOCK:   18.20 KCAL/MOL
REMARK 923 INTER-LIGAND FREE ENERGY PREDICTED BY IDOCK:   12.91 KCAL/MOL
REMARK 924 INTRA-LIGAND FREE ENERGY PREDICTED BY IDOCK:    5.29 KCAL/MOL
REMARK 927      BINDING AFFINITY PREDICTED BY RF-SCORE:    0.00 PKD
ROOT
HETATM    1  C   UNL     1      -9.192  21.041  68.506  1.00  0.00     0.993 C  
HETATM    2  C   UNL     1     -10.320  20.723  69.451  1.00  0.00     0.717 C  
HETATM    3  N   UNL     1      -9.997  20.037  70.592  1.00  0.00     0.943 N  
HETATM    4  O   UNL     1     -11.475  21.048  69.172  1.00  0.00     1.570 OA 
HETATM    5  O   UNL     1      -8.681  19.784  71.016  1.00  0.00     1.756 OA 
ENDROOT
BRANCH   3   6
HETATM    6  C   UNL     1     -10.976  19.642  71.596  1.00  0.00     5.339 C  
BRANCH   6   7
HETATM    7  C   UNL     1     -10.325  19.256  72.926  1.00  0.00     3.487 C  
BRANCH   7   8
HETATM    8  C   UNL     1     -11.114  18.133  73.601  1.00  0.00     1.897 C  
BRANCH   8   9
HETATM    9  C   UNL     1     -12.076  17.443  72.632  1.00  0.00     1.827 C  
BRANCH   9  10
HETATM   10  C   UNL     1     -11.523  16.114  72.114  1.00  0.00    -0.189 C  
BRANCH  10  11
HETATM   11  N   UNL     1     -11.686  15.967  70.675  1.00  0.00    -0.435 N  
HETATM   12  C   UNL     1     -12.751  15.274  70.146  1.00  0.00    -0.242 C  
HETATM   13  H   UNL     1     -10.999  16.386  70.049  1.00  0.00     0.000 HD 
HETATM   14  O   UNL     1     -13.645  14.772  70.822  1.00  0.00    -0.301 OA 
BRANCH  12  15
HETATM   15  C   UNL     1     -12.723  15.199  68.635  1.00  0.00     0.742 C  
BRANCH  15  16
HETATM   16  C   UNL     1     -11.562  14.328  68.164  1.00  0.00    -0.365 C  
BRANCH  16  17
HETATM   17  C   UNL     1     -11.427  13.055  68.977  1.00  0.00    -0.303 C  
HETATM   18  O   UNL     1     -12.053  12.899  70.023  1.00  0.00    -0.324 OA 
HETATM   19  N   UNL     1     -10.550  12.118  68.492  1.00  0.00    -0.228 N  
HETATM   20  O   UNL     1      -9.889  12.206  67.255  1.00  0.00    -0.194 OA 
BRANCH  19  21
HETATM   21  C   UNL     1     -10.242  10.873  69.179  1.00  0.00    -0.195 C  
BRANCH  21  22
HETATM   22  C   UNL     1     -10.380   9.651  68.266  1.00  0.00    -0.240 C  
BRANCH  22  23
HETATM   23  C   UNL     1      -9.319   8.569  68.546  1.00  0.00    -0.139 C  
BRANCH  23  24
HETATM   24  C   UNL     1      -8.992   7.713  67.322  1.00  0.00    -0.134 C  
BRANCH  24  25
HETATM   25  C   UNL     1     -10.119   6.733  67.004  1.00  0.00    -0.200 C  
BRANCH  25  26
HETATM   26  N   UNL     1     -10.479   5.939  68.161  1.00  0.00    -0.212 N  
HETATM   27  H   UNL     1     -11.338   5.388  68.136  1.00  0.00     0.000 HD 
HETATM   28  C   UNL     1      -9.697   5.906  69.291  1.00  0.00    -0.144 C  
HETATM   29  O   UNL     1      -8.641   6.520  69.402  1.00  0.00    -0.132 OA 
BRANCH  28  30
HETATM   30  C   UNL     1     -10.243   5.054  70.408  1.00  0.00    -0.324 C  
BRANCH  30  31
HETATM   31  C   UNL     1      -9.662   3.652  70.309  1.00  0.00    -0.193 C  
BRANCH  31  32
HETATM   32  C   UNL     1      -8.722   3.538  69.127  1.00  0.00    -0.089 C  
HETATM   33  N   UNL     1      -9.073   2.710  68.089  1.00  0.00    -0.161 N  
HETATM   34  O   UNL     1      -7.714   4.247  69.087  1.00  0.00    -0.055 OA 
HETATM   35  O   UNL     1      -9.951   1.634  68.323  1.00  0.00     0.030 OA 
BRANCH  33  36
HETATM   36  C   UNL     1      -8.199   2.477  66.938  1.00  0.00    -0.084 C  
BRANCH  36  37
HETATM   37  C   UNL     1      -8.984   2.366  65.630  1.00  0.00    -0.121 C  
BRANCH  37  38
HETATM   38  C   UNL     1      -8.360   3.204  64.509  1.00  0.00    -0.090 C  
BRANCH  38  39
HETATM   39  C   UNL     1      -9.390   4.127  63.853  1.00  0.00    -0.152 C  
BRANCH  39  40
HETATM   40  C   UNL     1     -10.828   3.650  64.066  1.00  0.00    -0.172 C  
HETATM   41  N   UNL     1     -11.608   4.613  64.837  1.00  0.00    -0.972 NA 
HETATM   42  H2  UNL     1     -11.583   5.539  64.410  1.00  0.00     0.000 HD 
HETATM   43  H1  UNL     1     -12.567   4.295  64.979  1.00  0.00     0.000 HD 
ENDBRANCH  39  40
ENDBRANCH  38  39
ENDBRANCH  37  38
ENDBRANCH  36  37
ENDBRANCH  33  36
ENDBRANCH  31  32
ENDBRANCH  30  31
ENDBRANCH  28  30
ENDBRANCH  25  26
ENDBRANCH  24  25
ENDBRANCH  23  24
ENDBRANCH  22  23
ENDBRANCH  21  22
ENDBRANCH  19  21
ENDBRANCH  16  17
ENDBRANCH  15  16
ENDBRANCH  12  15
ENDBRANCH  10  11
ENDBRANCH   9  10
ENDBRANCH   8   9
ENDBRANCH   7   8
ENDBRANCH   6   7
ENDBRANCH   3   6
TORSDOF 23
ENDMDL
MODEL      375
REMARK 921   NORMALIZED FREE ENERGY PREDICTED BY IDOCK:    9.29 KCAL/MOL
REMARK 922        TOTAL FREE ENERGY PREDICTED BY IDOCK:   19.03 KCAL/MOL
REMARK 923 INTER-LIGAND FREE ENERGY PREDICTED BY IDOCK:   10.90 KCAL/MOL
REMARK 924 INTRA-LIGAND FREE ENERGY PREDICTED BY IDOCK:    8.13 KCAL/MOL
REMARK 927      BINDING AFFINITY PREDICTED BY RF-SCORE:    0.00 PKD
ROOT
HETATM    1  C   UNL     1      -9.637  14.756  70.601  1.00  0.00     1.465 C  
HETATM    2  C   UNL     1     -10.102  15.992  69.876  1.00  0.00    -0.142 C  
HETATM    3  N   UNL     1      -9.529  17.180  70.248  1.00  0.00     1.774 N  
HETATM    4  O   UNL     1     -10.980  15.915  69.016  1.00  0.00    -0.240 OA 
HETATM    5  O   UNL     1      -8.425  17.289  71.110  1.00  0.00     6.285 OA 
ENDROOT
BRANCH   3   6
HETATM    6  C   UNL     1      -9.882  18.462  69.653  1.00  0.00     0.443 C  
BRANCH   6   7
HETATM    7  C   UNL     1      -8.777  19.010  68.749  1.00  0.00    -0.351 C  
BRANCH   7   8
HETATM    8  C   UNL     1      -8.998  18.561  67.303  1.00  0.00    -0.275 C  
BRANCH   8   9
HETATM    9  C   UNL     1      -7.696  18.548  66.499  1.00  0.00    -0.278 C  
BRANCH   9  10
HETATM   10  C   UNL     1      -7.536  17.270  65.676  1.00  0.00     0.517 C  
BRANCH  10  11
HETATM   11  N   UNL     1      -6.674  16.295  66.328  1.00  0.00     0.546 N  
HETATM   12  C   UNL     1      -6.791  16.026  67.673  1.00  0.00    -0.159 C  
HETATM   13  H   UNL     1      -5.971  15.802  65.778  1.00  0.00     0.000 HD 
HETATM   14  O   UNL     1      -7.633  16.542  68.403  1.00  0.00    -0.172 OA 
BRANCH  12  15
HETATM   15  C   UNL     1      -5.782  15.013  68.170  1.00  0.00    -0.140 C  
BRANCH  15  16
HETATM   16  C   UNL     1      -6.362  13.603  68.102  1.00  0.00    -0.123 C  
BRANCH  16  17
HETATM   17  C   UNL     1      -6.020  12.777  69.326  1.00  0.00    -0.093 C  
HETATM   18  O   UNL     1      -5.923  11.553  69.261  1.00  0.00    -0.054 OA 
HETATM   19  N   UNL     1      -5.860  13.470  70.498  1.00  0.00    -0.169 N  
HETATM   20  O   UNL     1      -5.862  14.872  70.604  1.00  0.00    -0.148 OA 
BRANCH  19  21
HETATM   21  C   UNL     1      -5.602  12.835  71.782  1.00  0.00     0.333 C  
BRANCH  21  22
HETATM   22  C   UNL     1      -6.471  11.594  72.005  1.00  0.00     3.911 C  
BRANCH  22  23
HETATM   23  C   UNL     1      -6.065  10.408  71.111  1.00  0.00     0.131 C  
BRANCH  23  24
HETATM   24  C   UNL     1      -5.171   9.392  71.823  1.00  0.00    -0.068 C  
BRANCH  24  25
HETATM   25  C   UNL     1      -5.284   8.006  71.192  1.00  0.00    -0.029 C  
BRANCH  25  26
HETATM   26  N   UNL     1      -5.991   8.049  69.928  1.00  0.00    -0.023 N  
HETATM   27  H   UNL     1      -6.058   8.936  69.428  1.00  0.00     0.000 HD 
HETATM   28  C   UNL     1      -6.573   6.929  69.383  1.00  0.00    -0.048 C  
HETATM   29  O   UNL     1      -6.524   5.819  69.903  1.00  0.00    -0.035 OA 
BRANCH  28  30
HETATM   30  C   UNL     1      -7.295   7.167  68.081  1.00  0.00    -0.097 C  
BRANCH  30  31
HETATM   31  C   UNL     1      -8.404   6.140  67.919  1.00  0.00    -0.117 C  
BRANCH  31  32
HETATM   32  C   UNL     1      -9.267   6.076  69.161  1.00  0.00    -0.126 C  
HETATM   33  N   UNL     1      -8.945   5.161  70.134  1.00  0.00    -0.117 N  
HETATM   34  O   UNL     1     -10.180   6.892  69.306  1.00  0.00    -0.175 OA 
HETATM   35  O   UNL     1      -8.218   4.005  69.791  1.00  0.00    -0.054 OA 
BRANCH  33  36
HETATM   36  C   UNL     1      -9.759   4.973  71.337  1.00  0.00    -0.171 C  
BRANCH  36  37
HETATM   37  C   UNL     1      -9.511   6.065  72.379  1.00  0.00    -0.153 C  
BRANCH  37  38
HETATM   38  C   UNL     1      -8.468   7.084  71.909  1.00  0.00    -0.109 C  
BRANCH  38  39
HETATM   39  C   UNL     1      -8.888   8.518  72.244  1.00  0.00    -0.279 C  
BRANCH  39  40
HETATM   40  C   UNL     1     -10.386   8.754  72.047  1.00  0.00    -0.340 C  
HETATM   41  N   UNL     1     -10.709   9.046  70.654  1.00  0.00    -0.223 NA 
HETATM   42  H2  UNL     1     -10.362   8.317  70.031  1.00  0.00     0.000 HD 
HETATM   43  H1  UNL     1     -11.708   9.203  70.522  1.00  0.00     0.000 HD 
ENDBRANCH  39  40
ENDBRANCH  38  39
ENDBRANCH  37  38
ENDBRANCH  36  37
ENDBRANCH  33  36
ENDBRANCH  31  32
ENDBRANCH  30  31
ENDBRANCH  28  30
ENDBRANCH  25  26
ENDBRANCH  24  25
ENDBRANCH  23  24
ENDBRANCH  22  23
ENDBRANCH  21  22
ENDBRANCH  19  21
ENDBRANCH  16  17
ENDBRANCH  15  16
ENDBRANCH  12  15
ENDBRANCH  10  11
ENDBRANCH   9  10
ENDBRANCH   8   9
ENDBRANCH   7   8
ENDBRANCH   6   7
ENDBRANCH   3   6
TORSDOF 23
ENDMDL
MODEL      376
REMARK 921   NORMALIZED FREE ENERGY PREDICTED BY IDOCK:   10.17 KCAL/MOL
REMARK 922        TOTAL FREE ENERGY PREDICTED BY IDOCK:   21.10 KCAL/MOL
REMARK 923 INTER-LIGAND FREE ENERGY PREDICTED BY IDOCK:    9.26 KCAL/MOL
REMARK 924 INTRA-LIGAND FREE ENERGY PREDICTED BY IDOCK:   11.84 KCAL/MOL
REMARK 927      BINDING AFFINITY PREDICTED BY RF-SCORE:    0.00 PKD
ROOT
HETATM    1  C   UNL     1     -11.199  10.078  71.967  1.00  0.00     1.092 C  
HETATM    2  C   UNL     1     -10.102   9.047  71.916  1.00  0.00    -0.253 C  
HETATM    3  N   UNL     1     -10.324   7.946  71.131  1.00  0.00    -0.199 N  
HETATM    4  O   UNL     1      -9.079   9.195  72.585  1.00  0.00    -0.047 OA 
HETATM    5  O   UNL     1     -11.404   7.815  70.242  1.00  0.00    -0.252 OA 
ENDROOT
BRANCH   3   6
HETATM    6  C   UNL     1      -9.368   6.856  70.990  1.00  0.00    -0.156 C  
BRANCH   6   7
HETATM    7  C   UNL     1      -9.027   6.564  69.527  1.00  0.00    -0.137 C  
BRANCH   7   8
HETATM    8  C   UNL     1     -10.112   5.695  68.889  1.00  0.00    -0.254 C  
BRANCH   8   9
HETATM    9  C   UNL     1     -11.094   6.520  68.054  1.00  0.00    -0.332 C  
BRANCH   9  10
HETATM   10  C   UNL     1     -11.737   7.648  68.862  1.00  0.00     1.265 C  
BRANCH  10  11
HETATM   11  N   UNL     1     -11.135   8.943  68.585  1.00  0.00    -0.433 N  
HETATM   12  C   UNL     1     -11.837  10.111  68.781  1.00  0.00     0.301 C  
HETATM   13  H   UNL     1     -10.176   8.986  68.241  1.00  0.00     0.000 HD 
HETATM   14  O   UNL     1     -12.979  10.157  69.228  1.00  0.00     0.542 OA 
BRANCH  12  15
HETATM   15  C   UNL     1     -11.053  11.349  68.400  1.00  0.00    -0.296 C  
BRANCH  15  16
HETATM   16  C   UNL     1      -9.913  10.990  67.450  1.00  0.00    -0.209 C  
BRANCH  16  17
HETATM   17  C   UNL     1      -8.558  11.405  67.990  1.00  0.00    -0.147 C  
HETATM   18  O   UNL     1      -7.993  10.749  68.862  1.00  0.00    -0.126 OA 
HETATM   19  N   UNL     1      -8.029  12.559  67.472  1.00  0.00    -0.164 N  
HETATM   20  O   UNL     1      -8.588  13.288  66.407  1.00  0.00     0.086 OA 
BRANCH  19  21
HETATM   21  C   UNL     1      -6.776  13.145  67.925  1.00  0.00    -0.138 C  
BRANCH  21  22
HETATM   22  C   UNL     1      -6.714  14.655  67.680  1.00  0.00    -0.196 C  
BRANCH  22  23
HETATM   23  C   UNL     1      -7.363  15.474  68.813  1.00  0.00    -0.141 C  
BRANCH  23  24
HETATM   24  C   UNL     1      -7.232  14.815  70.186  1.00  0.00     0.145 C  
BRANCH  24  25
HETATM   25  C   UNL     1      -8.584  14.712  70.890  1.00  0.00     2.957 C  
BRANCH  25  26
HETATM   26  N   UNL     1      -9.567  15.594  70.293  1.00  0.00    -0.009 N  
HETATM   27  H   UNL     1      -9.331  16.576  70.154  1.00  0.00     0.000 HD 
HETATM   28  C   UNL     1     -10.807  15.143  69.908  1.00  0.00    -0.270 C  
HETATM   29  O   UNL     1     -11.168  13.975  70.018  1.00  0.00    -0.156 OA 
BRANCH  28  30
HETATM   30  C   UNL     1     -11.711  16.205  69.337  1.00  0.00    -0.213 C  
BRANCH  30  31
HETATM   31  C   UNL     1     -11.450  17.528  70.039  1.00  0.00     2.232 C  
BRANCH  31  32
HETATM   32  C   UNL     1      -9.978  17.882  69.995  1.00  0.00     1.018 C  
HETATM   33  N   UNL     1      -9.472  18.427  68.840  1.00  0.00    -0.272 N  
HETATM   34  O   UNL     1      -9.295  17.751  71.012  1.00  0.00     4.746 OA 
HETATM   35  O   UNL     1     -10.114  18.179  67.612  1.00  0.00    -0.325 OA 
BRANCH  33  36
HETATM   36  C   UNL     1      -8.049  18.735  68.674  1.00  0.00    -0.333 C  
BRANCH  36  37
HETATM   37  C   UNL     1      -7.822  19.923  67.738  1.00  0.00    -0.329 C  
BRANCH  37  38
HETATM   38  C   UNL     1      -8.973  20.102  66.742  1.00  0.00    -0.431 C  
BRANCH  38  39
HETATM   39  C   UNL     1      -8.461  20.238  65.305  1.00  0.00     0.808 C  
BRANCH  39  40
HETATM   40  C   UNL     1      -7.097  19.577  65.101  1.00  0.00     0.077 C  
HETATM   41  N   UNL     1      -6.043  20.277  65.829  1.00  0.00    -0.190 NA 
HETATM   42  H2  UNL     1      -6.270  20.364  66.819  1.00  0.00     0.000 HD 
HETATM   43  H1  UNL     1      -5.133  19.836  65.693  1.00  0.00     0.000 HD 
ENDBRANCH  39  40
ENDBRANCH  38  39
ENDBRANCH  37  38
ENDBRANCH  36  37
ENDBRANCH  33  36
ENDBRANCH  31  32
ENDBRANCH  30  31
ENDBRANCH  28  30
ENDBRANCH  25  26
ENDBRANCH  24  25
ENDBRANCH  23  24
ENDBRANCH  22  23
ENDBRANCH  21  22
ENDBRANCH  19  21
ENDBRANCH  16  17
ENDBRANCH  15  16
ENDBRANCH  12  15
ENDBRANCH  10  11
ENDBRANCH   9  10
ENDBRANCH   8   9
ENDBRANCH   7   8
ENDBRANCH   6   7
ENDBRANCH   3   6
TORSDOF 23
ENDMDL
MODEL      377
REMARK 921   NORMALIZED FREE ENERGY PREDICTED BY IDOCK:   11.57 KCAL/MOL
REMARK 922        TOTAL FREE ENERGY PREDICTED BY IDOCK:   24.37 KCAL/MOL
REMARK 923 INTER-LIGAND FREE ENERGY PREDICTED BY IDOCK:   13.44 KCAL/MOL
REMARK 924 INTRA-LIGAND FREE ENERGY PREDICTED BY IDOCK:   10.94 KCAL/MOL
REMARK 927      BINDING AFFINITY PREDICTED BY RF-SCORE:    0.00 PKD
ROOT
HETATM    1  C   UNL     1     -11.178  10.916  72.139  1.00  0.00     4.262 C  
HETATM    2  C   UNL     1      -9.948  10.168  71.694  1.00  0.00     2.621 C  
HETATM    3  N   UNL     1     -10.125   9.197  70.744  1.00  0.00    -0.245 N  
HETATM    4  O   UNL     1      -8.853  10.416  72.201  1.00  0.00     4.861 OA 
HETATM    5  O   UNL     1     -11.322   8.990  70.039  1.00  0.00    -0.184 OA 
ENDROOT
BRANCH   3   6
HETATM    6  C   UNL     1      -9.039   8.377  70.223  1.00  0.00    -0.148 C  
BRANCH   6   7
HETATM    7  C   UNL     1      -8.985   8.384  68.694  1.00  0.00    -0.140 C  
BRANCH   7   8
HETATM    8  C   UNL     1     -10.121   7.537  68.117  1.00  0.00    -0.215 C  
BRANCH   8   9
HETATM    9  C   UNL     1     -11.232   8.399  67.513  1.00  0.00     0.652 C  
BRANCH   9  10
HETATM   10  C   UNL     1     -11.730   9.467  68.487  1.00  0.00     0.921 C  
BRANCH  10  11
HETATM   11  N   UNL     1     -11.425  10.816  68.035  1.00  0.00    -0.361 N  
HETATM   12  C   UNL     1     -12.201  11.888  68.417  1.00  0.00     0.197 C  
HETATM   13  H   UNL     1     -10.622  10.971  67.425  1.00  0.00     0.000 HD 
HETATM   14  O   UNL     1     -13.160  11.802  69.178  1.00  0.00     0.899 OA 
BRANCH  12  15
HETATM   15  C   UNL     1     -11.746  13.199  67.813  1.00  0.00    -0.401 C  
BRANCH  15  16
HETATM   16  C   UNL     1     -12.071  13.243  66.322  1.00  0.00    -0.472 C  
BRANCH  16  17
HETATM   17  C   UNL     1     -11.034  14.012  65.526  1.00  0.00    -0.309 C  
HETATM   18  O   UNL     1     -10.069  13.442  65.021  1.00  0.00    -0.301 OA 
HETATM   19  N   UNL     1     -11.223  15.367  65.437  1.00  0.00    -0.308 N  
HETATM   20  O   UNL     1     -12.358  16.049  65.911  1.00  0.00     1.427 OA 
BRANCH  19  21
HETATM   21  C   UNL     1     -10.291  16.269  64.776  1.00  0.00     0.422 C  
BRANCH  21  22
HETATM   22  C   UNL     1     -10.154  17.607  65.508  1.00  0.00     0.199 C  
BRANCH  22  23
HETATM   23  C   UNL     1      -8.911  17.671  66.416  1.00  0.00    -0.263 C  
BRANCH  23  24
HETATM   24  C   UNL     1      -7.606  17.374  65.676  1.00  0.00     0.393 C  
BRANCH  24  25
HETATM   25  C   UNL     1      -6.846  16.217  66.321  1.00  0.00     0.736 C  
BRANCH  25  26
HETATM   26  N   UNL     1      -7.251  16.012  67.697  1.00  0.00    -0.138 N  
HETATM   27  H   UNL     1      -7.049  16.738  68.386  1.00  0.00     0.000 HD 
HETATM   28  C   UNL     1      -7.898  14.869  68.101  1.00  0.00    -0.122 C  
HETATM   29  O   UNL     1      -8.198  13.955  67.338  1.00  0.00    -0.171 OA 
BRANCH  28  30
HETATM   30  C   UNL     1      -8.213  14.812  69.573  1.00  0.00     0.050 C  
BRANCH  30  31
HETATM   31  C   UNL     1      -7.011  15.292  70.371  1.00  0.00     0.271 C  
BRANCH  31  32
HETATM   32  C   UNL     1      -6.300  16.419  69.651  1.00  0.00    -0.211 C  
HETATM   33  N   UNL     1      -6.965  17.610  69.485  1.00  0.00    -0.081 N  
HETATM   34  O   UNL     1      -5.125  16.272  69.308  1.00  0.00    -0.109 OA 
HETATM   35  O   UNL     1      -8.372  17.628  69.484  1.00  0.00     0.320 OA 
BRANCH  33  36
HETATM   36  C   UNL     1      -6.391  18.733  68.741  1.00  0.00    -0.236 C  
BRANCH  36  37
HETATM   37  C   UNL     1      -7.078  20.059  69.076  1.00  0.00    -0.246 C  
BRANCH  37  38
HETATM   38  C   UNL     1      -8.474  19.850  69.672  1.00  0.00     0.599 C  
BRANCH  38  39
HETATM   39  C   UNL     1      -9.563  20.471  68.792  1.00  0.00     0.319 C  
BRANCH  39  40
HETATM   40  C   UNL     1      -9.219  20.416  67.303  1.00  0.00    -0.394 C  
HETATM   41  N   UNL     1      -8.007  21.170  67.000  1.00  0.00    -0.655 NA 
HETATM   42  H2  UNL     1      -7.223  20.861  67.575  1.00  0.00     0.000 HD 
HETATM   43  H1  UNL     1      -7.777  21.134  66.006  1.00  0.00     0.000 HD 
ENDBRANCH  39  40
ENDBRANCH  38  39
ENDBRANCH  37  38
ENDBRANCH  36  37
ENDBRANCH  33  36
ENDBRANCH  31  32
ENDBRANCH  30  31
ENDBRANCH  28  30
ENDBRANCH  25  26
ENDBRANCH  24  25
ENDBRANCH  23  24
ENDBRANCH  22  23
ENDBRANCH  21  22
ENDBRANCH  19  21
ENDBRANCH  16  17
ENDBRANCH  15  16
ENDBRANCH  12  15
ENDBRANCH  10  11
ENDBRANCH   9  10
ENDBRANCH   8   9
ENDBRANCH   7   8
ENDBRANCH   6   7
ENDBRANCH   3   6
TORSDOF 23
ENDMDL
MODEL      378
REMARK 921   NORMALIZED FREE ENERGY PREDICTED BY IDOCK:   13.45 KCAL/MOL
REMARK 922        TOTAL FREE ENERGY PREDICTED BY IDOCK:   28.78 KCAL/MOL
REMARK 923 INTER-LIGAND FREE ENERGY PREDICTED BY IDOCK:    0.06 KCAL/MOL
REMARK 924 INTRA-LIGAND FREE ENERGY PREDICTED BY IDOCK:   28.72 KCAL/MOL
REMARK 927      BINDING AFFINITY PREDICTED BY RF-SCORE:    0.00 PKD
ROOT
HETATM    1  C   UNL     1      -9.756  14.932  70.870  1.00  0.00     1.604 C  
HETATM    2  C   UNL     1      -9.917  15.472  69.473  1.00  0.00    -0.280 C  
HETATM    3  N   UNL     1      -8.905  16.261  68.994  1.00  0.00    -0.248 N  
HETATM    4  O   UNL     1     -10.936  15.226  68.826  1.00  0.00    -0.239 OA 
HETATM    5  O   UNL     1      -7.668  16.437  69.638  1.00  0.00    -0.048 OA 
ENDROOT
BRANCH   3   6
HETATM    6  C   UNL     1      -8.920  16.869  67.670  1.00  0.00    -0.219 C  
BRANCH   6   7
HETATM    7  C   UNL     1      -8.923  15.827  66.550  1.00  0.00    -0.341 C  
BRANCH   7   8
HETATM    8  C   UNL     1     -10.001  16.157  65.516  1.00  0.00    -0.251 C  
BRANCH   8   9
HETATM    9  C   UNL     1     -11.374  16.360  66.161  1.00  0.00     0.525 C  
BRANCH   9  10
HETATM   10  C   UNL     1     -12.472  15.571  65.447  1.00  0.00     0.921 C  
BRANCH  10  11
HETATM   11  N   UNL     1     -11.936  14.523  64.591  1.00  0.00    -0.448 N  
HETATM   12  C   UNL     1     -10.805  13.822  64.946  1.00  0.00    -0.391 C  
HETATM   13  H   UNL     1     -12.407  14.304  63.713  1.00  0.00     0.000 HD 
HETATM   14  O   UNL     1     -10.197  13.991  65.999  1.00  0.00    -0.285 OA 
BRANCH  12  15
HETATM   15  C   UNL     1     -10.385  12.802  63.909  1.00  0.00    -0.352 C  
BRANCH  15  16
HETATM   16  C   UNL     1     -11.180  11.510  64.077  1.00  0.00    -0.414 C  
BRANCH  16  17
HETATM   17  C   UNL     1     -11.473  11.197  65.532  1.00  0.00     0.342 C  
HETATM   18  O   UNL     1     -11.069  10.159  66.053  1.00  0.00     0.261 OA 
HETATM   19  N   UNL     1     -12.234  12.116  66.207  1.00  0.00     0.031 N  
HETATM   20  O   UNL     1     -12.635  13.359  65.686  1.00  0.00    -0.466 OA 
BRANCH  19  21
HETATM   21  C   UNL     1     -12.672  11.944  67.584  1.00  0.00     2.522 C  
BRANCH  21  22
HETATM   22  C   UNL     1     -12.011  10.741  68.262  1.00  0.00     0.074 C  
BRANCH  22  23
HETATM   23  C   UNL     1     -10.914  10.092  67.396  1.00  0.00    -0.258 C  
BRANCH  23  24
HETATM   24  C   UNL     1      -9.715  11.008  67.154  1.00  0.00    -0.198 C  
BRANCH  24  25
HETATM   25  C   UNL     1      -8.422  10.210  66.994  1.00  0.00    -0.129 C  
BRANCH  25  26
HETATM   26  N   UNL     1      -8.668   8.783  67.024  1.00  0.00    -0.122 N  
HETATM   27  H   UNL     1      -9.580   8.431  66.733  1.00  0.00     0.000 HD 
HETATM   28  C   UNL     1      -7.707   7.890  67.435  1.00  0.00    -0.109 C  
HETATM   29  O   UNL     1      -6.578   8.222  67.783  1.00  0.00    -0.059 OA 
BRANCH  28  30
HETATM   30  C   UNL     1      -8.148   6.448  67.434  1.00  0.00    -0.116 C  
BRANCH  30  31
HETATM   31  C   UNL     1      -7.559   5.735  68.641  1.00  0.00    -0.089 C  
BRANCH  31  32
HETATM   32  C   UNL     1      -7.812   6.520  69.911  1.00  0.00    -0.115 C  
HETATM   33  N   UNL     1      -6.959   7.550  70.224  1.00  0.00    -0.054 N  
HETATM   34  O   UNL     1      -8.815   6.273  70.584  1.00  0.00    -0.141 OA 
HETATM   35  O   UNL     1      -5.645   7.544  69.719  1.00  0.00    -0.023 OA 
BRANCH  33  36
HETATM   36  C   UNL     1      -7.078   8.320  71.464  1.00  0.00    -0.078 C  
BRANCH  36  37
HETATM   37  C   UNL     1      -8.191   9.366  71.389  1.00  0.00     0.318 C  
BRANCH  37  38
HETATM   38  C   UNL     1      -9.129   9.127  70.201  1.00  0.00    -0.229 C  
BRANCH  38  39
HETATM   39  C   UNL     1     -10.579   9.478  70.545  1.00  0.00    -0.358 C  
BRANCH  39  40
HETATM   40  C   UNL     1     -10.943   9.125  71.988  1.00  0.00    -0.192 C  
HETATM   41  N   UNL     1     -11.338   7.726  72.119  1.00  0.00    -0.282 NA 
HETATM   42  H2  UNL     1     -10.620   7.102  71.753  1.00  0.00     0.000 HD 
HETATM   43  H1  UNL     1     -11.581   7.490  73.082  1.00  0.00     0.000 HD 
ENDBRANCH  39  40
ENDBRANCH  38  39
ENDBRANCH  37  38
ENDBRANCH  36  37
ENDBRANCH  33  36
ENDBRANCH  31  32
ENDBRANCH  30  31
ENDBRANCH  28  30
ENDBRANCH  25  26
ENDBRANCH  24  25
ENDBRANCH  23  24
ENDBRANCH  22  23
ENDBRANCH  21  22
ENDBRANCH  19  21
ENDBRANCH  16  17
ENDBRANCH  15  16
ENDBRANCH  12  15
ENDBRANCH  10  11
ENDBRANCH   9  10
ENDBRANCH   8   9
ENDBRANCH   7   8
ENDBRANCH   6   7
ENDBRANCH   3   6
TORSDOF 23
ENDMDL
MODEL      379
REMARK 921   NORMALIZED FREE ENERGY PREDICTED BY IDOCK:   15.19 KCAL/MOL
REMARK 922        TOTAL FREE ENERGY PREDICTED BY IDOCK:   32.87 KCAL/MOL
REMARK 923 INTER-LIGAND FREE ENERGY PREDICTED BY IDOCK:   13.10 KCAL/MOL
REMARK 924 INTRA-LIGAND FREE ENERGY PREDICTED BY IDOCK:   19.76 KCAL/MOL
REMARK 927      BINDING AFFINITY PREDICTED BY RF-SCORE:    0.00 PKD
ROOT
HETATM    1  C   UNL     1     -13.715  13.237  68.471  1.00  0.00     7.259 C  
HETATM    2  C   UNL     1     -12.671  14.323  68.492  1.00  0.00     0.857 C  
HETATM    3  N   UNL     1     -11.702  14.230  69.456  1.00  0.00    -0.295 N  
HETATM    4  O   UNL     1     -12.729  15.256  67.691  1.00  0.00     0.946 OA 
HETATM    5  O   UNL     1     -11.516  13.110  70.284  1.00  0.00    -0.074 OA 
ENDROOT
BRANCH   3   6
HETATM    6  C   UNL     1     -10.634  15.207  69.616  1.00  0.00    -0.263 C  
BRANCH   6   7
HETATM    7  C   UNL     1      -9.258  14.629  69.276  1.00  0.00     0.030 C  
BRANCH   7   8
HETATM    8  C   UNL     1      -9.275  13.993  67.885  1.00  0.00    -0.195 C  
BRANCH   8   9
HETATM    9  C   UNL     1     -10.655  14.079  67.229  1.00  0.00    -0.273 C  
BRANCH   9  10
HETATM   10  C   UNL     1     -10.804  13.102  66.062  1.00  0.00    -0.272 C  
BRANCH  10  11
HETATM   11  N   UNL     1     -10.553  11.723  66.456  1.00  0.00    -0.244 N  
HETATM   12  C   UNL     1     -10.404  11.377  67.780  1.00  0.00    -0.182 C  
HETATM   13  H   UNL     1     -10.488  11.002  65.738  1.00  0.00     0.000 HD 
HETATM   14  O   UNL     1     -10.506  12.170  68.711  1.00  0.00    -0.224 OA 
BRANCH  12  15
HETATM   15  C   UNL     1     -10.112   9.905  67.983  1.00  0.00    -0.202 C  
BRANCH  15  16
HETATM   16  C   UNL     1      -9.274   9.362  66.828  1.00  0.00    -0.179 C  
BRANCH  16  17
HETATM   17  C   UNL     1      -8.069   8.576  67.308  1.00  0.00    -0.105 C  
HETATM   18  O   UNL     1      -8.202   7.561  67.988  1.00  0.00    -0.122 OA 
HETATM   19  N   UNL     1      -6.841   9.083  66.967  1.00  0.00    -0.076 N  
HETATM   20  O   UNL     1      -6.639  10.181  66.112  1.00  0.00    -0.085 OA 
BRANCH  19  21
HETATM   21  C   UNL     1      -5.580   8.502  67.403  1.00  0.00    -0.039 C  
BRANCH  21  22
HETATM   22  C   UNL     1      -5.383   7.075  66.883  1.00  0.00    -0.018 C  
BRANCH  22  23
HETATM   23  C   UNL     1      -5.698   6.934  65.382  1.00  0.00    -0.031 C  
BRANCH  23  24
HETATM   24  C   UNL     1      -6.724   5.842  65.079  1.00  0.00    -0.043 C  
BRANCH  24  25
HETATM   25  C   UNL     1      -7.104   5.065  66.338  1.00  0.00    -0.072 C  
BRANCH  25  26
HETATM   26  N   UNL     1      -6.097   5.195  67.372  1.00  0.00    -0.029 N  
HETATM   27  H   UNL     1      -5.182   5.574  67.127  1.00  0.00     0.000 HD 
HETATM   28  C   UNL     1      -6.341   4.824  68.672  1.00  0.00    -0.036 C  
HETATM   29  O   UNL     1      -7.417   4.378  69.060  1.00  0.00    -0.055 OA 
BRANCH  28  30
HETATM   30  C   UNL     1      -5.169   4.998  69.605  1.00  0.00     0.000 C  
BRANCH  30  31
HETATM   31  C   UNL     1      -5.536   5.979  70.706  1.00  0.00    -0.014 C  
BRANCH  31  32
HETATM   32  C   UNL     1      -6.963   6.460  70.548  1.00  0.00    -0.064 C  
HETATM   33  N   UNL     1      -7.294   7.699  71.043  1.00  0.00    -0.069 N  
HETATM   34  O   UNL     1      -7.766   5.773  69.914  1.00  0.00    -0.083 OA 
HETATM   35  O   UNL     1      -6.536   8.256  72.090  1.00  0.00    -0.057 OA 
BRANCH  33  36
HETATM   36  C   UNL     1      -8.661   8.221  71.004  1.00  0.00    -0.146 C  
BRANCH  36  37
HETATM   37  C   UNL     1      -8.842   9.434  71.919  1.00  0.00     0.828 C  
BRANCH  37  38
HETATM   38  C   UNL     1      -8.616  10.755  71.178  1.00  0.00     4.848 C  
BRANCH  38  39
HETATM   39  C   UNL     1      -7.129  11.010  70.916  1.00  0.00     1.943 C  
BRANCH  39  40
HETATM   40  C   UNL     1      -6.894  12.064  69.833  1.00  0.00     0.283 C  
HETATM   41  N   UNL     1      -8.027  12.161  68.918  1.00  0.00    -0.345 NA 
HETATM   42  H2  UNL     1      -8.897  12.332  69.421  1.00  0.00     0.000 HD 
HETATM   43  H1  UNL     1      -7.870  12.864  68.195  1.00  0.00     0.000 HD 
ENDBRANCH  39  40
ENDBRANCH  38  39
ENDBRANCH  37  38
ENDBRANCH  36  37
ENDBRANCH  33  36
ENDBRANCH  31  32
ENDBRANCH  30  31
ENDBRANCH  28  30
ENDBRANCH  25  26
ENDBRANCH  24  25
ENDBRANCH  23  24
ENDBRANCH  22  23
ENDBRANCH  21  22
ENDBRANCH  19  21
ENDBRANCH  16  17
ENDBRANCH  15  16
ENDBRANCH  12  15
ENDBRANCH  10  11
ENDBRANCH   9  10
ENDBRANCH   8   9
ENDBRANCH   7   8
ENDBRANCH   6   7
ENDBRANCH   3   6
TORSDOF 23
ENDMDL
MODEL      380
REMARK 921   NORMALIZED FREE ENERGY PREDICTED BY IDOCK:   15.98 KCAL/MOL
REMARK 922        TOTAL FREE ENERGY PREDICTED BY IDOCK:   34.71 KCAL/MOL
REMARK 923 INTER-LIGAND FREE ENERGY PREDICTED BY IDOCK:    9.94 KCAL/MOL
REMARK 924 INTRA-LIGAND FREE ENERGY PREDICTED BY IDOCK:   24.77 KCAL/MOL
REMARK 927      BINDING AFFINITY PREDICTED BY RF-SCORE:    0.00 PKD
ROOT
HETATM    1  C   UNL     1     -14.023  13.165  68.426  1.00  0.00    10.289 C  
HETATM    2  C   UNL     1     -13.139  14.305  68.860  1.00  0.00     1.934 C  
HETATM    3  N   UNL     1     -12.449  14.141  70.033  1.00  0.00    -0.335 N  
HETATM    4  O   UNL     1     -13.082  15.337  68.191  1.00  0.00     1.756 OA 
HETATM    5  O   UNL     1     -12.370  12.929  70.740  1.00  0.00    -0.368 OA 
ENDROOT
BRANCH   3   6
HETATM    6  C   UNL     1     -11.566  15.155  70.593  1.00  0.00    -0.309 C  
BRANCH   6   7
HETATM    7  C   UNL     1     -10.150  15.078  70.018  1.00  0.00    -0.016 C  
BRANCH   7   8
HETATM    8  C   UNL     1     -10.191  15.122  68.490  1.00  0.00    -0.231 C  
BRANCH   8   9
HETATM    9  C   UNL     1     -11.600  15.389  67.959  1.00  0.00    -0.303 C  
BRANCH   9  10
HETATM   10  C   UNL     1     -11.799  14.846  66.543  1.00  0.00    -0.140 C  
BRANCH  10  11
HETATM   11  N   UNL     1     -11.471  13.432  66.438  1.00  0.00    -0.317 N  
HETATM   12  C   UNL     1     -11.364  12.641  67.560  1.00  0.00    -0.308 C  
HETATM   13  H   UNL     1     -11.318  13.021  65.518  1.00  0.00     0.000 HD 
HETATM   14  O   UNL     1     -11.570  13.042  68.703  1.00  0.00    -0.274 OA 
BRANCH  12  15
HETATM   15  C   UNL     1     -10.979  11.211  67.248  1.00  0.00    -0.354 C  
BRANCH  15  16
HETATM   16  C   UNL     1      -9.995  11.165  66.082  1.00  0.00    -0.273 C  
BRANCH  16  17
HETATM   17  C   UNL     1      -8.704  10.455  66.442  1.00  0.00    -0.141 C  
HETATM   18  O   UNL     1      -8.698   9.265  66.751  1.00  0.00    -0.125 OA 
HETATM   19  N   UNL     1      -7.568  11.223  66.432  1.00  0.00    -0.113 N  
HETATM   20  O   UNL     1      -7.509  12.557  65.992  1.00  0.00     1.155 OA 
BRANCH  19  21
HETATM   21  C   UNL     1      -6.257  10.726  66.821  1.00  0.00    -0.083 C  
BRANCH  21  22
HETATM   22  C   UNL     1      -5.686   9.728  65.810  1.00  0.00    -0.052 C  
BRANCH  22  23
HETATM   23  C   UNL     1      -5.738  10.245  64.360  1.00  0.00    -0.137 C  
BRANCH  23  24
HETATM   24  C   UNL     1      -6.383   9.257  63.388  1.00  0.00    -0.091 C  
BRANCH  24  25
HETATM   25  C   UNL     1      -6.752   7.947  64.083  1.00  0.00    -0.061 C  
BRANCH  25  26
HETATM   26  N   UNL     1      -6.006   7.765  65.312  1.00  0.00    -0.038 N  
HETATM   27  H   UNL     1      -5.101   8.224  65.415  1.00  0.00     0.000 HD 
HETATM   28  C   UNL     1      -6.484   6.991  66.342  1.00  0.00    -0.051 C  
HETATM   29  O   UNL     1      -7.569   6.419  66.313  1.00  0.00    -0.087 OA 
BRANCH  28  30
HETATM   30  C   UNL     1      -5.561   6.886  67.529  1.00  0.00    -0.020 C  
BRANCH  30  31
HETATM   31  C   UNL     1      -6.156   7.642  68.706  1.00  0.00    -0.031 C  
BRANCH  31  32
HETATM   32  C   UNL     1      -7.124   6.768  69.476  1.00  0.00    -0.072 C  
HETATM   33  N   UNL     1      -8.153   7.373  70.156  1.00  0.00    -0.128 N  
HETATM   34  O   UNL     1      -7.016   5.541  69.409  1.00  0.00    -0.058 OA 
HETATM   35  O   UNL     1      -8.022   8.712  70.570  1.00  0.00    -0.088 OA 
BRANCH  33  36
HETATM   36  C   UNL     1      -9.095   6.621  70.987  1.00  0.00    -0.156 C  
BRANCH  36  37
HETATM   37  C   UNL     1      -9.809   7.515  72.003  1.00  0.00    -0.200 C  
BRANCH  37  38
HETATM   38  C   UNL     1     -11.151   6.925  72.449  1.00  0.00    -0.296 C  
BRANCH  38  39
HETATM   39  C   UNL     1     -12.219   7.063  71.360  1.00  0.00    -0.407 C  
BRANCH  39  40
HETATM   40  C   UNL     1     -13.552   6.429  71.760  1.00  0.00     0.418 C  
HETATM   41  N   UNL     1     -13.384   5.440  72.820  1.00  0.00     0.053 NA 
HETATM   42  H2  UNL     1     -12.905   5.837  73.627  1.00  0.00     0.000 HD 
HETATM   43  H1  UNL     1     -14.273   5.017  73.086  1.00  0.00     0.000 HD 
ENDBRANCH  39  40
ENDBRANCH  38  39
ENDBRANCH  37  38
ENDBRANCH  36  37
ENDBRANCH  33  36
ENDBRANCH  31  32
ENDBRANCH  30  31
ENDBRANCH  28  30
ENDBRANCH  25  26
ENDBRANCH  24  25
ENDBRANCH  23  24
ENDBRANCH  22  23
ENDBRANCH  21  22
ENDBRANCH  19  21
ENDBRANCH  16  17
ENDBRANCH  15  16
ENDBRANCH  12  15
ENDBRANCH  10  11
ENDBRANCH   9  10
ENDBRANCH   8   9
ENDBRANCH   7   8
ENDBRANCH   6   7
ENDBRANCH   3   6
TORSDOF 23
ENDMDL
MODEL      381
REMARK 921   NORMALIZED FREE ENERGY PREDICTED BY IDOCK:   17.15 KCAL/MOL
REMARK 922        TOTAL FREE ENERGY PREDICTED BY IDOCK:   37.45 KCAL/MOL
REMARK 923 INTER-LIGAND FREE ENERGY PREDICTED BY IDOCK:   10.58 KCAL/MOL
REMARK 924 INTRA-LIGAND FREE ENERGY PREDICTED BY IDOCK:   26.87 KCAL/MOL
REMARK 927      BINDING AFFINITY PREDICTED BY RF-SCORE:    0.00 PKD
ROOT
HETATM    1  C   UNL     1     -12.209  17.683  66.507  1.00  0.00     4.493 C  
HETATM    2  C   UNL     1     -12.384  16.421  67.311  1.00  0.00     2.182 C  
HETATM    3  N   UNL     1     -12.049  16.481  68.638  1.00  0.00     0.392 N  
HETATM    4  O   UNL     1     -12.781  15.389  66.768  1.00  0.00     1.183 OA 
HETATM    5  O   UNL     1     -11.740  17.669  69.321  1.00  0.00     1.702 OA 
ENDROOT
BRANCH   3   6
HETATM    6  C   UNL     1     -12.148  15.344  69.542  1.00  0.00    -0.305 C  
BRANCH   6   7
HETATM    7  C   UNL     1     -11.960  15.745  71.007  1.00  0.00    -0.462 C  
BRANCH   7   8
HETATM    8  C   UNL     1     -10.485  16.027  71.299  1.00  0.00     0.981 C  
BRANCH   8   9
HETATM    9  C   UNL     1      -9.580  14.880  70.847  1.00  0.00     1.790 C  
BRANCH   9  10
HETATM   10  C   UNL     1     -10.171  14.104  69.669  1.00  0.00     0.370 C  
BRANCH  10  11
HETATM   11  N   UNL     1      -9.235  13.976  68.562  1.00  0.00    -0.259 N  
HETATM   12  C   UNL     1      -7.879  13.885  68.783  1.00  0.00    -0.079 C  
HETATM   13  H   UNL     1      -9.590  13.953  67.606  1.00  0.00     0.000 HD 
HETATM   14  O   UNL     1      -7.367  13.865  69.899  1.00  0.00     0.267 OA 
BRANCH  12  15
HETATM   15  C   UNL     1      -7.071  13.797  67.506  1.00  0.00    -0.172 C  
BRANCH  15  16
HETATM   16  C   UNL     1      -5.862  12.885  67.701  1.00  0.00    -0.136 C  
BRANCH  16  17
HETATM   17  C   UNL     1      -6.197  11.645  68.507  1.00  0.00    -0.051 C  
HETATM   18  O   UNL     1      -5.525  11.322  69.485  1.00  0.00    -0.044 OA 
HETATM   19  N   UNL     1      -7.260  10.903  68.062  1.00  0.00    -0.084 N  
HETATM   20  O   UNL     1      -8.116  11.282  67.013  1.00  0.00    -0.136 OA 
BRANCH  19  21
HETATM   21  C   UNL     1      -7.677   9.647  68.669  1.00  0.00    -0.080 C  
BRANCH  21  22
HETATM   22  C   UNL     1      -8.007   9.798  70.156  1.00  0.00    -0.201 C  
BRANCH  22  23
HETATM   23  C   UNL     1      -9.514   9.680  70.452  1.00  0.00    -0.280 C  
BRANCH  23  24
HETATM   24  C   UNL     1      -9.868   8.465  71.310  1.00  0.00    -0.255 C  
BRANCH  24  25
HETATM   25  C   UNL     1     -10.869   7.552  70.603  1.00  0.00    -0.240 C  
BRANCH  25  26
HETATM   26  N   UNL     1     -10.743   7.634  69.162  1.00  0.00    -0.360 N  
HETATM   27  H   UNL     1     -11.124   8.447  68.677  1.00  0.00     0.000 HD 
HETATM   28  C   UNL     1     -10.124   6.648  68.430  1.00  0.00    -0.156 C  
HETATM   29  O   UNL     1      -9.621   5.648  68.931  1.00  0.00    -0.122 OA 
BRANCH  28  30
HETATM   30  C   UNL     1     -10.115   6.884  66.942  1.00  0.00    -0.286 C  
BRANCH  30  31
HETATM   31  C   UNL     1      -8.773   6.458  66.367  1.00  0.00    -0.140 C  
BRANCH  31  32
HETATM   32  C   UNL     1      -8.001   7.654  65.852  1.00  0.00    -0.116 C  
HETATM   33  N   UNL     1      -8.699   8.671  65.247  1.00  0.00    -0.183 N  
HETATM   34  O   UNL     1      -6.788   7.726  66.060  1.00  0.00    -0.055 OA 
HETATM   35  O   UNL     1      -9.947   8.403  64.653  1.00  0.00     1.877 OA 
BRANCH  33  36
HETATM   36  C   UNL     1      -8.036   9.834  64.653  1.00  0.00    -0.148 C  
BRANCH  36  37
HETATM   37  C   UNL     1      -7.135   9.448  63.478  1.00  0.00    -0.097 C  
BRANCH  37  38
HETATM   38  C   UNL     1      -6.328   8.177  63.764  1.00  0.00    -0.071 C  
BRANCH  38  39
HETATM   39  C   UNL     1      -7.202   7.078  64.375  1.00  0.00    -0.071 C  
BRANCH  39  40
HETATM   40  C   UNL     1      -6.554   6.421  65.595  1.00  0.00    -0.047 C  
HETATM   41  N   UNL     1      -5.325   7.102  65.986  1.00  0.00    -0.023 NA 
HETATM   42  H2  UNL     1      -5.485   8.097  66.141  1.00  0.00     0.000 HD 
HETATM   43  H1  UNL     1      -4.892   6.664  66.800  1.00  0.00     0.000 HD 
ENDBRANCH  39  40
ENDBRANCH  38  39
ENDBRANCH  37  38
ENDBRANCH  36  37
ENDBRANCH  33  36
ENDBRANCH  31  32
ENDBRANCH  30  31
ENDBRANCH  28  30
ENDBRANCH  25  26
ENDBRANCH  24  25
ENDBRANCH  23  24
ENDBRANCH  22  23
ENDBRANCH  21  22
ENDBRANCH  19  21
ENDBRANCH  16  17
ENDBRANCH  15  16
ENDBRANCH  12  15
ENDBRANCH  10  11
ENDBRANCH   9  10
ENDBRANCH   8   9
ENDBRANCH   7   8
ENDBRANCH   6   7
ENDBRANCH   3   6
TORSDOF 23
ENDMDL
MODEL      382
REMARK 921   NORMALIZED FREE ENERGY PREDICTED BY IDOCK:   21.01 KCAL/MOL
REMARK 922        TOTAL FREE ENERGY PREDICTED BY IDOCK:   46.51 KCAL/MOL
REMARK 923 INTER-LIGAND FREE ENERGY PREDICTED BY IDOCK:   27.94 KCAL/MOL
REMARK 924 INTRA-LIGAND FREE ENERGY PREDICTED BY IDOCK:   18.58 KCAL/MOL
REMARK 927      BINDING AFFINITY PREDICTED BY RF-SCORE:    0.00 PKD
ROOT
HETATM    1  C   UNL     1     -11.989  11.471  62.880  1.00  0.00     0.418 C  
HETATM    2  C   UNL     1     -12.006  10.183  63.661  1.00  0.00     6.097 C  
HETATM    3  N   UNL     1     -10.794   9.592  63.906  1.00  0.00     3.672 N  
HETATM    4  O   UNL     1     -13.075   9.690  64.023  1.00  0.00    10.448 OA 
HETATM    5  O   UNL     1      -9.553  10.197  63.643  1.00  0.00    -0.294 OA 
ENDROOT
BRANCH   3   6
HETATM    6  C   UNL     1     -10.645   8.339  64.633  1.00  0.00     6.851 C  
BRANCH   6   7
HETATM    7  C   UNL     1     -10.565   8.548  66.146  1.00  0.00     0.825 C  
BRANCH   7   8
HETATM    8  C   UNL     1     -10.624   7.205  66.875  1.00  0.00    -0.371 C  
BRANCH   8   9
HETATM    9  C   UNL     1     -11.281   7.325  68.252  1.00  0.00     0.192 C  
BRANCH   9  10
HETATM   10  C   UNL     1     -10.947   8.649  68.940  1.00  0.00     0.120 C  
BRANCH  10  11
HETATM   11  N   UNL     1      -9.809   9.320  68.331  1.00  0.00    -0.151 N  
HETATM   12  C   UNL     1      -9.377  10.546  68.787  1.00  0.00    -0.180 C  
HETATM   13  H   UNL     1      -9.322   8.875  67.553  1.00  0.00     0.000 HD 
HETATM   14  O   UNL     1      -9.876  11.136  69.741  1.00  0.00     0.264 OA 
BRANCH  12  15
HETATM   15  C   UNL     1      -8.206  11.096  68.001  1.00  0.00    -0.125 C  
BRANCH  15  16
HETATM   16  C   UNL     1      -6.939  10.297  68.299  1.00  0.00    -0.073 C  
BRANCH  16  17
HETATM   17  C   UNL     1      -6.903   9.781  69.725  1.00  0.00    -0.074 C  
HETATM   18  O   UNL     1      -6.630  10.526  70.664  1.00  0.00    -0.313 OA 
HETATM   19  N   UNL     1      -7.159   8.445  69.891  1.00  0.00    -0.050 N  
HETATM   20  O   UNL     1      -7.573   7.577  68.865  1.00  0.00    -0.100 OA 
BRANCH  19  21
HETATM   21  C   UNL     1      -7.095   7.766  71.176  1.00  0.00    -0.050 C  
BRANCH  21  22
HETATM   22  C   UNL     1      -7.818   8.539  72.283  1.00  0.00    -0.122 C  
BRANCH  22  23
HETATM   23  C   UNL     1      -9.283   8.862  71.931  1.00  0.00    -0.240 C  
BRANCH  23  24
HETATM   24  C   UNL     1     -10.139   7.615  71.703  1.00  0.00    -0.212 C  
BRANCH  24  25
HETATM   25  C   UNL     1     -11.111   7.808  70.541  1.00  0.00    -0.257 C  
BRANCH  25  26
HETATM   26  N   UNL     1     -11.780   9.091  70.609  1.00  0.00    -0.414 N  
HETATM   27  H   UNL     1     -11.276   9.929  70.316  1.00  0.00     0.000 HD 
HETATM   28  C   UNL     1     -13.073   9.212  71.058  1.00  0.00    -0.061 C  
HETATM   29  O   UNL     1     -13.760   8.258  71.411  1.00  0.00    -0.309 OA 
BRANCH  28  30
HETATM   30  C   UNL     1     -13.596  10.626  71.094  1.00  0.00     0.188 C  
BRANCH  30  31
HETATM   31  C   UNL     1     -12.493  11.587  70.680  1.00  0.00    -0.405 C  
BRANCH  31  32
HETATM   32  C   UNL     1     -12.659  12.011  69.236  1.00  0.00     0.539 C  
HETATM   33  N   UNL     1     -11.653  12.739  68.649  1.00  0.00    -0.292 N  
HETATM   34  O   UNL     1     -13.645  11.628  68.603  1.00  0.00     3.975 OA 
HETATM   35  O   UNL     1     -10.787  13.505  69.452  1.00  0.00    -0.133 OA 
BRANCH  33  36
HETATM   36  C   UNL     1     -11.752  13.257  67.282  1.00  0.00    -0.377 C  
BRANCH  36  37
HETATM   37  C   UNL     1     -11.113  14.640  67.142  1.00  0.00    -0.328 C  
BRANCH  37  38
HETATM   38  C   UNL     1     -10.577  14.887  65.728  1.00  0.00    -0.342 C  
BRANCH  38  39
HETATM   39  C   UNL     1     -11.569  14.422  64.658  1.00  0.00    -0.414 C  
BRANCH  39  40
HETATM   40  C   UNL     1     -10.931  13.487  63.630  1.00  0.00     0.365 C  
HETATM   41  N   UNL     1     -10.892  12.107  64.104  1.00  0.00    -0.327 NA 
HETATM   42  H2  UNL     1     -11.819  11.783  64.378  1.00  0.00     0.000 HD 
HETATM   43  H1  UNL     1     -10.466  11.483  63.419  1.00  0.00     0.000 HD 
ENDBRANCH  39  40
ENDBRANCH  38  39
ENDBRANCH  37  38
ENDBRANCH  36  37
ENDBRANCH  33  36
ENDBRANCH  31  32
ENDBRANCH  30  31
ENDBRANCH  28  30
ENDBRANCH  25  26
ENDBRANCH  24  25
ENDBRANCH  23  24
ENDBRANCH  22  23
ENDBRANCH  21  22
ENDBRANCH  19  21
ENDBRANCH  16  17
ENDBRANCH  15  16
ENDBRANCH  12  15
ENDBRANCH  10  11
ENDBRANCH   9  10
ENDBRANCH   8   9
ENDBRANCH   7   8
ENDBRANCH   6   7
ENDBRANCH   3   6
TORSDOF 23
ENDMDL
MODEL      383
REMARK 921   NORMALIZED FREE ENERGY PREDICTED BY IDOCK:   21.57 KCAL/MOL
REMARK 922        TOTAL FREE ENERGY PREDICTED BY IDOCK:   47.81 KCAL/MOL
REMARK 923 INTER-LIGAND FREE ENERGY PREDICTED BY IDOCK:   37.92 KCAL/MOL
REMARK 924 INTRA-LIGAND FREE ENERGY PREDICTED BY IDOCK:    9.89 KCAL/MOL
REMARK 927      BINDING AFFINITY PREDICTED BY RF-SCORE:    0.00 PKD
ROOT
HETATM    1  C   UNL     1     -12.020  11.456  62.885  1.00  0.00     0.579 C  
HETATM    2  C   UNL     1     -12.014  10.210  63.731  1.00  0.00     6.103 C  
HETATM    3  N   UNL     1     -10.791   9.654  64.004  1.00  0.00     3.527 N  
HETATM    4  O   UNL     1     -13.073   9.718  64.119  1.00  0.00     9.655 OA 
HETATM    5  O   UNL     1      -9.561  10.266  63.709  1.00  0.00    -0.288 OA 
ENDROOT
BRANCH   3   6
HETATM    6  C   UNL     1     -10.620   8.442  64.794  1.00  0.00     5.995 C  
BRANCH   6   7
HETATM    7  C   UNL     1     -10.526   8.732  66.293  1.00  0.00     0.160 C  
BRANCH   7   8
HETATM    8  C   UNL     1     -10.466   7.426  67.087  1.00  0.00    -0.403 C  
BRANCH   8   9
HETATM    9  C   UNL     1     -11.071   7.574  68.485  1.00  0.00     0.182 C  
BRANCH   9  10
HETATM   10  C   UNL     1     -10.862   8.975  69.062  1.00  0.00    -0.067 C  
BRANCH  10  11
HETATM   11  N   UNL     1      -9.943   9.773  68.264  1.00  0.00    -0.149 N  
HETATM   12  C   UNL     1      -9.608  11.056  68.634  1.00  0.00    -0.195 C  
HETATM   13  H   UNL     1      -9.539   9.374  67.416  1.00  0.00     0.000 HD 
HETATM   14  O   UNL     1     -10.013  11.601  69.657  1.00  0.00     0.436 OA 
BRANCH  12  15
HETATM   15  C   UNL     1      -8.671  11.734  67.658  1.00  0.00    -0.159 C  
BRANCH  15  16
HETATM   16  C   UNL     1      -7.303  11.057  67.672  1.00  0.00    -0.094 C  
BRANCH  16  17
HETATM   17  C   UNL     1      -6.950  10.495  69.036  1.00  0.00    -0.076 C  
HETATM   18  O   UNL     1      -6.525  11.220  69.932  1.00  0.00    -0.129 OA 
HETATM   19  N   UNL     1      -7.104   9.141  69.189  1.00  0.00    -0.062 N  
HETATM   20  O   UNL     1      -7.678   8.288  68.231  1.00  0.00    -0.102 OA 
BRANCH  19  21
HETATM   21  C   UNL     1      -6.745   8.422  70.403  1.00  0.00    -0.036 C  
BRANCH  21  22
HETATM   22  C   UNL     1      -7.212   9.144  71.670  1.00  0.00     0.083 C  
BRANCH  22  23
HETATM   23  C   UNL     1      -8.711   9.496  71.643  1.00  0.00     0.869 C  
BRANCH  23  24
HETATM   24  C   UNL     1      -9.613   8.284  71.408  1.00  0.00    -0.231 C  
BRANCH  24  25
HETATM   25  C   UNL     1     -10.869   8.662  70.626  1.00  0.00    -0.229 C  
BRANCH  25  26
HETATM   26  N   UNL     1     -11.525   9.821  71.196  1.00  0.00    -0.373 N  
HETATM   27  H   UNL     1     -11.171  10.751  70.971  1.00  0.00     0.000 HD 
HETATM   28  C   UNL     1     -12.611   9.704  72.031  1.00  0.00    -0.361 C  
HETATM   29  O   UNL     1     -13.115   8.628  72.338  1.00  0.00    -0.373 OA 
BRANCH  28  30
HETATM   30  C   UNL     1     -13.143  11.012  72.557  1.00  0.00     0.654 C  
BRANCH  30  31
HETATM   31  C   UNL     1     -12.320  12.160  71.994  1.00  0.00     0.664 C  
BRANCH  31  32
HETATM   32  C   UNL     1     -13.087  12.899  70.918  1.00  0.00     0.092 C  
HETATM   33  N   UNL     1     -12.440  13.885  70.214  1.00  0.00    -0.333 N  
HETATM   34  O   UNL     1     -14.237  12.547  70.646  1.00  0.00     2.921 OA 
HETATM   35  O   UNL     1     -11.338  14.545  70.792  1.00  0.00    -0.193 OA 
BRANCH  33  36
HETATM   36  C   UNL     1     -13.116  14.705  69.207  1.00  0.00     1.222 C  
BRANCH  36  37
HETATM   37  C   UNL     1     -12.645  16.161  69.236  1.00  0.00     0.891 C  
BRANCH  37  38
HETATM   38  C   UNL     1     -12.814  16.849  67.878  1.00  0.00     4.160 C  
BRANCH  38  39
HETATM   39  C   UNL     1     -11.519  17.528  67.423  1.00  0.00     0.824 C  
BRANCH  39  40
HETATM   40  C   UNL     1     -11.728  18.989  67.024  1.00  0.00     1.594 C  
HETATM   41  N   UNL     1     -11.714  19.874  68.184  1.00  0.00     1.164 NA 
HETATM   42  H2  UNL     1     -10.862  19.756  68.731  1.00  0.00     0.000 HD 
HETATM   43  H1  UNL     1     -11.855  20.849  67.918  1.00  0.00     0.000 HD 
ENDBRANCH  39  40
ENDBRANCH  38  39
ENDBRANCH  37  38
ENDBRANCH  36  37
ENDBRANCH  33  36
ENDBRANCH  31  32
ENDBRANCH  30  31
ENDBRANCH  28  30
ENDBRANCH  25  26
ENDBRANCH  24  25
ENDBRANCH  23  24
ENDBRANCH  22  23
ENDBRANCH  21  22
ENDBRANCH  19  21
ENDBRANCH  16  17
ENDBRANCH  15  16
ENDBRANCH  12  15
ENDBRANCH  10  11
ENDBRANCH   9  10
ENDBRANCH   8   9
ENDBRANCH   7   8
ENDBRANCH   6   7
ENDBRANCH   3   6
TORSDOF 23
ENDMDL
MODEL      384
REMARK 921   NORMALIZED FREE ENERGY PREDICTED BY IDOCK:   23.58 KCAL/MOL
REMARK 922        TOTAL FREE ENERGY PREDICTED BY IDOCK:   52.54 KCAL/MOL
REMARK 923 INTER-LIGAND FREE ENERGY PREDICTED BY IDOCK:   34.64 KCAL/MOL
REMARK 924 INTRA-LIGAND FREE ENERGY PREDICTED BY IDOCK:   17.90 KCAL/MOL
REMARK 927      BINDING AFFINITY PREDICTED BY RF-SCORE:    0.00 PKD
ROOT
HETATM    1  C   UNL     1     -12.140  11.295  62.900  1.00  0.00     0.811 C  
HETATM    2  C   UNL     1     -12.226  10.010  63.682  1.00  0.00     7.848 C  
HETATM    3  N   UNL     1     -11.046   9.363  63.940  1.00  0.00     6.344 N  
HETATM    4  O   UNL     1     -13.321   9.569  64.031  1.00  0.00    11.431 OA 
HETATM    5  O   UNL     1      -9.775   9.908  63.692  1.00  0.00    -0.138 OA 
ENDROOT
BRANCH   3   6
HETATM    6  C   UNL     1     -10.965   8.104  64.669  1.00  0.00     9.976 C  
BRANCH   6   7
HETATM    7  C   UNL     1     -10.859   8.312  66.181  1.00  0.00     1.648 C  
BRANCH   7   8
HETATM    8  C   UNL     1     -10.637   6.974  66.890  1.00  0.00    -0.372 C  
BRANCH   8   9
HETATM    9  C   UNL     1     -10.046   7.155  68.289  1.00  0.00    -0.187 C  
BRANCH   9  10
HETATM   10  C   UNL     1      -9.282   8.472  68.430  1.00  0.00    -0.135 C  
BRANCH  10  11
HETATM   11  N   UNL     1      -9.372   9.298  67.235  1.00  0.00    -0.129 N  
HETATM   12  C   UNL     1      -8.633  10.452  67.109  1.00  0.00    -0.130 C  
HETATM   13  H   UNL     1      -9.995   9.016  66.478  1.00  0.00     0.000 HD 
HETATM   14  O   UNL     1      -7.831  10.847  67.951  1.00  0.00    -0.105 OA 
BRANCH  12  15
HETATM   15  C   UNL     1      -8.894  11.190  65.813  1.00  0.00    -0.182 C  
BRANCH  15  16
HETATM   16  C   UNL     1      -8.488  10.331  64.618  1.00  0.00    -0.179 C  
BRANCH  16  17
HETATM   17  C   UNL     1      -7.253   9.497  64.898  1.00  0.00    -0.111 C  
HETATM   18  O   UNL     1      -6.124   9.956  64.731  1.00  0.00    -0.086 OA 
HETATM   19  N   UNL     1      -7.474   8.209  65.311  1.00  0.00    -0.076 N  
HETATM   20  O   UNL     1      -8.739   7.672  65.611  1.00  0.00    -0.151 OA 
BRANCH  19  21
HETATM   21  C   UNL     1      -6.410   7.246  65.554  1.00  0.00    -0.038 C  
BRANCH  21  22
HETATM   22  C   UNL     1      -5.183   7.885  66.211  1.00  0.00    -0.025 C  
BRANCH  22  23
HETATM   23  C   UNL     1      -5.538   8.747  67.437  1.00  0.00    -0.039 C  
BRANCH  23  24
HETATM   24  C   UNL     1      -6.363   7.997  68.484  1.00  0.00    -0.053 C  
BRANCH  24  25
HETATM   25  C   UNL     1      -7.246   8.948  69.289  1.00  0.00    -0.066 C  
BRANCH  25  26
HETATM   26  N   UNL     1      -6.503  10.103  69.754  1.00  0.00    -0.060 N  
HETATM   27  H   UNL     1      -6.422  10.917  69.145  1.00  0.00     0.000 HD 
HETATM   28  C   UNL     1      -5.906  10.132  70.992  1.00  0.00    -0.059 C  
HETATM   29  O   UNL     1      -5.970   9.207  71.796  1.00  0.00    -0.074 OA 
BRANCH  28  30
HETATM   30  C   UNL     1      -5.148  11.399  71.294  1.00  0.00    -0.092 C  
BRANCH  30  31
HETATM   31  C   UNL     1      -5.267  12.356  70.118  1.00  0.00    -0.101 C  
BRANCH  31  32
HETATM   32  C   UNL     1      -6.261  13.459  70.417  1.00  0.00    -0.006 C  
HETATM   33  N   UNL     1      -6.629  14.301  69.396  1.00  0.00    -0.126 N  
HETATM   34  O   UNL     1      -6.772  13.524  71.537  1.00  0.00     0.904 OA 
HETATM   35  O   UNL     1      -5.764  14.489  68.302  1.00  0.00    -0.100 OA 
BRANCH  33  36
HETATM   36  C   UNL     1      -7.526  15.440  69.602  1.00  0.00    -0.170 C  
BRANCH  36  37
HETATM   37  C   UNL     1      -7.157  16.632  68.717  1.00  0.00    -0.194 C  
BRANCH  37  38
HETATM   38  C   UNL     1      -8.371  17.511  68.397  1.00  0.00    -0.278 C  
BRANCH  38  39
HETATM   39  C   UNL     1      -8.545  17.707  66.888  1.00  0.00    -0.260 C  
BRANCH  39  40
HETATM   40  C   UNL     1      -8.706  19.178  66.500  1.00  0.00    -0.337 C  
HETATM   41  N   UNL     1      -7.415  19.848  66.377  1.00  0.00    -0.270 NA 
HETATM   42  H2  UNL     1      -6.802  19.357  65.727  1.00  0.00     0.000 HD 
HETATM   43  H1  UNL     1      -7.522  20.829  66.119  1.00  0.00     0.000 HD 
ENDBRANCH  39  40
ENDBRANCH  38  39
ENDBRANCH  37  38
ENDBRANCH  36  37
ENDBRANCH  33  36
ENDBRANCH  31  32
ENDBRANCH  30  31
ENDBRANCH  28  30
ENDBRANCH  25  26
ENDBRANCH  24  25
ENDBRANCH  23  24
ENDBRANCH  22  23
ENDBRANCH  21  22
ENDBRANCH  19  21
ENDBRANCH  16  17
ENDBRANCH  15  16
ENDBRANCH  12  15
ENDBRANCH  10  11
ENDBRANCH   9  10
ENDBRANCH   8   9
ENDBRANCH   7   8
ENDBRANCH   6   7
ENDBRANCH   3   6
TORSDOF 23
ENDMDL
MODEL      385
REMARK 921   NORMALIZED FREE ENERGY PREDICTED BY IDOCK:   38.36 KCAL/MOL
REMARK 922        TOTAL FREE ENERGY PREDICTED BY IDOCK:   87.18 KCAL/MOL
REMARK 923 INTER-LIGAND FREE ENERGY PREDICTED BY IDOCK:   24.82 KCAL/MOL
REMARK 924 INTRA-LIGAND FREE ENERGY PREDICTED BY IDOCK:   62.36 KCAL/MOL
REMARK 927      BINDING AFFINITY PREDICTED BY RF-SCORE:    0.00 PKD
ROOT
HETATM    1  C   UNL     1     -12.284  17.758  66.517  1.00  0.00     4.616 C  
HETATM    2  C   UNL     1     -12.694  16.671  67.477  1.00  0.00     3.637 C  
HETATM    3  N   UNL     1     -12.512  16.923  68.811  1.00  0.00     1.997 N  
HETATM    4  O   UNL     1     -13.139  15.604  67.053  1.00  0.00     2.666 OA 
HETATM    5  O   UNL     1     -12.152  18.176  69.336  1.00  0.00     4.545 OA 
ENDROOT
BRANCH   3   6
HETATM    6  C   UNL     1     -12.844  15.969  69.860  1.00  0.00     0.788 C  
BRANCH   6   7
HETATM    7  C   UNL     1     -12.783  16.592  71.256  1.00  0.00     1.594 C  
BRANCH   7   8
HETATM    8  C   UNL     1     -11.330  16.744  71.710  1.00  0.00     0.356 C  
BRANCH   8   9
HETATM    9  C   UNL     1     -10.515  15.472  71.470  1.00  0.00     0.765 C  
BRANCH   9  10
HETATM   10  C   UNL     1     -10.992  14.702  70.238  1.00  0.00    -0.031 C  
BRANCH  10  11
HETATM   11  N   UNL     1      -9.901  14.368  69.335  1.00  0.00    -0.417 N  
HETATM   12  C   UNL     1     -10.087  14.347  67.971  1.00  0.00    -0.232 C  
HETATM   13  H   UNL     1      -8.983  14.145  69.719  1.00  0.00     0.000 HD 
HETATM   14  O   UNL     1     -11.144  14.639  67.419  1.00  0.00    -0.304 OA 
BRANCH  12  15
HETATM   15  C   UNL     1      -8.846  13.940  67.205  1.00  0.00    -0.227 C  
BRANCH  15  16
HETATM   16  C   UNL     1      -8.682  14.802  65.956  1.00  0.00     0.423 C  
BRANCH  16  17
HETATM   17  C   UNL     1      -8.977  16.265  66.220  1.00  0.00    -0.331 C  
HETATM   18  O   UNL     1      -9.720  16.908  65.481  1.00  0.00    -0.541 OA 
HETATM   19  N   UNL     1      -8.346  16.824  67.301  1.00  0.00    -0.172 N  
HETATM   20  O   UNL     1      -7.569  16.110  68.230  1.00  0.00    -0.139 OA 
BRANCH  19  21
HETATM   21  C   UNL     1      -8.455  18.230  67.660  1.00  0.00    -0.255 C  
BRANCH  21  22
HETATM   22  C   UNL     1      -9.909  18.683  67.815  1.00  0.00    -0.357 C  
BRANCH  22  23
HETATM   23  C   UNL     1     -10.337  18.839  69.287  1.00  0.00     0.199 C  
BRANCH  23  24
HETATM   24  C   UNL     1     -10.367  20.293  69.757  1.00  0.00     0.294 C  
BRANCH  24  25
HETATM   25  C   UNL     1      -9.411  20.526  70.924  1.00  0.00     2.006 C  
BRANCH  25  26
HETATM   26  N   UNL     1      -8.430  19.465  71.032  1.00  0.00     2.860 N  
HETATM   27  H   UNL     1      -8.677  18.611  71.532  1.00  0.00     0.000 HD 
HETATM   28  C   UNL     1      -7.176  19.577  70.479  1.00  0.00     0.752 C  
HETATM   29  O   UNL     1      -6.801  20.557  69.844  1.00  0.00    -0.063 OA 
BRANCH  28  30
HETATM   30  C   UNL     1      -6.277  18.391  70.718  1.00  0.00     0.656 C  
BRANCH  30  31
HETATM   31  C   UNL     1      -5.620  17.978  69.410  1.00  0.00    -0.209 C  
BRANCH  31  32
HETATM   32  C   UNL     1      -6.244  16.708  68.870  1.00  0.00    -0.159 C  
HETATM   33  N   UNL     1      -6.621  15.734  69.761  1.00  0.00    -0.178 N  
HETATM   34  O   UNL     1      -6.472  16.614  67.662  1.00  0.00    -0.130 OA 
HETATM   35  O   UNL     1      -5.994  15.661  71.020  1.00  0.00     0.147 OA 
BRANCH  33  36
HETATM   36  C   UNL     1      -7.165  14.443  69.333  1.00  0.00    -0.086 C  
BRANCH  36  37
HETATM   37  C   UNL     1      -6.235  13.721  68.356  1.00  0.00    -0.100 C  
BRANCH  37  38
HETATM   38  C   UNL     1      -5.642  14.673  67.312  1.00  0.00     0.566 C  
BRANCH  38  39
HETATM   39  C   UNL     1      -5.181  15.990  67.945  1.00  0.00    -0.138 C  
BRANCH  39  40
HETATM   40  C   UNL     1      -5.765  17.216  67.243  1.00  0.00    -0.146 C  
HETATM   41  N   UNL     1      -6.033  16.955  65.832  1.00  0.00     0.172 NA 
HETATM   42  H2  UNL     1      -6.631  16.138  65.712  1.00  0.00     0.000 HD 
HETATM   43  H1  UNL     1      -6.423  17.774  65.364  1.00  0.00     0.000 HD 
ENDBRANCH  39  40
ENDBRANCH  38  39
ENDBRANCH  37  38
ENDBRANCH  36  37
ENDBRANCH  33  36
ENDBRANCH  31  32
ENDBRANCH  30  31
ENDBRANCH  28  30
ENDBRANCH  25  26
ENDBRANCH  24  25
ENDBRANCH  23  24
ENDBRANCH  22  23
ENDBRANCH  21  22
ENDBRANCH  19  21
ENDBRANCH  16  17
ENDBRANCH  15  16
ENDBRANCH  12  15
ENDBRANCH  10  11
ENDBRANCH   9  10
ENDBRANCH   8   9
ENDBRANCH   7   8
ENDBRANCH   6   7
ENDBRANCH   3   6
TORSDOF 23
ENDMDL
