MODEL        1
REMARK 921   NORMALIZED FREE ENERGY PREDICTED BY IDOCK:   -8.82 KCAL/MOL
REMARK 922        TOTAL FREE ENERGY PREDICTED BY IDOCK:  -11.60 KCAL/MOL
REMARK 923 INTER-LIGAND FREE ENERGY PREDICTED BY IDOCK:  -10.36 KCAL/MOL
REMARK 924 INTRA-LIGAND FREE ENERGY PREDICTED BY IDOCK:   -1.24 KCAL/MOL
REMARK 927      BINDING AFFINITY PREDICTED BY RF-SCORE:    0.00 PKD
ROOT
HETATM    1  O   UNL     1      -8.223  18.722  67.092  1.00  0.00    -0.258 OA 
HETATM    2  C   UNL     1      -9.558  18.566  67.251  1.00  0.00    -0.294 C  
HETATM    3  O   UNL     1     -10.344  19.495  67.190  1.00  0.00    -0.389 OA 
HETATM    4  C   UNL     1      -9.973  17.169  67.532  1.00  0.00    -0.279 A  
HETATM    5  C   UNL     1      -9.291  16.073  66.995  1.00  0.00    -0.233 A  
HETATM    6  C   UNL     1      -9.724  14.770  67.272  1.00  0.00    -0.230 A  
HETATM    7  C   UNL     1     -10.884  14.545  68.029  1.00  0.00    -0.244 A  
HETATM    8  C   UNL     1     -11.556  15.646  68.582  1.00  0.00    -0.391 A  
HETATM    9  C   UNL     1     -11.109  16.952  68.324  1.00  0.00    -0.213 A  
ENDROOT
BRANCH   7  10
HETATM   10  N   UNL     1     -11.407  13.228  68.242  1.00  0.00    -0.280 NA 
HETATM   11  N   UNL     1     -11.671  12.816  69.515  1.00  0.00    -0.316 NA 
HETATM   12  C   UNL     1     -11.832  11.492  69.389  1.00  0.00    -0.350 A  
HETATM   13  N   UNL     1     -11.827  11.076  68.079  1.00  0.00    -0.613 NA 
HETATM   14  C   UNL     1     -11.629  12.168  67.363  1.00  0.00    -0.340 A  
BRANCH  12  15
HETATM   15  C   UNL     1     -11.989  10.507  70.472  1.00  0.00    -0.436 A  
HETATM   16  C   UNL     1     -13.280  10.329  71.020  1.00  0.00    -0.399 A  
HETATM   17  C   UNL     1     -13.529   9.405  72.040  1.00  0.00    -0.522 A  
HETATM   18  H   UNL     1      -8.983   9.258  70.850  1.00  0.00     0.000 HD 
HETATM   19  C   UNL     1     -12.488   8.632  72.537  1.00  0.00    -0.372 A  
HETATM   20  O   UNL     1      -9.682   9.799  70.501  1.00  0.00    -0.249 OA 
HETATM   21  C   UNL     1     -11.204   8.781  72.013  1.00  0.00    -0.443 A  
HETATM   22  C   UNL     1     -10.956   9.709  70.987  1.00  0.00    -0.361 A  
ENDBRANCH  12  15
BRANCH  14  23
HETATM   23  C   UNL     1     -11.606  12.158  65.892  1.00  0.00    -0.425 A  
HETATM   24  C   UNL     1     -11.262  12.169  63.097  1.00  0.00    -0.258 A  
HETATM   25  C   UNL     1     -12.159  13.054  63.694  1.00  0.00    -0.604 A  
HETATM   26  C   UNL     1     -10.764  11.225  65.260  1.00  0.00    -0.302 A  
HETATM   27  C   UNL     1     -12.355  13.018  65.077  1.00  0.00    -0.473 A  
HETATM   28  C   UNL     1     -10.592  11.230  63.875  1.00  0.00    -0.455 A  
HETATM   29  O   UNL     1     -13.289  13.844  65.636  1.00  0.00    -0.632 OA 
HETATM   30  H   UNL     1     -13.797  14.427  65.084  1.00  0.00     0.000 HD 
ENDBRANCH  14  23
ENDBRANCH   7  10
TORSDOF 3
ENDMDL
MODEL        2
REMARK 921   NORMALIZED FREE ENERGY PREDICTED BY IDOCK:   -8.77 KCAL/MOL
REMARK 922        TOTAL FREE ENERGY PREDICTED BY IDOCK:  -11.55 KCAL/MOL
REMARK 923 INTER-LIGAND FREE ENERGY PREDICTED BY IDOCK:  -10.60 KCAL/MOL
REMARK 924 INTRA-LIGAND FREE ENERGY PREDICTED BY IDOCK:   -0.94 KCAL/MOL
REMARK 927      BINDING AFFINITY PREDICTED BY RF-SCORE:    0.00 PKD
ROOT
HETATM    1  O   UNL     1     -13.864  16.355  73.828  1.00  0.00    -0.346 OA 
HETATM    2  C   UNL     1     -12.736  15.650  73.573  1.00  0.00    -0.561 C  
HETATM    3  O   UNL     1     -12.052  15.156  74.452  1.00  0.00    -0.609 OA 
HETATM    4  C   UNL     1     -12.395  15.558  72.131  1.00  0.00    -0.476 A  
HETATM    5  C   UNL     1     -13.380  15.512  71.140  1.00  0.00    -0.553 A  
HETATM    6  C   UNL     1     -13.017  15.409  69.791  1.00  0.00     0.226 A  
HETATM    7  C   UNL     1     -11.670  15.280  69.419  1.00  0.00    -0.341 A  
HETATM    8  C   UNL     1     -10.683  15.345  70.413  1.00  0.00    -0.312 A  
HETATM    9  C   UNL     1     -11.045  15.472  71.764  1.00  0.00    -0.237 A  
ENDROOT
BRANCH   7  10
HETATM   10  N   UNL     1     -11.277  15.071  68.057  1.00  0.00    -0.303 NA 
HETATM   11  N   UNL     1     -11.426  13.833  67.504  1.00  0.00    -0.312 NA 
HETATM   12  C   UNL     1     -10.697  13.901  66.382  1.00  0.00    -0.281 A  
HETATM   13  N   UNL     1     -10.219  15.165  66.131  1.00  0.00    -0.278 NA 
HETATM   14  C   UNL     1     -10.637  15.907  67.141  1.00  0.00    -0.316 A  
BRANCH  12  15
HETATM   15  C   UNL     1     -10.374  12.798  65.462  1.00  0.00    -0.301 A  
HETATM   16  C   UNL     1      -9.445  11.826  65.896  1.00  0.00    -0.239 A  
HETATM   17  C   UNL     1      -9.089  10.734  65.099  1.00  0.00    -0.225 A  
HETATM   18  H   UNL     1     -12.248  13.381  62.838  1.00  0.00     0.000 HD 
HETATM   19  C   UNL     1      -9.658  10.586  63.841  1.00  0.00    -0.363 A  
HETATM   20  O   UNL     1     -11.865  13.501  63.699  1.00  0.00    -0.418 OA 
HETATM   21  C   UNL     1     -10.583  11.526  63.386  1.00  0.00    -0.460 A  
HETATM   22  C   UNL     1     -10.941  12.621  64.190  1.00  0.00    -0.387 A  
ENDBRANCH  12  15
BRANCH  14  23
HETATM   23  C   UNL     1     -10.374  17.352  67.225  1.00  0.00    -0.336 A  
HETATM   24  C   UNL     1     -10.048  20.119  67.630  1.00  0.00    -0.542 A  
HETATM   25  C   UNL     1     -10.471  19.640  66.391  1.00  0.00    -0.618 A  
HETATM   26  C   UNL     1      -9.877  17.855  68.441  1.00  0.00    -0.355 A  
HETATM   27  C   UNL     1     -10.593  18.263  66.183  1.00  0.00    -0.303 A  
HETATM   28  C   UNL     1      -9.716  19.226  68.644  1.00  0.00    -0.494 A  
HETATM   29  O   UNL     1     -10.941  17.809  64.942  1.00  0.00    -0.866 OA 
HETATM   30  H   UNL     1     -11.090  18.427  64.235  1.00  0.00     0.000 HD 
ENDBRANCH  14  23
ENDBRANCH   7  10
TORSDOF 3
ENDMDL
MODEL        3
REMARK 921   NORMALIZED FREE ENERGY PREDICTED BY IDOCK:   -8.74 KCAL/MOL
REMARK 922        TOTAL FREE ENERGY PREDICTED BY IDOCK:  -11.51 KCAL/MOL
REMARK 923 INTER-LIGAND FREE ENERGY PREDICTED BY IDOCK:  -10.26 KCAL/MOL
REMARK 924 INTRA-LIGAND FREE ENERGY PREDICTED BY IDOCK:   -1.26 KCAL/MOL
REMARK 927      BINDING AFFINITY PREDICTED BY RF-SCORE:    0.00 PKD
ROOT
HETATM    1  O   UNL     1     -10.012  19.621  67.662  1.00  0.00    -0.341 OA 
HETATM    2  C   UNL     1      -9.135  18.602  67.824  1.00  0.00    -0.285 C  
HETATM    3  O   UNL     1      -7.928  18.766  67.851  1.00  0.00    -0.251 OA 
HETATM    4  C   UNL     1      -9.776  17.268  67.939  1.00  0.00    -0.273 A  
HETATM    5  C   UNL     1     -11.027  17.098  68.539  1.00  0.00    -0.204 A  
HETATM    6  C   UNL     1     -11.591  15.819  68.642  1.00  0.00    -0.392 A  
HETATM    7  C   UNL     1     -10.884  14.687  68.211  1.00  0.00    -0.245 A  
HETATM    8  C   UNL     1      -9.637  14.862  67.592  1.00  0.00    -0.200 A  
HETATM    9  C   UNL     1      -9.081  16.146  67.468  1.00  0.00    -0.207 A  
ENDROOT
BRANCH   7  10
HETATM   10  N   UNL     1     -11.391  13.360  68.396  1.00  0.00    -0.273 NA 
HETATM   11  N   UNL     1     -11.604  12.899  69.662  1.00  0.00    -0.274 NA 
HETATM   12  C   UNL     1     -11.762  11.580  69.494  1.00  0.00    -0.346 A  
HETATM   13  N   UNL     1     -11.806  11.212  68.171  1.00  0.00    -0.607 NA 
HETATM   14  C   UNL     1     -11.641  12.331  67.487  1.00  0.00    -0.353 A  
BRANCH  12  15
HETATM   15  C   UNL     1     -11.872  10.555  70.545  1.00  0.00    -0.442 A  
HETATM   16  C   UNL     1     -13.114  10.417  71.205  1.00  0.00    -0.494 A  
HETATM   17  C   UNL     1     -13.318   9.460  72.204  1.00  0.00    -0.545 A  
HETATM   18  H   UNL     1      -8.917   9.141  70.585  1.00  0.00     0.000 HD 
HETATM   19  C   UNL     1     -12.280   8.614  72.569  1.00  0.00    -0.374 A  
HETATM   20  O   UNL     1      -9.614   9.732  70.326  1.00  0.00    -0.249 OA 
HETATM   21  C   UNL     1     -11.044   8.722  71.933  1.00  0.00    -0.434 A  
HETATM   22  C   UNL     1     -10.841   9.683  70.927  1.00  0.00    -0.339 A  
ENDBRANCH  12  15
BRANCH  14  23
HETATM   23  C   UNL     1     -11.676  12.374  66.018  1.00  0.00    -0.469 A  
HETATM   24  C   UNL     1     -11.441  12.497  63.214  1.00  0.00    -0.409 A  
HETATM   25  C   UNL     1     -12.338  13.333  63.877  1.00  0.00    -0.422 A  
HETATM   26  C   UNL     1     -10.833  11.490  65.319  1.00  0.00    -0.319 A  
HETATM   27  C   UNL     1     -12.480  13.241  65.264  1.00  0.00    -0.489 A  
HETATM   28  C   UNL     1     -10.715  11.550  63.930  1.00  0.00    -0.458 A  
HETATM   29  O   UNL     1     -13.414  14.019  65.888  1.00  0.00    -0.562 OA 
HETATM   30  H   UNL     1     -13.959  14.607  65.378  1.00  0.00     0.000 HD 
ENDBRANCH  14  23
ENDBRANCH   7  10
TORSDOF 3
ENDMDL
MODEL        4
REMARK 921   NORMALIZED FREE ENERGY PREDICTED BY IDOCK:   -8.65 KCAL/MOL
REMARK 922        TOTAL FREE ENERGY PREDICTED BY IDOCK:  -11.41 KCAL/MOL
REMARK 923 INTER-LIGAND FREE ENERGY PREDICTED BY IDOCK:  -10.56 KCAL/MOL
REMARK 924 INTRA-LIGAND FREE ENERGY PREDICTED BY IDOCK:   -0.85 KCAL/MOL
REMARK 927      BINDING AFFINITY PREDICTED BY RF-SCORE:    0.00 PKD
ROOT
HETATM    1  O   UNL     1     -10.627   7.100  74.264  1.00  0.00    -0.206 OA 
HETATM    2  C   UNL     1      -9.922   7.163  73.109  1.00  0.00    -0.228 C  
HETATM    3  O   UNL     1      -8.984   6.424  72.866  1.00  0.00    -0.131 OA 
HETATM    4  C   UNL     1     -10.377   8.228  72.181  1.00  0.00    -0.370 A  
HETATM    5  C   UNL     1     -11.719   8.612  72.098  1.00  0.00    -0.442 A  
HETATM    6  C   UNL     1     -12.111   9.612  71.197  1.00  0.00    -0.448 A  
HETATM    7  C   UNL     1     -11.182  10.190  70.320  1.00  0.00    -0.318 A  
HETATM    8  C   UNL     1      -9.833   9.817  70.418  1.00  0.00    -0.269 A  
HETATM    9  C   UNL     1      -9.436   8.832  71.337  1.00  0.00    -0.330 A  
ENDROOT
BRANCH   7  10
HETATM   10  N   UNL     1     -11.572  11.140  69.321  1.00  0.00    -0.288 NA 
HETATM   11  N   UNL     1     -11.557  10.769  68.008  1.00  0.00    -0.509 NA 
HETATM   12  C   UNL     1     -11.658  11.932  67.352  1.00  0.00    -0.297 A  
HETATM   13  N   UNL     1     -11.885  12.999  68.188  1.00  0.00    -0.348 NA 
HETATM   14  C   UNL     1     -11.898  12.494  69.409  1.00  0.00    -0.308 A  
BRANCH  12  15
HETATM   15  C   UNL     1     -11.541  12.149  65.901  1.00  0.00    -0.425 A  
HETATM   16  C   UNL     1     -10.607  11.361  65.189  1.00  0.00    -0.352 A  
HETATM   17  C   UNL     1     -10.437  11.485  63.806  1.00  0.00    -0.459 A  
HETATM   18  H   UNL     1     -13.765  14.468  65.263  1.00  0.00     0.000 HD 
HETATM   19  C   UNL     1     -11.201  12.403  63.099  1.00  0.00    -0.191 A  
HETATM   20  O   UNL     1     -13.247  13.850  65.764  1.00  0.00    -0.521 OA 
HETATM   21  C   UNL     1     -12.135  13.190  63.772  1.00  0.00    -0.563 A  
HETATM   22  C   UNL     1     -12.306  13.063  65.161  1.00  0.00    -0.484 A  
ENDBRANCH  12  15
BRANCH  14  23
HETATM   23  C   UNL     1     -12.163  13.312  70.602  1.00  0.00    -0.417 A  
HETATM   24  C   UNL     1     -12.959  14.887  72.797  1.00  0.00    -0.542 A  
HETATM   25  C   UNL     1     -11.901  15.300  71.988  1.00  0.00    -0.513 A  
HETATM   26  C   UNL     1     -13.177  12.881  71.476  1.00  0.00    -0.346 A  
HETATM   27  C   UNL     1     -11.484  14.496  70.924  1.00  0.00    -0.114 A  
HETATM   28  C   UNL     1     -13.574  13.661  72.563  1.00  0.00    -0.675 A  
HETATM   29  O   UNL     1     -10.400  14.882  70.186  1.00  0.00    -0.471 OA 
HETATM   30  H   UNL     1      -9.940  15.684  70.404  1.00  0.00     0.000 HD 
ENDBRANCH  14  23
ENDBRANCH   7  10
TORSDOF 3
ENDMDL
MODEL        5
REMARK 921   NORMALIZED FREE ENERGY PREDICTED BY IDOCK:   -8.55 KCAL/MOL
REMARK 922        TOTAL FREE ENERGY PREDICTED BY IDOCK:  -11.29 KCAL/MOL
REMARK 923 INTER-LIGAND FREE ENERGY PREDICTED BY IDOCK:  -10.03 KCAL/MOL
REMARK 924 INTRA-LIGAND FREE ENERGY PREDICTED BY IDOCK:   -1.26 KCAL/MOL
REMARK 927      BINDING AFFINITY PREDICTED BY RF-SCORE:    0.00 PKD
ROOT
HETATM    1  O   UNL     1      -9.505  19.566  67.767  1.00  0.00    -0.312 OA 
HETATM    2  C   UNL     1      -8.792  18.571  68.346  1.00  0.00    -0.322 C  
HETATM    3  O   UNL     1      -7.676  18.739  68.807  1.00  0.00    -0.326 OA 
HETATM    4  C   UNL     1      -9.479  17.255  68.344  1.00  0.00    -0.283 A  
HETATM    5  C   UNL     1     -10.870  17.148  68.446  1.00  0.00    -0.309 A  
HETATM    6  C   UNL     1     -11.479  15.886  68.457  1.00  0.00    -0.377 A  
HETATM    7  C   UNL     1     -10.706  14.716  68.436  1.00  0.00    -0.241 A  
HETATM    8  C   UNL     1      -9.312  14.826  68.315  1.00  0.00    -0.199 A  
HETATM    9  C   UNL     1      -8.702  16.091  68.281  1.00  0.00    -0.177 A  
ENDROOT
BRANCH   7  10
HETATM   10  N   UNL     1     -11.296  13.415  68.548  1.00  0.00    -0.269 NA 
HETATM   11  N   UNL     1     -11.554  12.906  69.787  1.00  0.00    -0.256 NA 
HETATM   12  C   UNL     1     -11.791  11.610  69.551  1.00  0.00    -0.348 A  
HETATM   13  N   UNL     1     -11.838  11.311  68.210  1.00  0.00    -0.578 NA 
HETATM   14  C   UNL     1     -11.596  12.450  67.586  1.00  0.00    -0.357 A  
BRANCH  12  15
HETATM   15  C   UNL     1     -11.978  10.542  70.547  1.00  0.00    -0.436 A  
HETATM   16  C   UNL     1     -13.283  10.321  71.041  1.00  0.00    -0.399 A  
HETATM   17  C   UNL     1     -13.561   9.320  71.977  1.00  0.00    -0.519 A  
HETATM   18  H   UNL     1      -8.981   9.268  70.916  1.00  0.00     0.000 HD 
HETATM   19  C   UNL     1     -12.534   8.510  72.443  1.00  0.00    -0.416 A  
HETATM   20  O   UNL     1      -9.671   9.834  70.590  1.00  0.00    -0.228 OA 
HETATM   21  C   UNL     1     -11.235   8.700  71.971  1.00  0.00    -0.434 A  
HETATM   22  C   UNL     1     -10.959   9.706  71.029  1.00  0.00    -0.361 A  
ENDBRANCH  12  15
BRANCH  14  23
HETATM   23  C   UNL     1     -11.606  12.569  66.120  1.00  0.00    -0.448 A  
HETATM   24  C   UNL     1     -11.928  12.807  63.333  1.00  0.00    -0.613 A  
HETATM   25  C   UNL     1     -11.174  11.761  63.862  1.00  0.00    -0.493 A  
HETATM   26  C   UNL     1     -12.299  13.657  65.559  1.00  0.00    -0.519 A  
HETATM   27  C   UNL     1     -10.984  11.669  65.243  1.00  0.00    -0.268 A  
HETATM   28  C   UNL     1     -12.461  13.776  64.178  1.00  0.00    -0.293 A  
HETATM   29  O   UNL     1     -10.185  10.677  65.738  1.00  0.00    -0.253 OA 
HETATM   30  H   UNL     1      -9.763  10.068  65.144  1.00  0.00     0.000 HD 
ENDBRANCH  14  23
ENDBRANCH   7  10
TORSDOF 3
ENDMDL
MODEL        6
REMARK 921   NORMALIZED FREE ENERGY PREDICTED BY IDOCK:   -8.36 KCAL/MOL
REMARK 922        TOTAL FREE ENERGY PREDICTED BY IDOCK:  -11.08 KCAL/MOL
REMARK 923 INTER-LIGAND FREE ENERGY PREDICTED BY IDOCK:  -10.46 KCAL/MOL
REMARK 924 INTRA-LIGAND FREE ENERGY PREDICTED BY IDOCK:   -0.61 KCAL/MOL
REMARK 927      BINDING AFFINITY PREDICTED BY RF-SCORE:    0.00 PKD
ROOT
HETATM    1  O   UNL     1     -12.497   9.734  72.324  1.00  0.00    -0.287 OA 
HETATM    2  C   UNL     1     -11.946   9.491  71.111  1.00  0.00    -0.348 C  
HETATM    3  O   UNL     1     -11.714   8.366  70.704  1.00  0.00    -0.254 OA 
HETATM    4  C   UNL     1     -11.627  10.717  70.338  1.00  0.00    -0.441 A  
HETATM    5  C   UNL     1     -12.404  11.875  70.433  1.00  0.00    -0.334 A  
HETATM    6  C   UNL     1     -12.078  13.006  69.674  1.00  0.00    -0.304 A  
HETATM    7  C   UNL     1     -11.016  12.974  68.758  1.00  0.00    -0.258 A  
HETATM    8  C   UNL     1     -10.226  11.817  68.677  1.00  0.00    -0.211 A  
HETATM    9  C   UNL     1     -10.538  10.690  69.456  1.00  0.00    -0.265 A  
ENDROOT
BRANCH   7  10
HETATM   10  N   UNL     1     -10.724  14.080  67.896  1.00  0.00    -0.238 NA 
HETATM   11  N   UNL     1     -10.350  15.271  68.446  1.00  0.00    -0.224 NA 
HETATM   12  C   UNL     1     -10.462  16.135  67.429  1.00  0.00    -0.310 A  
HETATM   13  N   UNL     1     -10.746  15.520  66.233  1.00  0.00    -0.310 NA 
HETATM   14  C   UNL     1     -10.843  14.232  66.514  1.00  0.00    -0.304 A  
BRANCH  12  15
HETATM   15  C   UNL     1     -10.329  17.600  67.487  1.00  0.00    -0.365 A  
HETATM   16  C   UNL     1      -9.956  18.181  68.720  1.00  0.00    -0.389 A  
HETATM   17  C   UNL     1      -9.789  19.562  68.866  1.00  0.00    -0.522 A  
HETATM   18  H   UNL     1     -10.987  18.577  64.429  1.00  0.00     0.000 HD 
HETATM   19  C   UNL     1      -9.990  20.399  67.777  1.00  0.00    -0.477 A  
HETATM   20  O   UNL     1     -10.859  17.990  65.164  1.00  0.00    -0.665 OA 
HETATM   21  C   UNL     1     -10.353  19.855  66.545  1.00  0.00    -0.608 A  
HETATM   22  C   UNL     1     -10.519  18.467  66.399  1.00  0.00    -0.406 A  
ENDBRANCH  12  15
BRANCH  14  23
HETATM   23  C   UNL     1     -11.093  13.213  65.483  1.00  0.00    -0.299 A  
HETATM   24  C   UNL     1     -11.319  11.359  63.375  1.00  0.00    -0.190 A  
HETATM   25  C   UNL     1     -12.386  12.202  63.682  1.00  0.00    -0.673 A  
HETATM   26  C   UNL     1     -10.059  12.301  65.203  1.00  0.00    -0.284 A  
HETATM   27  C   UNL     1     -12.284  13.093  64.753  1.00  0.00    -0.425 A  
HETATM   28  C   UNL     1     -10.169  11.383  64.159  1.00  0.00    -0.376 A  
HETATM   29  O   UNL     1     -13.366  13.861  65.082  1.00  0.00    -0.698 OA 
HETATM   30  H   UNL     1     -14.172  13.780  64.588  1.00  0.00     0.000 HD 
ENDBRANCH  14  23
ENDBRANCH   7  10
TORSDOF 3
ENDMDL
MODEL        7
REMARK 921   NORMALIZED FREE ENERGY PREDICTED BY IDOCK:   -8.29 KCAL/MOL
REMARK 922        TOTAL FREE ENERGY PREDICTED BY IDOCK:  -10.99 KCAL/MOL
REMARK 923 INTER-LIGAND FREE ENERGY PREDICTED BY IDOCK:   -9.87 KCAL/MOL
REMARK 924 INTRA-LIGAND FREE ENERGY PREDICTED BY IDOCK:   -1.12 KCAL/MOL
REMARK 927      BINDING AFFINITY PREDICTED BY RF-SCORE:    0.00 PKD
ROOT
HETATM    1  O   UNL     1      -9.454  19.401  67.620  1.00  0.00    -0.299 OA 
HETATM    2  C   UNL     1      -8.739  18.389  68.165  1.00  0.00    -0.302 C  
HETATM    3  O   UNL     1      -7.603  18.533  68.584  1.00  0.00    -0.296 OA 
HETATM    4  C   UNL     1      -9.450  17.086  68.180  1.00  0.00    -0.262 A  
HETATM    5  C   UNL     1     -10.837  17.003  68.333  1.00  0.00    -0.333 A  
HETATM    6  C   UNL     1     -11.469  15.753  68.357  1.00  0.00    -0.367 A  
HETATM    7  C   UNL     1     -10.718  14.569  68.300  1.00  0.00    -0.240 A  
HETATM    8  C   UNL     1      -9.328  14.655  68.127  1.00  0.00    -0.197 A  
HETATM    9  C   UNL     1      -8.697  15.909  68.079  1.00  0.00    -0.169 A  
ENDROOT
BRANCH   7  10
HETATM   10  N   UNL     1     -11.327  13.278  68.425  1.00  0.00    -0.271 NA 
HETATM   11  N   UNL     1     -11.581  12.780  69.669  1.00  0.00    -0.278 NA 
HETATM   12  C   UNL     1     -11.840  11.486  69.442  1.00  0.00    -0.350 A  
HETATM   13  N   UNL     1     -11.906  11.181  68.103  1.00  0.00    -0.607 NA 
HETATM   14  C   UNL     1     -11.652  12.313  67.471  1.00  0.00    -0.353 A  
BRANCH  12  15
HETATM   15  C   UNL     1     -12.033  10.427  70.446  1.00  0.00    -0.409 A  
HETATM   16  C   UNL     1     -11.283   9.238  70.305  1.00  0.00    -0.267 A  
HETATM   17  C   UNL     1     -11.387   8.184  71.219  1.00  0.00    -0.300 A  
HETATM   18  H   UNL     1     -14.219  11.700  72.529  1.00  0.00     0.000 HD 
HETATM   19  C   UNL     1     -12.249   8.295  72.301  1.00  0.00    -0.428 A  
HETATM   20  O   UNL     1     -13.639  11.639  71.779  1.00  0.00    -0.174 OA 
HETATM   21  C   UNL     1     -13.000   9.459  72.471  1.00  0.00    -0.345 A  
HETATM   22  C   UNL     1     -12.891  10.517  71.553  1.00  0.00    -0.463 A  
ENDBRANCH  12  15
BRANCH  14  23
HETATM   23  C   UNL     1     -11.676  12.424  66.004  1.00  0.00    -0.469 A  
HETATM   24  C   UNL     1     -11.420  12.660  63.210  1.00  0.00    -0.368 A  
HETATM   25  C   UNL     1     -12.276  13.511  63.907  1.00  0.00    -0.458 A  
HETATM   26  C   UNL     1     -10.876  11.530  65.270  1.00  0.00    -0.319 A  
HETATM   27  C   UNL     1     -12.430  13.364  65.288  1.00  0.00    -0.483 A  
HETATM   28  C   UNL     1     -10.747  11.646  63.885  1.00  0.00    -0.459 A  
HETATM   29  O   UNL     1     -13.327  14.160  65.944  1.00  0.00    -0.603 OA 
HETATM   30  H   UNL     1     -13.838  14.797  65.459  1.00  0.00     0.000 HD 
ENDBRANCH  14  23
ENDBRANCH   7  10
TORSDOF 3
ENDMDL
MODEL        8
REMARK 921   NORMALIZED FREE ENERGY PREDICTED BY IDOCK:   -8.28 KCAL/MOL
REMARK 922        TOTAL FREE ENERGY PREDICTED BY IDOCK:  -10.98 KCAL/MOL
REMARK 923 INTER-LIGAND FREE ENERGY PREDICTED BY IDOCK:  -10.07 KCAL/MOL
REMARK 924 INTRA-LIGAND FREE ENERGY PREDICTED BY IDOCK:   -0.91 KCAL/MOL
REMARK 927      BINDING AFFINITY PREDICTED BY RF-SCORE:    0.00 PKD
ROOT
HETATM    1  O   UNL     1     -13.758  12.354  72.017  1.00  0.00    -0.333 OA 
HETATM    2  C   UNL     1     -13.314  13.632  72.071  1.00  0.00    -0.459 C  
HETATM    3  O   UNL     1     -13.555  14.376  73.005  1.00  0.00    -0.619 OA 
HETATM    4  C   UNL     1     -12.535  14.051  70.879  1.00  0.00    -0.439 A  
HETATM    5  C   UNL     1     -11.728  13.155  70.172  1.00  0.00    -0.250 A  
HETATM    6  C   UNL     1     -10.995  13.594  69.061  1.00  0.00    -0.271 A  
HETATM    7  C   UNL     1     -11.002  14.946  68.685  1.00  0.00    -0.257 A  
HETATM    8  C   UNL     1     -11.828  15.839  69.385  1.00  0.00    -0.361 A  
HETATM    9  C   UNL     1     -12.581  15.395  70.485  1.00  0.00    -0.471 A  
ENDROOT
BRANCH   7  10
HETATM   10  N   UNL     1     -10.185  15.441  67.618  1.00  0.00    -0.243 NA 
HETATM   11  N   UNL     1      -9.262  16.410  67.882  1.00  0.00    -0.201 NA 
HETATM   12  C   UNL     1      -8.915  16.852  66.667  1.00  0.00    -0.252 A  
HETATM   13  N   UNL     1      -9.465  16.109  65.650  1.00  0.00    -0.443 NA 
HETATM   14  C   UNL     1     -10.202  15.189  66.246  1.00  0.00    -0.288 A  
BRANCH  12  15
HETATM   15  C   UNL     1      -8.058  18.007  66.350  1.00  0.00    -0.292 A  
HETATM   16  C   UNL     1      -6.752  17.749  65.874  1.00  0.00    -0.286 A  
HETATM   17  C   UNL     1      -5.872  18.781  65.532  1.00  0.00    -0.243 A  
HETATM   18  H   UNL     1      -9.963  20.601  66.966  1.00  0.00     0.000 HD 
HETATM   19  C   UNL     1      -6.280  20.102  65.658  1.00  0.00    -0.241 A  
HETATM   20  O   UNL     1      -9.699  19.691  66.892  1.00  0.00    -0.326 OA 
HETATM   21  C   UNL     1      -7.564  20.389  66.120  1.00  0.00    -0.171 A  
HETATM   22  C   UNL     1      -8.447  19.351  66.461  1.00  0.00    -0.337 A  
ENDBRANCH  12  15
BRANCH  14  23
HETATM   23  C   UNL     1     -10.929  14.150  65.500  1.00  0.00    -0.310 A  
HETATM   24  C   UNL     1     -12.055  12.014  64.051  1.00  0.00    -0.506 A  
HETATM   25  C   UNL     1     -12.229  13.325  63.611  1.00  0.00    -0.522 A  
HETATM   26  C   UNL     1     -10.831  12.825  65.964  1.00  0.00    -0.301 A  
HETATM   27  C   UNL     1     -11.701  14.384  64.354  1.00  0.00    -0.375 A  
HETATM   28  C   UNL     1     -11.388  11.765  65.247  1.00  0.00    -0.284 A  
HETATM   29  O   UNL     1     -11.942  15.666  63.945  1.00  0.00    -0.990 OA 
HETATM   30  H   UNL     1     -12.465  15.825  63.168  1.00  0.00     0.000 HD 
ENDBRANCH  14  23
ENDBRANCH   7  10
TORSDOF 3
ENDMDL
MODEL        9
REMARK 921   NORMALIZED FREE ENERGY PREDICTED BY IDOCK:   -8.25 KCAL/MOL
REMARK 922        TOTAL FREE ENERGY PREDICTED BY IDOCK:  -10.94 KCAL/MOL
REMARK 923 INTER-LIGAND FREE ENERGY PREDICTED BY IDOCK:   -9.81 KCAL/MOL
REMARK 924 INTRA-LIGAND FREE ENERGY PREDICTED BY IDOCK:   -1.13 KCAL/MOL
REMARK 927      BINDING AFFINITY PREDICTED BY RF-SCORE:    0.00 PKD
ROOT
HETATM    1  O   UNL     1     -13.081  10.919  72.320  1.00  0.00    -0.376 OA 
HETATM    2  C   UNL     1     -12.622  10.507  71.114  1.00  0.00    -0.417 C  
HETATM    3  O   UNL     1     -12.624   9.337  70.772  1.00  0.00    -0.166 OA 
HETATM    4  C   UNL     1     -12.093  11.601  70.263  1.00  0.00    -0.443 A  
HETATM    5  C   UNL     1     -12.628  12.892  70.302  1.00  0.00    -0.084 A  
HETATM    6  C   UNL     1     -12.111  13.894  69.470  1.00  0.00    -0.393 A  
HETATM    7  C   UNL     1     -11.102  13.603  68.540  1.00  0.00    -0.275 A  
HETATM    8  C   UNL     1     -10.554  12.312  68.515  1.00  0.00    -0.254 A  
HETATM    9  C   UNL     1     -11.057  11.313  69.365  1.00  0.00    -0.316 A  
ENDROOT
BRANCH   7  10
HETATM   10  N   UNL     1     -10.626  14.582  67.607  1.00  0.00    -0.250 NA 
HETATM   11  N   UNL     1     -10.051  15.725  68.079  1.00  0.00    -0.226 NA 
HETATM   12  C   UNL     1     -10.015  16.524  67.005  1.00  0.00    -0.268 A  
HETATM   13  N   UNL     1     -10.403  15.886  65.851  1.00  0.00    -0.344 NA 
HETATM   14  C   UNL     1     -10.719  14.657  66.217  1.00  0.00    -0.316 A  
BRANCH  12  15
HETATM   15  C   UNL     1      -9.632  17.945  66.964  1.00  0.00    -0.286 A  
HETATM   16  C   UNL     1     -10.498  18.880  67.576  1.00  0.00    -0.522 A  
HETATM   17  C   UNL     1     -10.209  20.248  67.602  1.00  0.00    -0.469 A  
HETATM   18  H   UNL     1      -6.753  17.945  65.399  1.00  0.00     0.000 HD 
HETATM   19  C   UNL     1      -9.041  20.716  67.015  1.00  0.00    -0.356 A  
HETATM   20  O   UNL     1      -7.550  17.608  65.791  1.00  0.00    -0.530 OA 
HETATM   21  C   UNL     1      -8.164  19.818  66.408  1.00  0.00    -0.371 A  
HETATM   22  C   UNL     1      -8.455  18.443  66.385  1.00  0.00    -0.245 A  
ENDBRANCH  12  15
BRANCH  14  23
HETATM   23  C   UNL     1     -11.142  13.627  65.256  1.00  0.00    -0.307 A  
HETATM   24  C   UNL     1     -11.764  11.787  63.217  1.00  0.00    -0.340 A  
HETATM   25  C   UNL     1     -12.784  12.482  63.865  1.00  0.00    -0.414 A  
HETATM   26  C   UNL     1     -10.138  12.860  64.638  1.00  0.00    -0.254 A  
HETATM   27  C   UNL     1     -12.473  13.364  64.903  1.00  0.00    -0.396 A  
HETATM   28  C   UNL     1     -10.444  11.948  63.627  1.00  0.00    -0.493 A  
HETATM   29  O   UNL     1     -13.491  13.983  65.574  1.00  0.00    -0.705 OA 
HETATM   30  H   UNL     1     -14.393  13.805  65.335  1.00  0.00     0.000 HD 
ENDBRANCH  14  23
ENDBRANCH   7  10
TORSDOF 3
ENDMDL
MODEL       10
REMARK 921   NORMALIZED FREE ENERGY PREDICTED BY IDOCK:   -8.15 KCAL/MOL
REMARK 922        TOTAL FREE ENERGY PREDICTED BY IDOCK:  -10.82 KCAL/MOL
REMARK 923 INTER-LIGAND FREE ENERGY PREDICTED BY IDOCK:   -9.72 KCAL/MOL
REMARK 924 INTRA-LIGAND FREE ENERGY PREDICTED BY IDOCK:   -1.10 KCAL/MOL
REMARK 927      BINDING AFFINITY PREDICTED BY RF-SCORE:    0.00 PKD
ROOT
HETATM    1  O   UNL     1     -12.120   8.290  70.948  1.00  0.00    -0.253 OA 
HETATM    2  C   UNL     1     -12.254   9.541  71.449  1.00  0.00    -0.371 C  
HETATM    3  O   UNL     1     -12.699   9.762  72.562  1.00  0.00    -0.226 OA 
HETATM    4  C   UNL     1     -11.838  10.615  70.513  1.00  0.00    -0.453 A  
HETATM    5  C   UNL     1     -10.798  10.434  69.597  1.00  0.00    -0.320 A  
HETATM    6  C   UNL     1     -10.425  11.479  68.741  1.00  0.00    -0.227 A  
HETATM    7  C   UNL     1     -11.037  12.737  68.836  1.00  0.00    -0.262 A  
HETATM    8  C   UNL     1     -12.093  12.910  69.743  1.00  0.00    -0.312 A  
HETATM    9  C   UNL     1     -12.483  11.856  70.586  1.00  0.00    -0.347 A  
ENDROOT
BRANCH   7  10
HETATM   10  N   UNL     1     -10.607  13.851  68.044  1.00  0.00    -0.243 NA 
HETATM   11  N   UNL     1     -10.121  14.962  68.668  1.00  0.00    -0.230 NA 
HETATM   12  C   UNL     1     -10.116  15.888  67.701  1.00  0.00    -0.242 A  
HETATM   13  N   UNL     1     -10.435  15.374  66.467  1.00  0.00    -0.288 NA 
HETATM   14  C   UNL     1     -10.676  14.091  66.671  1.00  0.00    -0.281 A  
BRANCH  12  15
HETATM   15  C   UNL     1      -9.827  17.325  67.845  1.00  0.00    -0.283 A  
HETATM   16  C   UNL     1     -10.782  18.243  67.350  1.00  0.00    -0.377 A  
HETATM   17  C   UNL     1     -10.603  19.626  67.457  1.00  0.00    -0.577 A  
HETATM   18  H   UNL     1      -6.947  17.403  69.406  1.00  0.00     0.000 HD 
HETATM   19  C   UNL     1      -9.460  20.126  68.065  1.00  0.00    -0.389 A  
HETATM   20  O   UNL     1      -7.721  17.043  68.988  1.00  0.00    -0.239 OA 
HETATM   21  C   UNL     1      -8.502  19.246  68.568  1.00  0.00    -0.401 A  
HETATM   22  C   UNL     1      -8.685  17.857  68.462  1.00  0.00    -0.292 A  
ENDBRANCH  12  15
BRANCH  14  23
HETATM   23  C   UNL     1     -11.008  13.164  65.579  1.00  0.00    -0.296 A  
HETATM   24  C   UNL     1     -11.387  11.474  63.358  1.00  0.00    -0.303 A  
HETATM   25  C   UNL     1     -12.386  12.372  63.731  1.00  0.00    -0.625 A  
HETATM   26  C   UNL     1     -10.048  12.198  65.229  1.00  0.00    -0.291 A  
HETATM   27  C   UNL     1     -12.210  13.181  64.857  1.00  0.00    -0.428 A  
HETATM   28  C   UNL     1     -10.233  11.361  64.128  1.00  0.00    -0.376 A  
HETATM   29  O   UNL     1     -13.228  14.004  65.248  1.00  0.00    -0.782 OA 
HETATM   30  H   UNL     1     -14.043  14.015  64.759  1.00  0.00     0.000 HD 
ENDBRANCH  14  23
ENDBRANCH   7  10
TORSDOF 3
ENDMDL
MODEL       11
REMARK 921   NORMALIZED FREE ENERGY PREDICTED BY IDOCK:   -8.08 KCAL/MOL
REMARK 922        TOTAL FREE ENERGY PREDICTED BY IDOCK:  -10.74 KCAL/MOL
REMARK 923 INTER-LIGAND FREE ENERGY PREDICTED BY IDOCK:   -9.58 KCAL/MOL
REMARK 924 INTRA-LIGAND FREE ENERGY PREDICTED BY IDOCK:   -1.17 KCAL/MOL
REMARK 927      BINDING AFFINITY PREDICTED BY RF-SCORE:    0.00 PKD
ROOT
HETATM    1  O   UNL     1      -9.420  19.345  67.774  1.00  0.00    -0.308 OA 
HETATM    2  C   UNL     1      -8.737  18.351  68.389  1.00  0.00    -0.317 C  
HETATM    3  O   UNL     1      -7.634  18.514  68.882  1.00  0.00    -0.291 OA 
HETATM    4  C   UNL     1      -9.438  17.043  68.383  1.00  0.00    -0.269 A  
HETATM    5  C   UNL     1     -10.832  16.951  68.442  1.00  0.00    -0.347 A  
HETATM    6  C   UNL     1     -11.455  15.696  68.450  1.00  0.00    -0.374 A  
HETATM    7  C   UNL     1     -10.694  14.518  68.470  1.00  0.00    -0.250 A  
HETATM    8  C   UNL     1      -9.296  14.612  68.391  1.00  0.00    -0.201 A  
HETATM    9  C   UNL     1      -8.672  15.870  68.360  1.00  0.00    -0.183 A  
ENDROOT
BRANCH   7  10
HETATM   10  N   UNL     1     -11.301  13.225  68.581  1.00  0.00    -0.267 NA 
HETATM   11  N   UNL     1     -11.541  12.707  69.819  1.00  0.00    -0.253 NA 
HETATM   12  C   UNL     1     -11.802  11.416  69.574  1.00  0.00    -0.357 A  
HETATM   13  N   UNL     1     -11.882  11.133  68.232  1.00  0.00    -0.577 NA 
HETATM   14  C   UNL     1     -11.635  12.275  67.615  1.00  0.00    -0.354 A  
BRANCH  12  15
HETATM   15  C   UNL     1     -11.984  10.341  70.563  1.00  0.00    -0.415 A  
HETATM   16  C   UNL     1     -11.211   9.168  70.414  1.00  0.00    -0.279 A  
HETATM   17  C   UNL     1     -11.304   8.101  71.313  1.00  0.00    -0.300 A  
HETATM   18  H   UNL     1     -14.211  11.548  72.643  1.00  0.00     0.000 HD 
HETATM   19  C   UNL     1     -12.176   8.183  72.390  1.00  0.00    -0.374 A  
HETATM   20  O   UNL     1     -13.623  11.507  71.898  1.00  0.00    -0.254 OA 
HETATM   21  C   UNL     1     -12.950   9.330  72.568  1.00  0.00    -0.384 A  
HETATM   22  C   UNL     1     -12.853  10.402  71.664  1.00  0.00    -0.474 A  
ENDBRANCH  12  15
BRANCH  14  23
HETATM   23  C   UNL     1     -11.674  12.409  66.151  1.00  0.00    -0.460 A  
HETATM   24  C   UNL     1     -12.051  12.656  63.371  1.00  0.00    -0.614 A  
HETATM   25  C   UNL     1     -11.215  11.662  63.877  1.00  0.00    -0.479 A  
HETATM   26  C   UNL     1     -12.453  13.450  65.612  1.00  0.00    -0.519 A  
HETATM   27  C   UNL     1     -11.000  11.568  65.255  1.00  0.00    -0.228 A  
HETATM   28  C   UNL     1     -12.641  13.573  64.235  1.00  0.00    -0.206 A  
HETATM   29  O   UNL     1     -10.123  10.632  65.727  1.00  0.00    -0.245 OA 
HETATM   30  H   UNL     1      -9.667  10.062  65.120  1.00  0.00     0.000 HD 
ENDBRANCH  14  23
ENDBRANCH   7  10
TORSDOF 3
ENDMDL
MODEL       12
REMARK 921   NORMALIZED FREE ENERGY PREDICTED BY IDOCK:   -8.05 KCAL/MOL
REMARK 922        TOTAL FREE ENERGY PREDICTED BY IDOCK:  -10.71 KCAL/MOL
REMARK 923 INTER-LIGAND FREE ENERGY PREDICTED BY IDOCK:  -10.15 KCAL/MOL
REMARK 924 INTRA-LIGAND FREE ENERGY PREDICTED BY IDOCK:   -0.55 KCAL/MOL
REMARK 927      BINDING AFFINITY PREDICTED BY RF-SCORE:    0.00 PKD
ROOT
HETATM    1  O   UNL     1     -11.593  16.246  63.794  1.00  0.00    -0.952 OA 
HETATM    2  C   UNL     1     -10.946  16.423  64.970  1.00  0.00    -0.252 C  
HETATM    3  O   UNL     1     -10.350  17.448  65.249  1.00  0.00    -0.616 OA 
HETATM    4  C   UNL     1     -11.005  15.247  65.874  1.00  0.00    -0.325 A  
HETATM    5  C   UNL     1     -12.115  14.398  65.911  1.00  0.00    -0.358 A  
HETATM    6  C   UNL     1     -12.139  13.308  66.791  1.00  0.00    -0.403 A  
HETATM    7  C   UNL     1     -11.087  13.092  67.693  1.00  0.00    -0.267 A  
HETATM    8  C   UNL     1      -9.965  13.934  67.641  1.00  0.00    -0.237 A  
HETATM    9  C   UNL     1      -9.931  15.013  66.743  1.00  0.00    -0.254 A  
ENDROOT
BRANCH   7  10
HETATM   10  N   UNL     1     -11.130  12.046  68.672  1.00  0.00    -0.233 NA 
HETATM   11  N   UNL     1     -10.503  10.863  68.410  1.00  0.00    -0.173 NA 
HETATM   12  C   UNL     1     -10.990  10.037  69.344  1.00  0.00    -0.244 A  
HETATM   13  N   UNL     1     -11.777  10.680  70.268  1.00  0.00    -0.315 NA 
HETATM   14  C   UNL     1     -11.809  11.944  69.886  1.00  0.00    -0.343 A  
BRANCH  12  15
HETATM   15  C   UNL     1     -10.774   8.584  69.447  1.00  0.00    -0.166 A  
HETATM   16  C   UNL     1     -10.804   8.001  70.734  1.00  0.00    -0.244 A  
HETATM   17  C   UNL     1     -10.627   6.628  70.929  1.00  0.00    -0.263 A  
HETATM   18  H   UNL     1     -10.404   7.615  66.338  1.00  0.00     0.000 HD 
HETATM   19  C   UNL     1     -10.415   5.800  69.835  1.00  0.00    -0.360 A  
HETATM   20  O   UNL     1     -10.544   8.198  67.075  1.00  0.00    -0.329 OA 
HETATM   21  C   UNL     1     -10.386   6.344  68.551  1.00  0.00    -0.227 A  
HETATM   22  C   UNL     1     -10.566   7.724  68.357  1.00  0.00    -0.112 A  
ENDBRANCH  12  15
BRANCH  14  23
HETATM   23  C   UNL     1     -12.516  12.985  70.648  1.00  0.00    -0.347 A  
HETATM   24  C   UNL     1     -13.605  15.122  72.123  1.00  0.00    -0.558 A  
HETATM   25  C   UNL     1     -13.783  13.810  72.560  1.00  0.00    -0.667 A  
HETATM   26  C   UNL     1     -12.415  14.311  70.189  1.00  0.00    -0.393 A  
HETATM   27  C   UNL     1     -13.275  12.750  71.803  1.00  0.00    -0.374 A  
HETATM   28  C   UNL     1     -12.953  15.371  70.919  1.00  0.00    -0.539 A  
HETATM   29  O   UNL     1     -13.519  11.468  72.210  1.00  0.00    -0.602 OA 
HETATM   30  H   UNL     1     -14.033  11.310  72.993  1.00  0.00     0.000 HD 
ENDBRANCH  14  23
ENDBRANCH   7  10
TORSDOF 3
ENDMDL
MODEL       13
REMARK 921   NORMALIZED FREE ENERGY PREDICTED BY IDOCK:   -8.04 KCAL/MOL
REMARK 922        TOTAL FREE ENERGY PREDICTED BY IDOCK:  -10.69 KCAL/MOL
REMARK 923 INTER-LIGAND FREE ENERGY PREDICTED BY IDOCK:  -10.54 KCAL/MOL
REMARK 924 INTRA-LIGAND FREE ENERGY PREDICTED BY IDOCK:   -0.15 KCAL/MOL
REMARK 927      BINDING AFFINITY PREDICTED BY RF-SCORE:    0.00 PKD
ROOT
HETATM    1  O   UNL     1     -13.253  14.582  73.456  1.00  0.00    -0.526 OA 
HETATM    2  C   UNL     1     -13.257  13.873  72.302  1.00  0.00    -0.473 C  
HETATM    3  O   UNL     1     -13.902  12.849  72.158  1.00  0.00    -0.442 OA 
HETATM    4  C   UNL     1     -12.385  14.440  71.243  1.00  0.00    -0.432 A  
HETATM    5  C   UNL     1     -12.181  15.817  71.112  1.00  0.00    -0.473 A  
HETATM    6  C   UNL     1     -11.364  16.313  70.088  1.00  0.00    -0.292 A  
HETATM    7  C   UNL     1     -10.796  15.448  69.141  1.00  0.00    -0.249 A  
HETATM    8  C   UNL     1     -10.986  14.065  69.286  1.00  0.00    -0.242 A  
HETATM    9  C   UNL     1     -11.788  13.566  70.326  1.00  0.00    -0.327 A  
ENDROOT
BRANCH   7  10
HETATM   10  N   UNL     1     -10.039  15.935  68.026  1.00  0.00    -0.228 NA 
HETATM   11  N   UNL     1      -9.035  16.831  68.245  1.00  0.00    -0.221 NA 
HETATM   12  C   UNL     1      -8.762  17.302  67.021  1.00  0.00    -0.231 A  
HETATM   13  N   UNL     1      -9.445  16.640  66.029  1.00  0.00    -0.446 NA 
HETATM   14  C   UNL     1     -10.190  15.744  66.652  1.00  0.00    -0.285 A  
BRANCH  12  15
HETATM   15  C   UNL     1      -7.859  18.412  66.675  1.00  0.00    -0.269 A  
HETATM   16  C   UNL     1      -6.666  18.102  65.984  1.00  0.00    -0.312 A  
HETATM   17  C   UNL     1      -5.755  19.091  65.599  1.00  0.00    -0.206 A  
HETATM   18  H   UNL     1      -9.411  21.074  67.791  1.00  0.00     0.000 HD 
HETATM   19  C   UNL     1      -6.018  20.421  65.896  1.00  0.00    -0.225 A  
HETATM   20  O   UNL     1      -9.245  20.158  67.601  1.00  0.00    -0.341 OA 
HETATM   21  C   UNL     1      -7.190  20.760  66.572  1.00  0.00    -0.200 A  
HETATM   22  C   UNL     1      -8.105  19.765  66.956  1.00  0.00    -0.293 A  
ENDBRANCH  12  15
BRANCH  14  23
HETATM   23  C   UNL     1     -11.045  14.786  65.934  1.00  0.00    -0.340 A  
HETATM   24  C   UNL     1     -12.459  12.750  64.598  1.00  0.00    -0.525 A  
HETATM   25  C   UNL     1     -12.258  13.983  63.979  1.00  0.00    -0.395 A  
HETATM   26  C   UNL     1     -11.326  13.561  66.566  1.00  0.00    -0.340 A  
HETATM   27  C   UNL     1     -11.590  15.003  64.661  1.00  0.00    -0.386 A  
HETATM   28  C   UNL     1     -12.025  12.551  65.905  1.00  0.00    -0.472 A  
HETATM   29  O   UNL     1     -11.463  16.227  64.065  1.00  0.00    -1.371 OA 
HETATM   30  H   UNL     1     -11.833  16.374  63.202  1.00  0.00     0.000 HD 
ENDBRANCH  14  23
ENDBRANCH   7  10
TORSDOF 3
ENDMDL
MODEL       14
REMARK 921   NORMALIZED FREE ENERGY PREDICTED BY IDOCK:   -7.94 KCAL/MOL
REMARK 922        TOTAL FREE ENERGY PREDICTED BY IDOCK:  -10.57 KCAL/MOL
REMARK 923 INTER-LIGAND FREE ENERGY PREDICTED BY IDOCK:  -10.01 KCAL/MOL
REMARK 924 INTRA-LIGAND FREE ENERGY PREDICTED BY IDOCK:   -0.56 KCAL/MOL
REMARK 927      BINDING AFFINITY PREDICTED BY RF-SCORE:    0.00 PKD
ROOT
HETATM    1  O   UNL     1      -8.141   8.453  66.711  1.00  0.00    -0.097 OA 
HETATM    2  C   UNL     1      -9.464   8.711  66.842  1.00  0.00    -0.180 C  
HETATM    3  O   UNL     1     -10.319   7.849  66.739  1.00  0.00    -0.309 OA 
HETATM    4  C   UNL     1      -9.778  10.140  67.093  1.00  0.00    -0.214 A  
HETATM    5  C   UNL     1      -8.920  10.968  67.823  1.00  0.00    -0.140 A  
HETATM    6  C   UNL     1      -9.261  12.308  68.052  1.00  0.00    -0.195 A  
HETATM    7  C   UNL     1     -10.492  12.819  67.616  1.00  0.00    -0.220 A  
HETATM    8  C   UNL     1     -11.343  11.992  66.867  1.00  0.00    -0.400 A  
HETATM    9  C   UNL     1     -10.991  10.655  66.617  1.00  0.00    -0.144 A  
ENDROOT
BRANCH   7  10
HETATM   10  N   UNL     1     -10.910  14.155  67.923  1.00  0.00    -0.242 NA 
HETATM   11  N   UNL     1     -10.587  15.166  67.068  1.00  0.00    -0.293 NA 
HETATM   12  C   UNL     1     -10.835  16.272  67.781  1.00  0.00    -0.315 A  
HETATM   13  N   UNL     1     -11.437  16.006  68.987  1.00  0.00    -0.364 NA 
HETATM   14  C   UNL     1     -11.544  14.690  69.045  1.00  0.00    -0.298 A  
BRANCH  12  15
HETATM   15  C   UNL     1     -10.523  17.662  67.408  1.00  0.00    -0.356 A  
HETATM   16  C   UNL     1     -10.248  18.579  68.448  1.00  0.00    -0.409 A  
HETATM   17  C   UNL     1      -9.925  19.915  68.190  1.00  0.00    -0.551 A  
HETATM   18  H   UNL     1     -10.631  17.647  64.133  1.00  0.00     0.000 HD 
HETATM   19  C   UNL     1      -9.868  20.368  66.879  1.00  0.00    -0.572 A  
HETATM   20  O   UNL     1     -10.680  17.320  65.024  1.00  0.00    -0.708 OA 
HETATM   21  C   UNL     1     -10.129  19.486  65.830  1.00  0.00    -0.444 A  
HETATM   22  C   UNL     1     -10.451  18.143  66.092  1.00  0.00    -0.364 A  
ENDBRANCH  12  15
BRANCH  14  23
HETATM   23  C   UNL     1     -12.187  13.996  70.171  1.00  0.00    -0.425 A  
HETATM   24  C   UNL     1     -13.531  12.473  72.122  1.00  0.00    -0.523 A  
HETATM   25  C   UNL     1     -13.733  13.850  72.050  1.00  0.00    -0.577 A  
HETATM   26  C   UNL     1     -11.944  12.617  70.312  1.00  0.00    -0.363 A  
HETATM   27  C   UNL     1     -13.034  14.608  71.106  1.00  0.00    -0.350 A  
HETATM   28  C   UNL     1     -12.610  11.861  71.277  1.00  0.00    -0.383 A  
HETATM   29  O   UNL     1     -13.192  15.965  71.096  1.00  0.00    -0.580 OA 
HETATM   30  H   UNL     1     -13.765  16.380  71.730  1.00  0.00     0.000 HD 
ENDBRANCH  14  23
ENDBRANCH   7  10
TORSDOF 3
ENDMDL
MODEL       15
REMARK 921   NORMALIZED FREE ENERGY PREDICTED BY IDOCK:   -7.93 KCAL/MOL
REMARK 922        TOTAL FREE ENERGY PREDICTED BY IDOCK:  -10.56 KCAL/MOL
REMARK 923 INTER-LIGAND FREE ENERGY PREDICTED BY IDOCK:   -9.66 KCAL/MOL
REMARK 924 INTRA-LIGAND FREE ENERGY PREDICTED BY IDOCK:   -0.90 KCAL/MOL
REMARK 927      BINDING AFFINITY PREDICTED BY RF-SCORE:    0.00 PKD
ROOT
HETATM    1  O   UNL     1     -12.046  15.856  63.741  1.00  0.00    -0.780 OA 
HETATM    2  C   UNL     1     -11.279  16.135  64.822  1.00  0.00    -0.304 C  
HETATM    3  O   UNL     1     -10.662  17.179  64.942  1.00  0.00    -0.737 OA 
HETATM    4  C   UNL     1     -11.238  15.047  65.830  1.00  0.00    -0.318 A  
HETATM    5  C   UNL     1     -12.335  14.210  66.059  1.00  0.00    -0.470 A  
HETATM    6  C   UNL     1     -12.261  13.204  67.032  1.00  0.00    -0.271 A  
HETATM    7  C   UNL     1     -11.119  13.065  67.835  1.00  0.00    -0.255 A  
HETATM    8  C   UNL     1     -10.013  13.893  67.589  1.00  0.00    -0.237 A  
HETATM    9  C   UNL     1     -10.078  14.887  66.599  1.00  0.00    -0.264 A  
ENDROOT
BRANCH   7  10
HETATM   10  N   UNL     1     -11.055  12.112  68.903  1.00  0.00    -0.233 NA 
HETATM   11  N   UNL     1     -10.359  10.953  68.720  1.00  0.00    -0.189 NA 
HETATM   12  C   UNL     1     -10.754  10.186  69.743  1.00  0.00    -0.279 A  
HETATM   13  N   UNL     1     -11.549  10.858  70.640  1.00  0.00    -0.310 NA 
HETATM   14  C   UNL     1     -11.681  12.078  70.149  1.00  0.00    -0.233 A  
BRANCH  12  15
HETATM   15  C   UNL     1     -10.437   8.765  69.965  1.00  0.00    -0.222 A  
HETATM   16  C   UNL     1     -10.857   7.834  68.988  1.00  0.00    -0.042 A  
HETATM   17  C   UNL     1     -10.587   6.467  69.104  1.00  0.00    -0.286 A  
HETATM   18  H   UNL     1      -8.776   8.755  72.790  1.00  0.00     0.000 HD 
HETATM   19  C   UNL     1      -9.886   5.996  70.206  1.00  0.00    -0.221 A  
HETATM   20  O   UNL     1      -9.260   9.095  72.046  1.00  0.00    -0.339 OA 
HETATM   21  C   UNL     1      -9.453   6.890  71.185  1.00  0.00    -0.166 A  
HETATM   22  C   UNL     1      -9.723   8.264  71.065  1.00  0.00    -0.163 A  
ENDBRANCH  12  15
BRANCH  14  23
HETATM   23  C   UNL     1     -12.428  13.136  70.846  1.00  0.00    -0.407 A  
HETATM   24  C   UNL     1     -13.592  15.293  72.232  1.00  0.00    -0.586 A  
HETATM   25  C   UNL     1     -13.881  13.983  72.610  1.00  0.00    -0.516 A  
HETATM   26  C   UNL     1     -12.211  14.464  70.437  1.00  0.00    -0.404 A  
HETATM   27  C   UNL     1     -13.333  12.915  71.894  1.00  0.00    -0.435 A  
HETATM   28  C   UNL     1     -12.786  15.535  71.124  1.00  0.00    -0.551 A  
HETATM   29  O   UNL     1     -13.683  11.639  72.234  1.00  0.00    -0.446 OA 
HETATM   30  H   UNL     1     -14.296  11.489  72.945  1.00  0.00     0.000 HD 
ENDBRANCH  14  23
ENDBRANCH   7  10
TORSDOF 3
ENDMDL
MODEL       16
REMARK 921   NORMALIZED FREE ENERGY PREDICTED BY IDOCK:   -7.91 KCAL/MOL
REMARK 922        TOTAL FREE ENERGY PREDICTED BY IDOCK:  -10.54 KCAL/MOL
REMARK 923 INTER-LIGAND FREE ENERGY PREDICTED BY IDOCK:   -9.47 KCAL/MOL
REMARK 924 INTRA-LIGAND FREE ENERGY PREDICTED BY IDOCK:   -1.07 KCAL/MOL
REMARK 927      BINDING AFFINITY PREDICTED BY RF-SCORE:    0.00 PKD
ROOT
HETATM    1  O   UNL     1     -13.127  10.163  71.187  1.00  0.00    -0.371 OA 
HETATM    2  C   UNL     1     -12.949  11.476  71.466  1.00  0.00    -0.380 C  
HETATM    3  O   UNL     1     -13.324  11.988  72.507  1.00  0.00    -0.290 OA 
HETATM    4  C   UNL     1     -12.283  12.239  70.381  1.00  0.00    -0.371 A  
HETATM    5  C   UNL     1     -11.320  11.656  69.551  1.00  0.00    -0.328 A  
HETATM    6  C   UNL     1     -10.703  12.415  68.548  1.00  0.00    -0.262 A  
HETATM    7  C   UNL     1     -10.987  13.781  68.405  1.00  0.00    -0.254 A  
HETATM    8  C   UNL     1     -11.967  14.359  69.226  1.00  0.00    -0.362 A  
HETATM    9  C   UNL     1     -12.603  13.593  70.217  1.00  0.00    -0.253 A  
ENDROOT
BRANCH   7  10
HETATM   10  N   UNL     1     -10.298  14.604  67.456  1.00  0.00    -0.234 NA 
HETATM   11  N   UNL     1      -9.616  15.700  67.897  1.00  0.00    -0.206 NA 
HETATM   12  C   UNL     1      -9.373  16.391  66.776  1.00  0.00    -0.245 A  
HETATM   13  N   UNL     1      -9.740  15.711  65.640  1.00  0.00    -0.333 NA 
HETATM   14  C   UNL     1     -10.255  14.570  66.062  1.00  0.00    -0.315 A  
BRANCH  12  15
HETATM   15  C   UNL     1      -8.795  17.741  66.670  1.00  0.00    -0.282 A  
HETATM   16  C   UNL     1      -7.437  17.850  66.295  1.00  0.00    -0.321 A  
HETATM   17  C   UNL     1      -6.806  19.089  66.152  1.00  0.00    -0.260 A  
HETATM   18  H   UNL     1     -11.298  19.733  67.378  1.00  0.00     0.000 HD 
HETATM   19  C   UNL     1      -7.523  20.256  66.380  1.00  0.00    -0.284 A  
HETATM   20  O   UNL     1     -10.822  18.924  67.231  1.00  0.00    -0.458 OA 
HETATM   21  C   UNL     1      -8.867  20.182  66.746  1.00  0.00    -0.407 A  
HETATM   22  C   UNL     1      -9.499  18.935  66.887  1.00  0.00    -0.317 A  
ENDBRANCH  12  15
BRANCH  14  23
HETATM   23  C   UNL     1     -10.728  13.525  65.141  1.00  0.00    -0.349 A  
HETATM   24  C   UNL     1     -11.343  11.483  63.302  1.00  0.00    -0.208 A  
HETATM   25  C   UNL     1     -11.984  12.718  63.216  1.00  0.00    -0.522 A  
HETATM   26  C   UNL     1     -10.150  12.247  65.253  1.00  0.00    -0.295 A  
HETATM   27  C   UNL     1     -11.705  13.714  64.154  1.00  0.00    -0.386 A  
HETATM   28  C   UNL     1     -10.453  11.234  64.342  1.00  0.00    -0.407 A  
HETATM   29  O   UNL     1     -12.394  14.893  64.096  1.00  0.00    -0.773 OA 
HETATM   30  H   UNL     1     -13.057  15.022  63.427  1.00  0.00     0.000 HD 
ENDBRANCH  14  23
ENDBRANCH   7  10
TORSDOF 3
ENDMDL
MODEL       17
REMARK 921   NORMALIZED FREE ENERGY PREDICTED BY IDOCK:   -7.85 KCAL/MOL
REMARK 922        TOTAL FREE ENERGY PREDICTED BY IDOCK:  -10.47 KCAL/MOL
REMARK 923 INTER-LIGAND FREE ENERGY PREDICTED BY IDOCK:   -9.47 KCAL/MOL
REMARK 924 INTRA-LIGAND FREE ENERGY PREDICTED BY IDOCK:   -1.00 KCAL/MOL
REMARK 927      BINDING AFFINITY PREDICTED BY RF-SCORE:    0.00 PKD
ROOT
HETATM    1  O   UNL     1     -11.964  16.202  63.847  1.00  0.00    -0.947 OA 
HETATM    2  C   UNL     1     -11.098  16.154  64.887  1.00  0.00    -0.325 C  
HETATM    3  O   UNL     1     -10.429  17.112  65.235  1.00  0.00    -0.655 OA 
HETATM    4  C   UNL     1     -11.019  14.827  65.546  1.00  0.00    -0.350 A  
HETATM    5  C   UNL     1     -12.127  13.978  65.635  1.00  0.00    -0.432 A  
HETATM    6  C   UNL     1     -12.015  12.739  66.279  1.00  0.00    -0.460 A  
HETATM    7  C   UNL     1     -10.817  12.361  66.903  1.00  0.00    -0.251 A  
HETATM    8  C   UNL     1      -9.701  13.205  66.796  1.00  0.00    -0.246 A  
HETATM    9  C   UNL     1      -9.806  14.438  66.130  1.00  0.00    -0.340 A  
ENDROOT
BRANCH   7  10
HETATM   10  N   UNL     1     -10.703  11.147  67.655  1.00  0.00    -0.214 NA 
HETATM   11  N   UNL     1     -10.019  10.095  67.120  1.00  0.00    -0.187 NA 
HETATM   12  C   UNL     1     -10.366   9.065  67.903  1.00  0.00    -0.235 A  
HETATM   13  N   UNL     1     -11.116   9.448  68.988  1.00  0.00    -0.061 NA 
HETATM   14  C   UNL     1     -11.269  10.754  68.868  1.00  0.00    -0.268 A  
BRANCH  12  15
HETATM   15  C   UNL     1     -10.041   7.643  67.699  1.00  0.00    -0.249 A  
HETATM   16  C   UNL     1     -11.002   6.832  67.054  1.00  0.00    -0.439 A  
HETATM   17  C   UNL     1     -10.775   5.475  66.803  1.00  0.00    -0.329 A  
HETATM   18  H   UNL     1      -7.023   7.335  68.939  1.00  0.00     0.000 HD 
HETATM   19  C   UNL     1      -9.576   4.894  67.192  1.00  0.00    -0.175 A  
HETATM   20  O   UNL     1      -7.840   7.748  68.685  1.00  0.00    -0.115 OA 
HETATM   21  C   UNL     1      -8.605   5.670  67.826  1.00  0.00    -0.101 A  
HETATM   22  C   UNL     1      -8.834   7.034  68.076  1.00  0.00    -0.124 A  
ENDBRANCH  12  15
BRANCH  14  23
HETATM   23  C   UNL     1     -11.981  11.564  69.869  1.00  0.00    -0.426 A  
HETATM   24  C   UNL     1     -13.074  13.223  71.865  1.00  0.00    -0.483 A  
HETATM   25  C   UNL     1     -13.370  11.861  71.849  1.00  0.00    -0.405 A  
HETATM   26  C   UNL     1     -11.758  12.953  69.862  1.00  0.00    -0.324 A  
HETATM   27  C   UNL     1     -12.858  11.049  70.834  1.00  0.00    -0.301 A  
HETATM   28  C   UNL     1     -12.298  13.777  70.851  1.00  0.00    -0.456 A  
HETATM   29  O   UNL     1     -13.216   9.731  70.795  1.00  0.00    -0.576 OA 
HETATM   30  H   UNL     1     -13.809   9.382  71.450  1.00  0.00     0.000 HD 
ENDBRANCH  14  23
ENDBRANCH   7  10
TORSDOF 3
ENDMDL
MODEL       18
REMARK 921   NORMALIZED FREE ENERGY PREDICTED BY IDOCK:   -7.69 KCAL/MOL
REMARK 922        TOTAL FREE ENERGY PREDICTED BY IDOCK:  -10.28 KCAL/MOL
REMARK 923 INTER-LIGAND FREE ENERGY PREDICTED BY IDOCK:   -9.15 KCAL/MOL
REMARK 924 INTRA-LIGAND FREE ENERGY PREDICTED BY IDOCK:   -1.13 KCAL/MOL
REMARK 927      BINDING AFFINITY PREDICTED BY RF-SCORE:    0.00 PKD
ROOT
HETATM    1  O   UNL     1     -12.884   9.815  70.930  1.00  0.00    -0.305 OA 
HETATM    2  C   UNL     1     -12.827  11.129  71.254  1.00  0.00    -0.412 C  
HETATM    3  O   UNL     1     -13.283  11.574  72.293  1.00  0.00    -0.425 OA 
HETATM    4  C   UNL     1     -12.186  11.978  70.219  1.00  0.00    -0.348 A  
HETATM    5  C   UNL     1     -11.147  11.503  69.413  1.00  0.00    -0.287 A  
HETATM    6  C   UNL     1     -10.557  12.342  68.458  1.00  0.00    -0.254 A  
HETATM    7  C   UNL     1     -10.948  13.684  68.343  1.00  0.00    -0.262 A  
HETATM    8  C   UNL     1     -12.004  14.153  69.140  1.00  0.00    -0.388 A  
HETATM    9  C   UNL     1     -12.611  13.306  70.082  1.00  0.00    -0.112 A  
ENDROOT
BRANCH   7  10
HETATM   10  N   UNL     1     -10.294  14.590  67.447  1.00  0.00    -0.251 NA 
HETATM   11  N   UNL     1      -9.652  15.681  67.956  1.00  0.00    -0.203 NA 
HETATM   12  C   UNL     1      -9.440  16.450  66.880  1.00  0.00    -0.235 A  
HETATM   13  N   UNL     1      -9.785  15.830  65.704  1.00  0.00    -0.340 NA 
HETATM   14  C   UNL     1     -10.255  14.646  66.054  1.00  0.00    -0.311 A  
BRANCH  12  15
HETATM   15  C   UNL     1      -8.914  17.825  66.858  1.00  0.00    -0.265 A  
HETATM   16  C   UNL     1      -7.535  18.001  66.602  1.00  0.00    -0.256 A  
HETATM   17  C   UNL     1      -6.949  19.269  66.546  1.00  0.00    -0.221 A  
HETATM   18  H   UNL     1     -11.551  19.692  67.407  1.00  0.00     0.000 HD 
HETATM   19  C   UNL     1      -7.732  20.398  66.744  1.00  0.00    -0.311 A  
HETATM   20  O   UNL     1     -11.030  18.908  67.279  1.00  0.00    -0.436 OA 
HETATM   21  C   UNL     1      -9.097  20.258  66.993  1.00  0.00    -0.481 A  
HETATM   22  C   UNL     1      -9.685  18.983  67.048  1.00  0.00    -0.315 A  
ENDBRANCH  12  15
BRANCH  14  23
HETATM   23  C   UNL     1     -10.691  13.644  65.070  1.00  0.00    -0.374 A  
HETATM   24  C   UNL     1     -11.801  11.745  63.311  1.00  0.00    -0.342 A  
HETATM   25  C   UNL     1     -10.655  11.434  64.041  1.00  0.00    -0.444 A  
HETATM   26  C   UNL     1     -11.802  13.959  64.266  1.00  0.00    -0.441 A  
HETATM   27  C   UNL     1     -10.085  12.393  64.883  1.00  0.00    -0.236 A  
HETATM   28  C   UNL     1     -12.354  13.019  63.395  1.00  0.00    -0.478 A  
HETATM   29  O   UNL     1      -8.923  12.094  65.537  1.00  0.00    -0.414 OA 
HETATM   30  H   UNL     1      -8.513  11.247  65.411  1.00  0.00     0.000 HD 
ENDBRANCH  14  23
ENDBRANCH   7  10
TORSDOF 3
ENDMDL
MODEL       19
REMARK 921   NORMALIZED FREE ENERGY PREDICTED BY IDOCK:   -7.61 KCAL/MOL
REMARK 922        TOTAL FREE ENERGY PREDICTED BY IDOCK:  -10.19 KCAL/MOL
REMARK 923 INTER-LIGAND FREE ENERGY PREDICTED BY IDOCK:   -9.49 KCAL/MOL
REMARK 924 INTRA-LIGAND FREE ENERGY PREDICTED BY IDOCK:   -0.70 KCAL/MOL
REMARK 927      BINDING AFFINITY PREDICTED BY RF-SCORE:    0.00 PKD
ROOT
HETATM    1  O   UNL     1     -10.606   8.319  66.806  1.00  0.00    -0.306 OA 
HETATM    2  C   UNL     1      -9.544   9.158  66.863  1.00  0.00    -0.178 C  
HETATM    3  O   UNL     1      -8.408   8.803  66.605  1.00  0.00    -0.106 OA 
HETATM    4  C   UNL     1      -9.886  10.536  67.295  1.00  0.00    -0.209 A  
HETATM    5  C   UNL     1     -11.113  11.127  66.979  1.00  0.00    -0.339 A  
HETATM    6  C   UNL     1     -11.391  12.437  67.392  1.00  0.00    -0.381 A  
HETATM    7  C   UNL     1     -10.423  13.197  68.064  1.00  0.00    -0.239 A  
HETATM    8  C   UNL     1      -9.200  12.596  68.397  1.00  0.00    -0.135 A  
HETATM    9  C   UNL     1      -8.929  11.275  68.004  1.00  0.00    -0.156 A  
ENDROOT
BRANCH   7  10
HETATM   10  N   UNL     1     -10.642  14.571  68.409  1.00  0.00    -0.238 NA 
HETATM   11  N   UNL     1     -10.169  15.547  67.582  1.00  0.00    -0.252 NA 
HETATM   12  C   UNL     1     -10.256  16.657  68.326  1.00  0.00    -0.281 A  
HETATM   13  N   UNL     1     -10.897  16.448  69.524  1.00  0.00    -0.327 NA 
HETATM   14  C   UNL     1     -11.196  15.162  69.545  1.00  0.00    -0.273 A  
BRANCH  12  15
HETATM   15  C   UNL     1      -9.741  17.995  67.993  1.00  0.00    -0.309 A  
HETATM   16  C   UNL     1     -10.600  18.880  67.302  1.00  0.00    -0.529 A  
HETATM   17  C   UNL     1     -10.204  20.177  66.958  1.00  0.00    -0.558 A  
HETATM   18  H   UNL     1      -6.715  18.016  69.249  1.00  0.00     0.000 HD 
HETATM   19  C   UNL     1      -8.934  20.622  67.298  1.00  0.00    -0.373 A  
HETATM   20  O   UNL     1      -7.578  17.692  69.020  1.00  0.00    -0.245 OA 
HETATM   21  C   UNL     1      -8.065  19.774  67.985  1.00  0.00    -0.338 A  
HETATM   22  C   UNL     1      -8.465  18.472  68.332  1.00  0.00    -0.328 A  
ENDBRANCH  12  15
BRANCH  14  23
HETATM   23  C   UNL     1     -11.940  14.539  70.650  1.00  0.00    -0.387 A  
HETATM   24  C   UNL     1     -13.561  13.248  72.557  1.00  0.00    -0.637 A  
HETATM   25  C   UNL     1     -13.231  14.593  72.716  1.00  0.00    -0.591 A  
HETATM   26  C   UNL     1     -12.226  13.165  70.551  1.00  0.00    -0.405 A  
HETATM   27  C   UNL     1     -12.394  15.219  71.789  1.00  0.00    -0.358 A  
HETATM   28  C   UNL     1     -13.030  12.524  71.494  1.00  0.00    -0.379 A  
HETATM   29  O   UNL     1     -12.024  16.517  71.999  1.00  0.00    -0.638 OA 
HETATM   30  H   UNL     1     -12.332  16.978  72.771  1.00  0.00     0.000 HD 
ENDBRANCH  14  23
ENDBRANCH   7  10
TORSDOF 3
ENDMDL
MODEL       20
REMARK 921   NORMALIZED FREE ENERGY PREDICTED BY IDOCK:   -7.58 KCAL/MOL
REMARK 922        TOTAL FREE ENERGY PREDICTED BY IDOCK:  -10.16 KCAL/MOL
REMARK 923 INTER-LIGAND FREE ENERGY PREDICTED BY IDOCK:   -9.37 KCAL/MOL
REMARK 924 INTRA-LIGAND FREE ENERGY PREDICTED BY IDOCK:   -0.78 KCAL/MOL
REMARK 927      BINDING AFFINITY PREDICTED BY RF-SCORE:    0.00 PKD
ROOT
HETATM    1  O   UNL     1     -10.412   5.258  66.428  1.00  0.00    -0.260 OA 
HETATM    2  C   UNL     1      -9.934   5.819  67.564  1.00  0.00    -0.148 C  
HETATM    3  O   UNL     1      -9.278   5.198  68.383  1.00  0.00    -0.110 OA 
HETATM    4  C   UNL     1     -10.304   7.246  67.735  1.00  0.00    -0.267 A  
HETATM    5  C   UNL     1     -10.447   8.108  66.643  1.00  0.00    -0.204 A  
HETATM    6  C   UNL     1     -10.782   9.453  66.848  1.00  0.00    -0.174 A  
HETATM    7  C   UNL     1     -10.909   9.971  68.145  1.00  0.00    -0.255 A  
HETATM    8  C   UNL     1     -10.783   9.100  69.238  1.00  0.00    -0.199 A  
HETATM    9  C   UNL     1     -10.470   7.746  69.033  1.00  0.00    -0.215 A  
ENDROOT
BRANCH   7  10
HETATM   10  N   UNL     1     -11.150  11.363  68.386  1.00  0.00    -0.221 NA 
HETATM   11  N   UNL     1     -11.241  11.809  69.671  1.00  0.00    -0.200 NA 
HETATM   12  C   UNL     1     -11.767  13.034  69.541  1.00  0.00    -0.317 A  
HETATM   13  N   UNL     1     -11.874  13.434  68.231  1.00  0.00    -0.352 NA 
HETATM   14  C   UNL     1     -11.427  12.417  67.515  1.00  0.00    -0.346 A  
BRANCH  12  15
HETATM   15  C   UNL     1     -12.226  13.925  70.620  1.00  0.00    -0.443 A  
HETATM   16  C   UNL     1     -13.364  13.534  71.362  1.00  0.00    -0.296 A  
HETATM   17  C   UNL     1     -13.862  14.307  72.414  1.00  0.00    -0.619 A  
HETATM   18  H   UNL     1     -10.062  16.386  70.588  1.00  0.00     0.000 HD 
HETATM   19  C   UNL     1     -13.232  15.496  72.753  1.00  0.00    -0.605 A  
HETATM   20  O   UNL     1     -10.484  15.572  70.339  1.00  0.00    -0.313 OA 
HETATM   21  C   UNL     1     -12.103  15.907  72.044  1.00  0.00    -0.591 A  
HETATM   22  C   UNL     1     -11.602  15.128  70.987  1.00  0.00    -0.347 A  
ENDBRANCH  12  15
BRANCH  14  23
HETATM   23  C   UNL     1     -11.328  12.463  66.048  1.00  0.00    -0.397 A  
HETATM   24  C   UNL     1     -11.348  12.333  63.235  1.00  0.00    -0.414 A  
HETATM   25  C   UNL     1     -10.145  12.220  63.931  1.00  0.00    -0.374 A  
HETATM   26  C   UNL     1     -12.517  12.649  65.320  1.00  0.00    -0.483 A  
HETATM   27  C   UNL     1     -10.135  12.325  65.324  1.00  0.00    -0.271 A  
HETATM   28  C   UNL     1     -12.529  12.584  63.926  1.00  0.00    -0.540 A  
HETATM   29  O   UNL     1      -8.939  12.282  65.984  1.00  0.00    -0.412 OA 
HETATM   30  H   UNL     1      -8.131  12.188  65.494  1.00  0.00     0.000 HD 
ENDBRANCH  14  23
ENDBRANCH   7  10
TORSDOF 3
ENDMDL
MODEL       21
REMARK 921   NORMALIZED FREE ENERGY PREDICTED BY IDOCK:   -7.55 KCAL/MOL
REMARK 922        TOTAL FREE ENERGY PREDICTED BY IDOCK:  -10.12 KCAL/MOL
REMARK 923 INTER-LIGAND FREE ENERGY PREDICTED BY IDOCK:   -9.30 KCAL/MOL
REMARK 924 INTRA-LIGAND FREE ENERGY PREDICTED BY IDOCK:   -0.82 KCAL/MOL
REMARK 927      BINDING AFFINITY PREDICTED BY RF-SCORE:    0.00 PKD
ROOT
HETATM    1  O   UNL     1     -11.919  16.979  73.983  1.00  0.00    -0.273 OA 
HETATM    2  C   UNL     1     -12.943  16.278  73.441  1.00  0.00    -0.408 C  
HETATM    3  O   UNL     1     -14.098  16.407  73.808  1.00  0.00    -0.049 OA 
HETATM    4  C   UNL     1     -12.529  15.322  72.385  1.00  0.00    -0.443 A  
HETATM    5  C   UNL     1     -11.452  15.584  71.532  1.00  0.00    -0.489 A  
HETATM    6  C   UNL     1     -11.102  14.662  70.537  1.00  0.00    -0.062 A  
HETATM    7  C   UNL     1     -11.864  13.502  70.333  1.00  0.00    -0.220 A  
HETATM    8  C   UNL     1     -12.933  13.233  71.202  1.00  0.00    -0.297 A  
HETATM    9  C   UNL     1     -13.270  14.145  72.215  1.00  0.00    -0.540 A  
ENDROOT
BRANCH   7  10
HETATM   10  N   UNL     1     -11.592  12.594  69.259  1.00  0.00    -0.303 NA 
HETATM   11  N   UNL     1     -11.329  13.093  68.017  1.00  0.00    -0.274 NA 
HETATM   12  C   UNL     1     -11.434  12.022  67.220  1.00  0.00    -0.335 A  
HETATM   13  N   UNL     1     -11.605  10.851  67.919  1.00  0.00    -0.549 NA 
HETATM   14  C   UNL     1     -11.637  11.201  69.192  1.00  0.00    -0.324 A  
BRANCH  12  15
HETATM   15  C   UNL     1     -11.399  12.000  65.748  1.00  0.00    -0.384 A  
HETATM   16  C   UNL     1     -12.502  12.543  65.053  1.00  0.00    -0.494 A  
HETATM   17  C   UNL     1     -12.550  12.582  63.656  1.00  0.00    -0.495 A  
HETATM   18  H   UNL     1      -8.501  10.640  65.046  1.00  0.00     0.000 HD 
HETATM   19  C   UNL     1     -11.490  12.075  62.917  1.00  0.00     0.196 A  
HETATM   20  O   UNL     1      -9.220  10.977  65.568  1.00  0.00    -0.204 OA 
HETATM   21  C   UNL     1     -10.384  11.537  63.574  1.00  0.00    -0.484 A  
HETATM   22  C   UNL     1     -10.336  11.501  64.978  1.00  0.00    -0.281 A  
ENDBRANCH  12  15
BRANCH  14  23
HETATM   23  C   UNL     1     -11.758  10.220  70.282  1.00  0.00    -0.388 A  
HETATM   24  C   UNL     1     -12.128   8.560  72.526  1.00  0.00    -0.395 A  
HETATM   25  C   UNL     1     -10.858   8.715  71.974  1.00  0.00    -0.430 A  
HETATM   26  C   UNL     1     -13.040   9.988  70.810  1.00  0.00    -0.316 A  
HETATM   27  C   UNL     1     -10.685   9.509  70.837  1.00  0.00    -0.333 A  
HETATM   28  C   UNL     1     -13.226   9.167  71.923  1.00  0.00    -0.479 A  
HETATM   29  O   UNL     1      -9.445   9.593  70.269  1.00  0.00    -0.242 OA 
HETATM   30  H   UNL     1      -8.718   9.111  70.645  1.00  0.00     0.000 HD 
ENDBRANCH  14  23
ENDBRANCH   7  10
TORSDOF 3
ENDMDL
MODEL       22
REMARK 921   NORMALIZED FREE ENERGY PREDICTED BY IDOCK:   -7.52 KCAL/MOL
REMARK 922        TOTAL FREE ENERGY PREDICTED BY IDOCK:  -10.08 KCAL/MOL
REMARK 923 INTER-LIGAND FREE ENERGY PREDICTED BY IDOCK:   -9.03 KCAL/MOL
REMARK 924 INTRA-LIGAND FREE ENERGY PREDICTED BY IDOCK:   -1.06 KCAL/MOL
REMARK 927      BINDING AFFINITY PREDICTED BY RF-SCORE:    0.00 PKD
ROOT
HETATM    1  O   UNL     1     -13.998  12.934  72.312  1.00  0.00    -0.441 OA 
HETATM    2  C   UNL     1     -13.195  14.006  72.510  1.00  0.00    -0.505 C  
HETATM    3  O   UNL     1     -13.128  14.594  73.575  1.00  0.00    -0.566 OA 
HETATM    4  C   UNL     1     -12.427  14.416  71.307  1.00  0.00    -0.423 A  
HETATM    5  C   UNL     1     -11.981  13.486  70.363  1.00  0.00    -0.367 A  
HETATM    6  C   UNL     1     -11.245  13.911  69.249  1.00  0.00    -0.296 A  
HETATM    7  C   UNL     1     -10.885  15.259  69.099  1.00  0.00    -0.250 A  
HETATM    8  C   UNL     1     -11.350  16.193  70.038  1.00  0.00    -0.332 A  
HETATM    9  C   UNL     1     -12.107  15.770  71.143  1.00  0.00    -0.475 A  
ENDROOT
BRANCH   7  10
HETATM   10  N   UNL     1     -10.049  15.706  68.026  1.00  0.00    -0.223 NA 
HETATM   11  N   UNL     1      -9.149  16.705  68.255  1.00  0.00    -0.211 NA 
HETATM   12  C   UNL     1      -8.779  17.082  67.024  1.00  0.00    -0.221 A  
HETATM   13  N   UNL     1      -9.290  16.270  66.040  1.00  0.00    -0.382 NA 
HETATM   14  C   UNL     1     -10.027  15.373  66.671  1.00  0.00    -0.260 A  
BRANCH  12  15
HETATM   15  C   UNL     1      -7.933  18.231  66.662  1.00  0.00    -0.273 A  
HETATM   16  C   UNL     1      -8.525  19.515  66.667  1.00  0.00    -0.352 A  
HETATM   17  C   UNL     1      -7.797  20.666  66.353  1.00  0.00    -0.021 A  
HETATM   18  H   UNL     1      -4.989  16.904  66.105  1.00  0.00     0.000 HD 
HETATM   19  C   UNL     1      -6.452  20.562  66.025  1.00  0.00    -0.268 A  
HETATM   20  O   UNL     1      -5.911  16.956  66.326  1.00  0.00    -0.290 OA 
HETATM   21  C   UNL     1      -5.838  19.310  66.016  1.00  0.00    -0.186 A  
HETATM   22  C   UNL     1      -6.570  18.154  66.335  1.00  0.00    -0.218 A  
ENDBRANCH  12  15
BRANCH  14  23
HETATM   23  C   UNL     1     -10.716  14.279  65.969  1.00  0.00    -0.304 A  
HETATM   24  C   UNL     1     -12.267  12.230  64.817  1.00  0.00    -0.438 A  
HETATM   25  C   UNL     1     -10.968  11.964  65.250  1.00  0.00    -0.354 A  
HETATM   26  C   UNL     1     -12.000  14.540  65.457  1.00  0.00    -0.312 A  
HETATM   27  C   UNL     1     -10.189  12.993  65.785  1.00  0.00    -0.290 A  
HETATM   28  C   UNL     1     -12.770  13.525  64.886  1.00  0.00    -0.342 A  
HETATM   29  O   UNL     1      -8.895  12.730  66.139  1.00  0.00    -0.427 OA 
HETATM   30  H   UNL     1      -8.538  11.859  66.014  1.00  0.00     0.000 HD 
ENDBRANCH  14  23
ENDBRANCH   7  10
TORSDOF 3
ENDMDL
MODEL       23
REMARK 921   NORMALIZED FREE ENERGY PREDICTED BY IDOCK:   -7.52 KCAL/MOL
REMARK 922        TOTAL FREE ENERGY PREDICTED BY IDOCK:  -10.08 KCAL/MOL
REMARK 923 INTER-LIGAND FREE ENERGY PREDICTED BY IDOCK:   -9.39 KCAL/MOL
REMARK 924 INTRA-LIGAND FREE ENERGY PREDICTED BY IDOCK:   -0.69 KCAL/MOL
REMARK 927      BINDING AFFINITY PREDICTED BY RF-SCORE:    0.00 PKD
ROOT
HETATM    1  O   UNL     1     -12.458  16.157  72.315  1.00  0.00    -0.463 OA 
HETATM    2  C   UNL     1     -13.047  14.940  72.242  1.00  0.00    -0.352 C  
HETATM    3  O   UNL     1     -13.905  14.573  73.026  1.00  0.00    -0.539 OA 
HETATM    4  C   UNL     1     -12.535  14.087  71.141  1.00  0.00    -0.447 A  
HETATM    5  C   UNL     1     -12.102  14.628  69.927  1.00  0.00    -0.385 A  
HETATM    6  C   UNL     1     -11.640  13.786  68.906  1.00  0.00    -0.358 A  
HETATM    7  C   UNL     1     -11.671  12.392  69.057  1.00  0.00    -0.323 A  
HETATM    8  C   UNL     1     -12.088  11.852  70.283  1.00  0.00    -0.409 A  
HETATM    9  C   UNL     1     -12.529  12.696  71.316  1.00  0.00    -0.276 A  
ENDROOT
BRANCH   7  10
HETATM   10  N   UNL     1     -11.301  11.506  67.994  1.00  0.00    -0.273 NA 
HETATM   11  N   UNL     1     -11.159  10.175  68.257  1.00  0.00    -0.253 NA 
HETATM   12  C   UNL     1     -10.523   9.707  67.175  1.00  0.00    -0.249 A  
HETATM   13  N   UNL     1     -10.391  10.650  66.184  1.00  0.00    -0.244 NA 
HETATM   14  C   UNL     1     -10.935  11.752  66.670  1.00  0.00    -0.294 A  
BRANCH  12  15
HETATM   15  C   UNL     1      -9.976   8.355  66.978  1.00  0.00    -0.323 A  
HETATM   16  C   UNL     1     -10.878   7.267  67.005  1.00  0.00    -0.350 A  
HETATM   17  C   UNL     1     -10.453   5.949  66.812  1.00  0.00    -0.344 A  
HETATM   18  H   UNL     1      -6.771   8.856  66.513  1.00  0.00     0.000 HD 
HETATM   19  C   UNL     1      -9.109   5.685  66.585  1.00  0.00    -0.129 A  
HETATM   20  O   UNL     1      -7.686   9.055  66.675  1.00  0.00    -0.095 OA 
HETATM   21  C   UNL     1      -8.195   6.738  66.547  1.00  0.00    -0.117 A  
HETATM   22  C   UNL     1      -8.624   8.062  66.739  1.00  0.00    -0.130 A  
ENDBRANCH  12  15
BRANCH  14  23
HETATM   23  C   UNL     1     -11.042  12.994  65.891  1.00  0.00    -0.303 A  
HETATM   24  C   UNL     1     -11.188  15.521  64.656  1.00  0.00    -0.381 A  
HETATM   25  C   UNL     1     -12.237  14.614  64.516  1.00  0.00    -0.473 A  
HETATM   26  C   UNL     1      -9.965  13.898  65.954  1.00  0.00    -0.317 A  
HETATM   27  C   UNL     1     -12.143  13.346  65.098  1.00  0.00    -0.409 A  
HETATM   28  C   UNL     1     -10.036  15.151  65.344  1.00  0.00    -0.384 A  
HETATM   29  O   UNL     1     -13.150  12.446  64.891  1.00  0.00    -0.765 OA 
HETATM   30  H   UNL     1     -13.896  12.684  64.354  1.00  0.00     0.000 HD 
ENDBRANCH  14  23
ENDBRANCH   7  10
TORSDOF 3
ENDMDL
MODEL       24
REMARK 921   NORMALIZED FREE ENERGY PREDICTED BY IDOCK:   -7.31 KCAL/MOL
REMARK 922        TOTAL FREE ENERGY PREDICTED BY IDOCK:   -9.84 KCAL/MOL
REMARK 923 INTER-LIGAND FREE ENERGY PREDICTED BY IDOCK:   -8.62 KCAL/MOL
REMARK 924 INTRA-LIGAND FREE ENERGY PREDICTED BY IDOCK:   -1.22 KCAL/MOL
REMARK 927      BINDING AFFINITY PREDICTED BY RF-SCORE:    0.00 PKD
ROOT
HETATM    1  O   UNL     1      -7.961   4.040  65.400  1.00  0.00    -0.092 OA 
HETATM    2  C   UNL     1      -8.823   4.248  66.424  1.00  0.00    -0.116 C  
HETATM    3  O   UNL     1      -9.205   3.353  67.158  1.00  0.00    -0.165 OA 
HETATM    4  C   UNL     1      -9.281   5.654  66.552  1.00  0.00    -0.149 A  
HETATM    5  C   UNL     1      -8.455   6.733  66.223  1.00  0.00    -0.131 A  
HETATM    6  C   UNL     1      -8.919   8.046  66.373  1.00  0.00    -0.204 A  
HETATM    7  C   UNL     1     -10.186   8.301  66.920  1.00  0.00    -0.318 A  
HETATM    8  C   UNL     1     -11.020   7.217  67.232  1.00  0.00    -0.333 A  
HETATM    9  C   UNL     1     -10.564   5.899  67.060  1.00  0.00    -0.376 A  
ENDROOT
BRANCH   7  10
HETATM   10  N   UNL     1     -10.646   9.633  67.179  1.00  0.00    -0.249 NA 
HETATM   11  N   UNL     1     -10.898  10.466  66.129  1.00  0.00    -0.004 NA 
HETATM   12  C   UNL     1     -10.994  11.673  66.702  1.00  0.00    -0.299 A  
HETATM   13  N   UNL     1     -10.961  11.617  68.075  1.00  0.00    -0.210 NA 
HETATM   14  C   UNL     1     -10.811  10.338  68.372  1.00  0.00    -0.245 A  
BRANCH  12  15
HETATM   15  C   UNL     1     -11.110  12.974  66.023  1.00  0.00    -0.301 A  
HETATM   16  C   UNL     1     -10.108  13.939  66.270  1.00  0.00    -0.306 A  
HETATM   17  C   UNL     1     -10.125  15.197  65.658  1.00  0.00    -0.392 A  
HETATM   18  H   UNL     1     -13.818  12.679  64.202  1.00  0.00     0.000 HD 
HETATM   19  C   UNL     1     -11.150  15.520  64.779  1.00  0.00    -0.421 A  
HETATM   20  O   UNL     1     -13.128  12.442  64.811  1.00  0.00    -0.806 OA 
HETATM   21  C   UNL     1     -12.151  14.586  64.510  1.00  0.00    -0.501 A  
HETATM   22  C   UNL     1     -12.130  13.323  65.125  1.00  0.00    -0.413 A  
ENDBRANCH  12  15
BRANCH  14  23
HETATM   23  C   UNL     1     -10.779   9.845  69.757  1.00  0.00    -0.298 A  
HETATM   24  C   UNL     1     -10.589   8.650  72.300  1.00  0.00    -0.375 A  
HETATM   25  C   UNL     1     -11.814   9.137  71.847  1.00  0.00    -0.439 A  
HETATM   26  C   UNL     1      -9.541   9.414  70.267  1.00  0.00    -0.294 A  
HETATM   27  C   UNL     1     -11.895   9.764  70.601  1.00  0.00    -0.281 A  
HETATM   28  C   UNL     1      -9.445   8.820  71.527  1.00  0.00    -0.341 A  
HETATM   29  O   UNL     1     -13.090  10.298  70.204  1.00  0.00    -0.560 OA 
HETATM   30  H   UNL     1     -13.846  10.243  70.776  1.00  0.00     0.000 HD 
ENDBRANCH  14  23
ENDBRANCH   7  10
TORSDOF 3
ENDMDL
MODEL       25
REMARK 921   NORMALIZED FREE ENERGY PREDICTED BY IDOCK:   -7.22 KCAL/MOL
REMARK 922        TOTAL FREE ENERGY PREDICTED BY IDOCK:   -9.73 KCAL/MOL
REMARK 923 INTER-LIGAND FREE ENERGY PREDICTED BY IDOCK:   -9.05 KCAL/MOL
REMARK 924 INTRA-LIGAND FREE ENERGY PREDICTED BY IDOCK:   -0.68 KCAL/MOL
REMARK 927      BINDING AFFINITY PREDICTED BY RF-SCORE:    0.00 PKD
ROOT
HETATM    1  O   UNL     1     -10.849  11.076  63.083  1.00  0.00    -0.140 OA 
HETATM    2  C   UNL     1     -11.776  11.958  63.527  1.00  0.00    -0.452 C  
HETATM    3  O   UNL     1     -12.939  11.934  63.162  1.00  0.00    -0.640 OA 
HETATM    4  C   UNL     1     -11.243  12.968  64.474  1.00  0.00    -0.372 A  
HETATM    5  C   UNL     1     -10.208  12.673  65.366  1.00  0.00    -0.301 A  
HETATM    6  C   UNL     1      -9.744  13.651  66.255  1.00  0.00    -0.295 A  
HETATM    7  C   UNL     1     -10.353  14.913  66.315  1.00  0.00    -0.294 A  
HETATM    8  C   UNL     1     -11.379  15.214  65.407  1.00  0.00    -0.298 A  
HETATM    9  C   UNL     1     -11.830  14.241  64.499  1.00  0.00    -0.456 A  
ENDROOT
BRANCH   7  10
HETATM   10  N   UNL     1      -9.967  15.896  67.283  1.00  0.00    -0.236 NA 
HETATM   11  N   UNL     1      -9.233  16.973  66.880  1.00  0.00    -0.232 NA 
HETATM   12  C   UNL     1      -8.790  17.498  68.030  1.00  0.00    -0.258 A  
HETATM   13  N   UNL     1      -9.330  16.891  69.138  1.00  0.00    -0.183 NA 
HETATM   14  C   UNL     1     -10.114  15.936  68.670  1.00  0.00    -0.216 A  
BRANCH  12  15
HETATM   15  C   UNL     1      -7.821  18.595  68.193  1.00  0.00    -0.309 A  
HETATM   16  C   UNL     1      -8.070  19.804  67.504  1.00  0.00    -0.337 A  
HETATM   17  C   UNL     1      -7.215  20.905  67.611  1.00  0.00    -0.309 A  
HETATM   18  H   UNL     1      -5.596  17.385  70.272  1.00  0.00     0.000 HD 
HETATM   19  C   UNL     1      -6.086  20.824  68.414  1.00  0.00    -0.379 A  
HETATM   20  O   UNL     1      -6.371  17.420  69.723  1.00  0.00    -0.239 OA 
HETATM   21  C   UNL     1      -5.816  19.647  69.111  1.00  0.00    -0.275 A  
HETATM   22  C   UNL     1      -6.677  18.542  69.004  1.00  0.00    -0.272 A  
ENDBRANCH  12  15
BRANCH  14  23
HETATM   23  C   UNL     1     -10.924  15.075  69.545  1.00  0.00    -0.281 A  
HETATM   24  C   UNL     1     -12.625  13.344  70.973  1.00  0.00    -0.425 A  
HETATM   25  C   UNL     1     -12.492  14.674  71.367  1.00  0.00    -0.410 A  
HETATM   26  C   UNL     1     -11.018  13.712  69.213  1.00  0.00    -0.189 A  
HETATM   27  C   UNL     1     -11.617  15.520  70.680  1.00  0.00    -0.349 A  
HETATM   28  C   UNL     1     -11.861  12.852  69.919  1.00  0.00    -0.373 A  
HETATM   29  O   UNL     1     -11.447  16.801  71.124  1.00  0.00    -0.525 OA 
HETATM   30  H   UNL     1     -11.917  17.102  71.893  1.00  0.00     0.000 HD 
ENDBRANCH  14  23
ENDBRANCH   7  10
TORSDOF 3
ENDMDL
MODEL       26
REMARK 921   NORMALIZED FREE ENERGY PREDICTED BY IDOCK:   -7.21 KCAL/MOL
REMARK 922        TOTAL FREE ENERGY PREDICTED BY IDOCK:   -9.72 KCAL/MOL
REMARK 923 INTER-LIGAND FREE ENERGY PREDICTED BY IDOCK:   -8.63 KCAL/MOL
REMARK 924 INTRA-LIGAND FREE ENERGY PREDICTED BY IDOCK:   -1.09 KCAL/MOL
REMARK 927      BINDING AFFINITY PREDICTED BY RF-SCORE:    0.00 PKD
ROOT
HETATM    1  O   UNL     1      -8.864   5.247  66.879  1.00  0.00    -0.112 OA 
HETATM    2  C   UNL     1      -8.052   6.291  67.171  1.00  0.00    -0.109 C  
HETATM    3  O   UNL     1      -6.837   6.194  67.205  1.00  0.00    -0.059 OA 
HETATM    4  C   UNL     1      -8.774   7.552  67.471  1.00  0.00    -0.125 A  
HETATM    5  C   UNL     1      -9.985   7.876  66.852  1.00  0.00    -0.332 A  
HETATM    6  C   UNL     1     -10.628   9.084  67.151  1.00  0.00    -0.291 A  
HETATM    7  C   UNL     1     -10.038  10.015  68.019  1.00  0.00    -0.167 A  
HETATM    8  C   UNL     1      -8.832   9.679  68.654  1.00  0.00    -0.128 A  
HETATM    9  C   UNL     1      -8.198   8.458  68.372  1.00  0.00    -0.124 A  
ENDROOT
BRANCH   7  10
HETATM   10  N   UNL     1     -10.622  11.300  68.265  1.00  0.00    -0.187 NA 
HETATM   11  N   UNL     1     -10.792  11.718  69.552  1.00  0.00    -0.073 NA 
HETATM   12  C   UNL     1     -11.619  12.765  69.434  1.00  0.00    -0.298 A  
HETATM   13  N   UNL     1     -11.857  13.114  68.127  1.00  0.00    -0.352 NA 
HETATM   14  C   UNL     1     -11.182  12.241  67.400  1.00  0.00    -0.301 A  
BRANCH  12  15
HETATM   15  C   UNL     1     -12.264  13.517  70.524  1.00  0.00    -0.433 A  
HETATM   16  C   UNL     1     -12.189  14.928  70.487  1.00  0.00    -0.388 A  
HETATM   17  C   UNL     1     -12.785  15.726  71.469  1.00  0.00    -0.512 A  
HETATM   18  H   UNL     1     -13.595  11.192  72.411  1.00  0.00     0.000 HD 
HETATM   19  C   UNL     1     -13.474  15.129  72.515  1.00  0.00    -0.566 A  
HETATM   20  O   UNL     1     -13.114  11.583  71.691  1.00  0.00    -0.452 OA 
HETATM   21  C   UNL     1     -13.571  13.739  72.577  1.00  0.00    -0.680 A  
HETATM   22  C   UNL     1     -12.973  12.939  71.588  1.00  0.00    -0.313 A  
ENDBRANCH  12  15
BRANCH  14  23
HETATM   23  C   UNL     1     -11.135  12.300  65.931  1.00  0.00    -0.360 A  
HETATM   24  C   UNL     1     -11.250  12.190  63.120  1.00  0.00    -0.258 A  
HETATM   25  C   UNL     1     -10.022  12.096  63.773  1.00  0.00    -0.343 A  
HETATM   26  C   UNL     1     -12.352  12.468  65.246  1.00  0.00    -0.469 A  
HETATM   27  C   UNL     1      -9.966  12.191  65.166  1.00  0.00    -0.228 A  
HETATM   28  C   UNL     1     -12.411  12.413  63.853  1.00  0.00    -0.573 A  
HETATM   29  O   UNL     1      -8.747  12.167  65.784  1.00  0.00    -0.393 OA 
HETATM   30  H   UNL     1      -7.954  12.092  65.265  1.00  0.00     0.000 HD 
ENDBRANCH  14  23
ENDBRANCH   7  10
TORSDOF 3
ENDMDL
MODEL       27
REMARK 921   NORMALIZED FREE ENERGY PREDICTED BY IDOCK:   -7.20 KCAL/MOL
REMARK 922        TOTAL FREE ENERGY PREDICTED BY IDOCK:   -9.71 KCAL/MOL
REMARK 923 INTER-LIGAND FREE ENERGY PREDICTED BY IDOCK:   -8.78 KCAL/MOL
REMARK 924 INTRA-LIGAND FREE ENERGY PREDICTED BY IDOCK:   -0.93 KCAL/MOL
REMARK 927      BINDING AFFINITY PREDICTED BY RF-SCORE:    0.00 PKD
ROOT
HETATM    1  O   UNL     1     -10.073  11.585  62.665  1.00  0.00    -0.130 OA 
HETATM    2  C   UNL     1     -11.208  11.887  63.340  1.00  0.00    -0.377 C  
HETATM    3  O   UNL     1     -12.313  11.533  62.967  1.00  0.00    -0.213 OA 
HETATM    4  C   UNL     1     -10.987  12.709  64.556  1.00  0.00    -0.365 A  
HETATM    5  C   UNL     1      -9.831  12.584  65.332  1.00  0.00    -0.179 A  
HETATM    6  C   UNL     1      -9.667  13.367  66.482  1.00  0.00    -0.284 A  
HETATM    7  C   UNL     1     -10.684  14.233  66.910  1.00  0.00    -0.290 A  
HETATM    8  C   UNL     1     -11.835  14.371  66.119  1.00  0.00    -0.391 A  
HETATM    9  C   UNL     1     -11.989  13.603  64.954  1.00  0.00    -0.410 A  
ENDROOT
BRANCH   7  10
HETATM   10  N   UNL     1     -10.587  14.970  68.135  1.00  0.00    -0.244 NA 
HETATM   11  N   UNL     1     -11.111  14.437  69.276  1.00  0.00    -0.265 NA 
HETATM   12  C   UNL     1     -11.136  15.473  70.124  1.00  0.00    -0.323 A  
HETATM   13  N   UNL     1     -10.518  16.591  69.620  1.00  0.00    -0.295 NA 
HETATM   14  C   UNL     1     -10.117  16.256  68.406  1.00  0.00    -0.237 A  
BRANCH  12  15
HETATM   15  C   UNL     1     -11.747  15.512  71.463  1.00  0.00    -0.479 A  
HETATM   16  C   UNL     1     -11.539  16.668  72.250  1.00  0.00    -0.080 A  
HETATM   17  C   UNL     1     -12.092  16.803  73.527  1.00  0.00    -0.269 A  
HETATM   18  H   UNL     1     -13.359  12.668  71.684  1.00  0.00     0.000 HD 
HETATM   19  C   UNL     1     -12.872  15.781  74.050  1.00  0.00    -0.622 A  
HETATM   20  O   UNL     1     -12.818  13.355  71.312  1.00  0.00    -0.347 OA 
HETATM   21  C   UNL     1     -13.101  14.630  73.296  1.00  0.00    -0.505 A  
HETATM   22  C   UNL     1     -12.546  14.497  72.012  1.00  0.00    -0.325 A  
ENDBRANCH  12  15
BRANCH  14  23
HETATM   23  C   UNL     1      -9.359  17.172  67.540  1.00  0.00    -0.238 A  
HETATM   24  C   UNL     1      -7.676  18.888  66.073  1.00  0.00    -0.239 A  
HETATM   25  C   UNL     1      -8.932  19.328  66.487  1.00  0.00    -0.373 A  
HETATM   26  C   UNL     1      -8.120  16.727  67.047  1.00  0.00    -0.225 A  
HETATM   27  C   UNL     1      -9.780  18.460  67.181  1.00  0.00    -0.300 A  
HETATM   28  C   UNL     1      -7.284  17.576  66.320  1.00  0.00    -0.351 A  
HETATM   29  O   UNL     1     -11.034  18.886  67.518  1.00  0.00    -0.422 OA 
HETATM   30  H   UNL     1     -11.319  19.759  67.275  1.00  0.00     0.000 HD 
ENDBRANCH  14  23
ENDBRANCH   7  10
TORSDOF 3
ENDMDL
MODEL       28
REMARK 921   NORMALIZED FREE ENERGY PREDICTED BY IDOCK:   -7.18 KCAL/MOL
REMARK 922        TOTAL FREE ENERGY PREDICTED BY IDOCK:   -9.69 KCAL/MOL
REMARK 923 INTER-LIGAND FREE ENERGY PREDICTED BY IDOCK:   -8.55 KCAL/MOL
REMARK 924 INTRA-LIGAND FREE ENERGY PREDICTED BY IDOCK:   -1.13 KCAL/MOL
REMARK 927      BINDING AFFINITY PREDICTED BY RF-SCORE:    0.00 PKD
ROOT
HETATM    1  O   UNL     1     -10.384  17.294  65.501  1.00  0.00    -0.614 OA 
HETATM    2  C   UNL     1     -11.018  16.288  64.853  1.00  0.00    -0.307 C  
HETATM    3  O   UNL     1     -11.701  16.468  63.860  1.00  0.00    -1.148 OA 
HETATM    4  C   UNL     1     -10.829  14.954  65.477  1.00  0.00    -0.365 A  
HETATM    5  C   UNL     1      -9.644  14.606  66.132  1.00  0.00    -0.336 A  
HETATM    6  C   UNL     1      -9.499  13.331  66.695  1.00  0.00    -0.262 A  
HETATM    7  C   UNL     1     -10.505  12.365  66.550  1.00  0.00    -0.230 A  
HETATM    8  C   UNL     1     -11.701  12.722  65.908  1.00  0.00    -0.464 A  
HETATM    9  C   UNL     1     -11.856  14.008  65.364  1.00  0.00    -0.363 A  
ENDROOT
BRANCH   7  10
HETATM   10  N   UNL     1     -10.343  11.023  67.026  1.00  0.00    -0.218 NA 
HETATM   11  N   UNL     1     -11.107  10.591  68.069  1.00  0.00    -0.287 NA 
HETATM   12  C   UNL     1     -10.503   9.458  68.451  1.00  0.00    -0.218 A  
HETATM   13  N   UNL     1      -9.487   9.083  67.606  1.00  0.00    -0.139 NA 
HETATM   14  C   UNL     1      -9.432  10.024  66.681  1.00  0.00    -0.171 A  
BRANCH  12  15
HETATM   15  C   UNL     1     -10.812   8.640  69.636  1.00  0.00    -0.163 A  
HETATM   16  C   UNL     1     -10.846   9.286  70.893  1.00  0.00    -0.365 A  
HETATM   17  C   UNL     1     -11.146   8.595  72.072  1.00  0.00    -0.437 A  
HETATM   18  H   UNL     1     -11.308   5.638  68.421  1.00  0.00     0.000 HD 
HETATM   19  C   UNL     1     -11.422   7.235  72.021  1.00  0.00    -0.305 A  
HETATM   20  O   UNL     1     -11.112   6.567  68.437  1.00  0.00    -0.293 OA 
HETATM   21  C   UNL     1     -11.401   6.571  70.795  1.00  0.00    -0.399 A  
HETATM   22  C   UNL     1     -11.101   7.267  69.612  1.00  0.00    -0.141 A  
ENDBRANCH  12  15
BRANCH  14  23
HETATM   23  C   UNL     1      -8.495   9.969  65.548  1.00  0.00    -0.155 A  
HETATM   24  C   UNL     1      -6.548  10.085  63.517  1.00  0.00    -0.132 A  
HETATM   25  C   UNL     1      -7.901  10.183  63.194  1.00  0.00    -0.150 A  
HETATM   26  C   UNL     1      -7.129   9.797  65.839  1.00  0.00    -0.102 A  
HETATM   27  C   UNL     1      -8.865  10.085  64.201  1.00  0.00    -0.221 A  
HETATM   28  C   UNL     1      -6.163   9.855  64.834  1.00  0.00    -0.105 A  
HETATM   29  O   UNL     1     -10.188  10.114  63.858  1.00  0.00    -0.464 OA 
HETATM   30  H   UNL     1     -10.439  10.193  62.945  1.00  0.00     0.000 HD 
ENDBRANCH  14  23
ENDBRANCH   7  10
TORSDOF 3
ENDMDL
MODEL       29
REMARK 921   NORMALIZED FREE ENERGY PREDICTED BY IDOCK:   -7.11 KCAL/MOL
REMARK 922        TOTAL FREE ENERGY PREDICTED BY IDOCK:   -9.60 KCAL/MOL
REMARK 923 INTER-LIGAND FREE ENERGY PREDICTED BY IDOCK:   -8.73 KCAL/MOL
REMARK 924 INTRA-LIGAND FREE ENERGY PREDICTED BY IDOCK:   -0.87 KCAL/MOL
REMARK 927      BINDING AFFINITY PREDICTED BY RF-SCORE:    0.00 PKD
ROOT
HETATM    1  O   UNL     1     -10.741   5.823  73.966  1.00  0.00    -0.251 OA 
HETATM    2  C   UNL     1      -9.729   6.286  73.196  1.00  0.00    -0.159 C  
HETATM    3  O   UNL     1      -8.572   5.930  73.339  1.00  0.00    -0.121 OA 
HETATM    4  C   UNL     1     -10.150   7.286  72.182  1.00  0.00    -0.207 A  
HETATM    5  C   UNL     1     -11.407   7.234  71.572  1.00  0.00    -0.280 A  
HETATM    6  C   UNL     1     -11.760   8.188  70.608  1.00  0.00    -0.148 A  
HETATM    7  C   UNL     1     -10.841   9.161  70.191  1.00  0.00    -0.240 A  
HETATM    8  C   UNL     1      -9.587   9.222  70.818  1.00  0.00    -0.341 A  
HETATM    9  C   UNL     1      -9.240   8.281  71.801  1.00  0.00    -0.261 A  
ENDROOT
BRANCH   7  10
HETATM   10  N   UNL     1     -11.139  10.084  69.136  1.00  0.00    -0.215 NA 
HETATM   11  N   UNL     1     -10.867   9.731  67.847  1.00  0.00    -0.264 NA 
HETATM   12  C   UNL     1     -10.960  10.888  67.179  1.00  0.00    -0.272 A  
HETATM   13  N   UNL     1     -11.420  11.921  67.960  1.00  0.00    -0.299 NA 
HETATM   14  C   UNL     1     -11.595  11.403  69.163  1.00  0.00    -0.314 A  
BRANCH  12  15
HETATM   15  C   UNL     1     -10.617  11.132  65.768  1.00  0.00    -0.289 A  
HETATM   16  C   UNL     1      -9.440  10.535  65.262  1.00  0.00    -0.281 A  
HETATM   17  C   UNL     1      -9.042  10.697  63.931  1.00  0.00    -0.244 A  
HETATM   18  H   UNL     1     -13.071  13.004  64.668  1.00  0.00     0.000 HD 
HETATM   19  C   UNL     1      -9.816  11.462  63.070  1.00  0.00    -0.373 A  
HETATM   20  O   UNL     1     -12.551  12.489  65.273  1.00  0.00    -0.645 OA 
HETATM   21  C   UNL     1     -10.987  12.059  63.538  1.00  0.00    -0.514 A  
HETATM   22  C   UNL     1     -11.386  11.894  64.875  1.00  0.00    -0.277 A  
ENDBRANCH  12  15
BRANCH  14  23
HETATM   23  C   UNL     1     -12.131  12.180  70.291  1.00  0.00    -0.385 A  
HETATM   24  C   UNL     1     -13.432  13.572  72.364  1.00  0.00    -0.685 A  
HETATM   25  C   UNL     1     -12.561  14.246  71.509  1.00  0.00    -0.432 A  
HETATM   26  C   UNL     1     -12.956  11.508  71.212  1.00  0.00    -0.397 A  
HETATM   27  C   UNL     1     -11.887  13.543  70.507  1.00  0.00    -0.178 A  
HETATM   28  C   UNL     1     -13.603  12.197  72.239  1.00  0.00    -0.226 A  
HETATM   29  O   UNL     1     -10.985  14.207  69.724  1.00  0.00    -0.432 OA 
HETATM   30  H   UNL     1     -10.819  15.130  69.871  1.00  0.00     0.000 HD 
ENDBRANCH  14  23
ENDBRANCH   7  10
TORSDOF 3
ENDMDL
MODEL       30
REMARK 921   NORMALIZED FREE ENERGY PREDICTED BY IDOCK:   -7.09 KCAL/MOL
REMARK 922        TOTAL FREE ENERGY PREDICTED BY IDOCK:   -9.58 KCAL/MOL
REMARK 923 INTER-LIGAND FREE ENERGY PREDICTED BY IDOCK:   -8.57 KCAL/MOL
REMARK 924 INTRA-LIGAND FREE ENERGY PREDICTED BY IDOCK:   -1.01 KCAL/MOL
REMARK 927      BINDING AFFINITY PREDICTED BY RF-SCORE:    0.00 PKD
ROOT
HETATM    1  O   UNL     1     -12.158  16.423  73.816  1.00  0.00    -0.464 OA 
HETATM    2  C   UNL     1     -13.026  15.931  72.900  1.00  0.00    -0.499 C  
HETATM    3  O   UNL     1     -14.206  15.746  73.141  1.00  0.00    -0.206 OA 
HETATM    4  C   UNL     1     -12.405  15.611  71.591  1.00  0.00    -0.494 A  
HETATM    5  C   UNL     1     -11.336  16.352  71.079  1.00  0.00    -0.207 A  
HETATM    6  C   UNL     1     -10.788  16.028  69.831  1.00  0.00    -0.351 A  
HETATM    7  C   UNL     1     -11.345  15.007  69.047  1.00  0.00    -0.290 A  
HETATM    8  C   UNL     1     -12.406  14.253  69.570  1.00  0.00    -0.272 A  
HETATM    9  C   UNL     1     -12.941  14.562  70.831  1.00  0.00    -0.424 A  
ENDROOT
BRANCH   7  10
HETATM   10  N   UNL     1     -10.871  14.721  67.725  1.00  0.00    -0.272 NA 
HETATM   11  N   UNL     1     -11.087  13.484  67.194  1.00  0.00    -0.287 NA 
HETATM   12  C   UNL     1     -10.273  13.452  66.131  1.00  0.00    -0.301 A  
HETATM   13  N   UNL     1      -9.668  14.661  65.885  1.00  0.00    -0.321 NA 
HETATM   14  C   UNL     1     -10.093  15.469  66.840  1.00  0.00    -0.262 A  
BRANCH  12  15
HETATM   15  C   UNL     1      -9.982  12.296  65.267  1.00  0.00    -0.250 A  
HETATM   16  C   UNL     1     -10.311  12.397  63.896  1.00  0.00    -0.450 A  
HETATM   17  C   UNL     1     -10.057  11.357  62.996  1.00  0.00    -0.333 A  
HETATM   18  H   UNL     1      -8.592  10.125  67.289  1.00  0.00     0.000 HD 
HETATM   19  C   UNL     1      -9.462  10.187  63.447  1.00  0.00    -0.308 A  
HETATM   20  O   UNL     1      -9.003  10.931  67.000  1.00  0.00    -0.141 OA 
HETATM   21  C   UNL     1      -9.120  10.059  64.793  1.00  0.00    -0.268 A  
HETATM   22  C   UNL     1      -9.375  11.106  65.696  1.00  0.00    -0.219 A  
ENDBRANCH  12  15
BRANCH  14  23
HETATM   23  C   UNL     1      -9.710  16.887  66.907  1.00  0.00    -0.264 A  
HETATM   24  C   UNL     1      -9.090  19.630  66.756  1.00  0.00    -0.424 A  
HETATM   25  C   UNL     1      -8.099  18.707  67.087  1.00  0.00    -0.253 A  
HETATM   26  C   UNL     1     -10.708  17.845  66.650  1.00  0.00    -0.137 A  
HETATM   27  C   UNL     1      -8.420  17.352  67.199  1.00  0.00    -0.211 A  
HETATM   28  C   UNL     1     -10.402  19.205  66.573  1.00  0.00    -0.526 A  
HETATM   29  O   UNL     1      -7.451  16.472  67.593  1.00  0.00    -0.135 OA 
HETATM   30  H   UNL     1      -6.577  16.786  67.790  1.00  0.00     0.000 HD 
ENDBRANCH  14  23
ENDBRANCH   7  10
TORSDOF 3
ENDMDL
MODEL       31
REMARK 921   NORMALIZED FREE ENERGY PREDICTED BY IDOCK:   -7.07 KCAL/MOL
REMARK 922        TOTAL FREE ENERGY PREDICTED BY IDOCK:   -9.56 KCAL/MOL
REMARK 923 INTER-LIGAND FREE ENERGY PREDICTED BY IDOCK:   -8.76 KCAL/MOL
REMARK 924 INTRA-LIGAND FREE ENERGY PREDICTED BY IDOCK:   -0.80 KCAL/MOL
REMARK 927      BINDING AFFINITY PREDICTED BY RF-SCORE:    0.00 PKD
ROOT
HETATM    1  O   UNL     1      -9.463  18.340  65.716  1.00  0.00    -0.467 OA 
HETATM    2  C   UNL     1      -9.381  18.140  67.053  1.00  0.00    -0.270 C  
HETATM    3  O   UNL     1      -9.077  19.023  67.836  1.00  0.00    -0.287 OA 
HETATM    4  C   UNL     1      -9.665  16.745  67.473  1.00  0.00    -0.252 A  
HETATM    5  C   UNL     1     -10.584  15.941  66.792  1.00  0.00    -0.309 A  
HETATM    6  C   UNL     1     -10.836  14.634  67.230  1.00  0.00    -0.305 A  
HETATM    7  C   UNL     1     -10.229  14.138  68.393  1.00  0.00    -0.247 A  
HETATM    8  C   UNL     1      -9.293  14.940  69.064  1.00  0.00    -0.179 A  
HETATM    9  C   UNL     1      -9.022  16.242  68.612  1.00  0.00    -0.232 A  
ENDROOT
BRANCH   7  10
HETATM   10  N   UNL     1     -10.545  12.844  68.921  1.00  0.00    -0.176 NA 
HETATM   11  N   UNL     1      -9.866  11.755  68.461  1.00  0.00    -0.204 NA 
HETATM   12  C   UNL     1     -10.595  10.721  68.902  1.00  0.00    -0.216 A  
HETATM   13  N   UNL     1     -11.615  11.106  69.738  1.00  0.00    -0.303 NA 
HETATM   14  C   UNL     1     -11.541  12.423  69.802  1.00  0.00    -0.232 A  
BRANCH  12  15
HETATM   15  C   UNL     1     -10.413   9.298  68.572  1.00  0.00    -0.240 A  
HETATM   16  C   UNL     1     -10.660   8.891  67.241  1.00  0.00    -0.304 A  
HETATM   17  C   UNL     1     -10.498   7.564  66.831  1.00  0.00    -0.385 A  
HETATM   18  H   UNL     1      -9.414   7.954  71.389  1.00  0.00     0.000 HD 
HETATM   19  C   UNL     1     -10.082   6.607  67.747  1.00  0.00    -0.180 A  
HETATM   20  O   UNL     1      -9.703   8.621  70.778  1.00  0.00    -0.174 OA 
HETATM   21  C   UNL     1      -9.825   6.978  69.066  1.00  0.00    -0.154 A  
HETATM   22  C   UNL     1      -9.986   8.313  69.476  1.00  0.00    -0.187 A  
ENDBRANCH  12  15
BRANCH  14  23
HETATM   23  C   UNL     1     -12.439  13.228  70.645  1.00  0.00    -0.373 A  
HETATM   24  C   UNL     1     -13.923  14.951  72.306  1.00  0.00    -0.602 A  
HETATM   25  C   UNL     1     -13.885  13.584  72.574  1.00  0.00    -0.624 A  
HETATM   26  C   UNL     1     -12.554  14.599  70.353  1.00  0.00    -0.399 A  
HETATM   27  C   UNL     1     -13.180  12.727  71.725  1.00  0.00    -0.374 A  
HETATM   28  C   UNL     1     -13.287  15.455  71.175  1.00  0.00    -0.580 A  
HETATM   29  O   UNL     1     -13.213  11.382  71.963  1.00  0.00    -0.503 OA 
HETATM   30  H   UNL     1     -13.715  11.042  72.695  1.00  0.00     0.000 HD 
ENDBRANCH  14  23
ENDBRANCH   7  10
TORSDOF 3
ENDMDL
MODEL       32
REMARK 921   NORMALIZED FREE ENERGY PREDICTED BY IDOCK:   -7.06 KCAL/MOL
REMARK 922        TOTAL FREE ENERGY PREDICTED BY IDOCK:   -9.54 KCAL/MOL
REMARK 923 INTER-LIGAND FREE ENERGY PREDICTED BY IDOCK:   -8.87 KCAL/MOL
REMARK 924 INTRA-LIGAND FREE ENERGY PREDICTED BY IDOCK:   -0.68 KCAL/MOL
REMARK 927      BINDING AFFINITY PREDICTED BY RF-SCORE:    0.00 PKD
ROOT
HETATM    1  O   UNL     1     -10.807  13.323  63.603  1.00  0.00    -0.158 OA 
HETATM    2  C   UNL     1     -10.590  14.051  64.725  1.00  0.00    -0.421 C  
HETATM    3  O   UNL     1     -10.281  15.229  64.699  1.00  0.00    -0.191 OA 
HETATM    4  C   UNL     1     -10.737  13.277  65.983  1.00  0.00    -0.286 A  
HETATM    5  C   UNL     1     -11.653  12.228  66.104  1.00  0.00    -0.450 A  
HETATM    6  C   UNL     1     -11.772  11.533  67.315  1.00  0.00    -0.193 A  
HETATM    7  C   UNL     1     -11.029  11.920  68.440  1.00  0.00    -0.232 A  
HETATM    8  C   UNL     1     -10.096  12.960  68.311  1.00  0.00    -0.242 A  
HETATM    9  C   UNL     1      -9.960  13.643  67.091  1.00  0.00    -0.247 A  
ENDROOT
BRANCH   7  10
HETATM   10  N   UNL     1     -11.203  11.293  69.716  1.00  0.00    -0.247 NA 
HETATM   11  N   UNL     1     -10.645  10.069  69.938  1.00  0.00    -0.263 NA 
HETATM   12  C   UNL     1     -11.244   9.650  71.060  1.00  0.00    -0.375 A  
HETATM   13  N   UNL     1     -12.040  10.612  71.632  1.00  0.00    -0.170 NA 
HETATM   14  C   UNL     1     -11.962  11.658  70.829  1.00  0.00    -0.172 A  
BRANCH  12  15
HETATM   15  C   UNL     1     -11.136   8.320  71.684  1.00  0.00    -0.326 A  
HETATM   16  C   UNL     1     -12.166   7.386  71.430  1.00  0.00    -0.374 A  
HETATM   17  C   UNL     1     -12.141   6.094  71.965  1.00  0.00    -0.256 A  
HETATM   18  H   UNL     1      -8.301   8.441  73.322  1.00  0.00     0.000 HD 
HETATM   19  C   UNL     1     -11.080   5.703  72.770  1.00  0.00    -0.334 A  
HETATM   20  O   UNL     1      -9.021   8.728  72.774  1.00  0.00    -0.361 OA 
HETATM   21  C   UNL     1     -10.045   6.601  73.035  1.00  0.00    -0.204 A  
HETATM   22  C   UNL     1     -10.071   7.897  72.494  1.00  0.00    -0.261 A  
ENDBRANCH  12  15
BRANCH  14  23
HETATM   23  C   UNL     1     -12.640  12.931  71.117  1.00  0.00    -0.373 A  
HETATM   24  C   UNL     1     -13.665  15.488  71.703  1.00  0.00    -0.562 A  
HETATM   25  C   UNL     1     -14.108  14.377  72.419  1.00  0.00    -0.544 A  
HETATM   26  C   UNL     1     -12.266  14.055  70.359  1.00  0.00    -0.433 A  
HETATM   27  C   UNL     1     -13.626  13.105  72.098  1.00  0.00    -0.544 A  
HETATM   28  C   UNL     1     -12.771  15.323  70.649  1.00  0.00    -0.470 A  
HETATM   29  O   UNL     1     -14.124  12.020  72.763  1.00  0.00    -0.176 OA 
HETATM   30  H   UNL     1     -14.792  12.137  73.429  1.00  0.00     0.000 HD 
ENDBRANCH  14  23
ENDBRANCH   7  10
TORSDOF 3
ENDMDL
MODEL       33
REMARK 921   NORMALIZED FREE ENERGY PREDICTED BY IDOCK:   -7.02 KCAL/MOL
REMARK 922        TOTAL FREE ENERGY PREDICTED BY IDOCK:   -9.49 KCAL/MOL
REMARK 923 INTER-LIGAND FREE ENERGY PREDICTED BY IDOCK:   -9.95 KCAL/MOL
REMARK 924 INTRA-LIGAND FREE ENERGY PREDICTED BY IDOCK:    0.45 KCAL/MOL
REMARK 927      BINDING AFFINITY PREDICTED BY RF-SCORE:    0.00 PKD
ROOT
HETATM    1  O   UNL     1     -10.238  12.466  63.205  1.00  0.00    -0.373 OA 
HETATM    2  C   UNL     1     -11.362  12.604  63.947  1.00  0.00    -0.441 C  
HETATM    3  O   UNL     1     -12.383  13.107  63.512  1.00  0.00    -0.680 OA 
HETATM    4  C   UNL     1     -11.229  12.114  65.342  1.00  0.00    -0.381 A  
HETATM    5  C   UNL     1     -10.413  11.027  65.669  1.00  0.00    -0.293 A  
HETATM    6  C   UNL     1     -10.327  10.585  66.996  1.00  0.00    -0.289 A  
HETATM    7  C   UNL     1     -11.107  11.177  68.001  1.00  0.00    -0.276 A  
HETATM    8  C   UNL     1     -11.910  12.280  67.674  1.00  0.00    -0.334 A  
HETATM    9  C   UNL     1     -11.979  12.738  66.348  1.00  0.00    -0.443 A  
ENDROOT
BRANCH   7  10
HETATM   10  N   UNL     1     -11.115  10.681  69.345  1.00  0.00    -0.241 NA 
HETATM   11  N   UNL     1     -10.568   9.459  69.606  1.00  0.00    -0.218 NA 
HETATM   12  C   UNL     1     -11.012   9.174  70.837  1.00  0.00    -0.282 A  
HETATM   13  N   UNL     1     -11.689  10.220  71.417  1.00  0.00    -0.302 NA 
HETATM   14  C   UNL     1     -11.695  11.181  70.511  1.00  0.00    -0.293 A  
BRANCH  12  15
HETATM   15  C   UNL     1     -10.856   7.905  71.568  1.00  0.00    -0.268 A  
HETATM   16  C   UNL     1     -10.542   7.970  72.944  1.00  0.00    -0.399 A  
HETATM   17  C   UNL     1     -10.391   6.819  73.724  1.00  0.00    -0.397 A  
HETATM   18  H   UNL     1     -11.461   5.610  69.309  1.00  0.00     0.000 HD 
HETATM   19  C   UNL     1     -10.553   5.569  73.143  1.00  0.00    -0.281 A  
HETATM   20  O   UNL     1     -11.349   6.473  69.688  1.00  0.00    -0.368 OA 
HETATM   21  C   UNL     1     -10.869   5.471  71.788  1.00  0.00    -0.277 A  
HETATM   22  C   UNL     1     -11.022   6.629  71.007  1.00  0.00    -0.259 A  
ENDBRANCH  12  15
BRANCH  14  23
HETATM   23  C   UNL     1     -12.286  12.504  70.763  1.00  0.00    -0.376 A  
HETATM   24  C   UNL     1     -13.138  15.135  71.295  1.00  0.00    -0.512 A  
HETATM   25  C   UNL     1     -13.696  14.066  71.993  1.00  0.00    -0.569 A  
HETATM   26  C   UNL     1     -11.793  13.592  70.020  1.00  0.00    -0.371 A  
HETATM   27  C   UNL     1     -13.299  12.759  71.699  1.00  0.00    -0.254 A  
HETATM   28  C   UNL     1     -12.213  14.897  70.283  1.00  0.00    -0.389 A  
HETATM   29  O   UNL     1     -13.908  11.720  72.344  1.00  0.00    -0.382 OA 
HETATM   30  H   UNL     1     -14.594  11.893  72.978  1.00  0.00     0.000 HD 
ENDBRANCH  14  23
ENDBRANCH   7  10
TORSDOF 3
ENDMDL
MODEL       34
REMARK 921   NORMALIZED FREE ENERGY PREDICTED BY IDOCK:   -6.97 KCAL/MOL
REMARK 922        TOTAL FREE ENERGY PREDICTED BY IDOCK:   -9.44 KCAL/MOL
REMARK 923 INTER-LIGAND FREE ENERGY PREDICTED BY IDOCK:   -8.71 KCAL/MOL
REMARK 924 INTRA-LIGAND FREE ENERGY PREDICTED BY IDOCK:   -0.73 KCAL/MOL
REMARK 927      BINDING AFFINITY PREDICTED BY RF-SCORE:    0.00 PKD
ROOT
HETATM    1  O   UNL     1      -7.863   6.327  65.537  1.00  0.00    -0.090 OA 
HETATM    2  C   UNL     1      -8.395   7.547  65.287  1.00  0.00    -0.106 C  
HETATM    3  O   UNL     1      -8.275   8.113  64.215  1.00  0.00    -0.153 OA 
HETATM    4  C   UNL     1      -9.112   8.141  66.443  1.00  0.00    -0.226 A  
HETATM    5  C   UNL     1      -9.802   7.353  67.369  1.00  0.00    -0.219 A  
HETATM    6  C   UNL     1     -10.479   7.954  68.438  1.00  0.00    -0.207 A  
HETATM    7  C   UNL     1     -10.535   9.351  68.557  1.00  0.00    -0.208 A  
HETATM    8  C   UNL     1      -9.826  10.139  67.638  1.00  0.00    -0.201 A  
HETATM    9  C   UNL     1      -9.128   9.535  66.579  1.00  0.00    -0.185 A  
ENDROOT
BRANCH   7  10
HETATM   10  N   UNL     1     -11.304   9.994  69.581  1.00  0.00    -0.229 NA 
HETATM   11  N   UNL     1     -11.812  11.238  69.348  1.00  0.00    -0.327 NA 
HETATM   12  C   UNL     1     -12.181  11.659  70.564  1.00  0.00    -0.361 A  
HETATM   13  N   UNL     1     -12.065  10.684  71.526  1.00  0.00    -0.249 NA 
HETATM   14  C   UNL     1     -11.581   9.627  70.898  1.00  0.00    -0.344 A  
BRANCH  12  15
HETATM   15  C   UNL     1     -12.658  13.002  70.936  1.00  0.00    -0.364 A  
HETATM   16  C   UNL     1     -13.570  13.106  72.011  1.00  0.00    -0.554 A  
HETATM   17  C   UNL     1     -14.064  14.339  72.445  1.00  0.00    -0.561 A  
HETATM   18  H   UNL     1     -11.087  15.000  68.867  1.00  0.00     0.000 HD 
HETATM   19  C   UNL     1     -13.656  15.505  71.812  1.00  0.00    -0.578 A  
HETATM   20  O   UNL     1     -11.360  14.192  69.285  1.00  0.00    -0.257 OA 
HETATM   21  C   UNL     1     -12.753  15.437  70.752  1.00  0.00    -0.516 A  
HETATM   22  C   UNL     1     -12.255  14.196  70.318  1.00  0.00    -0.349 A  
ENDBRANCH  12  15
BRANCH  14  23
HETATM   23  C   UNL     1     -11.354   8.340  71.573  1.00  0.00    -0.320 A  
HETATM   24  C   UNL     1     -10.643   5.877  72.740  1.00  0.00    -0.257 A  
HETATM   25  C   UNL     1     -11.815   5.984  71.993  1.00  0.00    -0.284 A  
HETATM   26  C   UNL     1     -10.217   8.225  72.393  1.00  0.00    -0.397 A  
HETATM   27  C   UNL     1     -12.184   7.217  71.449  1.00  0.00    -0.362 A  
HETATM   28  C   UNL     1      -9.862   7.006  72.971  1.00  0.00    -0.217 A  
HETATM   29  O   UNL     1     -13.371   7.318  70.779  1.00  0.00    -0.592 OA 
HETATM   30  H   UNL     1     -13.934   6.557  70.695  1.00  0.00     0.000 HD 
ENDBRANCH  14  23
ENDBRANCH   7  10
TORSDOF 3
ENDMDL
MODEL       35
REMARK 921   NORMALIZED FREE ENERGY PREDICTED BY IDOCK:   -6.96 KCAL/MOL
REMARK 922        TOTAL FREE ENERGY PREDICTED BY IDOCK:   -9.43 KCAL/MOL
REMARK 923 INTER-LIGAND FREE ENERGY PREDICTED BY IDOCK:   -8.35 KCAL/MOL
REMARK 924 INTRA-LIGAND FREE ENERGY PREDICTED BY IDOCK:   -1.08 KCAL/MOL
REMARK 927      BINDING AFFINITY PREDICTED BY RF-SCORE:    0.00 PKD
ROOT
HETATM    1  O   UNL     1     -12.095  16.358  63.752  1.00  0.00    -0.927 OA 
HETATM    2  C   UNL     1     -11.232  16.273  64.792  1.00  0.00    -0.259 C  
HETATM    3  O   UNL     1     -10.617  17.233  65.221  1.00  0.00    -0.667 OA 
HETATM    4  C   UNL     1     -11.082  14.902  65.341  1.00  0.00    -0.366 A  
HETATM    5  C   UNL     1     -12.143  13.991  65.352  1.00  0.00    -0.411 A  
HETATM    6  C   UNL     1     -11.965  12.711  65.894  1.00  0.00    -0.497 A  
HETATM    7  C   UNL     1     -10.750  12.349  66.495  1.00  0.00    -0.236 A  
HETATM    8  C   UNL     1      -9.682  13.258  66.465  1.00  0.00    -0.273 A  
HETATM    9  C   UNL     1      -9.852  14.533  65.901  1.00  0.00    -0.347 A  
ENDROOT
BRANCH   7  10
HETATM   10  N   UNL     1     -10.573  11.085  67.146  1.00  0.00    -0.236 NA 
HETATM   11  N   UNL     1     -11.110  10.895  68.386  1.00  0.00    -0.240 NA 
HETATM   12  C   UNL     1     -10.512   9.778  68.818  1.00  0.00    -0.218 A  
HETATM   13  N   UNL     1      -9.739   9.178  67.854  1.00  0.00    -0.150 NA 
HETATM   14  C   UNL     1      -9.831   9.958  66.792  1.00  0.00    -0.201 A  
BRANCH  12  15
HETATM   15  C   UNL     1     -10.599   9.184  70.163  1.00  0.00    -0.258 A  
HETATM   16  C   UNL     1     -11.817   8.572  70.537  1.00  0.00    -0.022 A  
HETATM   17  C   UNL     1     -11.988   7.968  71.787  1.00  0.00    -0.342 A  
HETATM   18  H   UNL     1      -7.626   9.687  71.445  1.00  0.00     0.000 HD 
HETATM   19  C   UNL     1     -10.939   7.961  72.697  1.00  0.00    -0.440 A  
HETATM   20  O   UNL     1      -8.334   9.706  70.812  1.00  0.00    -0.264 OA 
HETATM   21  C   UNL     1      -9.723   8.553  72.355  1.00  0.00    -0.357 A  
HETATM   22  C   UNL     1      -9.553   9.157  71.098  1.00  0.00    -0.277 A  
ENDBRANCH  12  15
BRANCH  14  23
HETATM   23  C   UNL     1      -9.179   9.637  65.513  1.00  0.00    -0.291 A  
HETATM   24  C   UNL     1      -8.198   8.913  62.975  1.00  0.00    -0.187 A  
HETATM   25  C   UNL     1      -7.550   8.469  64.126  1.00  0.00    -0.123 A  
HETATM   26  C   UNL     1      -9.770  10.133  64.337  1.00  0.00    -0.345 A  
HETATM   27  C   UNL     1      -8.017   8.863  65.383  1.00  0.00    -0.110 A  
HETATM   28  C   UNL     1      -9.286   9.775  63.078  1.00  0.00    -0.226 A  
HETATM   29  O   UNL     1      -7.328   8.475  66.498  1.00  0.00    -0.082 OA 
HETATM   30  H   UNL     1      -6.541   7.950  66.410  1.00  0.00     0.000 HD 
ENDBRANCH  14  23
ENDBRANCH   7  10
TORSDOF 3
ENDMDL
MODEL       36
REMARK 921   NORMALIZED FREE ENERGY PREDICTED BY IDOCK:   -6.95 KCAL/MOL
REMARK 922        TOTAL FREE ENERGY PREDICTED BY IDOCK:   -9.42 KCAL/MOL
REMARK 923 INTER-LIGAND FREE ENERGY PREDICTED BY IDOCK:   -8.60 KCAL/MOL
REMARK 924 INTRA-LIGAND FREE ENERGY PREDICTED BY IDOCK:   -0.82 KCAL/MOL
REMARK 927      BINDING AFFINITY PREDICTED BY RF-SCORE:    0.00 PKD
ROOT
HETATM    1  O   UNL     1     -10.884   7.669  70.856  1.00  0.00    -0.233 OA 
HETATM    2  C   UNL     1     -11.551   8.832  71.041  1.00  0.00    -0.288 C  
HETATM    3  O   UNL     1     -12.434   8.963  71.871  1.00  0.00    -0.328 OA 
HETATM    4  C   UNL     1     -11.130   9.922  70.126  1.00  0.00    -0.353 A  
HETATM    5  C   UNL     1      -9.812  10.041  69.675  1.00  0.00    -0.261 A  
HETATM    6  C   UNL     1      -9.451  11.093  68.824  1.00  0.00    -0.173 A  
HETATM    7  C   UNL     1     -10.383  12.080  68.468  1.00  0.00    -0.217 A  
HETATM    8  C   UNL     1     -11.709  11.948  68.906  1.00  0.00    -0.381 A  
HETATM    9  C   UNL     1     -12.077  10.880  69.741  1.00  0.00    -0.409 A  
ENDROOT
BRANCH   7  10
HETATM   10  N   UNL     1     -10.017  13.221  67.683  1.00  0.00    -0.225 NA 
HETATM   11  N   UNL     1      -9.767  14.407  68.310  1.00  0.00    -0.216 NA 
HETATM   12  C   UNL     1      -9.771  15.297  67.309  1.00  0.00    -0.212 A  
HETATM   13  N   UNL     1      -9.865  14.709  66.071  1.00  0.00    -0.307 NA 
HETATM   14  C   UNL     1      -9.951  13.411  66.302  1.00  0.00    -0.296 A  
BRANCH  12  15
HETATM   15  C   UNL     1      -9.702  16.763  67.422  1.00  0.00    -0.245 A  
HETATM   16  C   UNL     1      -9.068  17.477  66.379  1.00  0.00    -0.264 A  
HETATM   17  C   UNL     1      -8.970  18.872  66.391  1.00  0.00    -0.315 A  
HETATM   18  H   UNL     1     -11.258  17.416  70.231  1.00  0.00     0.000 HD 
HETATM   19  C   UNL     1      -9.506  19.590  67.451  1.00  0.00    -0.415 A  
HETATM   20  O   UNL     1     -10.892  16.908  69.517  1.00  0.00    -0.303 OA 
HETATM   21  C   UNL     1     -10.143  18.916  68.492  1.00  0.00    -0.460 A  
HETATM   22  C   UNL     1     -10.243  17.514  68.477  1.00  0.00    -0.378 A  
ENDBRANCH  12  15
BRANCH  14  23
HETATM   23  C   UNL     1     -10.018  12.415  65.222  1.00  0.00    -0.234 A  
HETATM   24  C   UNL     1      -9.845  10.506  63.159  1.00  0.00    -0.295 A  
HETATM   25  C   UNL     1     -10.582  11.673  62.970  1.00  0.00    -0.224 A  
HETATM   26  C   UNL     1      -9.343  11.196  65.415  1.00  0.00    -0.243 A  
HETATM   27  C   UNL     1     -10.698  12.600  64.010  1.00  0.00    -0.425 A  
HETATM   28  C   UNL     1      -9.255  10.249  64.394  1.00  0.00    -0.296 A  
HETATM   29  O   UNL     1     -11.482  13.704  63.829  1.00  0.00    -0.603 OA 
HETATM   30  H   UNL     1     -11.943  13.829  63.008  1.00  0.00     0.000 HD 
ENDBRANCH  14  23
ENDBRANCH   7  10
TORSDOF 3
ENDMDL
MODEL       37
REMARK 921   NORMALIZED FREE ENERGY PREDICTED BY IDOCK:   -6.79 KCAL/MOL
REMARK 922        TOTAL FREE ENERGY PREDICTED BY IDOCK:   -9.22 KCAL/MOL
REMARK 923 INTER-LIGAND FREE ENERGY PREDICTED BY IDOCK:   -8.66 KCAL/MOL
REMARK 924 INTRA-LIGAND FREE ENERGY PREDICTED BY IDOCK:   -0.57 KCAL/MOL
REMARK 927      BINDING AFFINITY PREDICTED BY RF-SCORE:    0.00 PKD
ROOT
HETATM    1  O   UNL     1     -11.985  16.588  72.439  1.00  0.00    -0.513 OA 
HETATM    2  C   UNL     1     -12.924  15.628  72.264  1.00  0.00    -0.447 C  
HETATM    3  O   UNL     1     -14.022  15.674  72.790  1.00  0.00    -0.558 OA 
HETATM    4  C   UNL     1     -12.485  14.505  71.398  1.00  0.00    -0.423 A  
HETATM    5  C   UNL     1     -11.602  14.696  70.331  1.00  0.00    -0.326 A  
HETATM    6  C   UNL     1     -11.225  13.612  69.528  1.00  0.00    -0.205 A  
HETATM    7  C   UNL     1     -11.778  12.339  69.734  1.00  0.00    -0.298 A  
HETATM    8  C   UNL     1     -12.649  12.146  70.817  1.00  0.00    -0.305 A  
HETATM    9  C   UNL     1     -13.010  13.228  71.638  1.00  0.00    -0.441 A  
ENDROOT
BRANCH   7  10
HETATM   10  N   UNL     1     -11.488  11.236  68.866  1.00  0.00    -0.267 NA 
HETATM   11  N   UNL     1     -11.399   9.981  69.393  1.00  0.00    -0.185 NA 
HETATM   12  C   UNL     1     -10.826   9.271  68.413  1.00  0.00    -0.076 A  
HETATM   13  N   UNL     1     -10.687   9.984  67.246  1.00  0.00    -0.262 NA 
HETATM   14  C   UNL     1     -11.161  11.188  67.511  1.00  0.00    -0.301 A  
BRANCH  12  15
HETATM   15  C   UNL     1     -10.350   7.879  68.484  1.00  0.00    -0.229 A  
HETATM   16  C   UNL     1      -9.389   7.461  67.535  1.00  0.00    -0.147 A  
HETATM   17  C   UNL     1      -8.867   6.164  67.534  1.00  0.00    -0.106 A  
HETATM   18  H   UNL     1     -11.942   6.626  71.059  1.00  0.00     0.000 HD 
HETATM   19  C   UNL     1      -9.293   5.249  68.488  1.00  0.00    -0.152 A  
HETATM   20  O   UNL     1     -11.666   7.263  70.410  1.00  0.00    -0.263 OA 
HETATM   21  C   UNL     1     -10.236   5.634  69.441  1.00  0.00    -0.315 A  
HETATM   22  C   UNL     1     -10.758   6.938  69.442  1.00  0.00    -0.246 A  
ENDBRANCH  12  15
BRANCH  14  23
HETATM   23  C   UNL     1     -11.238  12.250  66.496  1.00  0.00    -0.373 A  
HETATM   24  C   UNL     1     -11.645  14.158  64.465  1.00  0.00    -0.400 A  
HETATM   25  C   UNL     1     -10.446  13.450  64.528  1.00  0.00    -0.431 A  
HETATM   26  C   UNL     1     -12.408  13.030  66.455  1.00  0.00    -0.175 A  
HETATM   27  C   UNL     1     -10.233  12.533  65.560  1.00  0.00    -0.275 A  
HETATM   28  C   UNL     1     -12.612  13.975  65.449  1.00  0.00    -0.529 A  
HETATM   29  O   UNL     1      -9.024  11.900  65.646  1.00  0.00    -0.407 OA 
HETATM   30  H   UNL     1      -8.343  12.091  65.012  1.00  0.00     0.000 HD 
ENDBRANCH  14  23
ENDBRANCH   7  10
TORSDOF 3
ENDMDL
MODEL       38
REMARK 921   NORMALIZED FREE ENERGY PREDICTED BY IDOCK:   -6.76 KCAL/MOL
REMARK 922        TOTAL FREE ENERGY PREDICTED BY IDOCK:   -9.19 KCAL/MOL
REMARK 923 INTER-LIGAND FREE ENERGY PREDICTED BY IDOCK:   -7.94 KCAL/MOL
REMARK 924 INTRA-LIGAND FREE ENERGY PREDICTED BY IDOCK:   -1.26 KCAL/MOL
REMARK 927      BINDING AFFINITY PREDICTED BY RF-SCORE:    0.00 PKD
ROOT
HETATM    1  O   UNL     1      -7.401   3.909  66.602  1.00  0.00    -0.070 OA 
HETATM    2  C   UNL     1      -8.686   4.051  67.004  1.00  0.00    -0.112 C  
HETATM    3  O   UNL     1      -9.413   3.102  67.241  1.00  0.00    -0.198 OA 
HETATM    4  C   UNL     1      -9.135   5.462  67.102  1.00  0.00    -0.111 A  
HETATM    5  C   UNL     1      -8.263   6.491  67.471  1.00  0.00    -0.121 A  
HETATM    6  C   UNL     1      -8.730   7.809  67.567  1.00  0.00    -0.125 A  
HETATM    7  C   UNL     1     -10.086   8.106  67.364  1.00  0.00    -0.233 A  
HETATM    8  C   UNL     1     -10.955   7.074  66.976  1.00  0.00    -0.357 A  
HETATM    9  C   UNL     1     -10.483   5.757  66.857  1.00  0.00    -0.348 A  
ENDROOT
BRANCH   7  10
HETATM   10  N   UNL     1     -10.611   9.425  67.555  1.00  0.00    -0.277 NA 
HETATM   11  N   UNL     1     -10.748  10.248  66.476  1.00  0.00    -0.133 NA 
HETATM   12  C   UNL     1     -10.948  11.454  67.025  1.00  0.00    -0.292 A  
HETATM   13  N   UNL     1     -11.089  11.402  68.391  1.00  0.00    -0.221 NA 
HETATM   14  C   UNL     1     -10.945  10.129  68.713  1.00  0.00    -0.223 A  
BRANCH  12  15
HETATM   15  C   UNL     1     -11.010  12.750  66.329  1.00  0.00    -0.307 A  
HETATM   16  C   UNL     1     -12.184  13.053  65.602  1.00  0.00    -0.521 A  
HETATM   17  C   UNL     1     -12.341  14.266  64.924  1.00  0.00    -0.435 A  
HETATM   18  H   UNL     1      -8.157  14.183  67.065  1.00  0.00     0.000 HD 
HETATM   19  C   UNL     1     -11.323  15.209  64.956  1.00  0.00    -0.381 A  
HETATM   20  O   UNL     1      -8.840  13.523  67.049  1.00  0.00    -0.219 OA 
HETATM   21  C   UNL     1     -10.155  14.942  65.670  1.00  0.00    -0.387 A  
HETATM   22  C   UNL     1     -10.000  13.724  66.353  1.00  0.00    -0.297 A  
ENDBRANCH  12  15
BRANCH  14  23
HETATM   23  C   UNL     1     -11.077   9.641  70.094  1.00  0.00    -0.314 A  
HETATM   24  C   UNL     1     -11.180   8.458  72.648  1.00  0.00    -0.339 A  
HETATM   25  C   UNL     1     -12.351   8.903  72.036  1.00  0.00    -0.460 A  
HETATM   26  C   UNL     1      -9.902   9.252  70.763  1.00  0.00    -0.350 A  
HETATM   27  C   UNL     1     -12.291   9.524  70.786  1.00  0.00    -0.162 A  
HETATM   28  C   UNL     1      -9.951   8.665  72.028  1.00  0.00    -0.399 A  
HETATM   29  O   UNL     1     -13.440  10.017  70.234  1.00  0.00    -0.546 OA 
HETATM   30  H   UNL     1     -14.262   9.938  70.702  1.00  0.00     0.000 HD 
ENDBRANCH  14  23
ENDBRANCH   7  10
TORSDOF 3
ENDMDL
MODEL       39
REMARK 921   NORMALIZED FREE ENERGY PREDICTED BY IDOCK:   -6.72 KCAL/MOL
REMARK 922        TOTAL FREE ENERGY PREDICTED BY IDOCK:   -9.15 KCAL/MOL
REMARK 923 INTER-LIGAND FREE ENERGY PREDICTED BY IDOCK:   -8.49 KCAL/MOL
REMARK 924 INTRA-LIGAND FREE ENERGY PREDICTED BY IDOCK:   -0.65 KCAL/MOL
REMARK 927      BINDING AFFINITY PREDICTED BY RF-SCORE:    0.00 PKD
ROOT
HETATM    1  O   UNL     1      -9.932  20.114  67.952  1.00  0.00    -0.392 OA 
HETATM    2  C   UNL     1      -9.929  19.188  66.964  1.00  0.00    -0.347 C  
HETATM    3  O   UNL     1      -9.823  19.480  65.785  1.00  0.00    -0.403 OA 
HETATM    4  C   UNL     1     -10.095  17.793  67.443  1.00  0.00    -0.338 A  
HETATM    5  C   UNL     1      -9.589  17.370  68.675  1.00  0.00    -0.295 A  
HETATM    6  C   UNL     1      -9.752  16.040  69.084  1.00  0.00    -0.251 A  
HETATM    7  C   UNL     1     -10.360  15.099  68.239  1.00  0.00    -0.231 A  
HETATM    8  C   UNL     1     -10.884  15.530  67.011  1.00  0.00    -0.314 A  
HETATM    9  C   UNL     1     -10.741  16.869  66.610  1.00  0.00    -0.094 A  
ENDROOT
BRANCH   7  10
HETATM   10  N   UNL     1     -10.450  13.713  68.588  1.00  0.00    -0.243 NA 
HETATM   11  N   UNL     1      -9.639  12.815  67.959  1.00  0.00    -0.211 NA 
HETATM   12  C   UNL     1     -10.181  11.630  68.271  1.00  0.00    -0.199 A  
HETATM   13  N   UNL     1     -11.202  11.734  69.184  1.00  0.00    -0.250 NA 
HETATM   14  C   UNL     1     -11.324  13.026  69.431  1.00  0.00    -0.206 A  
BRANCH  12  15
HETATM   15  C   UNL     1      -9.804  10.310  67.738  1.00  0.00    -0.195 A  
HETATM   16  C   UNL     1      -9.294   9.353  68.644  1.00  0.00    -0.142 A  
HETATM   17  C   UNL     1      -8.925   8.069  68.233  1.00  0.00    -0.132 A  
HETATM   18  H   UNL     1     -10.534  10.506  64.549  1.00  0.00     0.000 HD 
HETATM   19  C   UNL     1      -9.060   7.708  66.899  1.00  0.00    -0.171 A  
HETATM   20  O   UNL     1     -10.443  10.772  65.456  1.00  0.00    -0.252 OA 
HETATM   21  C   UNL     1      -9.566   8.628  65.982  1.00  0.00    -0.265 A  
HETATM   22  C   UNL     1      -9.938   9.918  66.397  1.00  0.00    -0.244 A  
ENDBRANCH  12  15
BRANCH  14  23
HETATM   23  C   UNL     1     -12.288  13.559  70.406  1.00  0.00    -0.397 A  
HETATM   24  C   UNL     1     -13.922  14.783  72.346  1.00  0.00    -0.575 A  
HETATM   25  C   UNL     1     -13.693  13.409  72.392  1.00  0.00    -0.698 A  
HETATM   26  C   UNL     1     -12.594  14.930  70.338  1.00  0.00    -0.394 A  
HETATM   27  C   UNL     1     -12.914  12.800  71.405  1.00  0.00    -0.266 A  
HETATM   28  C   UNL     1     -13.403  15.539  71.299  1.00  0.00    -0.588 A  
HETATM   29  O   UNL     1     -12.759  11.442  71.427  1.00  0.00    -0.401 OA 
HETATM   30  H   UNL     1     -13.183  10.928  72.103  1.00  0.00     0.000 HD 
ENDBRANCH  14  23
ENDBRANCH   7  10
TORSDOF 3
ENDMDL
MODEL       40
REMARK 921   NORMALIZED FREE ENERGY PREDICTED BY IDOCK:   -6.68 KCAL/MOL
REMARK 922        TOTAL FREE ENERGY PREDICTED BY IDOCK:   -9.10 KCAL/MOL
REMARK 923 INTER-LIGAND FREE ENERGY PREDICTED BY IDOCK:   -8.63 KCAL/MOL
REMARK 924 INTRA-LIGAND FREE ENERGY PREDICTED BY IDOCK:   -0.47 KCAL/MOL
REMARK 927      BINDING AFFINITY PREDICTED BY RF-SCORE:    0.00 PKD
ROOT
HETATM    1  O   UNL     1     -11.189   7.963  70.899  1.00  0.00    -0.262 OA 
HETATM    2  C   UNL     1     -11.750   9.176  71.119  1.00  0.00    -0.313 C  
HETATM    3  O   UNL     1     -12.558   9.378  72.010  1.00  0.00    -0.371 OA 
HETATM    4  C   UNL     1     -11.315  10.225  70.164  1.00  0.00    -0.388 A  
HETATM    5  C   UNL     1     -10.029  10.240  69.618  1.00  0.00    -0.240 A  
HETATM    6  C   UNL     1      -9.652  11.258  68.731  1.00  0.00    -0.160 A  
HETATM    7  C   UNL     1     -10.530  12.311  68.434  1.00  0.00    -0.233 A  
HETATM    8  C   UNL     1     -11.827  12.284  68.969  1.00  0.00    -0.358 A  
HETATM    9  C   UNL     1     -12.213  11.252  69.840  1.00  0.00    -0.358 A  
ENDROOT
BRANCH   7  10
HETATM   10  N   UNL     1     -10.136  13.417  67.613  1.00  0.00    -0.225 NA 
HETATM   11  N   UNL     1      -9.981  14.646  68.182  1.00  0.00    -0.219 NA 
HETATM   12  C   UNL     1      -9.930  15.475  67.131  1.00  0.00    -0.242 A  
HETATM   13  N   UNL     1      -9.897  14.811  65.929  1.00  0.00    -0.320 NA 
HETATM   14  C   UNL     1      -9.959  13.527  66.233  1.00  0.00    -0.298 A  
BRANCH  12  15
HETATM   15  C   UNL     1      -9.920  16.947  67.157  1.00  0.00    -0.276 A  
HETATM   16  C   UNL     1      -9.487  17.584  68.342  1.00  0.00    -0.292 A  
HETATM   17  C   UNL     1      -9.428  18.977  68.454  1.00  0.00    -0.417 A  
HETATM   18  H   UNL     1     -10.943  17.799  64.163  1.00  0.00     0.000 HD 
HETATM   19  C   UNL     1      -9.803  19.770  67.379  1.00  0.00    -0.519 A  
HETATM   20  O   UNL     1     -10.696  17.241  64.891  1.00  0.00    -0.723 OA 
HETATM   21  C   UNL     1     -10.230  19.171  66.193  1.00  0.00    -0.535 A  
HETATM   22  C   UNL     1     -10.286  17.771  66.082  1.00  0.00    -0.339 A  
ENDBRANCH  12  15
BRANCH  14  23
HETATM   23  C   UNL     1      -9.899  12.467  65.215  1.00  0.00    -0.180 A  
HETATM   24  C   UNL     1     -10.081  10.393  63.319  1.00  0.00     0.023 A  
HETATM   25  C   UNL     1      -9.113  10.341  64.320  1.00  0.00    -0.278 A  
HETATM   26  C   UNL     1     -10.817  12.533  64.151  1.00  0.00    -0.420 A  
HETATM   27  C   UNL     1      -9.001  11.391  65.235  1.00  0.00    -0.008 A  
HETATM   28  C   UNL     1     -10.909  11.506  63.211  1.00  0.00    -0.342 A  
HETATM   29  O   UNL     1      -8.001  11.355  66.167  1.00  0.00    -0.332 OA 
HETATM   30  H   UNL     1      -7.393  10.626  66.181  1.00  0.00     0.000 HD 
ENDBRANCH  14  23
ENDBRANCH   7  10
TORSDOF 3
ENDMDL
MODEL       41
REMARK 921   NORMALIZED FREE ENERGY PREDICTED BY IDOCK:   -6.64 KCAL/MOL
REMARK 922        TOTAL FREE ENERGY PREDICTED BY IDOCK:   -9.05 KCAL/MOL
REMARK 923 INTER-LIGAND FREE ENERGY PREDICTED BY IDOCK:   -8.28 KCAL/MOL
REMARK 924 INTRA-LIGAND FREE ENERGY PREDICTED BY IDOCK:   -0.77 KCAL/MOL
REMARK 927      BINDING AFFINITY PREDICTED BY RF-SCORE:    0.00 PKD
ROOT
HETATM    1  O   UNL     1      -7.975   6.889  64.701  1.00  0.00    -0.119 OA 
HETATM    2  C   UNL     1      -8.382   8.180  64.653  1.00  0.00    -0.079 C  
HETATM    3  O   UNL     1      -8.175   8.903  63.694  1.00  0.00    -0.161 OA 
HETATM    4  C   UNL     1      -9.077   8.640  65.881  1.00  0.00    -0.259 A  
HETATM    5  C   UNL     1      -9.867   7.779  66.649  1.00  0.00    -0.295 A  
HETATM    6  C   UNL     1     -10.520   8.256  67.793  1.00  0.00    -0.280 A  
HETATM    7  C   UNL     1     -10.449   9.612  68.147  1.00  0.00    -0.222 A  
HETATM    8  C   UNL     1      -9.640  10.469  67.385  1.00  0.00    -0.181 A  
HETATM    9  C   UNL     1      -8.967   9.987  66.251  1.00  0.00    -0.170 A  
ENDROOT
BRANCH   7  10
HETATM   10  N   UNL     1     -11.187  10.147  69.252  1.00  0.00    -0.219 NA 
HETATM   11  N   UNL     1     -11.775  11.372  69.128  1.00  0.00    -0.313 NA 
HETATM   12  C   UNL     1     -12.091  11.697  70.388  1.00  0.00    -0.373 A  
HETATM   13  N   UNL     1     -11.863  10.673  71.277  1.00  0.00    -0.251 NA 
HETATM   14  C   UNL     1     -11.363   9.686  70.557  1.00  0.00    -0.296 A  
BRANCH  12  15
HETATM   15  C   UNL     1     -12.616  12.985  70.871  1.00  0.00    -0.364 A  
HETATM   16  C   UNL     1     -13.417  12.977  72.036  1.00  0.00    -0.584 A  
HETATM   17  C   UNL     1     -13.945  14.153  72.578  1.00  0.00    -0.536 A  
HETATM   18  H   UNL     1     -11.405  15.176  68.757  1.00  0.00     0.000 HD 
HETATM   19  C   UNL     1     -13.684  15.371  71.966  1.00  0.00    -0.613 A  
HETATM   20  O   UNL     1     -11.578  14.333  69.160  1.00  0.00    -0.266 OA 
HETATM   21  C   UNL     1     -12.893  15.412  70.818  1.00  0.00    -0.524 A  
HETATM   22  C   UNL     1     -12.360  14.230  70.276  1.00  0.00    -0.354 A  
ENDBRANCH  12  15
BRANCH  14  23
HETATM   23  C   UNL     1     -11.025   8.376  71.134  1.00  0.00    -0.292 A  
HETATM   24  C   UNL     1     -10.632   5.892  72.403  1.00  0.00    -0.257 A  
HETATM   25  C   UNL     1      -9.622   6.853  72.420  1.00  0.00    -0.167 A  
HETATM   26  C   UNL     1     -11.999   7.363  71.067  1.00  0.00    -0.337 A  
HETATM   27  C   UNL     1      -9.806   8.068  71.755  1.00  0.00    -0.183 A  
HETATM   28  C   UNL     1     -11.807   6.132  71.697  1.00  0.00    -0.241 A  
HETATM   29  O   UNL     1      -8.779   8.969  71.723  1.00  0.00    -0.350 OA 
HETATM   30  H   UNL     1      -7.953   8.761  72.144  1.00  0.00     0.000 HD 
ENDBRANCH  14  23
ENDBRANCH   7  10
TORSDOF 3
ENDMDL
MODEL       42
REMARK 921   NORMALIZED FREE ENERGY PREDICTED BY IDOCK:   -6.57 KCAL/MOL
REMARK 922        TOTAL FREE ENERGY PREDICTED BY IDOCK:   -8.97 KCAL/MOL
REMARK 923 INTER-LIGAND FREE ENERGY PREDICTED BY IDOCK:   -8.04 KCAL/MOL
REMARK 924 INTRA-LIGAND FREE ENERGY PREDICTED BY IDOCK:   -0.93 KCAL/MOL
REMARK 927      BINDING AFFINITY PREDICTED BY RF-SCORE:    0.00 PKD
ROOT
HETATM    1  O   UNL     1      -6.440  10.332  63.906  1.00  0.00    -0.134 OA 
HETATM    2  C   UNL     1      -7.314   9.381  64.311  1.00  0.00    -0.109 C  
HETATM    3  O   UNL     1      -7.379   8.279  63.793  1.00  0.00    -0.091 OA 
HETATM    4  C   UNL     1      -8.203   9.809  65.419  1.00  0.00    -0.131 A  
HETATM    5  C   UNL     1      -7.776  10.703  66.406  1.00  0.00    -0.141 A  
HETATM    6  C   UNL     1      -8.641  11.070  67.445  1.00  0.00    -0.132 A  
HETATM    7  C   UNL     1      -9.917  10.498  67.553  1.00  0.00    -0.172 A  
HETATM    8  C   UNL     1     -10.350   9.616  66.551  1.00  0.00    -0.264 A  
HETATM    9  C   UNL     1      -9.492   9.265  65.496  1.00  0.00    -0.309 A  
ENDROOT
BRANCH   7  10
HETATM   10  N   UNL     1     -10.783  10.778  68.659  1.00  0.00    -0.193 NA 
HETATM   11  N   UNL     1     -11.420  11.982  68.717  1.00  0.00    -0.274 NA 
HETATM   12  C   UNL     1     -11.870  12.039  69.977  1.00  0.00    -0.314 A  
HETATM   13  N   UNL     1     -11.674  10.867  70.668  1.00  0.00    -0.340 NA 
HETATM   14  C   UNL     1     -11.057  10.059  69.824  1.00  0.00    -0.274 A  
BRANCH  12  15
HETATM   15  C   UNL     1     -12.504  13.187  70.646  1.00  0.00    -0.363 A  
HETATM   16  C   UNL     1     -13.228  12.942  71.835  1.00  0.00    -0.521 A  
HETATM   17  C   UNL     1     -13.850  13.971  72.548  1.00  0.00    -0.610 A  
HETATM   18  H   UNL     1     -11.674  15.749  68.779  1.00  0.00     0.000 HD 
HETATM   19  C   UNL     1     -13.763  15.278  72.087  1.00  0.00    -0.598 A  
HETATM   20  O   UNL     1     -11.728  14.848  69.077  1.00  0.00    -0.293 OA 
HETATM   21  C   UNL     1     -13.051  15.553  70.919  1.00  0.00    -0.508 A  
HETATM   22  C   UNL     1     -12.425  14.517  70.205  1.00  0.00    -0.348 A  
ENDBRANCH  12  15
BRANCH  14  23
HETATM   23  C   UNL     1     -10.707   8.672  70.165  1.00  0.00    -0.244 A  
HETATM   24  C   UNL     1      -9.922   5.994  70.542  1.00  0.00    -0.233 A  
HETATM   25  C   UNL     1     -11.241   6.375  70.781  1.00  0.00    -0.386 A  
HETATM   26  C   UNL     1      -9.367   8.278  70.003  1.00  0.00    -0.162 A  
HETATM   27  C   UNL     1     -11.617   7.713  70.631  1.00  0.00    -0.232 A  
HETATM   28  C   UNL     1      -8.976   6.951  70.188  1.00  0.00    -0.149 A  
HETATM   29  O   UNL     1     -12.897   8.080  70.938  1.00  0.00    -0.514 OA 
HETATM   30  H   UNL     1     -13.514   7.430  71.253  1.00  0.00     0.000 HD 
ENDBRANCH  14  23
ENDBRANCH   7  10
TORSDOF 3
ENDMDL
MODEL       43
REMARK 921   NORMALIZED FREE ENERGY PREDICTED BY IDOCK:   -6.43 KCAL/MOL
REMARK 922        TOTAL FREE ENERGY PREDICTED BY IDOCK:   -8.80 KCAL/MOL
REMARK 923 INTER-LIGAND FREE ENERGY PREDICTED BY IDOCK:   -8.01 KCAL/MOL
REMARK 924 INTRA-LIGAND FREE ENERGY PREDICTED BY IDOCK:   -0.79 KCAL/MOL
REMARK 927      BINDING AFFINITY PREDICTED BY RF-SCORE:    0.00 PKD
ROOT
HETATM    1  O   UNL     1      -6.015   7.494  67.361  1.00  0.00    -0.043 OA 
HETATM    2  C   UNL     1      -6.202   8.546  66.530  1.00  0.00    -0.057 C  
HETATM    3  O   UNL     1      -5.559   8.703  65.506  1.00  0.00    -0.042 OA 
HETATM    4  C   UNL     1      -7.239   9.502  66.991  1.00  0.00    -0.087 A  
HETATM    5  C   UNL     1      -8.364   9.084  67.708  1.00  0.00    -0.117 A  
HETATM    6  C   UNL     1      -9.329  10.017  68.112  1.00  0.00    -0.137 A  
HETATM    7  C   UNL     1      -9.219  11.366  67.746  1.00  0.00    -0.159 A  
HETATM    8  C   UNL     1      -8.079  11.787  67.043  1.00  0.00    -0.169 A  
HETATM    9  C   UNL     1      -7.101  10.856  66.657  1.00  0.00    -0.135 A  
ENDROOT
BRANCH   7  10
HETATM   10  N   UNL     1     -10.239  12.322  68.057  1.00  0.00    -0.201 NA 
HETATM   11  N   UNL     1     -10.300  12.843  69.316  1.00  0.00     0.201 NA 
HETATM   12  C   UNL     1     -11.505  13.427  69.356  1.00  0.00    -0.274 A  
HETATM   13  N   UNL     1     -12.141  13.424  68.138  1.00  0.00    -0.302 NA 
HETATM   14  C   UNL     1     -11.322  12.794  67.314  1.00  0.00    -0.314 A  
BRANCH  12  15
HETATM   15  C   UNL     1     -12.168  14.021  70.529  1.00  0.00    -0.435 A  
HETATM   16  C   UNL     1     -12.905  13.163  71.376  1.00  0.00    -0.401 A  
HETATM   17  C   UNL     1     -13.554  13.633  72.522  1.00  0.00    -0.675 A  
HETATM   18  H   UNL     1     -11.353  17.191  70.379  1.00  0.00     0.000 HD 
HETATM   19  C   UNL     1     -13.482  14.980  72.849  1.00  0.00    -0.565 A  
HETATM   20  O   UNL     1     -11.396  16.274  70.136  1.00  0.00    -0.349 OA 
HETATM   21  C   UNL     1     -12.758  15.852  72.036  1.00  0.00    -0.495 A  
HETATM   22  C   UNL     1     -12.104  15.377  70.886  1.00  0.00    -0.364 A  
ENDBRANCH  12  15
BRANCH  14  23
HETATM   23  C   UNL     1     -11.616  12.620  65.884  1.00  0.00    -0.443 A  
HETATM   24  C   UNL     1     -11.882  12.325  63.096  1.00  0.00    -0.328 A  
HETATM   25  C   UNL     1     -12.660  13.260  63.776  1.00  0.00    -0.216 A  
HETATM   26  C   UNL     1     -10.897  11.633  65.185  1.00  0.00    -0.346 A  
HETATM   27  C   UNL     1     -12.553  13.375  65.165  1.00  0.00    -0.440 A  
HETATM   28  C   UNL     1     -11.026  11.486  63.804  1.00  0.00    -0.485 A  
HETATM   29  O   UNL     1     -13.374  14.248  65.823  1.00  0.00    -0.632 OA 
HETATM   30  H   UNL     1     -14.009  14.760  65.336  1.00  0.00     0.000 HD 
ENDBRANCH  14  23
ENDBRANCH   7  10
TORSDOF 3
ENDMDL
MODEL       44
REMARK 921   NORMALIZED FREE ENERGY PREDICTED BY IDOCK:   -6.37 KCAL/MOL
REMARK 922        TOTAL FREE ENERGY PREDICTED BY IDOCK:   -8.73 KCAL/MOL
REMARK 923 INTER-LIGAND FREE ENERGY PREDICTED BY IDOCK:   -8.20 KCAL/MOL
REMARK 924 INTRA-LIGAND FREE ENERGY PREDICTED BY IDOCK:   -0.53 KCAL/MOL
REMARK 927      BINDING AFFINITY PREDICTED BY RF-SCORE:    0.00 PKD
ROOT
HETATM    1  O   UNL     1      -7.605   3.888  66.376  1.00  0.00    -0.086 OA 
HETATM    2  C   UNL     1      -8.843   4.053  66.899  1.00  0.00    -0.122 C  
HETATM    3  O   UNL     1      -9.584   3.119  67.151  1.00  0.00    -0.163 OA 
HETATM    4  C   UNL     1      -9.225   5.472  67.109  1.00  0.00    -0.111 A  
HETATM    5  C   UNL     1      -8.284   6.448  67.450  1.00  0.00    -0.116 A  
HETATM    6  C   UNL     1      -8.687   7.773  67.656  1.00  0.00    -0.126 A  
HETATM    7  C   UNL     1     -10.043   8.128  67.593  1.00  0.00    -0.207 A  
HETATM    8  C   UNL     1     -10.983   7.151  67.231  1.00  0.00    -0.333 A  
HETATM    9  C   UNL     1     -10.576   5.827  67.003  1.00  0.00    -0.373 A  
ENDROOT
BRANCH   7  10
HETATM   10  N   UNL     1     -10.495   9.453  67.898  1.00  0.00    -0.233 NA 
HETATM   11  N   UNL     1     -10.790   9.774  69.190  1.00  0.00    -0.221 NA 
HETATM   12  C   UNL     1     -11.458  10.930  69.082  1.00  0.00    -0.303 A  
HETATM   13  N   UNL     1     -11.469  11.422  67.799  1.00  0.00    -0.434 NA 
HETATM   14  C   UNL     1     -10.811  10.535  67.075  1.00  0.00    -0.225 A  
BRANCH  12  15
HETATM   15  C   UNL     1     -12.151  11.662  70.155  1.00  0.00    -0.414 A  
HETATM   16  C   UNL     1     -12.699  10.910  71.220  1.00  0.00    -0.542 A  
HETATM   17  C   UNL     1     -13.360  11.519  72.291  1.00  0.00    -0.097 A  
HETATM   18  H   UNL     1     -11.864  14.807  69.282  1.00  0.00     0.000 HD 
HETATM   19  C   UNL     1     -13.489  12.901  72.324  1.00  0.00    -0.631 A  
HETATM   20  O   UNL     1     -11.771  13.863  69.241  1.00  0.00    -0.287 OA 
HETATM   21  C   UNL     1     -12.955  13.670  71.291  1.00  0.00    -0.399 A  
HETATM   22  C   UNL     1     -12.289  13.057  70.216  1.00  0.00    -0.241 A  
ENDBRANCH  12  15
BRANCH  14  23
HETATM   23  C   UNL     1     -10.555  10.717  65.638  1.00  0.00    -0.199 A  
HETATM   24  C   UNL     1      -9.775  11.114  62.961  1.00  0.00    -0.384 A  
HETATM   25  C   UNL     1     -10.826  11.855  63.500  1.00  0.00    -0.502 A  
HETATM   26  C   UNL     1      -9.548   9.931  65.050  1.00  0.00    -0.364 A  
HETATM   27  C   UNL     1     -11.235  11.627  64.816  1.00  0.00    -0.234 A  
HETATM   28  C   UNL     1      -9.159  10.127  63.724  1.00  0.00    -0.293 A  
HETATM   29  O   UNL     1     -12.312  12.312  65.304  1.00  0.00    -0.555 OA 
HETATM   30  H   UNL     1     -12.773  12.929  64.747  1.00  0.00     0.000 HD 
ENDBRANCH  14  23
ENDBRANCH   7  10
TORSDOF 3
ENDMDL
MODEL       45
REMARK 921   NORMALIZED FREE ENERGY PREDICTED BY IDOCK:   -6.36 KCAL/MOL
REMARK 922        TOTAL FREE ENERGY PREDICTED BY IDOCK:   -8.71 KCAL/MOL
REMARK 923 INTER-LIGAND FREE ENERGY PREDICTED BY IDOCK:   -7.55 KCAL/MOL
REMARK 924 INTRA-LIGAND FREE ENERGY PREDICTED BY IDOCK:   -1.16 KCAL/MOL
REMARK 927      BINDING AFFINITY PREDICTED BY RF-SCORE:    0.00 PKD
ROOT
HETATM    1  O   UNL     1     -12.989  12.779  65.104  1.00  0.00    -0.768 OA 
HETATM    2  C   UNL     1     -12.416  13.958  64.763  1.00  0.00    -0.354 C  
HETATM    3  O   UNL     1     -12.763  14.603  63.789  1.00  0.00    -0.778 OA 
HETATM    4  C   UNL     1     -11.313  14.377  65.663  1.00  0.00    -0.330 A  
HETATM    5  C   UNL     1     -11.318  14.075  67.028  1.00  0.00    -0.346 A  
HETATM    6  C   UNL     1     -10.265  14.502  67.847  1.00  0.00    -0.231 A  
HETATM    7  C   UNL     1      -9.230  15.295  67.330  1.00  0.00    -0.199 A  
HETATM    8  C   UNL     1      -9.217  15.581  65.956  1.00  0.00    -0.361 A  
HETATM    9  C   UNL     1     -10.261  15.133  65.130  1.00  0.00    -0.386 A  
ENDROOT
BRANCH   7  10
HETATM   10  N   UNL     1      -8.195  15.830  68.164  1.00  0.00    -0.140 NA 
HETATM   11  N   UNL     1      -8.198  17.163  68.455  1.00  0.00    -0.244 NA 
HETATM   12  C   UNL     1      -6.976  17.376  68.960  1.00  0.00    -0.238 A  
HETATM   13  N   UNL     1      -6.261  16.216  69.136  1.00  0.00    -0.143 NA 
HETATM   14  C   UNL     1      -7.047  15.248  68.702  1.00  0.00    -0.116 A  
BRANCH  12  15
HETATM   15  C   UNL     1      -6.370  18.673  69.307  1.00  0.00    -0.282 A  
HETATM   16  C   UNL     1      -5.835  18.825  70.606  1.00  0.00    -0.063 A  
HETATM   17  C   UNL     1      -5.225  20.013  71.020  1.00  0.00    -0.287 A  
HETATM   18  H   UNL     1      -6.653  20.439  66.562  1.00  0.00     0.000 HD 
HETATM   19  C   UNL     1      -5.134  21.083  70.140  1.00  0.00    -0.358 A  
HETATM   20  O   UNL     1      -6.729  19.699  67.152  1.00  0.00    -0.198 OA 
HETATM   21  C   UNL     1      -5.648  20.962  68.849  1.00  0.00    -0.393 A  
HETATM   22  C   UNL     1      -6.258  19.766  68.434  1.00  0.00    -0.257 A  
ENDBRANCH  12  15
BRANCH  14  23
HETATM   23  C   UNL     1      -6.665  13.829  68.764  1.00  0.00    -0.103 A  
HETATM   24  C   UNL     1      -6.187  11.054  68.729  1.00  0.00    -0.044 A  
HETATM   25  C   UNL     1      -6.180  11.748  69.938  1.00  0.00    -0.141 A  
HETATM   26  C   UNL     1      -6.592  13.119  67.552  1.00  0.00    -0.159 A  
HETATM   27  C   UNL     1      -6.378  13.131  69.946  1.00  0.00    -0.038 A  
HETATM   28  C   UNL     1      -6.356  11.743  67.532  1.00  0.00    -0.095 A  
HETATM   29  O   UNL     1      -6.299  13.805  71.133  1.00  0.00    -0.501 OA 
HETATM   30  H   UNL     1      -6.105  13.333  71.934  1.00  0.00     0.000 HD 
ENDBRANCH  14  23
ENDBRANCH   7  10
TORSDOF 3
ENDMDL
MODEL       46
REMARK 921   NORMALIZED FREE ENERGY PREDICTED BY IDOCK:   -6.34 KCAL/MOL
REMARK 922        TOTAL FREE ENERGY PREDICTED BY IDOCK:   -8.70 KCAL/MOL
REMARK 923 INTER-LIGAND FREE ENERGY PREDICTED BY IDOCK:   -7.74 KCAL/MOL
REMARK 924 INTRA-LIGAND FREE ENERGY PREDICTED BY IDOCK:   -0.95 KCAL/MOL
REMARK 927      BINDING AFFINITY PREDICTED BY RF-SCORE:    0.00 PKD
ROOT
HETATM    1  O   UNL     1      -9.283   3.272  66.095  1.00  0.00    -0.154 OA 
HETATM    2  C   UNL     1      -8.522   4.392  66.116  1.00  0.00    -0.113 C  
HETATM    3  O   UNL     1      -7.407   4.443  65.626  1.00  0.00    -0.077 OA 
HETATM    4  C   UNL     1      -9.156   5.539  66.813  1.00  0.00    -0.118 A  
HETATM    5  C   UNL     1     -10.539   5.742  66.795  1.00  0.00    -0.373 A  
HETATM    6  C   UNL     1     -11.097   6.847  67.452  1.00  0.00    -0.322 A  
HETATM    7  C   UNL     1     -10.278   7.800  68.075  1.00  0.00    -0.201 A  
HETATM    8  C   UNL     1      -8.891   7.584  68.108  1.00  0.00    -0.127 A  
HETATM    9  C   UNL     1      -8.333   6.464  67.469  1.00  0.00    -0.117 A  
ENDROOT
BRANCH   7  10
HETATM   10  N   UNL     1     -10.813   8.990  68.666  1.00  0.00    -0.087 NA 
HETATM   11  N   UNL     1     -11.112  10.053  67.866  1.00  0.00    -0.253 NA 
HETATM   12  C   UNL     1     -11.277  11.061  68.732  1.00  0.00    -0.266 A  
HETATM   13  N   UNL     1     -11.240  10.651  70.043  1.00  0.00    -0.297 NA 
HETATM   14  C   UNL     1     -11.018   9.349  69.998  1.00  0.00    -0.239 A  
BRANCH  12  15
HETATM   15  C   UNL     1     -11.467  12.486  68.414  1.00  0.00    -0.355 A  
HETATM   16  C   UNL     1     -11.176  13.432  69.422  1.00  0.00    -0.235 A  
HETATM   17  C   UNL     1     -11.310  14.808  69.208  1.00  0.00    -0.317 A  
HETATM   18  H   UNL     1     -12.464  12.476  65.293  1.00  0.00     0.000 HD 
HETATM   19  C   UNL     1     -11.741  15.272  67.973  1.00  0.00    -0.268 A  
HETATM   20  O   UNL     1     -12.176  12.140  66.133  1.00  0.00    -0.611 OA 
HETATM   21  C   UNL     1     -12.032  14.364  66.955  1.00  0.00    -0.424 A  
HETATM   22  C   UNL     1     -11.893  12.982  67.172  1.00  0.00    -0.373 A  
ENDBRANCH  12  15
BRANCH  14  23
HETATM   23  C   UNL     1     -10.957   8.514  71.208  1.00  0.00    -0.316 A  
HETATM   24  C   UNL     1     -10.544   6.886  73.468  1.00  0.00    -0.378 A  
HETATM   25  C   UNL     1     -11.521   6.548  72.534  1.00  0.00    -0.274 A  
HETATM   26  C   UNL     1     -10.030   8.873  72.202  1.00  0.00    -0.274 A  
HETATM   27  C   UNL     1     -11.750   7.380  71.434  1.00  0.00    -0.288 A  
HETATM   28  C   UNL     1      -9.823   8.067  73.323  1.00  0.00    -0.281 A  
HETATM   29  O   UNL     1     -12.759   7.069  70.566  1.00  0.00    -0.606 OA 
HETATM   30  H   UNL     1     -13.296   6.301  70.719  1.00  0.00     0.000 HD 
ENDBRANCH  14  23
ENDBRANCH   7  10
TORSDOF 3
ENDMDL
MODEL       47
REMARK 921   NORMALIZED FREE ENERGY PREDICTED BY IDOCK:   -6.28 KCAL/MOL
REMARK 922        TOTAL FREE ENERGY PREDICTED BY IDOCK:   -8.62 KCAL/MOL
REMARK 923 INTER-LIGAND FREE ENERGY PREDICTED BY IDOCK:   -8.10 KCAL/MOL
REMARK 924 INTRA-LIGAND FREE ENERGY PREDICTED BY IDOCK:   -0.52 KCAL/MOL
REMARK 927      BINDING AFFINITY PREDICTED BY RF-SCORE:    0.00 PKD
ROOT
HETATM    1  O   UNL     1      -7.347   8.169  63.736  1.00  0.00    -0.090 OA 
HETATM    2  C   UNL     1      -8.502   8.870  63.649  1.00  0.00    -0.138 C  
HETATM    3  O   UNL     1      -9.004   9.186  62.584  1.00  0.00    -0.212 OA 
HETATM    4  C   UNL     1      -9.084   9.240  64.963  1.00  0.00    -0.245 A  
HETATM    5  C   UNL     1      -8.952   8.420  66.087  1.00  0.00    -0.218 A  
HETATM    6  C   UNL     1      -9.530   8.798  67.306  1.00  0.00    -0.200 A  
HETATM    7  C   UNL     1     -10.305   9.963  67.402  1.00  0.00    -0.246 A  
HETATM    8  C   UNL     1     -10.420  10.795  66.277  1.00  0.00    -0.287 A  
HETATM    9  C   UNL     1      -9.821  10.427  65.060  1.00  0.00    -0.384 A  
ENDROOT
BRANCH   7  10
HETATM   10  N   UNL     1     -10.991  10.321  68.608  1.00  0.00    -0.238 NA 
HETATM   11  N   UNL     1     -11.681  11.496  68.656  1.00  0.00    -0.327 NA 
HETATM   12  C   UNL     1     -11.918  11.667  69.963  1.00  0.00    -0.351 A  
HETATM   13  N   UNL     1     -11.539  10.586  70.721  1.00  0.00    -0.347 NA 
HETATM   14  C   UNL     1     -11.022   9.720  69.866  1.00  0.00    -0.264 A  
BRANCH  12  15
HETATM   15  C   UNL     1     -12.502  12.852  70.614  1.00  0.00    -0.333 A  
HETATM   16  C   UNL     1     -12.282  14.112  70.014  1.00  0.00    -0.418 A  
HETATM   17  C   UNL     1     -12.811  15.290  70.551  1.00  0.00    -0.421 A  
HETATM   18  H   UNL     1     -14.100  11.626  73.199  1.00  0.00     0.000 HD 
HETATM   19  C   UNL     1     -13.577  15.235  71.707  1.00  0.00    -0.581 A  
HETATM   20  O   UNL     1     -13.569  11.645  72.412  1.00  0.00    -0.215 OA 
HETATM   21  C   UNL     1     -13.817  14.006  72.320  1.00  0.00    -0.655 A  
HETATM   22  C   UNL     1     -13.287  12.823  71.778  1.00  0.00    -0.342 A  
ENDBRANCH  12  15
BRANCH  14  23
HETATM   23  C   UNL     1     -10.537   8.394  70.278  1.00  0.00    -0.234 A  
HETATM   24  C   UNL     1      -9.881   5.811  71.186  1.00  0.00    -0.227 A  
HETATM   25  C   UNL     1      -9.071   6.895  71.520  1.00  0.00    -0.144 A  
HETATM   26  C   UNL     1     -11.296   7.274  69.893  1.00  0.00    -0.145 A  
HETATM   27  C   UNL     1      -9.378   8.169  71.034  1.00  0.00    -0.152 A  
HETATM   28  C   UNL     1     -10.973   5.993  70.343  1.00  0.00    -0.399 A  
HETATM   29  O   UNL     1      -8.534   9.207  71.313  1.00  0.00    -0.286 OA 
HETATM   30  H   UNL     1      -7.749   9.054  71.825  1.00  0.00     0.000 HD 
ENDBRANCH  14  23
ENDBRANCH   7  10
TORSDOF 3
ENDMDL
MODEL       48
REMARK 921   NORMALIZED FREE ENERGY PREDICTED BY IDOCK:   -6.24 KCAL/MOL
REMARK 922        TOTAL FREE ENERGY PREDICTED BY IDOCK:   -8.57 KCAL/MOL
REMARK 923 INTER-LIGAND FREE ENERGY PREDICTED BY IDOCK:   -9.42 KCAL/MOL
REMARK 924 INTRA-LIGAND FREE ENERGY PREDICTED BY IDOCK:    0.85 KCAL/MOL
REMARK 927      BINDING AFFINITY PREDICTED BY RF-SCORE:    0.00 PKD
ROOT
HETATM    1  O   UNL     1     -10.536   8.095  66.607  1.00  0.00    -0.272 OA 
HETATM    2  C   UNL     1      -9.547   9.017  66.543  1.00  0.00    -0.223 C  
HETATM    3  O   UNL     1      -8.410   8.744  66.199  1.00  0.00    -0.115 OA 
HETATM    4  C   UNL     1      -9.965  10.380  66.955  1.00  0.00    -0.252 A  
HETATM    5  C   UNL     1     -11.259  10.857  66.726  1.00  0.00    -0.109 A  
HETATM    6  C   UNL     1     -11.609  12.157  67.116  1.00  0.00    -0.405 A  
HETATM    7  C   UNL     1     -10.655  13.019  67.676  1.00  0.00    -0.224 A  
HETATM    8  C   UNL     1      -9.362  12.532  67.922  1.00  0.00    -0.200 A  
HETATM    9  C   UNL     1      -9.017  11.222  67.552  1.00  0.00    -0.140 A  
ENDROOT
BRANCH   7  10
HETATM   10  N   UNL     1     -10.958  14.384  67.991  1.00  0.00    -0.252 NA 
HETATM   11  N   UNL     1     -10.448  15.376  67.207  1.00  0.00    -0.276 NA 
HETATM   12  C   UNL     1     -10.647  16.484  67.933  1.00  0.00    -0.329 A  
HETATM   13  N   UNL     1     -11.389  16.253  69.067  1.00  0.00    -0.325 NA 
HETATM   14  C   UNL     1     -11.639  14.955  69.066  1.00  0.00    -0.305 A  
BRANCH  12  15
HETATM   15  C   UNL     1     -10.155  17.840  67.642  1.00  0.00    -0.342 A  
HETATM   16  C   UNL     1      -9.564  18.570  68.699  1.00  0.00    -0.382 A  
HETATM   17  C   UNL     1      -9.053  19.858  68.513  1.00  0.00    -0.230 A  
HETATM   18  H   UNL     1     -10.770  18.238  64.448  1.00  0.00     0.000 HD 
HETATM   19  C   UNL     1      -9.121  20.451  67.260  1.00  0.00    -0.500 A  
HETATM   20  O   UNL     1     -10.737  17.819  65.300  1.00  0.00    -0.649 OA 
HETATM   21  C   UNL     1      -9.693  19.755  66.195  1.00  0.00    -0.510 A  
HETATM   22  C   UNL     1     -10.203  18.459  66.383  1.00  0.00    -0.410 A  
ENDBRANCH  12  15
BRANCH  14  23
HETATM   23  C   UNL     1     -12.459  14.306  70.100  1.00  0.00    -0.393 A  
HETATM   24  C   UNL     1     -13.970  13.302  72.255  1.00  0.00    -0.559 A  
HETATM   25  C   UNL     1     -12.972  12.519  71.676  1.00  0.00    -0.405 A  
HETATM   26  C   UNL     1     -13.520  15.047  70.652  1.00  0.00    -0.210 A  
HETATM   27  C   UNL     1     -12.251  13.006  70.582  1.00  0.00    -0.307 A  
HETATM   28  C   UNL     1     -14.269  14.552  71.720  1.00  0.00    -0.592 A  
HETATM   29  O   UNL     1     -11.326  12.197  69.985  1.00  0.00    -0.506 OA 
HETATM   30  H   UNL     1     -11.185  11.316  70.311  1.00  0.00     0.000 HD 
ENDBRANCH  14  23
ENDBRANCH   7  10
TORSDOF 3
ENDMDL
MODEL       49
REMARK 921   NORMALIZED FREE ENERGY PREDICTED BY IDOCK:   -6.21 KCAL/MOL
REMARK 922        TOTAL FREE ENERGY PREDICTED BY IDOCK:   -8.54 KCAL/MOL
REMARK 923 INTER-LIGAND FREE ENERGY PREDICTED BY IDOCK:   -7.81 KCAL/MOL
REMARK 924 INTRA-LIGAND FREE ENERGY PREDICTED BY IDOCK:   -0.73 KCAL/MOL
REMARK 927      BINDING AFFINITY PREDICTED BY RF-SCORE:    0.00 PKD
ROOT
HETATM    1  O   UNL     1      -7.136   8.700  68.818  1.00  0.00    -0.062 OA 
HETATM    2  C   UNL     1      -6.539   9.878  68.520  1.00  0.00    -0.054 C  
HETATM    3  O   UNL     1      -5.354   9.969  68.249  1.00  0.00    -0.036 OA 
HETATM    4  C   UNL     1      -7.450  11.049  68.580  1.00  0.00    -0.112 A  
HETATM    5  C   UNL     1      -8.804  10.950  68.246  1.00  0.00    -0.140 A  
HETATM    6  C   UNL     1      -9.627  12.082  68.301  1.00  0.00    -0.204 A  
HETATM    7  C   UNL     1      -9.095  13.340  68.621  1.00  0.00     0.026 A  
HETATM    8  C   UNL     1      -7.740  13.434  68.975  1.00  0.00     0.146 A  
HETATM    9  C   UNL     1      -6.920  12.294  68.942  1.00  0.00    -0.098 A  
ENDROOT
BRANCH   7  10
HETATM   10  N   UNL     1      -9.891  14.531  68.586  1.00  0.00    -0.230 NA 
HETATM   11  N   UNL     1      -9.585  15.509  67.686  1.00  0.00    -0.210 NA 
HETATM   12  C   UNL     1     -10.286  16.565  68.119  1.00  0.00    -0.271 A  
HETATM   13  N   UNL     1     -11.130  16.255  69.159  1.00  0.00    -0.318 NA 
HETATM   14  C   UNL     1     -10.931  14.973  69.405  1.00  0.00    -0.266 A  
BRANCH  12  15
HETATM   15  C   UNL     1     -10.220  17.946  67.613  1.00  0.00    -0.369 A  
HETATM   16  C   UNL     1      -9.955  18.978  68.542  1.00  0.00    -0.486 A  
HETATM   17  C   UNL     1      -9.857  20.317  68.153  1.00  0.00    -0.403 A  
HETATM   18  H   UNL     1     -10.719  17.634  64.390  1.00  0.00     0.000 HD 
HETATM   19  C   UNL     1     -10.023  20.659  66.817  1.00  0.00    -0.286 A  
HETATM   20  O   UNL     1     -10.614  17.382  65.300  1.00  0.00    -0.667 OA 
HETATM   21  C   UNL     1     -10.281  19.663  65.876  1.00  0.00    -0.536 A  
HETATM   22  C   UNL     1     -10.376  18.317  66.269  1.00  0.00    -0.405 A  
ENDBRANCH  12  15
BRANCH  14  23
HETATM   23  C   UNL     1     -11.688  14.235  70.428  1.00  0.00    -0.329 A  
HETATM   24  C   UNL     1     -13.343  12.769  72.171  1.00  0.00    -0.593 A  
HETATM   25  C   UNL     1     -12.930  14.054  72.517  1.00  0.00    -0.480 A  
HETATM   26  C   UNL     1     -12.057  12.909  70.136  1.00  0.00    -0.373 A  
HETATM   27  C   UNL     1     -12.076  14.763  71.667  1.00  0.00    -0.350 A  
HETATM   28  C   UNL     1     -12.878  12.181  70.998  1.00  0.00    -0.258 A  
HETATM   29  O   UNL     1     -11.625  15.993  72.055  1.00  0.00    -0.445 OA 
HETATM   30  H   UNL     1     -11.889  16.351  72.895  1.00  0.00     0.000 HD 
ENDBRANCH  14  23
ENDBRANCH   7  10
TORSDOF 3
ENDMDL
MODEL       50
REMARK 921   NORMALIZED FREE ENERGY PREDICTED BY IDOCK:   -6.17 KCAL/MOL
REMARK 922        TOTAL FREE ENERGY PREDICTED BY IDOCK:   -8.49 KCAL/MOL
REMARK 923 INTER-LIGAND FREE ENERGY PREDICTED BY IDOCK:   -7.81 KCAL/MOL
REMARK 924 INTRA-LIGAND FREE ENERGY PREDICTED BY IDOCK:   -0.69 KCAL/MOL
REMARK 927      BINDING AFFINITY PREDICTED BY RF-SCORE:    0.00 PKD
ROOT
HETATM    1  O   UNL     1     -11.679   4.696  73.410  1.00  0.00    -0.283 OA 
HETATM    2  C   UNL     1     -10.891   5.798  73.388  1.00  0.00    -0.260 C  
HETATM    3  O   UNL     1     -10.357   6.247  74.386  1.00  0.00    -0.323 OA 
HETATM    4  C   UNL     1     -10.763   6.421  72.047  1.00  0.00    -0.261 A  
HETATM    5  C   UNL     1     -10.780   5.661  70.874  1.00  0.00    -0.313 A  
HETATM    6  C   UNL     1     -10.639   6.286  69.628  1.00  0.00    -0.323 A  
HETATM    7  C   UNL     1     -10.409   7.667  69.541  1.00  0.00    -0.217 A  
HETATM    8  C   UNL     1     -10.411   8.430  70.718  1.00  0.00    -0.230 A  
HETATM    9  C   UNL     1     -10.575   7.807  71.966  1.00  0.00    -0.279 A  
ENDROOT
BRANCH   7  10
HETATM   10  N   UNL     1     -10.161   8.317  68.288  1.00  0.00    -0.192 NA 
HETATM   11  N   UNL     1     -10.437   9.646  68.162  1.00  0.00    -0.210 NA 
HETATM   12  C   UNL     1     -10.398   9.851  66.839  1.00  0.00    -0.235 A  
HETATM   13  N   UNL     1      -9.966   8.749  66.141  1.00  0.00    -0.249 NA 
HETATM   14  C   UNL     1      -9.756   7.815  67.051  1.00  0.00    -0.197 A  
BRANCH  12  15
HETATM   15  C   UNL     1     -10.769  11.079  66.117  1.00  0.00    -0.257 A  
HETATM   16  C   UNL     1     -10.233  11.273  64.824  1.00  0.00    -0.347 A  
HETATM   17  C   UNL     1     -10.542  12.400  64.056  1.00  0.00    -0.444 A  
HETATM   18  H   UNL     1     -12.811  12.618  68.167  1.00  0.00     0.000 HD 
HETATM   19  C   UNL     1     -11.400  13.365  64.565  1.00  0.00    -0.391 A  
HETATM   20  O   UNL     1     -12.222  11.950  67.837  1.00  0.00    -0.508 OA 
HETATM   21  C   UNL     1     -11.950  13.200  65.836  1.00  0.00    -0.479 A  
HETATM   22  C   UNL     1     -11.640  12.066  66.605  1.00  0.00    -0.319 A  
ENDBRANCH  12  15
BRANCH  14  23
HETATM   23  C   UNL     1      -9.234   6.482  66.712  1.00  0.00    -0.163 A  
HETATM   24  C   UNL     1      -8.027   4.072  65.896  1.00  0.00    -0.094 A  
HETATM   25  C   UNL     1      -9.396   4.262  65.721  1.00  0.00    -0.164 A  
HETATM   26  C   UNL     1      -7.869   6.238  66.946  1.00  0.00    -0.104 A  
HETATM   27  C   UNL     1      -9.998   5.443  66.163  1.00  0.00    -0.132 A  
HETATM   28  C   UNL     1      -7.268   5.045  66.542  1.00  0.00    -0.077 A  
HETATM   29  O   UNL     1     -11.353   5.581  66.046  1.00  0.00    -0.753 OA 
HETATM   30  H   UNL     1     -11.870   4.877  65.674  1.00  0.00     0.000 HD 
ENDBRANCH  14  23
ENDBRANCH   7  10
TORSDOF 3
ENDMDL
MODEL       51
REMARK 921   NORMALIZED FREE ENERGY PREDICTED BY IDOCK:   -6.16 KCAL/MOL
REMARK 922        TOTAL FREE ENERGY PREDICTED BY IDOCK:   -8.48 KCAL/MOL
REMARK 923 INTER-LIGAND FREE ENERGY PREDICTED BY IDOCK:   -7.62 KCAL/MOL
REMARK 924 INTRA-LIGAND FREE ENERGY PREDICTED BY IDOCK:   -0.86 KCAL/MOL
REMARK 927      BINDING AFFINITY PREDICTED BY RF-SCORE:    0.00 PKD
ROOT
HETATM    1  O   UNL     1     -13.034  15.715  63.754  1.00  0.00    -0.403 OA 
HETATM    2  C   UNL     1     -11.815  15.814  64.334  1.00  0.00    -0.148 C  
HETATM    3  O   UNL     1     -11.074  16.765  64.157  1.00  0.00    -1.061 OA 
HETATM    4  C   UNL     1     -11.452  14.649  65.179  1.00  0.00    -0.375 A  
HETATM    5  C   UNL     1     -12.412  13.929  65.897  1.00  0.00    -0.519 A  
HETATM    6  C   UNL     1     -12.026  12.845  66.697  1.00  0.00    -0.436 A  
HETATM    7  C   UNL     1     -10.672  12.509  66.845  1.00  0.00    -0.243 A  
HETATM    8  C   UNL     1      -9.713  13.221  66.109  1.00  0.00    -0.258 A  
HETATM    9  C   UNL     1     -10.101  14.293  65.289  1.00  0.00    -0.378 A  
ENDROOT
BRANCH   7  10
HETATM   10  N   UNL     1     -10.241  11.471  67.734  1.00  0.00    -0.179 NA 
HETATM   11  N   UNL     1     -11.117  10.484  68.077  1.00  0.00    -0.287 NA 
HETATM   12  C   UNL     1     -10.526   9.889  69.122  1.00  0.00    -0.217 A  
HETATM   13  N   UNL     1      -9.256  10.361  69.357  1.00  0.00    -0.190 NA 
HETATM   14  C   UNL     1      -9.056  11.300  68.450  1.00  0.00    -0.170 A  
BRANCH  12  15
HETATM   15  C   UNL     1     -11.094   8.847  69.993  1.00  0.00    -0.180 A  
HETATM   16  C   UNL     1     -11.907   9.260  71.073  1.00  0.00    -0.376 A  
HETATM   17  C   UNL     1     -12.503   8.343  71.943  1.00  0.00    -0.390 A  
HETATM   18  H   UNL     1     -10.038   6.043  68.667  1.00  0.00     0.000 HD 
HETATM   19  C   UNL     1     -12.302   6.982  71.752  1.00  0.00    -0.391 A  
HETATM   20  O   UNL     1     -10.161   6.977  68.785  1.00  0.00    -0.160 OA 
HETATM   21  C   UNL     1     -11.510   6.543  70.692  1.00  0.00    -0.433 A  
HETATM   22  C   UNL     1     -10.913   7.467  69.817  1.00  0.00    -0.200 A  
ENDBRANCH  12  15
BRANCH  14  23
HETATM   23  C   UNL     1      -7.783  12.027  68.329  1.00  0.00    -0.127 A  
HETATM   24  C   UNL     1      -5.500  13.634  67.955  1.00  0.00    -0.116 A  
HETATM   25  C   UNL     1      -5.492  12.302  67.543  1.00  0.00    -0.118 A  
HETATM   26  C   UNL     1      -7.740  13.350  68.804  1.00  0.00    -0.037 A  
HETATM   27  C   UNL     1      -6.613  11.498  67.766  1.00  0.00    -0.068 A  
HETATM   28  C   UNL     1      -6.610  14.149  68.618  1.00  0.00    -0.092 A  
HETATM   29  O   UNL     1      -6.561  10.177  67.419  1.00  0.00    -0.067 OA 
HETATM   30  H   UNL     1      -5.768   9.818  67.038  1.00  0.00     0.000 HD 
ENDBRANCH  14  23
ENDBRANCH   7  10
TORSDOF 3
ENDMDL
MODEL       52
REMARK 921   NORMALIZED FREE ENERGY PREDICTED BY IDOCK:   -6.12 KCAL/MOL
REMARK 922        TOTAL FREE ENERGY PREDICTED BY IDOCK:   -8.44 KCAL/MOL
REMARK 923 INTER-LIGAND FREE ENERGY PREDICTED BY IDOCK:   -7.85 KCAL/MOL
REMARK 924 INTRA-LIGAND FREE ENERGY PREDICTED BY IDOCK:   -0.59 KCAL/MOL
REMARK 927      BINDING AFFINITY PREDICTED BY RF-SCORE:    0.00 PKD
ROOT
HETATM    1  O   UNL     1     -10.217   9.596  65.858  1.00  0.00    -0.259 OA 
HETATM    2  C   UNL     1      -9.280  10.075  66.711  1.00  0.00    -0.148 C  
HETATM    3  O   UNL     1      -8.392   9.381  67.175  1.00  0.00    -0.122 OA 
HETATM    4  C   UNL     1      -9.451  11.510  67.050  1.00  0.00    -0.193 A  
HETATM    5  C   UNL     1      -9.968  12.430  66.133  1.00  0.00    -0.267 A  
HETATM    6  C   UNL     1     -10.098  13.779  66.487  1.00  0.00    -0.286 A  
HETATM    7  C   UNL     1      -9.649  14.240  67.733  1.00  0.00    -0.221 A  
HETATM    8  C   UNL     1      -9.149  13.312  68.659  1.00  0.00     0.025 A  
HETATM    9  C   UNL     1      -9.039  11.955  68.313  1.00  0.00    -0.183 A  
ENDROOT
BRANCH   7  10
HETATM   10  N   UNL     1      -9.676  15.629  68.083  1.00  0.00    -0.204 NA 
HETATM   11  N   UNL     1      -8.869  16.500  67.411  1.00  0.00    -0.189 NA 
HETATM   12  C   UNL     1      -8.901  17.605  68.167  1.00  0.00    -0.269 A  
HETATM   13  N   UNL     1      -9.804  17.519  69.200  1.00  0.00    -0.210 NA 
HETATM   14  C   UNL     1     -10.334  16.313  69.106  1.00  0.00    -0.272 A  
BRANCH  12  15
HETATM   15  C   UNL     1      -8.089  18.821  68.001  1.00  0.00    -0.308 A  
HETATM   16  C   UNL     1      -7.110  19.101  68.982  1.00  0.00    -0.377 A  
HETATM   17  C   UNL     1      -6.281  20.224  68.900  1.00  0.00    -0.365 A  
HETATM   18  H   UNL     1      -9.170  20.118  65.193  1.00  0.00     0.000 HD 
HETATM   19  C   UNL     1      -6.410  21.098  67.830  1.00  0.00    -0.401 A  
HETATM   20  O   UNL     1      -9.099  19.512  65.921  1.00  0.00    -0.406 OA 
HETATM   21  C   UNL     1      -7.363  20.847  66.843  1.00  0.00    -0.272 A  
HETATM   22  C   UNL     1      -8.194  19.716  66.926  1.00  0.00    -0.294 A  
ENDBRANCH  12  15
BRANCH  14  23
HETATM   23  C   UNL     1     -11.394  15.840  70.010  1.00  0.00    -0.354 A  
HETATM   24  C   UNL     1     -13.203  14.862  71.934  1.00  0.00    -0.441 A  
HETATM   25  C   UNL     1     -13.249  14.384  70.626  1.00  0.00    -0.203 A  
HETATM   26  C   UNL     1     -11.417  16.360  71.317  1.00  0.00    -0.261 A  
HETATM   27  C   UNL     1     -12.376  14.901  69.665  1.00  0.00    -0.208 A  
HETATM   28  C   UNL     1     -12.311  15.876  72.272  1.00  0.00    -0.567 A  
HETATM   29  O   UNL     1     -12.483  14.471  68.372  1.00  0.00    -0.592 OA 
HETATM   30  H   UNL     1     -13.148  13.834  68.138  1.00  0.00     0.000 HD 
ENDBRANCH  14  23
ENDBRANCH   7  10
TORSDOF 3
ENDMDL
MODEL       53
REMARK 921   NORMALIZED FREE ENERGY PREDICTED BY IDOCK:   -6.00 KCAL/MOL
REMARK 922        TOTAL FREE ENERGY PREDICTED BY IDOCK:   -8.29 KCAL/MOL
REMARK 923 INTER-LIGAND FREE ENERGY PREDICTED BY IDOCK:   -7.28 KCAL/MOL
REMARK 924 INTRA-LIGAND FREE ENERGY PREDICTED BY IDOCK:   -1.01 KCAL/MOL
REMARK 927      BINDING AFFINITY PREDICTED BY RF-SCORE:    0.00 PKD
ROOT
HETATM    1  O   UNL     1      -7.513   4.888  65.599  1.00  0.00    -0.076 OA 
HETATM    2  C   UNL     1      -8.662   4.572  66.243  1.00  0.00    -0.113 C  
HETATM    3  O   UNL     1      -9.215   3.493  66.116  1.00  0.00    -0.153 OA 
HETATM    4  C   UNL     1      -9.198   5.664  67.093  1.00  0.00    -0.114 A  
HETATM    5  C   UNL     1      -8.359   6.568  67.752  1.00  0.00    -0.119 A  
HETATM    6  C   UNL     1      -8.904   7.575  68.559  1.00  0.00    -0.126 A  
HETATM    7  C   UNL     1     -10.289   7.651  68.774  1.00  0.00    -0.204 A  
HETATM    8  C   UNL     1     -11.130   6.755  68.096  1.00  0.00    -0.229 A  
HETATM    9  C   UNL     1     -10.585   5.759  67.270  1.00  0.00    -0.353 A  
ENDROOT
BRANCH   7  10
HETATM   10  N   UNL     1     -10.865   8.607  69.672  1.00  0.00    -0.201 NA 
HETATM   11  N   UNL     1     -11.328   9.790  69.177  1.00  0.00    -0.061 NA 
HETATM   12  C   UNL     1     -11.495  10.544  70.271  1.00  0.00    -0.333 A  
HETATM   13  N   UNL     1     -11.301   9.844  71.437  1.00  0.00    -0.340 NA 
HETATM   14  C   UNL     1     -10.973   8.620  71.063  1.00  0.00    -0.260 A  
BRANCH  12  15
HETATM   15  C   UNL     1     -11.835  11.976  70.323  1.00  0.00    -0.356 A  
HETATM   16  C   UNL     1     -11.237  12.832  69.371  1.00  0.00    -0.198 A  
HETATM   17  C   UNL     1     -11.512  14.202  69.332  1.00  0.00    -0.337 A  
HETATM   18  H   UNL     1     -13.980  12.192  72.791  1.00  0.00     0.000 HD 
HETATM   19  C   UNL     1     -12.397  14.752  70.248  1.00  0.00    -0.400 A  
HETATM   20  O   UNL     1     -13.373  11.799  72.175  1.00  0.00    -0.497 OA 
HETATM   21  C   UNL     1     -13.008  13.933  71.197  1.00  0.00    -0.388 A  
HETATM   22  C   UNL     1     -12.732  12.556  71.233  1.00  0.00    -0.252 A  
ENDBRANCH  12  15
BRANCH  14  23
HETATM   23  C   UNL     1     -10.728   7.535  72.026  1.00  0.00    -0.264 A  
HETATM   24  C   UNL     1     -10.558   5.453  73.915  1.00  0.00    -0.324 A  
HETATM   25  C   UNL     1      -9.790   6.605  74.074  1.00  0.00    -0.316 A  
HETATM   26  C   UNL     1     -11.436   6.333  71.848  1.00  0.00    -0.360 A  
HETATM   27  C   UNL     1      -9.848   7.619  73.114  1.00  0.00    -0.279 A  
HETATM   28  C   UNL     1     -11.354   5.300  72.784  1.00  0.00    -0.342 A  
HETATM   29  O   UNL     1      -9.035   8.709  73.251  1.00  0.00    -0.288 OA 
HETATM   30  H   UNL     1      -8.439   8.766  73.988  1.00  0.00     0.000 HD 
ENDBRANCH  14  23
ENDBRANCH   7  10
TORSDOF 3
ENDMDL
MODEL       54
REMARK 921   NORMALIZED FREE ENERGY PREDICTED BY IDOCK:   -5.96 KCAL/MOL
REMARK 922        TOTAL FREE ENERGY PREDICTED BY IDOCK:   -8.25 KCAL/MOL
REMARK 923 INTER-LIGAND FREE ENERGY PREDICTED BY IDOCK:   -7.31 KCAL/MOL
REMARK 924 INTRA-LIGAND FREE ENERGY PREDICTED BY IDOCK:   -0.94 KCAL/MOL
REMARK 927      BINDING AFFINITY PREDICTED BY RF-SCORE:    0.00 PKD
ROOT
HETATM    1  O   UNL     1     -11.598  14.175  64.020  1.00  0.00    -0.280 OA 
HETATM    2  C   UNL     1     -12.314  13.763  65.094  1.00  0.00    -0.448 C  
HETATM    3  O   UNL     1     -13.376  14.268  65.413  1.00  0.00    -0.649 OA 
HETATM    4  C   UNL     1     -11.676  12.663  65.858  1.00  0.00    -0.470 A  
HETATM    5  C   UNL     1     -10.895  11.685  65.234  1.00  0.00    -0.340 A  
HETATM    6  C   UNL     1     -10.322  10.653  65.990  1.00  0.00    -0.290 A  
HETATM    7  C   UNL     1     -10.579  10.544  67.365  1.00  0.00    -0.263 A  
HETATM    8  C   UNL     1     -11.347  11.537  67.992  1.00  0.00    -0.368 A  
HETATM    9  C   UNL     1     -11.902  12.584  67.239  1.00  0.00    -0.381 A  
ENDROOT
BRANCH   7  10
HETATM   10  N   UNL     1     -10.090   9.444  68.142  1.00  0.00    -0.173 NA 
HETATM   11  N   UNL     1     -10.673   9.169  69.344  1.00  0.00    -0.221 NA 
HETATM   12  C   UNL     1      -9.809   8.328  69.927  1.00  0.00    -0.186 A  
HETATM   13  N   UNL     1      -8.787   7.948  69.090  1.00  0.00    -0.141 NA 
HETATM   14  C   UNL     1      -9.001   8.592  67.957  1.00  0.00    -0.141 A  
BRANCH  12  15
HETATM   15  C   UNL     1      -9.853   7.821  71.308  1.00  0.00    -0.194 A  
HETATM   16  C   UNL     1      -8.880   8.294  72.217  1.00  0.00    -0.274 A  
HETATM   17  C   UNL     1      -8.854   7.882  73.553  1.00  0.00    -0.333 A  
HETATM   18  H   UNL     1     -12.445   5.815  71.333  1.00  0.00     0.000 HD 
HETATM   19  C   UNL     1      -9.805   6.982  74.015  1.00  0.00    -0.345 A  
HETATM   20  O   UNL     1     -11.798   6.426  70.998  1.00  0.00    -0.343 OA 
HETATM   21  C   UNL     1     -10.781   6.501  73.143  1.00  0.00    -0.297 A  
HETATM   22  C   UNL     1     -10.808   6.918  71.802  1.00  0.00    -0.225 A  
ENDBRANCH  12  15
BRANCH  14  23
HETATM   23  C   UNL     1      -8.147   8.418  66.772  1.00  0.00    -0.098 A  
HETATM   24  C   UNL     1      -6.533   8.384  64.465  1.00  0.00    -0.066 A  
HETATM   25  C   UNL     1      -7.643   7.546  64.553  1.00  0.00    -0.110 A  
HETATM   26  C   UNL     1      -6.979   9.198  66.690  1.00  0.00    -0.081 A  
HETATM   27  C   UNL     1      -8.419   7.538  65.715  1.00  0.00    -0.144 A  
HETATM   28  C   UNL     1      -6.179   9.184  65.547  1.00  0.00    -0.063 A  
HETATM   29  O   UNL     1      -9.462   6.660  65.811  1.00  0.00    -0.387 OA 
HETATM   30  H   UNL     1      -9.646   6.064  65.095  1.00  0.00     0.000 HD 
ENDBRANCH  14  23
ENDBRANCH   7  10
TORSDOF 3
ENDMDL
MODEL       55
REMARK 921   NORMALIZED FREE ENERGY PREDICTED BY IDOCK:   -5.96 KCAL/MOL
REMARK 922        TOTAL FREE ENERGY PREDICTED BY IDOCK:   -8.25 KCAL/MOL
REMARK 923 INTER-LIGAND FREE ENERGY PREDICTED BY IDOCK:   -7.19 KCAL/MOL
REMARK 924 INTRA-LIGAND FREE ENERGY PREDICTED BY IDOCK:   -1.06 KCAL/MOL
REMARK 927      BINDING AFFINITY PREDICTED BY RF-SCORE:    0.00 PKD
ROOT
HETATM    1  O   UNL     1     -10.784   7.130  73.955  1.00  0.00    -0.314 OA 
HETATM    2  C   UNL     1      -9.606   7.248  73.297  1.00  0.00    -0.212 C  
HETATM    3  O   UNL     1      -8.561   6.792  73.726  1.00  0.00    -0.126 OA 
HETATM    4  C   UNL     1      -9.699   8.005  72.023  1.00  0.00    -0.264 A  
HETATM    5  C   UNL     1     -10.844   7.965  71.222  1.00  0.00    -0.263 A  
HETATM    6  C   UNL     1     -10.886   8.681  70.018  1.00  0.00    -0.226 A  
HETATM    7  C   UNL     1      -9.763   9.389  69.566  1.00  0.00    -0.183 A  
HETATM    8  C   UNL     1      -8.622   9.444  70.381  1.00  0.00    -0.266 A  
HETATM    9  C   UNL     1      -8.588   8.745  71.599  1.00  0.00    -0.228 A  
ENDROOT
BRANCH   7  10
HETATM   10  N   UNL     1      -9.743  10.046  68.292  1.00  0.00    -0.139 NA 
HETATM   11  N   UNL     1      -9.809  11.408  68.246  1.00  0.00    -0.194 NA 
HETATM   12  C   UNL     1     -10.082  11.664  66.960  1.00  0.00    -0.209 A  
HETATM   13  N   UNL     1     -10.046  10.540  66.171  1.00  0.00    -0.237 NA 
HETATM   14  C   UNL     1      -9.769   9.542  66.992  1.00  0.00    -0.176 A  
BRANCH  12  15
HETATM   15  C   UNL     1     -10.413  12.969  66.363  1.00  0.00    -0.285 A  
HETATM   16  C   UNL     1      -9.416  13.971  66.373  1.00  0.00    -0.278 A  
HETATM   17  C   UNL     1      -9.632  15.235  65.815  1.00  0.00    -0.359 A  
HETATM   18  H   UNL     1     -13.480  12.590  65.276  1.00  0.00     0.000 HD 
HETATM   19  C   UNL     1     -10.856  15.529  65.230  1.00  0.00    -0.425 A  
HETATM   20  O   UNL     1     -12.651  12.373  65.685  1.00  0.00    -0.575 OA 
HETATM   21  C   UNL     1     -11.858  14.559  65.200  1.00  0.00    -0.374 A  
HETATM   22  C   UNL     1     -11.638  13.289  65.759  1.00  0.00    -0.337 A  
ENDBRANCH  12  15
BRANCH  14  23
HETATM   23  C   UNL     1      -9.591   8.158  66.525  1.00  0.00    -0.303 A  
HETATM   24  C   UNL     1      -9.247   5.429  65.925  1.00  0.00    -0.165 A  
HETATM   25  C   UNL     1      -8.380   6.377  65.386  1.00  0.00    -0.141 A  
HETATM   26  C   UNL     1     -10.498   7.191  66.996  1.00  0.00    -0.392 A  
HETATM   27  C   UNL     1      -8.578   7.734  65.655  1.00  0.00    -0.127 A  
HETATM   28  C   UNL     1     -10.328   5.838  66.701  1.00  0.00    -0.300 A  
HETATM   29  O   UNL     1      -7.760   8.654  65.061  1.00  0.00    -0.094 OA 
HETATM   30  H   UNL     1      -7.073   8.367  64.471  1.00  0.00     0.000 HD 
ENDBRANCH  14  23
ENDBRANCH   7  10
TORSDOF 3
ENDMDL
MODEL       56
REMARK 921   NORMALIZED FREE ENERGY PREDICTED BY IDOCK:   -5.92 KCAL/MOL
REMARK 922        TOTAL FREE ENERGY PREDICTED BY IDOCK:   -8.21 KCAL/MOL
REMARK 923 INTER-LIGAND FREE ENERGY PREDICTED BY IDOCK:   -7.01 KCAL/MOL
REMARK 924 INTRA-LIGAND FREE ENERGY PREDICTED BY IDOCK:   -1.19 KCAL/MOL
REMARK 927      BINDING AFFINITY PREDICTED BY RF-SCORE:    0.00 PKD
ROOT
HETATM    1  O   UNL     1     -12.070   5.989  71.894  1.00  0.00    -0.249 OA 
HETATM    2  C   UNL     1     -11.391   7.110  72.234  1.00  0.00    -0.265 C  
HETATM    3  O   UNL     1     -11.089   7.377  73.384  1.00  0.00    -0.340 OA 
HETATM    4  C   UNL     1     -11.076   7.996  71.085  1.00  0.00    -0.278 A  
HETATM    5  C   UNL     1     -10.812   7.487  69.810  1.00  0.00    -0.234 A  
HETATM    6  C   UNL     1     -10.502   8.356  68.756  1.00  0.00    -0.202 A  
HETATM    7  C   UNL     1     -10.382   9.736  68.975  1.00  0.00    -0.208 A  
HETATM    8  C   UNL     1     -10.666  10.246  70.252  1.00  0.00    -0.310 A  
HETATM    9  C   UNL     1     -10.999   9.378  71.304  1.00  0.00    -0.440 A  
ENDROOT
BRANCH   7  10
HETATM   10  N   UNL     1      -9.968  10.636  67.940  1.00  0.00    -0.163 NA 
HETATM   11  N   UNL     1     -10.618  11.826  67.793  1.00  0.00    -0.195 NA 
HETATM   12  C   UNL     1     -10.215  12.258  66.592  1.00  0.00    -0.216 A  
HETATM   13  N   UNL     1      -9.231  11.470  66.044  1.00  0.00    -0.218 NA 
HETATM   14  C   UNL     1      -9.031  10.498  66.915  1.00  0.00    -0.140 A  
BRANCH  12  15
HETATM   15  C   UNL     1     -10.717  13.427  65.851  1.00  0.00    -0.285 A  
HETATM   16  C   UNL     1      -9.962  14.620  65.907  1.00  0.00    -0.352 A  
HETATM   17  C   UNL     1     -10.351  15.775  65.223  1.00  0.00    -0.387 A  
HETATM   18  H   UNL     1     -13.449  12.334  64.407  1.00  0.00     0.000 HD 
HETATM   19  C   UNL     1     -11.511  15.765  64.460  1.00  0.00    -0.292 A  
HETATM   20  O   UNL     1     -12.661  12.325  64.938  1.00  0.00    -0.575 OA 
HETATM   21  C   UNL     1     -12.276  14.601  64.380  1.00  0.00    -0.473 A  
HETATM   22  C   UNL     1     -11.882  13.440  65.067  1.00  0.00    -0.352 A  
ENDBRANCH  12  15
BRANCH  14  23
HETATM   23  C   UNL     1      -8.009   9.458  66.722  1.00  0.00    -0.108 A  
HETATM   24  C   UNL     1      -5.849   7.690  66.351  1.00  0.00    -0.037 A  
HETATM   25  C   UNL     1      -6.938   7.653  65.483  1.00  0.00    -0.056 A  
HETATM   26  C   UNL     1      -6.933   9.425  67.628  1.00  0.00    -0.081 A  
HETATM   27  C   UNL     1      -8.026   8.505  65.694  1.00  0.00    -0.107 A  
HETATM   28  C   UNL     1      -5.861   8.550  67.445  1.00  0.00    -0.043 A  
HETATM   29  O   UNL     1      -9.115   8.405  64.875  1.00  0.00    -0.407 OA 
HETATM   30  H   UNL     1      -9.127   7.760  64.178  1.00  0.00     0.000 HD 
ENDBRANCH  14  23
ENDBRANCH   7  10
TORSDOF 3
ENDMDL
MODEL       57
REMARK 921   NORMALIZED FREE ENERGY PREDICTED BY IDOCK:   -5.89 KCAL/MOL
REMARK 922        TOTAL FREE ENERGY PREDICTED BY IDOCK:   -8.17 KCAL/MOL
REMARK 923 INTER-LIGAND FREE ENERGY PREDICTED BY IDOCK:   -7.27 KCAL/MOL
REMARK 924 INTRA-LIGAND FREE ENERGY PREDICTED BY IDOCK:   -0.90 KCAL/MOL
REMARK 927      BINDING AFFINITY PREDICTED BY RF-SCORE:    0.00 PKD
ROOT
HETATM    1  O   UNL     1      -6.774  17.144  69.098  1.00  0.00    -0.219 OA 
HETATM    2  C   UNL     1      -7.930  17.022  68.405  1.00  0.00    -0.239 C  
HETATM    3  O   UNL     1      -8.461  17.958  67.833  1.00  0.00    -0.241 OA 
HETATM    4  C   UNL     1      -8.506  15.654  68.428  1.00  0.00    -0.164 A  
HETATM    5  C   UNL     1      -7.698  14.513  68.473  1.00  0.00    -0.129 A  
HETATM    6  C   UNL     1      -8.280  13.239  68.478  1.00  0.00    -0.084 A  
HETATM    7  C   UNL     1      -9.670  13.084  68.366  1.00  0.00    -0.192 A  
HETATM    8  C   UNL     1     -10.479  14.230  68.340  1.00  0.00    -0.249 A  
HETATM    9  C   UNL     1      -9.898  15.509  68.358  1.00  0.00    -0.210 A  
ENDROOT
BRANCH   7  10
HETATM   10  N   UNL     1     -10.284  11.794  68.266  1.00  0.00    -0.199 NA 
HETATM   11  N   UNL     1     -10.341  10.997  69.371  1.00  0.00    -0.159 NA 
HETATM   12  C   UNL     1     -10.669   9.796  68.876  1.00  0.00    -0.217 A  
HETATM   13  N   UNL     1     -10.964   9.834  67.534  1.00  0.00    -0.225 NA 
HETATM   14  C   UNL     1     -10.788  11.092  67.170  1.00  0.00    -0.273 A  
BRANCH  12  15
HETATM   15  C   UNL     1     -10.722   8.517  69.603  1.00  0.00    -0.200 A  
HETATM   16  C   UNL     1     -10.904   7.336  68.849  1.00  0.00    -0.119 A  
HETATM   17  C   UNL     1     -10.950   6.074  69.450  1.00  0.00    -0.455 A  
HETATM   18  H   UNL     1     -10.279   9.368  72.736  1.00  0.00     0.000 HD 
HETATM   19  C   UNL     1     -10.813   5.963  70.827  1.00  0.00    -0.352 A  
HETATM   20  O   UNL     1     -10.376   9.464  71.796  1.00  0.00    -0.260 OA 
HETATM   21  C   UNL     1     -10.627   7.110  71.598  1.00  0.00    -0.229 A  
HETATM   22  C   UNL     1     -10.578   8.377  70.992  1.00  0.00    -0.214 A  
ENDBRANCH  12  15
BRANCH  14  23
HETATM   23  C   UNL     1     -11.051  11.566  65.803  1.00  0.00    -0.272 A  
HETATM   24  C   UNL     1     -11.842  12.385  63.227  1.00  0.00    -0.491 A  
HETATM   25  C   UNL     1     -10.758  11.523  63.383  1.00  0.00    -0.444 A  
HETATM   26  C   UNL     1     -12.094  12.493  65.623  1.00  0.00    -0.464 A  
HETATM   27  C   UNL     1     -10.344  11.151  64.665  1.00  0.00    -0.330 A  
HETATM   28  C   UNL     1     -12.488  12.899  64.347  1.00  0.00    -0.447 A  
HETATM   29  O   UNL     1      -9.237  10.362  64.802  1.00  0.00    -0.192 OA 
HETATM   30  H   UNL     1      -8.758  10.081  64.031  1.00  0.00     0.000 HD 
ENDBRANCH  14  23
ENDBRANCH   7  10
TORSDOF 3
ENDMDL
MODEL       58
REMARK 921   NORMALIZED FREE ENERGY PREDICTED BY IDOCK:   -5.87 KCAL/MOL
REMARK 922        TOTAL FREE ENERGY PREDICTED BY IDOCK:   -8.14 KCAL/MOL
REMARK 923 INTER-LIGAND FREE ENERGY PREDICTED BY IDOCK:   -7.06 KCAL/MOL
REMARK 924 INTRA-LIGAND FREE ENERGY PREDICTED BY IDOCK:   -1.08 KCAL/MOL
REMARK 927      BINDING AFFINITY PREDICTED BY RF-SCORE:    0.00 PKD
ROOT
HETATM    1  O   UNL     1     -13.403  14.145  65.299  1.00  0.00    -0.715 OA 
HETATM    2  C   UNL     1     -12.229  13.586  64.921  1.00  0.00    -0.410 C  
HETATM    3  O   UNL     1     -11.684  13.845  63.862  1.00  0.00    -0.332 OA 
HETATM    4  C   UNL     1     -11.681  12.612  65.898  1.00  0.00    -0.470 A  
HETATM    5  C   UNL     1     -11.870  12.762  67.275  1.00  0.00    -0.414 A  
HETATM    6  C   UNL     1     -11.323  11.829  68.166  1.00  0.00    -0.348 A  
HETATM    7  C   UNL     1     -10.523  10.775  67.700  1.00  0.00    -0.214 A  
HETATM    8  C   UNL     1     -10.352  10.616  66.316  1.00  0.00    -0.296 A  
HETATM    9  C   UNL     1     -10.919  11.538  65.421  1.00  0.00    -0.288 A  
ENDROOT
BRANCH   7  10
HETATM   10  N   UNL     1      -9.869   9.867  68.594  1.00  0.00    -0.154 NA 
HETATM   11  N   UNL     1     -10.617   8.962  69.288  1.00  0.00    -0.226 NA 
HETATM   12  C   UNL     1      -9.773   8.511  70.225  1.00  0.00    -0.171 A  
HETATM   13  N   UNL     1      -8.492   8.979  70.060  1.00  0.00    -0.131 NA 
HETATM   14  C   UNL     1      -8.539   9.771  69.004  1.00  0.00    -0.146 A  
BRANCH  12  15
HETATM   15  C   UNL     1     -10.090   7.621  71.355  1.00  0.00    -0.204 A  
HETATM   16  C   UNL     1      -9.687   8.026  72.647  1.00  0.00    -0.332 A  
HETATM   17  C   UNL     1      -9.959   7.256  73.782  1.00  0.00    -0.368 A  
HETATM   18  H   UNL     1     -11.707   5.129  69.972  1.00  0.00     0.000 HD 
HETATM   19  C   UNL     1     -10.644   6.056  73.651  1.00  0.00    -0.281 A  
HETATM   20  O   UNL     1     -11.235   5.950  70.042  1.00  0.00    -0.364 OA 
HETATM   21  C   UNL     1     -11.060   5.631  72.389  1.00  0.00    -0.324 A  
HETATM   22  C   UNL     1     -10.788   6.408  71.250  1.00  0.00    -0.257 A  
ENDBRANCH  12  15
BRANCH  14  23
HETATM   23  C   UNL     1      -7.346  10.439  68.461  1.00  0.00    -0.086 A  
HETATM   24  C   UNL     1      -5.204  11.980  67.478  1.00  0.00    -0.089 A  
HETATM   25  C   UNL     1      -5.764  10.978  66.687  1.00  0.00    -0.104 A  
HETATM   26  C   UNL     1      -6.715  11.404  69.267  1.00  0.00    -0.113 A  
HETATM   27  C   UNL     1      -6.801  10.190  67.193  1.00  0.00    -0.082 A  
HETATM   28  C   UNL     1      -5.654  12.169  68.781  1.00  0.00    -0.050 A  
HETATM   29  O   UNL     1      -7.290   9.167  66.430  1.00  0.00    -0.090 OA 
HETATM   30  H   UNL     1      -6.920   8.999  65.571  1.00  0.00     0.000 HD 
ENDBRANCH  14  23
ENDBRANCH   7  10
TORSDOF 3
ENDMDL
MODEL       59
REMARK 921   NORMALIZED FREE ENERGY PREDICTED BY IDOCK:   -5.73 KCAL/MOL
REMARK 922        TOTAL FREE ENERGY PREDICTED BY IDOCK:   -7.98 KCAL/MOL
REMARK 923 INTER-LIGAND FREE ENERGY PREDICTED BY IDOCK:   -6.82 KCAL/MOL
REMARK 924 INTRA-LIGAND FREE ENERGY PREDICTED BY IDOCK:   -1.16 KCAL/MOL
REMARK 927      BINDING AFFINITY PREDICTED BY RF-SCORE:    0.00 PKD
ROOT
HETATM    1  O   UNL     1     -12.301  14.106  63.481  1.00  0.00    -0.738 OA 
HETATM    2  C   UNL     1     -12.591  13.642  64.720  1.00  0.00    -0.295 C  
HETATM    3  O   UNL     1     -13.500  14.089  65.397  1.00  0.00    -0.679 OA 
HETATM    4  C   UNL     1     -11.685  12.564  65.188  1.00  0.00    -0.422 A  
HETATM    5  C   UNL     1     -11.123  11.636  64.306  1.00  0.00    -0.406 A  
HETATM    6  C   UNL     1     -10.285  10.623  64.790  1.00  0.00    -0.401 A  
HETATM    7  C   UNL     1     -10.053  10.480  66.166  1.00  0.00    -0.246 A  
HETATM    8  C   UNL     1     -10.602  11.424  67.048  1.00  0.00    -0.286 A  
HETATM    9  C   UNL     1     -11.424  12.454  66.561  1.00  0.00    -0.427 A  
ENDROOT
BRANCH   7  10
HETATM   10  N   UNL     1      -9.284   9.394  66.697  1.00  0.00    -0.147 NA 
HETATM   11  N   UNL     1      -9.670   8.113  66.433  1.00  0.00    -0.226 NA 
HETATM   12  C   UNL     1      -8.960   7.385  67.303  1.00  0.00    -0.124 A  
HETATM   13  N   UNL     1      -8.039   8.132  67.999  1.00  0.00    -0.127 NA 
HETATM   14  C   UNL     1      -8.197   9.372  67.572  1.00  0.00    -0.117 A  
BRANCH  12  15
HETATM   15  C   UNL     1      -9.086   5.942  67.569  1.00  0.00    -0.106 A  
HETATM   16  C   UNL     1      -8.775   5.047  66.521  1.00  0.00    -0.109 A  
HETATM   17  C   UNL     1      -8.849   3.661  66.685  1.00  0.00    -0.134 A  
HETATM   18  H   UNL     1     -10.027   5.794  70.705  1.00  0.00     0.000 HD 
HETATM   19  C   UNL     1      -9.238   3.133  67.908  1.00  0.00    -0.243 A  
HETATM   20  O   UNL     1      -9.768   6.173  69.873  1.00  0.00    -0.159 OA 
HETATM   21  C   UNL     1      -9.547   3.990  68.965  1.00  0.00    -0.223 A  
HETATM   22  C   UNL     1      -9.469   5.383  68.798  1.00  0.00    -0.130 A  
ENDBRANCH  12  15
BRANCH  14  23
HETATM   23  C   UNL     1      -7.357  10.484  68.041  1.00  0.00    -0.089 A  
HETATM   24  C   UNL     1      -5.518  12.480  68.795  1.00  0.00    -0.058 A  
HETATM   25  C   UNL     1      -6.281  11.832  69.764  1.00  0.00    -0.138 A  
HETATM   26  C   UNL     1      -6.630  11.205  67.076  1.00  0.00    -0.108 A  
HETATM   27  C   UNL     1      -7.220  10.870  69.382  1.00  0.00    -0.126 A  
HETATM   28  C   UNL     1      -5.718  12.194  67.448  1.00  0.00    -0.135 A  
HETATM   29  O   UNL     1      -8.008  10.295  70.340  1.00  0.00    -0.423 OA 
HETATM   30  H   UNL     1      -7.916  10.557  71.249  1.00  0.00     0.000 HD 
ENDBRANCH  14  23
ENDBRANCH   7  10
TORSDOF 3
ENDMDL
MODEL       60
REMARK 921   NORMALIZED FREE ENERGY PREDICTED BY IDOCK:   -5.71 KCAL/MOL
REMARK 922        TOTAL FREE ENERGY PREDICTED BY IDOCK:   -7.95 KCAL/MOL
REMARK 923 INTER-LIGAND FREE ENERGY PREDICTED BY IDOCK:   -6.91 KCAL/MOL
REMARK 924 INTRA-LIGAND FREE ENERGY PREDICTED BY IDOCK:   -1.04 KCAL/MOL
REMARK 927      BINDING AFFINITY PREDICTED BY RF-SCORE:    0.00 PKD
ROOT
HETATM    1  O   UNL     1     -11.496  13.699  63.989  1.00  0.00    -0.360 OA 
HETATM    2  C   UNL     1     -12.191  13.340  65.094  1.00  0.00    -0.443 C  
HETATM    3  O   UNL     1     -13.244  13.864  65.411  1.00  0.00    -0.750 OA 
HETATM    4  C   UNL     1     -11.542  12.273  65.896  1.00  0.00    -0.450 A  
HETATM    5  C   UNL     1     -10.778  11.263  65.302  1.00  0.00    -0.302 A  
HETATM    6  C   UNL     1     -10.194  10.265  66.093  1.00  0.00    -0.285 A  
HETATM    7  C   UNL     1     -10.423  10.220  67.476  1.00  0.00    -0.244 A  
HETATM    8  C   UNL     1     -11.175  11.245  68.072  1.00  0.00    -0.351 A  
HETATM    9  C   UNL     1     -11.741  12.259  67.283  1.00  0.00    -0.394 A  
ENDROOT
BRANCH   7  10
HETATM   10  N   UNL     1      -9.924   9.155  68.294  1.00  0.00    -0.168 NA 
HETATM   11  N   UNL     1     -10.682   8.703  69.334  1.00  0.00    -0.198 NA 
HETATM   12  C   UNL     1      -9.824   7.966  70.050  1.00  0.00    -0.181 A  
HETATM   13  N   UNL     1      -8.606   7.813  69.433  1.00  0.00    -0.134 NA 
HETATM   14  C   UNL     1      -8.692   8.499  68.307  1.00  0.00    -0.143 A  
BRANCH  12  15
HETATM   15  C   UNL     1     -10.059   7.356  71.370  1.00  0.00    -0.196 A  
HETATM   16  C   UNL     1     -10.964   6.273  71.444  1.00  0.00    -0.327 A  
HETATM   17  C   UNL     1     -11.238   5.620  72.650  1.00  0.00    -0.350 A  
HETATM   18  H   UNL     1      -8.103   9.045  73.384  1.00  0.00     0.000 HD 
HETATM   19  C   UNL     1     -10.611   6.036  73.816  1.00  0.00    -0.265 A  
HETATM   20  O   UNL     1      -8.527   8.777  72.577  1.00  0.00    -0.403 OA 
HETATM   21  C   UNL     1      -9.709   7.099  73.774  1.00  0.00    -0.331 A  
HETATM   22  C   UNL     1      -9.432   7.753  72.561  1.00  0.00    -0.181 A  
ENDBRANCH  12  15
BRANCH  14  23
HETATM   23  C   UNL     1      -7.600   8.549  67.323  1.00  0.00    -0.097 A  
HETATM   24  C   UNL     1      -5.404   8.391  65.567  1.00  0.00    -0.035 A  
HETATM   25  C   UNL     1      -5.639   9.561  66.289  1.00  0.00    -0.052 A  
HETATM   26  C   UNL     1      -7.386   7.409  66.528  1.00  0.00    -0.084 A  
HETATM   27  C   UNL     1      -6.752   9.648  67.129  1.00  0.00    -0.075 A  
HETATM   28  C   UNL     1      -6.298   7.328  65.658  1.00  0.00    -0.041 A  
HETATM   29  O   UNL     1      -7.004  10.826  67.775  1.00  0.00    -0.075 OA 
HETATM   30  H   UNL     1      -6.429  11.571  67.644  1.00  0.00     0.000 HD 
ENDBRANCH  14  23
ENDBRANCH   7  10
TORSDOF 3
ENDMDL
MODEL       61
REMARK 921   NORMALIZED FREE ENERGY PREDICTED BY IDOCK:   -5.70 KCAL/MOL
REMARK 922        TOTAL FREE ENERGY PREDICTED BY IDOCK:   -7.95 KCAL/MOL
REMARK 923 INTER-LIGAND FREE ENERGY PREDICTED BY IDOCK:   -6.70 KCAL/MOL
REMARK 924 INTRA-LIGAND FREE ENERGY PREDICTED BY IDOCK:   -1.25 KCAL/MOL
REMARK 927      BINDING AFFINITY PREDICTED BY RF-SCORE:    0.00 PKD
ROOT
HETATM    1  O   UNL     1     -12.339  14.129  63.651  1.00  0.00    -0.741 OA 
HETATM    2  C   UNL     1     -12.685  13.583  64.841  1.00  0.00    -0.287 C  
HETATM    3  O   UNL     1     -13.659  13.947  65.477  1.00  0.00    -0.579 OA 
HETATM    4  C   UNL     1     -11.758  12.524  65.312  1.00  0.00    -0.430 A  
HETATM    5  C   UNL     1     -11.092  11.675  64.422  1.00  0.00    -0.382 A  
HETATM    6  C   UNL     1     -10.237  10.677  64.908  1.00  0.00    -0.395 A  
HETATM    7  C   UNL     1     -10.089  10.467  66.287  1.00  0.00    -0.232 A  
HETATM    8  C   UNL     1     -10.743  11.333  67.178  1.00  0.00    -0.297 A  
HETATM    9  C   UNL     1     -11.583  12.348  66.691  1.00  0.00    -0.447 A  
ENDROOT
BRANCH   7  10
HETATM   10  N   UNL     1      -9.302   9.391  66.811  1.00  0.00    -0.151 NA 
HETATM   11  N   UNL     1      -9.747   8.110  66.666  1.00  0.00    -0.230 NA 
HETATM   12  C   UNL     1      -8.976   7.413  67.510  1.00  0.00    -0.126 A  
HETATM   13  N   UNL     1      -7.973   8.169  68.066  1.00  0.00    -0.125 NA 
HETATM   14  C   UNL     1      -8.137   9.386  67.578  1.00  0.00    -0.110 A  
BRANCH  12  15
HETATM   15  C   UNL     1      -9.115   5.994  67.878  1.00  0.00    -0.117 A  
HETATM   16  C   UNL     1      -9.520   5.691  69.198  1.00  0.00    -0.161 A  
HETATM   17  C   UNL     1      -9.695   4.374  69.634  1.00  0.00    -0.289 A  
HETATM   18  H   UNL     1      -8.386   4.384  65.119  1.00  0.00     0.000 HD 
HETATM   19  C   UNL     1      -9.470   3.323  68.756  1.00  0.00    -0.198 A  
HETATM   20  O   UNL     1      -8.530   5.115  65.708  1.00  0.00    -0.116 OA 
HETATM   21  C   UNL     1      -9.075   3.589  67.445  1.00  0.00    -0.193 A  
HETATM   22  C   UNL     1      -8.902   4.914  67.008  1.00  0.00    -0.106 A  
ENDBRANCH  12  15
BRANCH  14  23
HETATM   23  C   UNL     1      -7.225  10.496  67.893  1.00  0.00    -0.084 A  
HETATM   24  C   UNL     1      -5.701  12.734  68.670  1.00  0.00    -0.067 A  
HETATM   25  C   UNL     1      -5.868  12.437  67.318  1.00  0.00    -0.125 A  
HETATM   26  C   UNL     1      -6.979  10.773  69.250  1.00  0.00    -0.102 A  
HETATM   27  C   UNL     1      -6.592  11.304  66.938  1.00  0.00    -0.130 A  
HETATM   28  C   UNL     1      -6.226  11.882  69.637  1.00  0.00    -0.129 A  
HETATM   29  O   UNL     1      -6.686  10.991  65.611  1.00  0.00    -0.352 OA 
HETATM   30  H   UNL     1      -6.257  11.538  64.964  1.00  0.00     0.000 HD 
ENDBRANCH  14  23
ENDBRANCH   7  10
TORSDOF 3
ENDMDL
MODEL       62
REMARK 921   NORMALIZED FREE ENERGY PREDICTED BY IDOCK:   -5.70 KCAL/MOL
REMARK 922        TOTAL FREE ENERGY PREDICTED BY IDOCK:   -7.94 KCAL/MOL
REMARK 923 INTER-LIGAND FREE ENERGY PREDICTED BY IDOCK:   -7.17 KCAL/MOL
REMARK 924 INTRA-LIGAND FREE ENERGY PREDICTED BY IDOCK:   -0.77 KCAL/MOL
REMARK 927      BINDING AFFINITY PREDICTED BY RF-SCORE:    0.00 PKD
ROOT
HETATM    1  O   UNL     1      -8.354  20.354  66.778  1.00  0.00    -0.282 OA 
HETATM    2  C   UNL     1      -9.535  19.768  66.467  1.00  0.00    -0.403 C  
HETATM    3  O   UNL     1     -10.404  20.332  65.826  1.00  0.00    -0.384 OA 
HETATM    4  C   UNL     1      -9.684  18.391  67.000  1.00  0.00    -0.316 A  
HETATM    5  C   UNL     1      -8.591  17.528  67.134  1.00  0.00    -0.238 A  
HETATM    6  C   UNL     1      -8.777  16.230  67.627  1.00  0.00    -0.188 A  
HETATM    7  C   UNL     1     -10.061  15.752  67.925  1.00  0.00    -0.230 A  
HETATM    8  C   UNL     1     -11.153  16.625  67.807  1.00  0.00    -0.157 A  
HETATM    9  C   UNL     1     -10.965  17.935  67.335  1.00  0.00    -0.089 A  
ENDROOT
BRANCH   7  10
HETATM   10  N   UNL     1     -10.291  14.398  68.332  1.00  0.00    -0.238 NA 
HETATM   11  N   UNL     1      -9.707  13.384  67.632  1.00  0.00    -0.217 NA 
HETATM   12  C   UNL     1     -10.357  12.293  68.057  1.00  0.00    -0.214 A  
HETATM   13  N   UNL     1     -11.218  12.555  69.096  1.00  0.00    -0.253 NA 
HETATM   14  C   UNL     1     -11.126  13.856  69.310  1.00  0.00    -0.218 A  
BRANCH  12  15
HETATM   15  C   UNL     1     -10.243  10.925  67.526  1.00  0.00    -0.224 A  
HETATM   16  C   UNL     1      -9.853  10.770  66.176  1.00  0.00    -0.269 A  
HETATM   17  C   UNL     1      -9.702   9.510  65.590  1.00  0.00    -0.361 A  
HETATM   18  H   UNL     1     -10.977   9.017  70.088  1.00  0.00     0.000 HD 
HETATM   19  C   UNL     1      -9.937   8.368  66.343  1.00  0.00    -0.291 A  
HETATM   20  O   UNL     1     -10.825   9.810  69.586  1.00  0.00    -0.230 OA 
HETATM   21  C   UNL     1     -10.318   8.487  67.680  1.00  0.00    -0.317 A  
HETATM   22  C   UNL     1     -10.467   9.754  68.268  1.00  0.00    -0.216 A  
ENDBRANCH  12  15
BRANCH  14  23
HETATM   23  C   UNL     1     -11.863  14.536  70.386  1.00  0.00    -0.378 A  
HETATM   24  C   UNL     1     -13.447  15.957  72.230  1.00  0.00    -0.396 A  
HETATM   25  C   UNL     1     -12.060  16.092  72.252  1.00  0.00    -0.617 A  
HETATM   26  C   UNL     1     -13.258  14.360  70.434  1.00  0.00     0.022 A  
HETATM   27  C   UNL     1     -11.275  15.354  71.361  1.00  0.00    -0.342 A  
HETATM   28  C   UNL     1     -14.045  15.064  71.346  1.00  0.00    -0.576 A  
HETATM   29  O   UNL     1      -9.914  15.445  71.444  1.00  0.00     0.448 OA 
HETATM   30  H   UNL     1      -9.516  16.000  72.104  1.00  0.00     0.000 HD 
ENDBRANCH  14  23
ENDBRANCH   7  10
TORSDOF 3
ENDMDL
MODEL       63
REMARK 921   NORMALIZED FREE ENERGY PREDICTED BY IDOCK:   -5.66 KCAL/MOL
REMARK 922        TOTAL FREE ENERGY PREDICTED BY IDOCK:   -7.89 KCAL/MOL
REMARK 923 INTER-LIGAND FREE ENERGY PREDICTED BY IDOCK:   -7.62 KCAL/MOL
REMARK 924 INTRA-LIGAND FREE ENERGY PREDICTED BY IDOCK:   -0.27 KCAL/MOL
REMARK 927      BINDING AFFINITY PREDICTED BY RF-SCORE:    0.00 PKD
ROOT
HETATM    1  O   UNL     1      -8.425  11.483  62.942  1.00  0.00     0.044 OA 
HETATM    2  C   UNL     1      -9.720  11.177  63.191  1.00  0.00    -0.376 C  
HETATM    3  O   UNL     1     -10.479  10.763  62.332  1.00  0.00     0.394 OA 
HETATM    4  C   UNL     1     -10.138  11.418  64.595  1.00  0.00    -0.330 A  
HETATM    5  C   UNL     1      -9.256  11.254  65.667  1.00  0.00    -0.231 A  
HETATM    6  C   UNL     1      -9.694  11.476  66.979  1.00  0.00    -0.202 A  
HETATM    7  C   UNL     1     -11.034  11.797  67.244  1.00  0.00    -0.267 A  
HETATM    8  C   UNL     1     -11.913  11.979  66.165  1.00  0.00    -0.105 A  
HETATM    9  C   UNL     1     -11.468  11.779  64.847  1.00  0.00    -0.269 A  
ENDROOT
BRANCH   7  10
HETATM   10  N   UNL     1     -11.533  11.930  68.580  1.00  0.00    -0.267 NA 
HETATM   11  N   UNL     1     -11.989  13.144  69.002  1.00  0.00    -0.308 NA 
HETATM   12  C   UNL     1     -12.074  13.002  70.331  1.00  0.00    -0.314 A  
HETATM   13  N   UNL     1     -11.835  11.715  70.748  1.00  0.00    -0.169 NA 
HETATM   14  C   UNL     1     -11.564  11.033  69.649  1.00  0.00    -0.318 A  
BRANCH  12  15
HETATM   15  C   UNL     1     -12.370  14.051  71.321  1.00  0.00    -0.436 A  
HETATM   16  C   UNL     1     -11.605  15.239  71.274  1.00  0.00    -0.430 A  
HETATM   17  C   UNL     1     -11.825  16.296  72.162  1.00  0.00    -0.585 A  
HETATM   18  H   UNL     1     -14.857  12.818  73.062  1.00  0.00     0.000 HD 
HETATM   19  C   UNL     1     -12.821  16.191  73.124  1.00  0.00    -0.559 A  
HETATM   20  O   UNL     1     -14.176  12.870  72.402  1.00  0.00    -0.442 OA 
HETATM   21  C   UNL     1     -13.596  15.034  73.193  1.00  0.00    -0.307 A  
HETATM   22  C   UNL     1     -13.375  13.973  72.297  1.00  0.00    -0.478 A  
ENDBRANCH  12  15
BRANCH  14  23
HETATM   23  C   UNL     1     -11.296   9.587  69.659  1.00  0.00    -0.069 A  
HETATM   24  C   UNL     1     -10.938   6.804  69.418  1.00  0.00    -0.321 A  
HETATM   25  C   UNL     1     -11.474   7.341  70.588  1.00  0.00    -0.322 A  
HETATM   26  C   UNL     1     -10.689   9.028  68.520  1.00  0.00    -0.140 A  
HETATM   27  C   UNL     1     -11.613   8.725  70.718  1.00  0.00    -0.251 A  
HETATM   28  C   UNL     1     -10.512   7.649  68.398  1.00  0.00    -0.208 A  
HETATM   29  O   UNL     1     -12.075   9.237  71.899  1.00  0.00    -0.359 OA 
HETATM   30  H   UNL     1     -12.290   8.653  72.616  1.00  0.00     0.000 HD 
ENDBRANCH  14  23
ENDBRANCH   7  10
TORSDOF 3
ENDMDL
MODEL       64
REMARK 921   NORMALIZED FREE ENERGY PREDICTED BY IDOCK:   -5.63 KCAL/MOL
REMARK 922        TOTAL FREE ENERGY PREDICTED BY IDOCK:   -7.86 KCAL/MOL
REMARK 923 INTER-LIGAND FREE ENERGY PREDICTED BY IDOCK:   -7.22 KCAL/MOL
REMARK 924 INTRA-LIGAND FREE ENERGY PREDICTED BY IDOCK:   -0.64 KCAL/MOL
REMARK 927      BINDING AFFINITY PREDICTED BY RF-SCORE:    0.00 PKD
ROOT
HETATM    1  O   UNL     1      -7.478  18.137  65.471  1.00  0.00    -0.540 OA 
HETATM    2  C   UNL     1      -7.041  17.544  66.607  1.00  0.00    -0.233 C  
HETATM    3  O   UNL     1      -6.289  18.094  67.393  1.00  0.00    -0.169 OA 
HETATM    4  C   UNL     1      -7.538  16.157  66.793  1.00  0.00    -0.268 A  
HETATM    5  C   UNL     1      -8.799  15.757  66.343  1.00  0.00    -0.371 A  
HETATM    6  C   UNL     1      -9.237  14.443  66.553  1.00  0.00    -0.269 A  
HETATM    7  C   UNL     1      -8.452  13.532  67.275  1.00  0.00    -0.193 A  
HETATM    8  C   UNL     1      -7.179  13.930  67.710  1.00  0.00    -0.173 A  
HETATM    9  C   UNL     1      -6.729  15.241  67.480  1.00  0.00    -0.197 A  
ENDROOT
BRANCH   7  10
HETATM   10  N   UNL     1      -8.917  12.214  67.592  1.00  0.00    -0.171 NA 
HETATM   11  N   UNL     1      -8.389  11.563  68.668  1.00  0.00    -0.149 NA 
HETATM   12  C   UNL     1      -8.788  10.297  68.495  1.00  0.00    -0.127 A  
HETATM   13  N   UNL     1      -9.662  10.151  67.445  1.00  0.00    -0.157 NA 
HETATM   14  C   UNL     1      -9.794  11.358  66.925  1.00  0.00    -0.193 A  
BRANCH  12  15
HETATM   15  C   UNL     1      -8.382   9.120  69.281  1.00  0.00    -0.123 A  
HETATM   16  C   UNL     1      -8.355   9.242  70.689  1.00  0.00    -0.245 A  
HETATM   17  C   UNL     1      -7.999   8.174  71.518  1.00  0.00    -0.135 A  
HETATM   18  H   UNL     1      -7.830   6.811  67.022  1.00  0.00     0.000 HD 
HETATM   19  C   UNL     1      -7.658   6.951  70.956  1.00  0.00    -0.087 A  
HETATM   20  O   UNL     1      -8.060   7.657  67.388  1.00  0.00    -0.116 OA 
HETATM   21  C   UNL     1      -7.680   6.797  69.570  1.00  0.00    -0.104 A  
HETATM   22  C   UNL     1      -8.041   7.871  68.738  1.00  0.00    -0.126 A  
ENDBRANCH  12  15
BRANCH  14  23
HETATM   23  C   UNL     1     -10.694  11.641  65.796  1.00  0.00    -0.331 A  
HETATM   24  C   UNL     1     -12.177  12.306  63.497  1.00  0.00    -0.669 A  
HETATM   25  C   UNL     1     -12.617  12.716  64.755  1.00  0.00    -0.530 A  
HETATM   26  C   UNL     1     -10.312  11.176  64.525  1.00  0.00    -0.400 A  
HETATM   27  C   UNL     1     -11.899  12.350  65.896  1.00  0.00    -0.405 A  
HETATM   28  C   UNL     1     -11.045  11.505  63.384  1.00  0.00    -0.370 A  
HETATM   29  O   UNL     1     -12.383  12.702  67.125  1.00  0.00    -0.370 OA 
HETATM   30  H   UNL     1     -13.199  13.182  67.193  1.00  0.00     0.000 HD 
ENDBRANCH  14  23
ENDBRANCH   7  10
TORSDOF 3
ENDMDL
MODEL       65
REMARK 921   NORMALIZED FREE ENERGY PREDICTED BY IDOCK:   -5.61 KCAL/MOL
REMARK 922        TOTAL FREE ENERGY PREDICTED BY IDOCK:   -7.84 KCAL/MOL
REMARK 923 INTER-LIGAND FREE ENERGY PREDICTED BY IDOCK:   -6.89 KCAL/MOL
REMARK 924 INTRA-LIGAND FREE ENERGY PREDICTED BY IDOCK:   -0.95 KCAL/MOL
REMARK 927      BINDING AFFINITY PREDICTED BY RF-SCORE:    0.00 PKD
ROOT
HETATM    1  O   UNL     1     -12.432  13.687  66.288  1.00  0.00    -0.422 OA 
HETATM    2  C   UNL     1     -11.283  13.224  65.741  1.00  0.00    -0.294 C  
HETATM    3  O   UNL     1     -10.599  13.887  64.981  1.00  0.00    -0.354 OA 
HETATM    4  C   UNL     1     -10.949  11.831  66.128  1.00  0.00    -0.355 A  
HETATM    5  C   UNL     1     -11.277  11.313  67.384  1.00  0.00    -0.370 A  
HETATM    6  C   UNL     1     -10.930   9.997  67.716  1.00  0.00    -0.310 A  
HETATM    7  C   UNL     1     -10.189   9.205  66.827  1.00  0.00    -0.261 A  
HETATM    8  C   UNL     1      -9.877   9.720  65.559  1.00  0.00    -0.378 A  
HETATM    9  C   UNL     1     -10.246  11.031  65.217  1.00  0.00    -0.344 A  
ENDROOT
BRANCH   7  10
HETATM   10  N   UNL     1      -9.733   7.893  67.179  1.00  0.00    -0.174 NA 
HETATM   11  N   UNL     1      -9.254   7.071  66.202  1.00  0.00    -0.123 NA 
HETATM   12  C   UNL     1      -9.219   5.869  66.792  1.00  0.00    -0.133 A  
HETATM   13  N   UNL     1      -9.513   5.924  68.134  1.00  0.00    -0.115 NA 
HETATM   14  C   UNL     1      -9.768   7.196  68.387  1.00  0.00    -0.142 A  
BRANCH  12  15
HETATM   15  C   UNL     1      -8.925   4.574  66.158  1.00  0.00    -0.120 A  
HETATM   16  C   UNL     1      -7.699   3.946  66.477  1.00  0.00    -0.089 A  
HETATM   17  C   UNL     1      -7.340   2.707  65.937  1.00  0.00    -0.067 A  
HETATM   18  H   UNL     1     -11.577   3.963  64.333  1.00  0.00     0.000 HD 
HETATM   19  C   UNL     1      -8.203   2.063  65.061  1.00  0.00    -0.081 A  
HETATM   20  O   UNL     1     -10.997   4.421  64.930  1.00  0.00    -0.230 OA 
HETATM   21  C   UNL     1      -9.422   2.654  64.731  1.00  0.00    -0.116 A  
HETATM   22  C   UNL     1      -9.782   3.898  65.276  1.00  0.00    -0.187 A  
ENDBRANCH  12  15
BRANCH  14  23
HETATM   23  C   UNL     1     -10.082   7.687  69.737  1.00  0.00    -0.196 A  
HETATM   24  C   UNL     1     -10.412   8.522  72.407  1.00  0.00    -0.367 A  
HETATM   25  C   UNL     1     -11.384   7.730  71.797  1.00  0.00    -0.302 A  
HETATM   26  C   UNL     1      -9.153   8.547  70.350  1.00  0.00    -0.164 A  
HETATM   27  C   UNL     1     -11.235   7.351  70.460  1.00  0.00    -0.274 A  
HETATM   28  C   UNL     1      -9.314   8.961  71.673  1.00  0.00    -0.328 A  
HETATM   29  O   UNL     1     -12.231   6.635  69.859  1.00  0.00    -0.598 OA 
HETATM   30  H   UNL     1     -13.013   6.407  70.349  1.00  0.00     0.000 HD 
ENDBRANCH  14  23
ENDBRANCH   7  10
TORSDOF 3
ENDMDL
MODEL       66
REMARK 921   NORMALIZED FREE ENERGY PREDICTED BY IDOCK:   -5.61 KCAL/MOL
REMARK 922        TOTAL FREE ENERGY PREDICTED BY IDOCK:   -7.84 KCAL/MOL
REMARK 923 INTER-LIGAND FREE ENERGY PREDICTED BY IDOCK:   -6.89 KCAL/MOL
REMARK 924 INTRA-LIGAND FREE ENERGY PREDICTED BY IDOCK:   -0.95 KCAL/MOL
REMARK 927      BINDING AFFINITY PREDICTED BY RF-SCORE:    0.00 PKD
ROOT
HETATM    1  O   UNL     1     -14.402  16.111  73.001  1.00  0.00    -0.256 OA 
HETATM    2  C   UNL     1     -13.096  15.766  73.097  1.00  0.00    -0.564 C  
HETATM    3  O   UNL     1     -12.446  15.917  74.116  1.00  0.00    -0.551 OA 
HETATM    4  C   UNL     1     -12.524  15.214  71.843  1.00  0.00    -0.419 A  
HETATM    5  C   UNL     1     -13.290  14.459  70.951  1.00  0.00    -0.294 A  
HETATM    6  C   UNL     1     -12.708  13.942  69.786  1.00  0.00     0.055 A  
HETATM    7  C   UNL     1     -11.340  14.113  69.531  1.00  0.00    -0.259 A  
HETATM    8  C   UNL     1     -10.577  14.888  70.419  1.00  0.00     0.012 A  
HETATM    9  C   UNL     1     -11.165  15.425  71.575  1.00  0.00    -0.401 A  
ENDROOT
BRANCH   7  10
HETATM   10  N   UNL     1     -10.697  13.511  68.401  1.00  0.00    -0.252 NA 
HETATM   11  N   UNL     1     -10.620  12.151  68.326  1.00  0.00    -0.210 NA 
HETATM   12  C   UNL     1      -9.720  11.941  67.358  1.00  0.00    -0.184 A  
HETATM   13  N   UNL     1      -9.338  13.098  66.722  1.00  0.00    -0.241 NA 
HETATM   14  C   UNL     1      -9.998  14.068  67.329  1.00  0.00    -0.242 A  
BRANCH  12  15
HETATM   15  C   UNL     1      -9.131  10.653  66.954  1.00  0.00    -0.168 A  
HETATM   16  C   UNL     1      -8.036  10.164  67.701  1.00  0.00    -0.102 A  
HETATM   17  C   UNL     1      -7.423   8.943  67.403  1.00  0.00    -0.085 A  
HETATM   18  H   UNL     1     -10.972   9.703  64.415  1.00  0.00     0.000 HD 
HETATM   19  C   UNL     1      -7.893   8.178  66.344  1.00  0.00    -0.093 A  
HETATM   20  O   UNL     1     -10.660  10.242  65.132  1.00  0.00    -0.136 OA 
HETATM   21  C   UNL     1      -8.976   8.631  65.591  1.00  0.00    -0.231 A  
HETATM   22  C   UNL     1      -9.592   9.857  65.894  1.00  0.00    -0.239 A  
ENDBRANCH  12  15
BRANCH  14  23
HETATM   23  C   UNL     1      -9.904  15.474  66.910  1.00  0.00    -0.245 A  
HETATM   24  C   UNL     1      -9.879  18.235  66.356  1.00  0.00    -0.358 A  
HETATM   25  C   UNL     1     -10.340  17.335  65.397  1.00  0.00     0.006 A  
HETATM   26  C   UNL     1      -9.374  16.396  67.831  1.00  0.00    -0.214 A  
HETATM   27  C   UNL     1     -10.314  15.963  65.661  1.00  0.00    -0.390 A  
HETATM   28  C   UNL     1      -9.362  17.764  67.559  1.00  0.00    -0.245 A  
HETATM   29  O   UNL     1     -10.704  15.092  64.683  1.00  0.00    -0.581 OA 
HETATM   30  H   UNL     1     -10.982  15.423  63.837  1.00  0.00     0.000 HD 
ENDBRANCH  14  23
ENDBRANCH   7  10
TORSDOF 3
ENDMDL
MODEL       67
REMARK 921   NORMALIZED FREE ENERGY PREDICTED BY IDOCK:   -5.60 KCAL/MOL
REMARK 922        TOTAL FREE ENERGY PREDICTED BY IDOCK:   -7.82 KCAL/MOL
REMARK 923 INTER-LIGAND FREE ENERGY PREDICTED BY IDOCK:   -6.62 KCAL/MOL
REMARK 924 INTRA-LIGAND FREE ENERGY PREDICTED BY IDOCK:   -1.20 KCAL/MOL
REMARK 927      BINDING AFFINITY PREDICTED BY RF-SCORE:    0.00 PKD
ROOT
HETATM    1  O   UNL     1      -6.579  19.857  67.327  1.00  0.00    -0.200 OA 
HETATM    2  C   UNL     1      -6.987  19.186  68.430  1.00  0.00    -0.270 C  
HETATM    3  O   UNL     1      -6.975  19.678  69.545  1.00  0.00    -0.347 OA 
HETATM    4  C   UNL     1      -7.422  17.792  68.163  1.00  0.00    -0.237 A  
HETATM    5  C   UNL     1      -8.043  17.429  66.964  1.00  0.00    -0.240 A  
HETATM    6  C   UNL     1      -8.453  16.105  66.757  1.00  0.00    -0.289 A  
HETATM    7  C   UNL     1      -8.313  15.144  67.770  1.00  0.00    -0.151 A  
HETATM    8  C   UNL     1      -7.672  15.507  68.964  1.00  0.00    -0.192 A  
HETATM    9  C   UNL     1      -7.239  16.828  69.163  1.00  0.00    -0.214 A  
ENDROOT
BRANCH   7  10
HETATM   10  N   UNL     1      -8.814  13.810  67.624  1.00  0.00    -0.178 NA 
HETATM   11  N   UNL     1      -8.107  12.911  66.881  1.00  0.00    -0.038 NA 
HETATM   12  C   UNL     1      -8.975  11.909  66.691  1.00  0.00    -0.198 A  
HETATM   13  N   UNL     1     -10.140  12.070  67.401  1.00  0.00    -0.193 NA 
HETATM   14  C   UNL     1     -10.011  13.222  68.034  1.00  0.00    -0.233 A  
BRANCH  12  15
HETATM   15  C   UNL     1      -8.799  10.730  65.826  1.00  0.00    -0.201 A  
HETATM   16  C   UNL     1      -8.234   9.569  66.400  1.00  0.00    -0.115 A  
HETATM   17  C   UNL     1      -8.045   8.397  65.661  1.00  0.00    -0.125 A  
HETATM   18  H   UNL     1     -10.004  11.685  62.932  1.00  0.00     0.000 HD 
HETATM   19  C   UNL     1      -8.418   8.357  64.325  1.00  0.00    -0.036 A  
HETATM   20  O   UNL     1      -9.749  11.731  63.846  1.00  0.00    -0.254 OA 
HETATM   21  C   UNL     1      -8.983   9.486  63.731  1.00  0.00    -0.211 A  
HETATM   22  C   UNL     1      -9.175  10.662  64.476  1.00  0.00    -0.231 A  
ENDBRANCH  12  15
BRANCH  14  23
HETATM   23  C   UNL     1     -11.036  13.741  68.952  1.00  0.00    -0.300 A  
HETATM   24  C   UNL     1     -12.798  14.948  70.788  1.00  0.00    -0.428 A  
HETATM   25  C   UNL     1     -12.528  13.583  70.873  1.00  0.00    -0.448 A  
HETATM   26  C   UNL     1     -11.383  15.100  68.842  1.00  0.00    -0.314 A  
HETATM   27  C   UNL     1     -11.684  12.981  69.936  1.00  0.00    -0.256 A  
HETATM   28  C   UNL     1     -12.255  15.700  69.751  1.00  0.00    -0.293 A  
HETATM   29  O   UNL     1     -11.486  11.630  69.993  1.00  0.00    -0.431 OA 
HETATM   30  H   UNL     1     -11.925  11.115  70.660  1.00  0.00     0.000 HD 
ENDBRANCH  14  23
ENDBRANCH   7  10
TORSDOF 3
ENDMDL
MODEL       68
REMARK 921   NORMALIZED FREE ENERGY PREDICTED BY IDOCK:   -5.59 KCAL/MOL
REMARK 922        TOTAL FREE ENERGY PREDICTED BY IDOCK:   -7.82 KCAL/MOL
REMARK 923 INTER-LIGAND FREE ENERGY PREDICTED BY IDOCK:   -7.20 KCAL/MOL
REMARK 924 INTRA-LIGAND FREE ENERGY PREDICTED BY IDOCK:   -0.62 KCAL/MOL
REMARK 927      BINDING AFFINITY PREDICTED BY RF-SCORE:    0.00 PKD
ROOT
HETATM    1  O   UNL     1      -8.546   4.450  66.269  1.00  0.00    -0.112 OA 
HETATM    2  C   UNL     1      -8.158   5.603  65.674  1.00  0.00    -0.120 C  
HETATM    3  O   UNL     1      -7.346   5.638  64.766  1.00  0.00    -0.063 OA 
HETATM    4  C   UNL     1      -8.788   6.819  66.246  1.00  0.00    -0.158 A  
HETATM    5  C   UNL     1     -10.088   6.806  66.760  1.00  0.00    -0.250 A  
HETATM    6  C   UNL     1     -10.653   7.979  67.277  1.00  0.00    -0.360 A  
HETATM    7  C   UNL     1      -9.955   9.195  67.224  1.00  0.00    -0.211 A  
HETATM    8  C   UNL     1      -8.643   9.202  66.725  1.00  0.00    -0.133 A  
HETATM    9  C   UNL     1      -8.068   8.021  66.228  1.00  0.00    -0.112 A  
ENDROOT
BRANCH   7  10
HETATM   10  N   UNL     1     -10.546  10.428  67.651  1.00  0.00    -0.236 NA 
HETATM   11  N   UNL     1     -10.692  10.668  68.986  1.00  0.00    -0.206 NA 
HETATM   12  C   UNL     1     -11.530  11.711  69.027  1.00  0.00    -0.294 A  
HETATM   13  N   UNL     1     -11.801  12.229  67.783  1.00  0.00    -0.473 NA 
HETATM   14  C   UNL     1     -11.134  11.470  66.933  1.00  0.00    -0.307 A  
BRANCH  12  15
HETATM   15  C   UNL     1     -12.158  12.303  70.221  1.00  0.00    -0.376 A  
HETATM   16  C   UNL     1     -12.856  11.440  71.096  1.00  0.00    -0.440 A  
HETATM   17  C   UNL     1     -13.469  11.908  72.262  1.00  0.00    -0.187 A  
HETATM   18  H   UNL     1     -11.380  15.480  70.033  1.00  0.00     0.000 HD 
HETATM   19  C   UNL     1     -13.399  13.256  72.583  1.00  0.00    -0.447 A  
HETATM   20  O   UNL     1     -11.423  14.562  69.795  1.00  0.00    -0.259 OA 
HETATM   21  C   UNL     1     -12.713  14.132  71.742  1.00  0.00    -0.420 A  
HETATM   22  C   UNL     1     -12.095  13.660  70.572  1.00  0.00    -0.339 A  
ENDBRANCH  12  15
BRANCH  14  23
HETATM   23  C   UNL     1     -11.120  11.725  65.484  1.00  0.00    -0.336 A  
HETATM   24  C   UNL     1     -10.820  12.337  62.752  1.00  0.00     0.844 A  
HETATM   25  C   UNL     1     -11.952  12.766  63.444  1.00  0.00    -0.613 A  
HETATM   26  C   UNL     1     -10.024  11.241  64.747  1.00  0.00    -0.327 A  
HETATM   27  C   UNL     1     -12.115  12.426  64.789  1.00  0.00    -0.416 A  
HETATM   28  C   UNL     1      -9.873  11.544  63.393  1.00  0.00    -0.422 A  
HETATM   29  O   UNL     1     -13.264  12.796  65.431  1.00  0.00    -0.428 OA 
HETATM   30  H   UNL     1     -13.938  13.271  64.960  1.00  0.00     0.000 HD 
ENDBRANCH  14  23
ENDBRANCH   7  10
TORSDOF 3
ENDMDL
MODEL       69
REMARK 921   NORMALIZED FREE ENERGY PREDICTED BY IDOCK:   -5.58 KCAL/MOL
REMARK 922        TOTAL FREE ENERGY PREDICTED BY IDOCK:   -7.80 KCAL/MOL
REMARK 923 INTER-LIGAND FREE ENERGY PREDICTED BY IDOCK:   -7.11 KCAL/MOL
REMARK 924 INTRA-LIGAND FREE ENERGY PREDICTED BY IDOCK:   -0.69 KCAL/MOL
REMARK 927      BINDING AFFINITY PREDICTED BY RF-SCORE:    0.00 PKD
ROOT
HETATM    1  O   UNL     1      -7.951   1.876  67.915  1.00  0.00    -0.058 OA 
HETATM    2  C   UNL     1      -7.651   2.844  67.016  1.00  0.00    -0.070 C  
HETATM    3  O   UNL     1      -6.903   2.659  66.072  1.00  0.00    -0.045 OA 
HETATM    4  C   UNL     1      -8.291   4.152  67.300  1.00  0.00    -0.099 A  
HETATM    5  C   UNL     1      -9.553   4.243  67.895  1.00  0.00    -0.207 A  
HETATM    6  C   UNL     1     -10.130   5.497  68.132  1.00  0.00    -0.221 A  
HETATM    7  C   UNL     1      -9.488   6.673  67.716  1.00  0.00    -0.120 A  
HETATM    8  C   UNL     1      -8.213   6.580  67.136  1.00  0.00    -0.113 A  
HETATM    9  C   UNL     1      -7.624   5.323  66.919  1.00  0.00    -0.088 A  
ENDROOT
BRANCH   7  10
HETATM   10  N   UNL     1     -10.100   7.961  67.854  1.00  0.00    -0.182 NA 
HETATM   11  N   UNL     1     -10.390   8.683  66.734  1.00  0.00    -0.287 NA 
HETATM   12  C   UNL     1     -10.641   9.910  67.207  1.00  0.00    -0.252 A  
HETATM   13  N   UNL     1     -10.667   9.958  68.580  1.00  0.00    -0.223 NA 
HETATM   14  C   UNL     1     -10.395   8.729  68.981  1.00  0.00    -0.213 A  
BRANCH  12  15
HETATM   15  C   UNL     1     -10.864  11.138  66.426  1.00  0.00    -0.284 A  
HETATM   16  C   UNL     1     -10.402  11.164  65.090  1.00  0.00    -0.354 A  
HETATM   17  C   UNL     1     -10.583  12.279  64.266  1.00  0.00    -0.387 A  
HETATM   18  H   UNL     1     -12.473  13.110  68.490  1.00  0.00     0.000 HD 
HETATM   19  C   UNL     1     -11.235  13.401  64.761  1.00  0.00    -0.360 A  
HETATM   20  O   UNL     1     -12.025  12.335  68.171  1.00  0.00    -0.386 OA 
HETATM   21  C   UNL     1     -11.707  13.404  66.073  1.00  0.00    -0.398 A  
HETATM   22  C   UNL     1     -11.526  12.281  66.899  1.00  0.00    -0.356 A  
ENDBRANCH  12  15
BRANCH  14  23
HETATM   23  C   UNL     1     -10.375   8.344  70.401  1.00  0.00    -0.219 A  
HETATM   24  C   UNL     1     -10.051   7.519  73.074  1.00  0.00    -0.342 A  
HETATM   25  C   UNL     1     -11.121   7.040  72.320  1.00  0.00    -0.287 A  
HETATM   26  C   UNL     1      -9.347   8.870  71.205  1.00  0.00    -0.326 A  
HETATM   27  C   UNL     1     -11.300   7.482  71.006  1.00  0.00    -0.273 A  
HETATM   28  C   UNL     1      -9.184   8.462  72.529  1.00  0.00    -0.338 A  
HETATM   29  O   UNL     1     -12.394   7.056  70.306  1.00  0.00    -0.623 OA 
HETATM   30  H   UNL     1     -13.021   6.472  70.717  1.00  0.00     0.000 HD 
ENDBRANCH  14  23
ENDBRANCH   7  10
TORSDOF 3
ENDMDL
MODEL       70
REMARK 921   NORMALIZED FREE ENERGY PREDICTED BY IDOCK:   -5.57 KCAL/MOL
REMARK 922        TOTAL FREE ENERGY PREDICTED BY IDOCK:   -7.79 KCAL/MOL
REMARK 923 INTER-LIGAND FREE ENERGY PREDICTED BY IDOCK:   -7.03 KCAL/MOL
REMARK 924 INTRA-LIGAND FREE ENERGY PREDICTED BY IDOCK:   -0.76 KCAL/MOL
REMARK 927      BINDING AFFINITY PREDICTED BY RF-SCORE:    0.00 PKD
ROOT
HETATM    1  O   UNL     1      -9.015   5.371  66.502  1.00  0.00    -0.116 OA 
HETATM    2  C   UNL     1      -8.112   6.350  66.749  1.00  0.00    -0.109 C  
HETATM    3  O   UNL     1      -6.909   6.155  66.746  1.00  0.00    -0.059 OA 
HETATM    4  C   UNL     1      -8.720   7.670  67.050  1.00  0.00    -0.127 A  
HETATM    5  C   UNL     1      -9.920   8.082  66.463  1.00  0.00    -0.283 A  
HETATM    6  C   UNL     1     -10.452   9.344  66.762  1.00  0.00    -0.265 A  
HETATM    7  C   UNL     1      -9.760  10.236  67.594  1.00  0.00    -0.164 A  
HETATM    8  C   UNL     1      -8.565   9.813  68.196  1.00  0.00    -0.118 A  
HETATM    9  C   UNL     1      -8.043   8.540  67.916  1.00  0.00    -0.115 A  
ENDROOT
BRANCH   7  10
HETATM   10  N   UNL     1     -10.230  11.568  67.835  1.00  0.00    -0.180 NA 
HETATM   11  N   UNL     1      -9.884  12.562  66.968  1.00  0.00    -0.213 NA 
HETATM   12  C   UNL     1     -10.202  13.681  67.632  1.00  0.00    -0.239 A  
HETATM   13  N   UNL     1     -10.865  13.434  68.810  1.00  0.00    -0.250 NA 
HETATM   14  C   UNL     1     -10.940  12.118  68.902  1.00  0.00    -0.224 A  
BRANCH  12  15
HETATM   15  C   UNL     1      -9.905  15.067  67.234  1.00  0.00    -0.228 A  
HETATM   16  C   UNL     1      -8.873  15.745  67.922  1.00  0.00    -0.175 A  
HETATM   17  C   UNL     1      -8.509  17.057  67.603  1.00  0.00    -0.210 A  
HETATM   18  H   UNL     1     -11.985  15.647  64.769  1.00  0.00     0.000 HD 
HETATM   19  C   UNL     1      -9.171  17.726  66.582  1.00  0.00    -0.280 A  
HETATM   20  O   UNL     1     -11.547  15.176  65.468  1.00  0.00    -0.272 OA 
HETATM   21  C   UNL     1     -10.190  17.082  65.880  1.00  0.00    -0.311 A  
HETATM   22  C   UNL     1     -10.553  15.763  66.201  1.00  0.00    -0.313 A  
ENDBRANCH  12  15
BRANCH  14  23
HETATM   23  C   UNL     1     -11.629  11.440  70.011  1.00  0.00    -0.382 A  
HETATM   24  C   UNL     1     -13.046   9.941  71.928  1.00  0.00    -0.559 A  
HETATM   25  C   UNL     1     -13.266  11.313  71.812  1.00  0.00    -0.480 A  
HETATM   26  C   UNL     1     -11.371  10.070  70.198  1.00  0.00    -0.357 A  
HETATM   27  C   UNL     1     -12.532  12.059  70.886  1.00  0.00    -0.288 A  
HETATM   28  C   UNL     1     -12.073   9.325  71.147  1.00  0.00    -0.389 A  
HETATM   29  O   UNL     1     -12.711  13.413  70.836  1.00  0.00    -0.325 OA 
HETATM   30  H   UNL     1     -13.323  13.833  71.429  1.00  0.00     0.000 HD 
ENDBRANCH  14  23
ENDBRANCH   7  10
TORSDOF 3
ENDMDL
MODEL       71
REMARK 921   NORMALIZED FREE ENERGY PREDICTED BY IDOCK:   -5.56 KCAL/MOL
REMARK 922        TOTAL FREE ENERGY PREDICTED BY IDOCK:   -7.78 KCAL/MOL
REMARK 923 INTER-LIGAND FREE ENERGY PREDICTED BY IDOCK:   -7.38 KCAL/MOL
REMARK 924 INTRA-LIGAND FREE ENERGY PREDICTED BY IDOCK:   -0.40 KCAL/MOL
REMARK 927      BINDING AFFINITY PREDICTED BY RF-SCORE:    0.00 PKD
ROOT
HETATM    1  O   UNL     1      -9.790  18.211  66.714  1.00  0.00    -0.304 OA 
HETATM    2  C   UNL     1     -10.352  17.313  65.871  1.00  0.00    -0.278 C  
HETATM    3  O   UNL     1     -10.940  17.639  64.854  1.00  0.00    -0.886 OA 
HETATM    4  C   UNL     1     -10.210  15.902  66.310  1.00  0.00    -0.324 A  
HETATM    5  C   UNL     1      -9.089  15.456  67.016  1.00  0.00    -0.247 A  
HETATM    6  C   UNL     1      -8.987  14.112  67.399  1.00  0.00    -0.205 A  
HETATM    7  C   UNL     1      -9.967  13.182  67.021  1.00  0.00    -0.244 A  
HETATM    8  C   UNL     1     -11.100  13.636  66.329  1.00  0.00    -0.304 A  
HETATM    9  C   UNL     1     -11.215  14.987  65.965  1.00  0.00    -0.310 A  
ENDROOT
BRANCH   7  10
HETATM   10  N   UNL     1      -9.838  11.785  67.311  1.00  0.00    -0.185 NA 
HETATM   11  N   UNL     1      -9.011  11.020  66.542  1.00  0.00    -0.167 NA 
HETATM   12  C   UNL     1      -9.357   9.766  66.862  1.00  0.00    -0.149 A  
HETATM   13  N   UNL     1     -10.256   9.708  67.899  1.00  0.00    -0.185 NA 
HETATM   14  C   UNL     1     -10.504  10.965  68.222  1.00  0.00    -0.179 A  
BRANCH  12  15
HETATM   15  C   UNL     1      -8.892   8.524  66.222  1.00  0.00    -0.187 A  
HETATM   16  C   UNL     1      -8.775   8.510  64.814  1.00  0.00    -0.055 A  
HETATM   17  C   UNL     1      -8.327   7.382  64.120  1.00  0.00     0.131 A  
HETATM   18  H   UNL     1      -8.342   6.497  68.737  1.00  0.00     0.000 HD 
HETATM   19  C   UNL     1      -7.981   6.235  64.822  1.00  0.00    -0.124 A  
HETATM   20  O   UNL     1      -8.589   7.288  68.273  1.00  0.00    -0.123 OA 
HETATM   21  C   UNL     1      -8.079   6.220  66.213  1.00  0.00    -0.114 A  
HETATM   22  C   UNL     1      -8.528   7.355  66.909  1.00  0.00    -0.123 A  
ENDBRANCH  12  15
BRANCH  14  23
HETATM   23  C   UNL     1     -11.391  11.337  69.334  1.00  0.00    -0.360 A  
HETATM   24  C   UNL     1     -12.870  12.235  71.556  1.00  0.00    -0.384 A  
HETATM   25  C   UNL     1     -12.676  10.870  71.352  1.00  0.00    -0.539 A  
HETATM   26  C   UNL     1     -11.665  12.704  69.521  1.00  0.00    -0.374 A  
HETATM   27  C   UNL     1     -11.975  10.427  70.227  1.00  0.00    -0.302 A  
HETATM   28  C   UNL     1     -12.396  13.151  70.622  1.00  0.00    -0.405 A  
HETATM   29  O   UNL     1     -11.855   9.084  70.007  1.00  0.00    -0.455 OA 
HETATM   30  H   UNL     1     -12.250   8.467  70.612  1.00  0.00     0.000 HD 
ENDBRANCH  14  23
ENDBRANCH   7  10
TORSDOF 3
ENDMDL
MODEL       72
REMARK 921   NORMALIZED FREE ENERGY PREDICTED BY IDOCK:   -5.54 KCAL/MOL
REMARK 922        TOTAL FREE ENERGY PREDICTED BY IDOCK:   -7.76 KCAL/MOL
REMARK 923 INTER-LIGAND FREE ENERGY PREDICTED BY IDOCK:   -6.66 KCAL/MOL
REMARK 924 INTRA-LIGAND FREE ENERGY PREDICTED BY IDOCK:   -1.10 KCAL/MOL
REMARK 927      BINDING AFFINITY PREDICTED BY RF-SCORE:    0.00 PKD
ROOT
HETATM    1  O   UNL     1      -8.424  19.404  67.708  1.00  0.00    -0.295 OA 
HETATM    2  C   UNL     1      -9.548  18.651  67.758  1.00  0.00    -0.304 C  
HETATM    3  O   UNL     1     -10.662  19.132  67.867  1.00  0.00    -0.388 OA 
HETATM    4  C   UNL     1      -9.298  17.189  67.698  1.00  0.00    -0.239 A  
HETATM    5  C   UNL     1      -8.236  16.650  66.966  1.00  0.00    -0.222 A  
HETATM    6  C   UNL     1      -8.044  15.263  66.921  1.00  0.00    -0.224 A  
HETATM    7  C   UNL     1      -8.949  14.393  67.547  1.00  0.00    -0.190 A  
HETATM    8  C   UNL     1     -10.003  14.936  68.297  1.00  0.00    -0.222 A  
HETATM    9  C   UNL     1     -10.183  16.328  68.362  1.00  0.00    -0.249 A  
ENDROOT
BRANCH   7  10
HETATM   10  N   UNL     1      -8.835  12.969  67.433  1.00  0.00    -0.193 NA 
HETATM   11  N   UNL     1      -8.010  12.298  68.286  1.00  0.00    -0.157 NA 
HETATM   12  C   UNL     1      -7.894  11.088  67.724  1.00  0.00    -0.110 A  
HETATM   13  N   UNL     1      -8.723  10.921  66.641  1.00  0.00    -0.150 NA 
HETATM   14  C   UNL     1      -9.357  12.072  66.501  1.00  0.00    -0.223 A  
BRANCH  12  15
HETATM   15  C   UNL     1      -6.998   9.995  68.138  1.00  0.00    -0.075 A  
HETATM   16  C   UNL     1      -6.253   9.336  67.134  1.00  0.00    -0.058 A  
HETATM   17  C   UNL     1      -5.364   8.299  67.433  1.00  0.00    -0.034 A  
HETATM   18  H   UNL     1      -7.339   9.881  71.395  1.00  0.00     0.000 HD 
HETATM   19  C   UNL     1      -5.198   7.894  68.751  1.00  0.00    -0.026 A  
HETATM   20  O   UNL     1      -7.469  10.168  70.499  1.00  0.00    -0.281 OA 
HETATM   21  C   UNL     1      -5.915   8.528  69.765  1.00  0.00    -0.028 A  
HETATM   22  C   UNL     1      -6.806   9.572  69.462  1.00  0.00    -0.054 A  
ENDBRANCH  12  15
BRANCH  14  23
HETATM   23  C   UNL     1     -10.383  12.291  65.471  1.00  0.00    -0.296 A  
HETATM   24  C   UNL     1     -12.534  12.548  63.672  1.00  0.00    -0.570 A  
HETATM   25  C   UNL     1     -11.303  12.072  63.224  1.00  0.00    -0.396 A  
HETATM   26  C   UNL     1     -11.612  12.839  65.881  1.00  0.00    -0.428 A  
HETATM   27  C   UNL     1     -10.227  11.984  64.112  1.00  0.00    -0.339 A  
HETATM   28  C   UNL     1     -12.680  12.966  64.991  1.00  0.00    -0.474 A  
HETATM   29  O   UNL     1      -9.009  11.581  63.640  1.00  0.00    -0.438 OA 
HETATM   30  H   UNL     1      -8.904  11.373  62.719  1.00  0.00     0.000 HD 
ENDBRANCH  14  23
ENDBRANCH   7  10
TORSDOF 3
ENDMDL
MODEL       73
REMARK 921   NORMALIZED FREE ENERGY PREDICTED BY IDOCK:   -5.53 KCAL/MOL
REMARK 922        TOTAL FREE ENERGY PREDICTED BY IDOCK:   -7.74 KCAL/MOL
REMARK 923 INTER-LIGAND FREE ENERGY PREDICTED BY IDOCK:   -6.80 KCAL/MOL
REMARK 924 INTRA-LIGAND FREE ENERGY PREDICTED BY IDOCK:   -0.93 KCAL/MOL
REMARK 927      BINDING AFFINITY PREDICTED BY RF-SCORE:    0.00 PKD
ROOT
HETATM    1  O   UNL     1     -10.999  19.572  67.426  1.00  0.00    -0.477 OA 
HETATM    2  C   UNL     1     -10.208  18.816  66.629  1.00  0.00    -0.408 C  
HETATM    3  O   UNL     1      -9.540  19.285  65.723  1.00  0.00    -0.402 OA 
HETATM    4  C   UNL     1     -10.248  17.365  66.940  1.00  0.00    -0.322 A  
HETATM    5  C   UNL     1     -10.429  16.894  68.243  1.00  0.00    -0.352 A  
HETATM    6  C   UNL     1     -10.445  15.516  68.497  1.00  0.00    -0.238 A  
HETATM    7  C   UNL     1     -10.211  14.594  67.466  1.00  0.00    -0.225 A  
HETATM    8  C   UNL     1     -10.048  15.069  66.156  1.00  0.00    -0.312 A  
HETATM    9  C   UNL     1     -10.055  16.449  65.897  1.00  0.00    -0.370 A  
ENDROOT
BRANCH   7  10
HETATM   10  N   UNL     1     -10.121  13.185  67.714  1.00  0.00    -0.221 NA 
HETATM   11  N   UNL     1      -9.682  12.751  68.931  1.00  0.00     0.096 NA 
HETATM   12  C   UNL     1      -9.423  11.454  68.725  1.00  0.00    -0.119 A  
HETATM   13  N   UNL     1      -9.816  11.020  67.482  1.00  0.00    -0.168 NA 
HETATM   14  C   UNL     1     -10.311  12.085  66.878  1.00  0.00    -0.213 A  
BRANCH  12  15
HETATM   15  C   UNL     1      -8.778  10.516  69.660  1.00  0.00     0.029 A  
HETATM   16  C   UNL     1      -9.611   9.673  70.430  1.00  0.00    -0.292 A  
HETATM   17  C   UNL     1      -9.089   8.739  71.330  1.00  0.00    -0.313 A  
HETATM   18  H   UNL     1      -5.573  11.038  69.221  1.00  0.00     0.000 HD 
HETATM   19  C   UNL     1      -7.714   8.625  71.483  1.00  0.00    -0.152 A  
HETATM   20  O   UNL     1      -6.511  11.134  69.107  1.00  0.00    -0.059 OA 
HETATM   21  C   UNL     1      -6.865   9.439  70.733  1.00  0.00    -0.109 A  
HETATM   22  C   UNL     1      -7.392  10.375  69.827  1.00  0.00    -0.154 A  
ENDBRANCH  12  15
BRANCH  14  23
HETATM   23  C   UNL     1     -10.892  12.032  65.527  1.00  0.00    -0.336 A  
HETATM   24  C   UNL     1     -12.236  11.779  63.066  1.00  0.00    -0.066 A  
HETATM   25  C   UNL     1     -10.911  11.362  63.184  1.00  0.00    -0.129 A  
HETATM   26  C   UNL     1     -12.204  12.513  65.362  1.00  0.00    -0.475 A  
HETATM   27  C   UNL     1     -10.236  11.526  64.397  1.00  0.00    -0.300 A  
HETATM   28  C   UNL     1     -12.872  12.388  64.144  1.00  0.00    -0.364 A  
HETATM   29  O   UNL     1      -8.917  11.177  64.473  1.00  0.00    -0.353 OA 
HETATM   30  H   UNL     1      -8.472  10.834  63.707  1.00  0.00     0.000 HD 
ENDBRANCH  14  23
ENDBRANCH   7  10
TORSDOF 3
ENDMDL
MODEL       74
REMARK 921   NORMALIZED FREE ENERGY PREDICTED BY IDOCK:   -5.52 KCAL/MOL
REMARK 922        TOTAL FREE ENERGY PREDICTED BY IDOCK:   -7.73 KCAL/MOL
REMARK 923 INTER-LIGAND FREE ENERGY PREDICTED BY IDOCK:   -6.69 KCAL/MOL
REMARK 924 INTRA-LIGAND FREE ENERGY PREDICTED BY IDOCK:   -1.04 KCAL/MOL
REMARK 927      BINDING AFFINITY PREDICTED BY RF-SCORE:    0.00 PKD
ROOT
HETATM    1  O   UNL     1     -12.776  14.801  72.610  1.00  0.00    -0.347 OA 
HETATM    2  C   UNL     1     -13.310  13.693  72.043  1.00  0.00    -0.459 C  
HETATM    3  O   UNL     1     -14.368  13.209  72.406  1.00  0.00    -0.523 OA 
HETATM    4  C   UNL     1     -12.478  13.108  70.962  1.00  0.00    -0.406 A  
HETATM    5  C   UNL     1     -11.690  13.901  70.123  1.00  0.00    -0.314 A  
HETATM    6  C   UNL     1     -10.931  13.311  69.104  1.00  0.00    -0.208 A  
HETATM    7  C   UNL     1     -11.004  11.931  68.864  1.00  0.00    -0.238 A  
HETATM    8  C   UNL     1     -11.781  11.134  69.718  1.00  0.00    -0.419 A  
HETATM    9  C   UNL     1     -12.523  11.722  70.755  1.00  0.00    -0.405 A  
ENDROOT
BRANCH   7  10
HETATM   10  N   UNL     1     -10.319  11.315  67.766  1.00  0.00    -0.178 NA 
HETATM   11  N   UNL     1      -9.578  10.193  67.990  1.00  0.00    -0.144 NA 
HETATM   12  C   UNL     1      -8.847  10.071  66.874  1.00  0.00    -0.131 A  
HETATM   13  N   UNL     1      -9.201  10.977  65.903  1.00  0.00    -0.193 NA 
HETATM   14  C   UNL     1     -10.163  11.708  66.436  1.00  0.00    -0.221 A  
BRANCH  12  15
HETATM   15  C   UNL     1      -7.756   9.115  66.624  1.00  0.00    -0.097 A  
HETATM   16  C   UNL     1      -6.680   9.086  67.541  1.00  0.00    -0.069 A  
HETATM   17  C   UNL     1      -5.608   8.201  67.395  1.00  0.00    -0.038 A  
HETATM   18  H   UNL     1      -8.691   7.537  63.909  1.00  0.00     0.000 HD 
HETATM   19  C   UNL     1      -5.585   7.319  66.324  1.00  0.00    -0.027 A  
HETATM   20  O   UNL     1      -8.720   8.152  64.632  1.00  0.00    -0.013 OA 
HETATM   21  C   UNL     1      -6.634   7.319  65.405  1.00  0.00    -0.047 A  
HETATM   22  C   UNL     1      -7.712   8.208  65.554  1.00  0.00    -0.095 A  
ENDBRANCH  12  15
BRANCH  14  23
HETATM   23  C   UNL     1     -10.855  12.772  65.692  1.00  0.00    -0.300 A  
HETATM   24  C   UNL     1     -12.219  14.606  64.047  1.00  0.00    -0.226 A  
HETATM   25  C   UNL     1     -10.964  14.928  64.562  1.00  0.00    -0.216 A  
HETATM   26  C   UNL     1     -12.153  12.501  65.223  1.00  0.00    -0.500 A  
HETATM   27  C   UNL     1     -10.308  14.032  65.410  1.00  0.00    -0.359 A  
HETATM   28  C   UNL     1     -12.830  13.408  64.407  1.00  0.00    -0.014 A  
HETATM   29  O   UNL     1      -9.111  14.394  65.960  1.00  0.00    -0.502 OA 
HETATM   30  H   UNL     1      -8.741  15.248  65.768  1.00  0.00     0.000 HD 
ENDBRANCH  14  23
ENDBRANCH   7  10
TORSDOF 3
ENDMDL
MODEL       75
REMARK 921   NORMALIZED FREE ENERGY PREDICTED BY IDOCK:   -5.50 KCAL/MOL
REMARK 922        TOTAL FREE ENERGY PREDICTED BY IDOCK:   -7.71 KCAL/MOL
REMARK 923 INTER-LIGAND FREE ENERGY PREDICTED BY IDOCK:   -6.51 KCAL/MOL
REMARK 924 INTRA-LIGAND FREE ENERGY PREDICTED BY IDOCK:   -1.20 KCAL/MOL
REMARK 927      BINDING AFFINITY PREDICTED BY RF-SCORE:    0.00 PKD
ROOT
HETATM    1  O   UNL     1     -11.892   5.496  72.697  1.00  0.00    -0.274 OA 
HETATM    2  C   UNL     1     -11.077   6.562  72.877  1.00  0.00    -0.223 C  
HETATM    3  O   UNL     1     -10.599   6.853  73.960  1.00  0.00    -0.349 OA 
HETATM    4  C   UNL     1     -10.842   7.357  71.646  1.00  0.00    -0.246 A  
HETATM    5  C   UNL     1     -10.800   6.765  70.380  1.00  0.00    -0.306 A  
HETATM    6  C   UNL     1     -10.560   7.548  69.244  1.00  0.00    -0.215 A  
HETATM    7  C   UNL     1     -10.290   8.920  69.363  1.00  0.00    -0.213 A  
HETATM    8  C   UNL     1     -10.351   9.515  70.632  1.00  0.00    -0.369 A  
HETATM    9  C   UNL     1     -10.615   8.734  71.769  1.00  0.00    -0.417 A  
ENDROOT
BRANCH   7  10
HETATM   10  N   UNL     1      -9.941   9.725  68.230  1.00  0.00    -0.149 NA 
HETATM   11  N   UNL     1     -10.539  10.940  68.069  1.00  0.00    -0.188 NA 
HETATM   12  C   UNL     1     -10.244  11.269  66.805  1.00  0.00    -0.226 A  
HETATM   13  N   UNL     1      -9.369  10.390  66.213  1.00  0.00    -0.162 NA 
HETATM   14  C   UNL     1      -9.129   9.464  67.125  1.00  0.00    -0.130 A  
BRANCH  12  15
HETATM   15  C   UNL     1     -10.760  12.417  66.040  1.00  0.00    -0.294 A  
HETATM   16  C   UNL     1     -11.972  12.249  65.333  1.00  0.00    -0.395 A  
HETATM   17  C   UNL     1     -12.547  13.287  64.593  1.00  0.00    -0.354 A  
HETATM   18  H   UNL     1      -8.576  14.793  66.608  1.00  0.00     0.000 HD 
HETATM   19  C   UNL     1     -11.921  14.524  64.542  1.00  0.00    -0.482 A  
HETATM   20  O   UNL     1      -8.988  13.938  66.649  1.00  0.00    -0.219 OA 
HETATM   21  C   UNL     1     -10.726  14.724  65.234  1.00  0.00    -0.406 A  
HETATM   22  C   UNL     1     -10.151  13.680  65.979  1.00  0.00    -0.312 A  
ENDBRANCH  12  15
BRANCH  14  23
HETATM   23  C   UNL     1      -8.191   8.354  66.900  1.00  0.00    -0.103 A  
HETATM   24  C   UNL     1      -6.639   6.050  66.442  1.00  0.00    -0.055 A  
HETATM   25  C   UNL     1      -6.402   6.839  67.565  1.00  0.00    -0.044 A  
HETATM   26  C   UNL     1      -8.361   7.583  65.736  1.00  0.00    -0.144 A  
HETATM   27  C   UNL     1      -7.148   8.003  67.768  1.00  0.00    -0.086 A  
HETATM   28  C   UNL     1      -7.594   6.440  65.507  1.00  0.00    -0.087 A  
HETATM   29  O   UNL     1      -6.854   8.802  68.838  1.00  0.00    -0.059 OA 
HETATM   30  H   UNL     1      -6.147   8.564  69.426  1.00  0.00     0.000 HD 
ENDBRANCH  14  23
ENDBRANCH   7  10
TORSDOF 3
ENDMDL
MODEL       76
REMARK 921   NORMALIZED FREE ENERGY PREDICTED BY IDOCK:   -5.49 KCAL/MOL
REMARK 922        TOTAL FREE ENERGY PREDICTED BY IDOCK:   -7.69 KCAL/MOL
REMARK 923 INTER-LIGAND FREE ENERGY PREDICTED BY IDOCK:   -6.73 KCAL/MOL
REMARK 924 INTRA-LIGAND FREE ENERGY PREDICTED BY IDOCK:   -0.97 KCAL/MOL
REMARK 927      BINDING AFFINITY PREDICTED BY RF-SCORE:    0.00 PKD
ROOT
HETATM    1  O   UNL     1     -10.845  12.954  63.730  1.00  0.00    -0.401 OA 
HETATM    2  C   UNL     1     -11.723  12.573  64.688  1.00  0.00    -0.359 C  
HETATM    3  O   UNL     1     -12.867  12.988  64.739  1.00  0.00    -0.708 OA 
HETATM    4  C   UNL     1     -11.157  11.629  65.684  1.00  0.00    -0.308 A  
HETATM    5  C   UNL     1     -10.184  10.686  65.339  1.00  0.00    -0.341 A  
HETATM    6  C   UNL     1      -9.686   9.802  66.305  1.00  0.00    -0.295 A  
HETATM    7  C   UNL     1     -10.203   9.800  67.609  1.00  0.00    -0.213 A  
HETATM    8  C   UNL     1     -11.166  10.759  67.958  1.00  0.00    -0.372 A  
HETATM    9  C   UNL     1     -11.648  11.662  66.995  1.00  0.00    -0.268 A  
ENDROOT
BRANCH   7  10
HETATM   10  N   UNL     1      -9.786   8.841  68.589  1.00  0.00    -0.164 NA 
HETATM   11  N   UNL     1      -9.672   9.228  69.891  1.00  0.00    -0.188 NA 
HETATM   12  C   UNL     1      -8.985   8.227  70.457  1.00  0.00    -0.147 A  
HETATM   13  N   UNL     1      -8.791   7.165  69.606  1.00  0.00    -0.141 NA 
HETATM   14  C   UNL     1      -9.349   7.522  68.463  1.00  0.00    -0.142 A  
BRANCH  12  15
HETATM   15  C   UNL     1      -8.442   8.181  71.825  1.00  0.00    -0.186 A  
HETATM   16  C   UNL     1      -7.096   8.570  72.014  1.00  0.00    -0.104 A  
HETATM   17  C   UNL     1      -6.499   8.575  73.279  1.00  0.00    -0.098 A  
HETATM   18  H   UNL     1     -10.972   7.178  73.648  1.00  0.00     0.000 HD 
HETATM   19  C   UNL     1      -7.237   8.189  74.390  1.00  0.00    -0.222 A  
HETATM   20  O   UNL     1     -10.481   7.434  72.877  1.00  0.00    -0.234 OA 
HETATM   21  C   UNL     1      -8.569   7.805  74.236  1.00  0.00    -0.268 A  
HETATM   22  C   UNL     1      -9.168   7.804  72.964  1.00  0.00    -0.226 A  
ENDBRANCH  12  15
BRANCH  14  23
HETATM   23  C   UNL     1      -9.401   6.631  67.294  1.00  0.00    -0.144 A  
HETATM   24  C   UNL     1      -9.559   4.700  65.250  1.00  0.00    -0.161 A  
HETATM   25  C   UNL     1      -8.433   5.516  65.355  1.00  0.00    -0.146 A  
HETATM   26  C   UNL     1     -10.556   5.848  67.122  1.00  0.00    -0.373 A  
HETATM   27  C   UNL     1      -8.376   6.499  66.346  1.00  0.00    -0.120 A  
HETATM   28  C   UNL     1     -10.636   4.890  66.111  1.00  0.00    -0.322 A  
HETATM   29  O   UNL     1      -7.296   7.335  66.390  1.00  0.00    -0.076 OA 
HETATM   30  H   UNL     1      -6.602   7.246  65.747  1.00  0.00     0.000 HD 
ENDBRANCH  14  23
ENDBRANCH   7  10
TORSDOF 3
ENDMDL
MODEL       77
REMARK 921   NORMALIZED FREE ENERGY PREDICTED BY IDOCK:   -5.33 KCAL/MOL
REMARK 922        TOTAL FREE ENERGY PREDICTED BY IDOCK:   -7.51 KCAL/MOL
REMARK 923 INTER-LIGAND FREE ENERGY PREDICTED BY IDOCK:   -6.65 KCAL/MOL
REMARK 924 INTRA-LIGAND FREE ENERGY PREDICTED BY IDOCK:   -0.86 KCAL/MOL
REMARK 927      BINDING AFFINITY PREDICTED BY RF-SCORE:    0.00 PKD
ROOT
HETATM    1  O   UNL     1     -11.225  14.956  64.691  1.00  0.00    -0.379 OA 
HETATM    2  C   UNL     1     -10.796  14.984  65.975  1.00  0.00    -0.334 C  
HETATM    3  O   UNL     1     -10.610  16.020  66.588  1.00  0.00    -0.317 OA 
HETATM    4  C   UNL     1     -10.547  13.641  66.557  1.00  0.00    -0.282 A  
HETATM    5  C   UNL     1     -11.305  12.525  66.191  1.00  0.00    -0.388 A  
HETATM    6  C   UNL     1     -11.049  11.277  66.775  1.00  0.00    -0.314 A  
HETATM    7  C   UNL     1     -10.082  11.142  67.782  1.00  0.00    -0.178 A  
HETATM    8  C   UNL     1      -9.310  12.260  68.135  1.00  0.00    -0.205 A  
HETATM    9  C   UNL     1      -9.550  13.506  67.532  1.00  0.00    -0.221 A  
ENDROOT
BRANCH   7  10
HETATM   10  N   UNL     1      -9.870   9.903  68.468  1.00  0.00    -0.153 NA 
HETATM   11  N   UNL     1      -8.888   9.062  68.033  1.00  0.00    -0.129 NA 
HETATM   12  C   UNL     1      -9.160   7.910  68.661  1.00  0.00    -0.136 A  
HETATM   13  N   UNL     1     -10.176   8.030  69.579  1.00  0.00    -0.205 NA 
HETATM   14  C   UNL     1     -10.572   9.288  69.506  1.00  0.00    -0.224 A  
BRANCH  12  15
HETATM   15  C   UNL     1      -8.511   6.606  68.450  1.00  0.00    -0.125 A  
HETATM   16  C   UNL     1      -8.793   5.914  67.250  1.00  0.00    -0.106 A  
HETATM   17  C   UNL     1      -8.211   4.678  66.954  1.00  0.00    -0.106 A  
HETATM   18  H   UNL     1      -6.650   6.206  71.117  1.00  0.00     0.000 HD 
HETATM   19  C   UNL     1      -7.327   4.100  67.856  1.00  0.00    -0.068 A  
HETATM   20  O   UNL     1      -7.261   6.613  70.514  1.00  0.00    -0.070 OA 
HETATM   21  C   UNL     1      -7.024   4.761  69.046  1.00  0.00    -0.052 A  
HETATM   22  C   UNL     1      -7.608   6.005  69.340  1.00  0.00    -0.097 A  
ENDBRANCH  12  15
BRANCH  14  23
HETATM   23  C   UNL     1     -11.622   9.840  70.374  1.00  0.00    -0.327 A  
HETATM   24  C   UNL     1     -13.422  11.080  72.151  1.00  0.00    -0.200 A  
HETATM   25  C   UNL     1     -13.299   9.691  72.137  1.00  0.00    -0.545 A  
HETATM   26  C   UNL     1     -11.819  11.233  70.356  1.00  0.00    -0.443 A  
HETATM   27  C   UNL     1     -12.434   9.078  71.226  1.00  0.00    -0.289 A  
HETATM   28  C   UNL     1     -12.709  11.849  71.236  1.00  0.00    -0.401 A  
HETATM   29  O   UNL     1     -12.380   7.713  71.179  1.00  0.00    -0.361 OA 
HETATM   30  H   UNL     1     -12.930   7.197  71.757  1.00  0.00     0.000 HD 
ENDBRANCH  14  23
ENDBRANCH   7  10
TORSDOF 3
ENDMDL
MODEL       78
REMARK 921   NORMALIZED FREE ENERGY PREDICTED BY IDOCK:   -5.32 KCAL/MOL
REMARK 922        TOTAL FREE ENERGY PREDICTED BY IDOCK:   -7.50 KCAL/MOL
REMARK 923 INTER-LIGAND FREE ENERGY PREDICTED BY IDOCK:   -6.57 KCAL/MOL
REMARK 924 INTRA-LIGAND FREE ENERGY PREDICTED BY IDOCK:   -0.93 KCAL/MOL
REMARK 927      BINDING AFFINITY PREDICTED BY RF-SCORE:    0.00 PKD
ROOT
HETATM    1  O   UNL     1      -6.125  12.993  67.217  1.00  0.00    -0.303 OA 
HETATM    2  C   UNL     1      -6.164  11.713  66.776  1.00  0.00    -0.123 C  
HETATM    3  O   UNL     1      -5.598  11.346  65.761  1.00  0.00    -0.203 OA 
HETATM    4  C   UNL     1      -6.978  10.807  67.624  1.00  0.00    -0.082 A  
HETATM    5  C   UNL     1      -7.074  10.979  69.009  1.00  0.00    -0.106 A  
HETATM    6  C   UNL     1      -7.840  10.092  69.776  1.00  0.00    -0.185 A  
HETATM    7  C   UNL     1      -8.463   8.983  69.183  1.00  0.00    -0.128 A  
HETATM    8  C   UNL     1      -8.380   8.824  67.791  1.00  0.00    -0.118 A  
HETATM    9  C   UNL     1      -7.631   9.726  67.018  1.00  0.00    -0.092 A  
ENDROOT
BRANCH   7  10
HETATM   10  N   UNL     1      -9.167   8.005  69.957  1.00  0.00    -0.155 NA 
HETATM   11  N   UNL     1      -8.620   6.767  70.121  1.00  0.00    -0.139 NA 
HETATM   12  C   UNL     1      -9.636   6.035  70.597  1.00  0.00    -0.173 A  
HETATM   13  N   UNL     1     -10.750   6.788  70.879  1.00  0.00    -0.228 NA 
HETATM   14  C   UNL     1     -10.434   8.026  70.542  1.00  0.00    -0.214 A  
BRANCH  12  15
HETATM   15  C   UNL     1      -9.659   4.579  70.816  1.00  0.00    -0.253 A  
HETATM   16  C   UNL     1      -9.958   4.112  72.116  1.00  0.00    -0.243 A  
HETATM   17  C   UNL     1     -10.020   2.748  72.416  1.00  0.00    -0.235 A  
HETATM   18  H   UNL     1      -9.004   3.323  67.862  1.00  0.00     0.000 HD 
HETATM   19  C   UNL     1      -9.783   1.813  71.417  1.00  0.00    -0.212 A  
HETATM   20  O   UNL     1      -9.158   3.976  68.534  1.00  0.00    -0.116 OA 
HETATM   21  C   UNL     1      -9.491   2.242  70.123  1.00  0.00    -0.141 A  
HETATM   22  C   UNL     1      -9.432   3.614  69.823  1.00  0.00    -0.184 A  
ENDBRANCH  12  15
BRANCH  14  23
HETATM   23  C   UNL     1     -11.351   9.160  70.737  1.00  0.00    -0.337 A  
HETATM   24  C   UNL     1     -12.864  11.509  71.085  1.00  0.00    -0.414 A  
HETATM   25  C   UNL     1     -12.953  10.476  72.017  1.00  0.00    -0.490 A  
HETATM   26  C   UNL     1     -11.336  10.184  69.773  1.00  0.00    -0.312 A  
HETATM   27  C   UNL     1     -12.230   9.297  71.820  1.00  0.00    -0.385 A  
HETATM   28  C   UNL     1     -12.084  11.349  69.944  1.00  0.00    -0.404 A  
HETATM   29  O   UNL     1     -12.384   8.268  72.707  1.00  0.00    -0.597 OA 
HETATM   30  H   UNL     1     -12.980   8.361  73.441  1.00  0.00     0.000 HD 
ENDBRANCH  14  23
ENDBRANCH   7  10
TORSDOF 3
ENDMDL
MODEL       79
REMARK 921   NORMALIZED FREE ENERGY PREDICTED BY IDOCK:   -5.29 KCAL/MOL
REMARK 922        TOTAL FREE ENERGY PREDICTED BY IDOCK:   -7.46 KCAL/MOL
REMARK 923 INTER-LIGAND FREE ENERGY PREDICTED BY IDOCK:   -6.74 KCAL/MOL
REMARK 924 INTRA-LIGAND FREE ENERGY PREDICTED BY IDOCK:   -0.71 KCAL/MOL
REMARK 927      BINDING AFFINITY PREDICTED BY RF-SCORE:    0.00 PKD
ROOT
HETATM    1  O   UNL     1     -11.361   4.550  74.124  1.00  0.00    -0.184 OA 
HETATM    2  C   UNL     1     -10.200   5.211  73.903  1.00  0.00    -0.225 C  
HETATM    3  O   UNL     1      -9.194   5.019  74.563  1.00  0.00    -0.113 OA 
HETATM    4  C   UNL     1     -10.272   6.207  72.804  1.00  0.00    -0.203 A  
HETATM    5  C   UNL     1     -11.087   6.014  71.684  1.00  0.00    -0.333 A  
HETATM    6  C   UNL     1     -11.114   6.971  70.661  1.00  0.00    -0.307 A  
HETATM    7  C   UNL     1     -10.278   8.096  70.709  1.00  0.00    -0.194 A  
HETATM    8  C   UNL     1      -9.475   8.297  71.842  1.00  0.00    -0.287 A  
HETATM    9  C   UNL     1      -9.464   7.349  72.879  1.00  0.00    -0.217 A  
ENDROOT
BRANCH   7  10
HETATM   10  N   UNL     1     -10.210   9.037  69.631  1.00  0.00    -0.199 NA 
HETATM   11  N   UNL     1     -10.569  10.334  69.856  1.00  0.00    -0.273 NA 
HETATM   12  C   UNL     1     -10.694  10.844  68.624  1.00  0.00    -0.203 A  
HETATM   13  N   UNL     1     -10.288   9.973  67.642  1.00  0.00    -0.207 NA 
HETATM   14  C   UNL     1      -9.925   8.872  68.275  1.00  0.00    -0.175 A  
BRANCH  12  15
HETATM   15  C   UNL     1     -11.211  12.173  68.259  1.00  0.00    -0.319 A  
HETATM   16  C   UNL     1     -11.231  13.172  69.258  1.00  0.00    -0.266 A  
HETATM   17  C   UNL     1     -11.689  14.467  69.000  1.00  0.00    -0.346 A  
HETATM   18  H   UNL     1     -11.966  11.883  65.083  1.00  0.00     0.000 HD 
HETATM   19  C   UNL     1     -12.140  14.798  67.729  1.00  0.00    -0.141 A  
HETATM   20  O   UNL     1     -11.660  11.638  65.948  1.00  0.00    -0.326 OA 
HETATM   21  C   UNL     1     -12.127  13.835  66.720  1.00  0.00    -0.460 A  
HETATM   22  C   UNL     1     -11.665  12.534  66.980  1.00  0.00    -0.367 A  
ENDBRANCH  12  15
BRANCH  14  23
HETATM   23  C   UNL     1      -9.375   7.700  67.576  1.00  0.00    -0.159 A  
HETATM   24  C   UNL     1      -8.128   5.647  66.106  1.00  0.00    -0.108 A  
HETATM   25  C   UNL     1      -9.511   5.812  66.041  1.00  0.00    -0.108 A  
HETATM   26  C   UNL     1      -7.992   7.466  67.683  1.00  0.00    -0.114 A  
HETATM   27  C   UNL     1     -10.130   6.807  66.803  1.00  0.00    -0.183 A  
HETATM   28  C   UNL     1      -7.372   6.450  66.955  1.00  0.00    -0.079 A  
HETATM   29  O   UNL     1     -11.492   6.908  66.780  1.00  0.00    -0.648 OA 
HETATM   30  H   UNL     1     -12.004   6.303  66.256  1.00  0.00     0.000 HD 
ENDBRANCH  14  23
ENDBRANCH   7  10
TORSDOF 3
ENDMDL
MODEL       80
REMARK 921   NORMALIZED FREE ENERGY PREDICTED BY IDOCK:   -5.25 KCAL/MOL
REMARK 922        TOTAL FREE ENERGY PREDICTED BY IDOCK:   -7.41 KCAL/MOL
REMARK 923 INTER-LIGAND FREE ENERGY PREDICTED BY IDOCK:   -6.49 KCAL/MOL
REMARK 924 INTRA-LIGAND FREE ENERGY PREDICTED BY IDOCK:   -0.92 KCAL/MOL
REMARK 927      BINDING AFFINITY PREDICTED BY RF-SCORE:    0.00 PKD
ROOT
HETATM    1  O   UNL     1     -12.482  13.928  66.570  1.00  0.00    -0.424 OA 
HETATM    2  C   UNL     1     -11.299  13.493  66.074  1.00  0.00    -0.312 C  
HETATM    3  O   UNL     1     -10.547  14.208  65.435  1.00  0.00    -0.308 OA 
HETATM    4  C   UNL     1     -11.016  12.063  66.355  1.00  0.00    -0.337 A  
HETATM    5  C   UNL     1     -11.451  11.441  67.529  1.00  0.00    -0.336 A  
HETATM    6  C   UNL     1     -11.149  10.093  67.764  1.00  0.00    -0.293 A  
HETATM    7  C   UNL     1     -10.350   9.369  66.866  1.00  0.00    -0.238 A  
HETATM    8  C   UNL     1      -9.931   9.991  65.680  1.00  0.00    -0.355 A  
HETATM    9  C   UNL     1     -10.253  11.335  65.432  1.00  0.00    -0.323 A  
ENDROOT
BRANCH   7  10
HETATM   10  N   UNL     1      -9.942   8.022  67.130  1.00  0.00    -0.209 NA 
HETATM   11  N   UNL     1      -9.419   7.274  66.116  1.00  0.00    -0.068 NA 
HETATM   12  C   UNL     1      -9.444   6.026  66.601  1.00  0.00    -0.149 A  
HETATM   13  N   UNL     1      -9.819   5.974  67.922  1.00  0.00    -0.115 NA 
HETATM   14  C   UNL     1     -10.064   7.225  68.269  1.00  0.00    -0.170 A  
BRANCH  12  15
HETATM   15  C   UNL     1      -9.136   4.782  65.876  1.00  0.00    -0.137 A  
HETATM   16  C   UNL     1     -10.119   4.267  65.001  1.00  0.00    -0.207 A  
HETATM   17  C   UNL     1      -9.909   3.101  64.257  1.00  0.00    -0.158 A  
HETATM   18  H   UNL     1      -6.091   4.041  66.833  1.00  0.00     0.000 HD 
HETATM   19  C   UNL     1      -8.706   2.420  64.371  1.00  0.00    -0.100 A  
HETATM   20  O   UNL     1      -6.910   4.517  66.772  1.00  0.00    -0.050 OA 
HETATM   21  C   UNL     1      -7.713   2.906  65.222  1.00  0.00    -0.081 A  
HETATM   22  C   UNL     1      -7.925   4.079  65.967  1.00  0.00    -0.094 A  
ENDBRANCH  12  15
BRANCH  14  23
HETATM   23  C   UNL     1     -10.450   7.607  69.636  1.00  0.00    -0.235 A  
HETATM   24  C   UNL     1     -11.463   8.405  72.140  1.00  0.00    -0.442 A  
HETATM   25  C   UNL     1     -10.286   8.969  71.650  1.00  0.00    -0.418 A  
HETATM   26  C   UNL     1     -11.594   7.000  70.185  1.00  0.00    -0.273 A  
HETATM   27  C   UNL     1      -9.766   8.542  70.426  1.00  0.00    -0.175 A  
HETATM   28  C   UNL     1     -12.098   7.394  71.424  1.00  0.00    -0.357 A  
HETATM   29  O   UNL     1      -8.574   9.055  69.996  1.00  0.00    -0.127 OA 
HETATM   30  H   UNL     1      -8.111   9.688  70.531  1.00  0.00     0.000 HD 
ENDBRANCH  14  23
ENDBRANCH   7  10
TORSDOF 3
ENDMDL
MODEL       81
REMARK 921   NORMALIZED FREE ENERGY PREDICTED BY IDOCK:   -5.23 KCAL/MOL
REMARK 922        TOTAL FREE ENERGY PREDICTED BY IDOCK:   -7.40 KCAL/MOL
REMARK 923 INTER-LIGAND FREE ENERGY PREDICTED BY IDOCK:   -6.86 KCAL/MOL
REMARK 924 INTRA-LIGAND FREE ENERGY PREDICTED BY IDOCK:   -0.53 KCAL/MOL
REMARK 927      BINDING AFFINITY PREDICTED BY RF-SCORE:    0.00 PKD
ROOT
HETATM    1  O   UNL     1     -11.220   7.439  73.219  1.00  0.00    -0.324 OA 
HETATM    2  C   UNL     1     -10.662   7.625  72.000  1.00  0.00    -0.227 C  
HETATM    3  O   UNL     1      -9.913   6.813  71.485  1.00  0.00    -0.179 OA 
HETATM    4  C   UNL     1     -11.023   8.915  71.361  1.00  0.00    -0.380 A  
HETATM    5  C   UNL     1     -12.271   9.514  71.557  1.00  0.00    -0.468 A  
HETATM    6  C   UNL     1     -12.579  10.724  70.923  1.00  0.00    -0.498 A  
HETATM    7  C   UNL     1     -11.673  11.317  70.030  1.00  0.00    -0.346 A  
HETATM    8  C   UNL     1     -10.414  10.724  69.849  1.00  0.00    -0.055 A  
HETATM    9  C   UNL     1     -10.096   9.522  70.503  1.00  0.00    -0.347 A  
ENDROOT
BRANCH   7  10
HETATM   10  N   UNL     1     -12.001  12.499  69.291  1.00  0.00    -0.281 NA 
HETATM   11  N   UNL     1     -12.069  12.435  67.930  1.00  0.00    -0.404 NA 
HETATM   12  C   UNL     1     -12.076  13.721  67.555  1.00  0.00    -0.331 A  
HETATM   13  N   UNL     1     -12.165  14.587  68.619  1.00  0.00    -0.192 NA 
HETATM   14  C   UNL     1     -12.185  13.822  69.696  1.00  0.00    -0.305 A  
BRANCH  12  15
HETATM   15  C   UNL     1     -11.989  14.250  66.184  1.00  0.00    -0.422 A  
HETATM   16  C   UNL     1     -12.639  13.530  65.156  1.00  0.00    -0.485 A  
HETATM   17  C   UNL     1     -12.625  13.963  63.827  1.00  0.00     0.012 A  
HETATM   18  H   UNL     1     -10.243  17.004  66.507  1.00  0.00     0.000 HD 
HETATM   19  C   UNL     1     -11.957  15.133  63.492  1.00  0.00     0.970 A  
HETATM   20  O   UNL     1     -10.690  16.203  66.753  1.00  0.00    -0.310 OA 
HETATM   21  C   UNL     1     -11.310  15.869  64.485  1.00  0.00    -0.316 A  
HETATM   22  C   UNL     1     -11.327  15.433  65.820  1.00  0.00    -0.115 A  
ENDBRANCH  12  15
BRANCH  14  23
HETATM   23  C   UNL     1     -12.324  14.369  71.054  1.00  0.00    -0.427 A  
HETATM   24  C   UNL     1     -12.299  15.342  73.697  1.00  0.00    -0.693 A  
HETATM   25  C   UNL     1     -13.266  14.419  73.301  1.00  0.00    -0.257 A  
HETATM   26  C   UNL     1     -11.405  15.355  71.457  1.00  0.00    -0.461 A  
HETATM   27  C   UNL     1     -13.299  13.969  71.979  1.00  0.00    -0.427 A  
HETATM   28  C   UNL     1     -11.391  15.838  72.766  1.00  0.00    -0.002 A  
HETATM   29  O   UNL     1     -14.297  13.119  71.592  1.00  0.00     0.407 OA 
HETATM   30  H   UNL     1     -14.957  12.848  72.218  1.00  0.00     0.000 HD 
ENDBRANCH  14  23
ENDBRANCH   7  10
TORSDOF 3
ENDMDL
MODEL       82
REMARK 921   NORMALIZED FREE ENERGY PREDICTED BY IDOCK:   -5.21 KCAL/MOL
REMARK 922        TOTAL FREE ENERGY PREDICTED BY IDOCK:   -7.37 KCAL/MOL
REMARK 923 INTER-LIGAND FREE ENERGY PREDICTED BY IDOCK:   -6.57 KCAL/MOL
REMARK 924 INTRA-LIGAND FREE ENERGY PREDICTED BY IDOCK:   -0.79 KCAL/MOL
REMARK 927      BINDING AFFINITY PREDICTED BY RF-SCORE:    0.00 PKD
ROOT
HETATM    1  O   UNL     1     -11.360   5.868  70.166  1.00  0.00    -0.338 OA 
HETATM    2  C   UNL     1     -10.263   6.610  70.448  1.00  0.00    -0.188 C  
HETATM    3  O   UNL     1      -9.441   6.282  71.286  1.00  0.00    -0.159 OA 
HETATM    4  C   UNL     1     -10.168   7.869  69.667  1.00  0.00    -0.207 A  
HETATM    5  C   UNL     1     -10.647   7.964  68.357  1.00  0.00    -0.154 A  
HETATM    6  C   UNL     1     -10.524   9.166  67.648  1.00  0.00    -0.323 A  
HETATM    7  C   UNL     1      -9.859  10.266  68.210  1.00  0.00    -0.146 A  
HETATM    8  C   UNL     1      -9.396  10.174  69.532  1.00  0.00    -0.230 A  
HETATM    9  C   UNL     1      -9.540   8.977  70.252  1.00  0.00    -0.230 A  
ENDROOT
BRANCH   7  10
HETATM   10  N   UNL     1      -9.630  11.472  67.472  1.00  0.00    -0.171 NA 
HETATM   11  N   UNL     1      -9.808  12.674  68.090  1.00  0.00    -0.222 NA 
HETATM   12  C   UNL     1      -9.825  13.549  67.077  1.00  0.00    -0.251 A  
HETATM   13  N   UNL     1      -9.519  12.972  65.867  1.00  0.00    -0.108 NA 
HETATM   14  C   UNL     1      -9.333  11.690  66.126  1.00  0.00    -0.224 A  
BRANCH  12  15
HETATM   15  C   UNL     1     -10.139  14.986  67.145  1.00  0.00    -0.239 A  
HETATM   16  C   UNL     1     -10.164  15.715  65.935  1.00  0.00    -0.372 A  
HETATM   17  C   UNL     1     -10.468  17.079  65.899  1.00  0.00    -0.282 A  
HETATM   18  H   UNL     1     -10.668  15.530  70.333  1.00  0.00     0.000 HD 
HETATM   19  C   UNL     1     -10.757  17.751  67.080  1.00  0.00    -0.192 A  
HETATM   20  O   UNL     1     -10.462  15.056  69.536  1.00  0.00    -0.241 OA 
HETATM   21  C   UNL     1     -10.745  17.058  68.290  1.00  0.00    -0.372 A  
HETATM   22  C   UNL     1     -10.442  15.686  68.323  1.00  0.00    -0.252 A  
ENDBRANCH  12  15
BRANCH  14  23
HETATM   23  C   UNL     1      -8.935  10.722  65.092  1.00  0.00    -0.215 A  
HETATM   24  C   UNL     1      -7.906   9.010  63.107  1.00  0.00    -0.133 A  
HETATM   25  C   UNL     1      -9.113   9.676  62.898  1.00  0.00    -0.241 A  
HETATM   26  C   UNL     1      -7.759   9.982  65.309  1.00  0.00    -0.139 A  
HETATM   27  C   UNL     1      -9.639  10.493  63.901  1.00  0.00    -0.309 A  
HETATM   28  C   UNL     1      -7.247   9.133  64.326  1.00  0.00    -0.099 A  
HETATM   29  O   UNL     1     -10.857  11.082  63.706  1.00  0.00    -0.533 OA 
HETATM   30  H   UNL     1     -11.334  10.927  62.899  1.00  0.00     0.000 HD 
ENDBRANCH  14  23
ENDBRANCH   7  10
TORSDOF 3
ENDMDL
MODEL       83
REMARK 921   NORMALIZED FREE ENERGY PREDICTED BY IDOCK:   -5.16 KCAL/MOL
REMARK 922        TOTAL FREE ENERGY PREDICTED BY IDOCK:   -7.31 KCAL/MOL
REMARK 923 INTER-LIGAND FREE ENERGY PREDICTED BY IDOCK:   -6.76 KCAL/MOL
REMARK 924 INTRA-LIGAND FREE ENERGY PREDICTED BY IDOCK:   -0.55 KCAL/MOL
REMARK 927      BINDING AFFINITY PREDICTED BY RF-SCORE:    0.00 PKD
ROOT
HETATM    1  O   UNL     1     -10.084  12.914  65.499  1.00  0.00    -0.278 OA 
HETATM    2  C   UNL     1     -11.074  12.506  66.328  1.00  0.00    -0.295 C  
HETATM    3  O   UNL     1     -12.096  13.147  66.503  1.00  0.00    -0.393 OA 
HETATM    4  C   UNL     1     -10.791  11.225  67.022  1.00  0.00    -0.332 A  
HETATM    5  C   UNL     1     -10.041  10.209  66.422  1.00  0.00    -0.300 A  
HETATM    6  C   UNL     1      -9.810   9.008  67.105  1.00  0.00    -0.262 A  
HETATM    7  C   UNL     1     -10.380   8.778  68.365  1.00  0.00    -0.204 A  
HETATM    8  C   UNL     1     -11.116   9.806  68.974  1.00  0.00    -0.143 A  
HETATM    9  C   UNL     1     -11.330  11.019  68.299  1.00  0.00    -0.366 A  
ENDROOT
BRANCH   7  10
HETATM   10  N   UNL     1     -10.244   7.522  69.042  1.00  0.00    -0.200 NA 
HETATM   11  N   UNL     1      -9.306   6.632  68.609  1.00  0.00    -0.131 NA 
HETATM   12  C   UNL     1      -9.649   5.492  69.223  1.00  0.00    -0.136 A  
HETATM   13  N   UNL     1     -10.666   5.659  70.131  1.00  0.00    -0.311 NA 
HETATM   14  C   UNL     1     -10.991   6.938  70.066  1.00  0.00    -0.279 A  
BRANCH  12  15
HETATM   15  C   UNL     1      -9.070   4.155  69.006  1.00  0.00    -0.187 A  
HETATM   16  C   UNL     1      -9.658   3.333  68.018  1.00  0.00    -0.148 A  
HETATM   17  C   UNL     1      -9.167   2.056  67.731  1.00  0.00    -0.212 A  
HETATM   18  H   UNL     1      -6.561   4.028  71.110  1.00  0.00     0.000 HD 
HETATM   19  C   UNL     1      -8.070   1.568  68.428  1.00  0.00    -0.062 A  
HETATM   20  O   UNL     1      -7.314   4.376  70.647  1.00  0.00    -0.047 OA 
HETATM   21  C   UNL     1      -7.465   2.357  69.405  1.00  0.00    -0.043 A  
HETATM   22  C   UNL     1      -7.958   3.641  69.691  1.00  0.00    -0.050 A  
ENDBRANCH  12  15
BRANCH  14  23
HETATM   23  C   UNL     1     -12.019   7.540  70.928  1.00  0.00    -0.278 A  
HETATM   24  C   UNL     1     -14.150   8.738  72.327  1.00  0.00    -0.511 A  
HETATM   25  C   UNL     1     -12.850   9.214  72.492  1.00  0.00    -0.387 A  
HETATM   26  C   UNL     1     -13.327   7.030  70.836  1.00  0.00     0.062 A  
HETATM   27  C   UNL     1     -11.791   8.592  71.826  1.00  0.00    -0.331 A  
HETATM   28  C   UNL     1     -14.384   7.623  71.528  1.00  0.00    -0.589 A  
HETATM   29  O   UNL     1     -10.516   9.028  72.054  1.00  0.00    -0.346 OA 
HETATM   30  H   UNL     1     -10.361   9.741  72.663  1.00  0.00     0.000 HD 
ENDBRANCH  14  23
ENDBRANCH   7  10
TORSDOF 3
ENDMDL
MODEL       84
REMARK 921   NORMALIZED FREE ENERGY PREDICTED BY IDOCK:   -5.16 KCAL/MOL
REMARK 922        TOTAL FREE ENERGY PREDICTED BY IDOCK:   -7.31 KCAL/MOL
REMARK 923 INTER-LIGAND FREE ENERGY PREDICTED BY IDOCK:   -6.20 KCAL/MOL
REMARK 924 INTRA-LIGAND FREE ENERGY PREDICTED BY IDOCK:   -1.10 KCAL/MOL
REMARK 927      BINDING AFFINITY PREDICTED BY RF-SCORE:    0.00 PKD
ROOT
HETATM    1  O   UNL     1      -6.042  19.204  67.051  1.00  0.00    -0.174 OA 
HETATM    2  C   UNL     1      -6.654  18.786  68.185  1.00  0.00    -0.222 C  
HETATM    3  O   UNL     1      -6.765  19.490  69.173  1.00  0.00    -0.309 OA 
HETATM    4  C   UNL     1      -7.149  17.388  68.123  1.00  0.00    -0.196 A  
HETATM    5  C   UNL     1      -7.617  16.821  66.934  1.00  0.00    -0.252 A  
HETATM    6  C   UNL     1      -8.091  15.503  66.922  1.00  0.00    -0.284 A  
HETATM    7  C   UNL     1      -8.169  14.758  68.108  1.00  0.00    -0.142 A  
HETATM    8  C   UNL     1      -7.681  15.322  69.296  1.00  0.00    -0.214 A  
HETATM    9  C   UNL     1      -7.185  16.636  69.305  1.00  0.00    -0.200 A  
ENDROOT
BRANCH   7  10
HETATM   10  N   UNL     1      -8.743  13.445  68.142  1.00  0.00    -0.174 NA 
HETATM   11  N   UNL     1      -8.049  12.402  67.605  1.00  0.00    -0.156 NA 
HETATM   12  C   UNL     1      -8.964  11.428  67.517  1.00  0.00    -0.150 A  
HETATM   13  N   UNL     1     -10.159  11.763  68.108  1.00  0.00    -0.186 NA 
HETATM   14  C   UNL     1      -9.997  12.995  68.556  1.00  0.00    -0.172 A  
BRANCH  12  15
HETATM   15  C   UNL     1      -8.810  10.116  66.867  1.00  0.00    -0.142 A  
HETATM   16  C   UNL     1      -8.789  10.078  65.454  1.00  0.00    -0.199 A  
HETATM   17  C   UNL     1      -8.630   8.880  64.749  1.00  0.00    -0.184 A  
HETATM   18  H   UNL     1      -8.534   8.019  69.369  1.00  0.00     0.000 HD 
HETATM   19  C   UNL     1      -8.486   7.687  65.443  1.00  0.00    -0.110 A  
HETATM   20  O   UNL     1      -8.640   8.844  68.911  1.00  0.00    -0.132 OA 
HETATM   21  C   UNL     1      -8.496   7.693  66.838  1.00  0.00    -0.126 A  
HETATM   22  C   UNL     1      -8.654   8.897  67.545  1.00  0.00    -0.120 A  
ENDBRANCH  12  15
BRANCH  14  23
HETATM   23  C   UNL     1     -11.042  13.710  69.305  1.00  0.00    -0.241 A  
HETATM   24  C   UNL     1     -12.830  15.280  70.811  1.00  0.00    -0.494 A  
HETATM   25  C   UNL     1     -12.705  13.917  71.075  1.00  0.00    -0.428 A  
HETATM   26  C   UNL     1     -11.243  15.070  69.008  1.00  0.00    -0.279 A  
HETATM   27  C   UNL     1     -11.845  13.134  70.299  1.00  0.00    -0.224 A  
HETATM   28  C   UNL     1     -12.127  15.850  69.754  1.00  0.00    -0.231 A  
HETATM   29  O   UNL     1     -11.788  11.788  70.527  1.00  0.00    -0.461 OA 
HETATM   30  H   UNL     1     -12.332  11.398  71.201  1.00  0.00     0.000 HD 
ENDBRANCH  14  23
ENDBRANCH   7  10
TORSDOF 3
ENDMDL
MODEL       85
REMARK 921   NORMALIZED FREE ENERGY PREDICTED BY IDOCK:   -5.05 KCAL/MOL
REMARK 922        TOTAL FREE ENERGY PREDICTED BY IDOCK:   -7.18 KCAL/MOL
REMARK 923 INTER-LIGAND FREE ENERGY PREDICTED BY IDOCK:   -6.32 KCAL/MOL
REMARK 924 INTRA-LIGAND FREE ENERGY PREDICTED BY IDOCK:   -0.87 KCAL/MOL
REMARK 927      BINDING AFFINITY PREDICTED BY RF-SCORE:    0.00 PKD
ROOT
HETATM    1  O   UNL     1      -5.950  15.964  68.750  1.00  0.00    -0.099 OA 
HETATM    2  C   UNL     1      -6.104  14.866  69.528  1.00  0.00    -0.113 C  
HETATM    3  O   UNL     1      -5.661  14.792  70.661  1.00  0.00    -0.143 OA 
HETATM    4  C   UNL     1      -6.834  13.756  68.868  1.00  0.00    -0.110 A  
HETATM    5  C   UNL     1      -7.850  13.990  67.936  1.00  0.00    -0.161 A  
HETATM    6  C   UNL     1      -8.527  12.914  67.347  1.00  0.00    -0.196 A  
HETATM    7  C   UNL     1      -8.247  11.594  67.731  1.00  0.00    -0.141 A  
HETATM    8  C   UNL     1      -7.214  11.361  68.651  1.00  0.00    -0.100 A  
HETATM    9  C   UNL     1      -6.520  12.438  69.226  1.00  0.00    -0.107 A  
ENDROOT
BRANCH   7  10
HETATM   10  N   UNL     1      -8.991  10.482  67.220  1.00  0.00    -0.139 NA 
HETATM   11  N   UNL     1      -8.667   9.221  67.628  1.00  0.00    -0.116 NA 
HETATM   12  C   UNL     1      -9.311   8.434  66.756  1.00  0.00    -0.184 A  
HETATM   13  N   UNL     1     -10.140   9.136  65.914  1.00  0.00    -0.188 NA 
HETATM   14  C   UNL     1      -9.990  10.405  66.249  1.00  0.00    -0.226 A  
BRANCH  12  15
HETATM   15  C   UNL     1      -9.200   6.972  66.625  1.00  0.00    -0.189 A  
HETATM   16  C   UNL     1      -8.165   6.459  65.810  1.00  0.00    -0.134 A  
HETATM   17  C   UNL     1      -7.971   5.085  65.640  1.00  0.00    -0.107 A  
HETATM   18  H   UNL     1     -11.602   5.821  68.533  1.00  0.00     0.000 HD 
HETATM   19  C   UNL     1      -8.811   4.186  66.284  1.00  0.00    -0.118 A  
HETATM   20  O   UNL     1     -11.041   6.450  68.095  1.00  0.00    -0.311 OA 
HETATM   21  C   UNL     1      -9.837   4.661  67.099  1.00  0.00    -0.227 A  
HETATM   22  C   UNL     1     -10.029   6.043  67.271  1.00  0.00    -0.150 A  
ENDBRANCH  12  15
BRANCH  14  23
HETATM   23  C   UNL     1     -10.751  11.489  65.608  1.00  0.00    -0.323 A  
HETATM   24  C   UNL     1     -11.941  13.681  64.300  1.00  0.00    -0.488 A  
HETATM   25  C   UNL     1     -12.268  13.397  65.625  1.00  0.00    -0.510 A  
HETATM   26  C   UNL     1     -10.494  11.752  64.250  1.00  0.00    -0.373 A  
HETATM   27  C   UNL     1     -11.705  12.285  66.258  1.00  0.00    -0.366 A  
HETATM   28  C   UNL     1     -11.082  12.838  63.601  1.00  0.00    -0.443 A  
HETATM   29  O   UNL     1     -12.091  11.982  67.533  1.00  0.00    -0.555 OA 
HETATM   30  H   UNL     1     -12.737  12.521  67.973  1.00  0.00     0.000 HD 
ENDBRANCH  14  23
ENDBRANCH   7  10
TORSDOF 3
ENDMDL
MODEL       86
REMARK 921   NORMALIZED FREE ENERGY PREDICTED BY IDOCK:   -5.01 KCAL/MOL
REMARK 922        TOTAL FREE ENERGY PREDICTED BY IDOCK:   -7.13 KCAL/MOL
REMARK 923 INTER-LIGAND FREE ENERGY PREDICTED BY IDOCK:   -6.97 KCAL/MOL
REMARK 924 INTRA-LIGAND FREE ENERGY PREDICTED BY IDOCK:   -0.17 KCAL/MOL
REMARK 927      BINDING AFFINITY PREDICTED BY RF-SCORE:    0.00 PKD
ROOT
HETATM    1  O   UNL     1     -13.194  13.987  65.582  1.00  0.00    -0.634 OA 
HETATM    2  C   UNL     1     -11.986  13.453  65.283  1.00  0.00    -0.380 C  
HETATM    3  O   UNL     1     -11.361  13.751  64.280  1.00  0.00    -0.376 OA 
HETATM    4  C   UNL     1     -11.507  12.454  66.270  1.00  0.00    -0.423 A  
HETATM    5  C   UNL     1     -11.808  12.557  67.632  1.00  0.00    -0.381 A  
HETATM    6  C   UNL     1     -11.323  11.601  68.534  1.00  0.00    -0.332 A  
HETATM    7  C   UNL     1     -10.475  10.571  68.101  1.00  0.00    -0.186 A  
HETATM    8  C   UNL     1     -10.189  10.458  66.732  1.00  0.00    -0.282 A  
HETATM    9  C   UNL     1     -10.694  11.403  65.823  1.00  0.00    -0.309 A  
ENDROOT
BRANCH   7  10
HETATM   10  N   UNL     1      -9.883   9.640  69.016  1.00  0.00    -0.175 NA 
HETATM   11  N   UNL     1      -8.627   9.171  68.767  1.00  0.00    -0.130 NA 
HETATM   12  C   UNL     1      -8.511   8.128  69.599  1.00  0.00    -0.126 A  
HETATM   13  N   UNL     1      -9.576   8.011  70.460  1.00  0.00    -0.170 NA 
HETATM   14  C   UNL     1     -10.398   8.994  70.140  1.00  0.00    -0.210 A  
BRANCH  12  15
HETATM   15  C   UNL     1      -7.412   7.150  69.654  1.00  0.00    -0.098 A  
HETATM   16  C   UNL     1      -7.598   5.910  69.001  1.00  0.00    -0.090 A  
HETATM   17  C   UNL     1      -6.605   4.926  68.984  1.00  0.00    -0.045 A  
HETATM   18  H   UNL     1      -5.067   8.687  71.350  1.00  0.00     0.000 HD 
HETATM   19  C   UNL     1      -5.395   5.160  69.624  1.00  0.00    -0.003 A  
HETATM   20  O   UNL     1      -5.903   8.542  70.923  1.00  0.00    -0.032 OA 
HETATM   21  C   UNL     1      -5.178   6.375  70.272  1.00  0.00    -0.014 A  
HETATM   22  C   UNL     1      -6.177   7.364  70.285  1.00  0.00    -0.034 A  
ENDBRANCH  12  15
BRANCH  14  23
HETATM   23  C   UNL     1     -11.651   9.249  70.868  1.00  0.00    -0.364 A  
HETATM   24  C   UNL     1     -13.888   9.918  72.442  1.00  0.00    -0.100 A  
HETATM   25  C   UNL     1     -13.559   8.581  72.228  1.00  0.00    -0.371 A  
HETATM   26  C   UNL     1     -12.046  10.588  71.036  1.00  0.00    -0.492 A  
HETATM   27  C   UNL     1     -12.472   8.252  71.414  1.00  0.00    -0.292 A  
HETATM   28  C   UNL     1     -13.154  10.922  71.817  1.00  0.00    -0.564 A  
HETATM   29  O   UNL     1     -12.208   6.936  71.159  1.00  0.00    -0.358 OA 
HETATM   30  H   UNL     1     -12.764   6.261  71.530  1.00  0.00     0.000 HD 
ENDBRANCH  14  23
ENDBRANCH   7  10
TORSDOF 3
ENDMDL
MODEL       87
REMARK 921   NORMALIZED FREE ENERGY PREDICTED BY IDOCK:   -4.96 KCAL/MOL
REMARK 922        TOTAL FREE ENERGY PREDICTED BY IDOCK:   -7.07 KCAL/MOL
REMARK 923 INTER-LIGAND FREE ENERGY PREDICTED BY IDOCK:   -6.19 KCAL/MOL
REMARK 924 INTRA-LIGAND FREE ENERGY PREDICTED BY IDOCK:   -0.88 KCAL/MOL
REMARK 927      BINDING AFFINITY PREDICTED BY RF-SCORE:    0.00 PKD
ROOT
HETATM    1  O   UNL     1      -9.727   2.861  73.577  1.00  0.00    -0.097 OA 
HETATM    2  C   UNL     1      -8.791   3.811  73.341  1.00  0.00    -0.092 C  
HETATM    3  O   UNL     1      -7.728   3.854  73.935  1.00  0.00    -0.076 OA 
HETATM    4  C   UNL     1      -9.189   4.808  72.317  1.00  0.00    -0.151 A  
HETATM    5  C   UNL     1     -10.000   4.468  71.230  1.00  0.00    -0.258 A  
HETATM    6  C   UNL     1     -10.340   5.436  70.275  1.00  0.00    -0.357 A  
HETATM    7  C   UNL     1      -9.819   6.736  70.355  1.00  0.00    -0.175 A  
HETATM    8  C   UNL     1      -9.021   7.080  71.457  1.00  0.00    -0.139 A  
HETATM    9  C   UNL     1      -8.698   6.116  72.426  1.00  0.00    -0.125 A  
ENDROOT
BRANCH   7  10
HETATM   10  N   UNL     1     -10.067   7.716  69.340  1.00  0.00    -0.191 NA 
HETATM   11  N   UNL     1      -9.462   7.583  68.125  1.00  0.00    -0.143 NA 
HETATM   12  C   UNL     1      -9.644   8.780  67.552  1.00  0.00    -0.152 A  
HETATM   13  N   UNL     1     -10.459   9.606  68.287  1.00  0.00    -0.209 NA 
HETATM   14  C   UNL     1     -10.776   8.918  69.368  1.00  0.00    -0.181 A  
BRANCH  12  15
HETATM   15  C   UNL     1      -9.065   9.257  66.284  1.00  0.00    -0.213 A  
HETATM   16  C   UNL     1      -9.929   9.886  65.359  1.00  0.00    -0.349 A  
HETATM   17  C   UNL     1      -9.468  10.386  64.138  1.00  0.00    -0.353 A  
HETATM   18  H   UNL     1      -5.883   8.520  66.538  1.00  0.00     0.000 HD 
HETATM   19  C   UNL     1      -8.124  10.269  63.810  1.00  0.00    -0.143 A  
HETATM   20  O   UNL     1      -6.800   8.586  66.776  1.00  0.00    -0.067 OA 
HETATM   21  C   UNL     1      -7.245   9.659  64.705  1.00  0.00    -0.123 A  
HETATM   22  C   UNL     1      -7.710   9.159  65.933  1.00  0.00    -0.095 A  
ENDBRANCH  12  15
BRANCH  14  23
HETATM   23  C   UNL     1     -11.686   9.437  70.401  1.00  0.00    -0.195 A  
HETATM   24  C   UNL     1     -13.637  10.243  72.265  1.00  0.00    -0.165 A  
HETATM   25  C   UNL     1     -12.983  11.194  71.484  1.00  0.00    -0.542 A  
HETATM   26  C   UNL     1     -12.306   8.505  71.253  1.00  0.00    -0.301 A  
HETATM   27  C   UNL     1     -11.988  10.794  70.588  1.00  0.00    -0.367 A  
HETATM   28  C   UNL     1     -13.273   8.902  72.177  1.00  0.00    -0.478 A  
HETATM   29  O   UNL     1     -11.309  11.746  69.881  1.00  0.00    -0.451 OA 
HETATM   30  H   UNL     1     -11.514  12.665  70.008  1.00  0.00     0.000 HD 
ENDBRANCH  14  23
ENDBRANCH   7  10
TORSDOF 3
ENDMDL
MODEL       88
REMARK 921   NORMALIZED FREE ENERGY PREDICTED BY IDOCK:   -4.95 KCAL/MOL
REMARK 922        TOTAL FREE ENERGY PREDICTED BY IDOCK:   -7.07 KCAL/MOL
REMARK 923 INTER-LIGAND FREE ENERGY PREDICTED BY IDOCK:   -6.47 KCAL/MOL
REMARK 924 INTRA-LIGAND FREE ENERGY PREDICTED BY IDOCK:   -0.60 KCAL/MOL
REMARK 927      BINDING AFFINITY PREDICTED BY RF-SCORE:    0.00 PKD
ROOT
HETATM    1  O   UNL     1      -7.898  10.633  64.757  1.00  0.00    -0.071 OA 
HETATM    2  C   UNL     1      -8.680   9.530  64.837  1.00  0.00    -0.189 C  
HETATM    3  O   UNL     1      -9.123   8.961  63.855  1.00  0.00     0.085 OA 
HETATM    4  C   UNL     1      -8.968   9.095  66.227  1.00  0.00    -0.194 A  
HETATM    5  C   UNL     1      -8.044   9.264  67.261  1.00  0.00    -0.113 A  
HETATM    6  C   UNL     1      -8.349   8.825  68.556  1.00  0.00    -0.129 A  
HETATM    7  C   UNL     1      -9.549   8.150  68.821  1.00  0.00    -0.149 A  
HETATM    8  C   UNL     1     -10.484   7.998  67.785  1.00  0.00    -0.280 A  
HETATM    9  C   UNL     1     -10.188   8.459  66.491  1.00  0.00    -0.277 A  
ENDROOT
BRANCH   7  10
HETATM   10  N   UNL     1      -9.843   7.601  70.111  1.00  0.00    -0.184 NA 
HETATM   11  N   UNL     1      -9.199   6.468  70.514  1.00  0.00    -0.155 NA 
HETATM   12  C   UNL     1      -9.908   6.065  71.576  1.00  0.00    -0.168 A  
HETATM   13  N   UNL     1     -10.875   6.968  71.947  1.00  0.00    -0.222 NA 
HETATM   14  C   UNL     1     -10.789   7.955  71.073  1.00  0.00    -0.235 A  
BRANCH  12  15
HETATM   15  C   UNL     1      -9.755   4.805  72.323  1.00  0.00    -0.209 A  
HETATM   16  C   UNL     1      -9.592   3.613  71.582  1.00  0.00    -0.226 A  
HETATM   17  C   UNL     1      -9.423   2.372  72.204  1.00  0.00    -0.177 A  
HETATM   18  H   UNL     1      -9.842   5.732  75.465  1.00  0.00     0.000 HD 
HETATM   19  C   UNL     1      -9.412   2.294  73.590  1.00  0.00    -0.104 A  
HETATM   20  O   UNL     1      -9.859   5.804  74.518  1.00  0.00    -0.192 OA 
HETATM   21  C   UNL     1      -9.564   3.453  74.350  1.00  0.00    -0.131 A  
HETATM   22  C   UNL     1      -9.731   4.700  73.723  1.00  0.00    -0.136 A  
ENDBRANCH  12  15
BRANCH  14  23
HETATM   23  C   UNL     1     -11.632   9.158  71.152  1.00  0.00    -0.386 A  
HETATM   24  C   UNL     1     -12.990  11.617  71.357  1.00  0.00    -0.426 A  
HETATM   25  C   UNL     1     -13.397  10.527  72.125  1.00  0.00    -0.347 A  
HETATM   26  C   UNL     1     -11.288  10.250  70.333  1.00  0.00    -0.410 A  
HETATM   27  C   UNL     1     -12.746   9.298  71.991  1.00  0.00    -0.401 A  
HETATM   28  C   UNL     1     -11.959  11.469  70.434  1.00  0.00    -0.459 A  
HETATM   29  O   UNL     1     -13.204   8.224  72.701  1.00  0.00    -0.582 OA 
HETATM   30  H   UNL     1     -13.958   8.319  73.270  1.00  0.00     0.000 HD 
ENDBRANCH  14  23
ENDBRANCH   7  10
TORSDOF 3
ENDMDL
MODEL       89
REMARK 921   NORMALIZED FREE ENERGY PREDICTED BY IDOCK:   -4.95 KCAL/MOL
REMARK 922        TOTAL FREE ENERGY PREDICTED BY IDOCK:   -7.06 KCAL/MOL
REMARK 923 INTER-LIGAND FREE ENERGY PREDICTED BY IDOCK:   -6.22 KCAL/MOL
REMARK 924 INTRA-LIGAND FREE ENERGY PREDICTED BY IDOCK:   -0.84 KCAL/MOL
REMARK 927      BINDING AFFINITY PREDICTED BY RF-SCORE:    0.00 PKD
ROOT
HETATM    1  O   UNL     1     -10.233   4.168  71.312  1.00  0.00    -0.129 OA 
HETATM    2  C   UNL     1      -9.052   4.640  70.847  1.00  0.00    -0.131 C  
HETATM    3  O   UNL     1      -7.975   4.231  71.244  1.00  0.00    -0.073 OA 
HETATM    4  C   UNL     1      -9.189   5.715  69.833  1.00  0.00    -0.173 A  
HETATM    5  C   UNL     1     -10.256   5.750  68.931  1.00  0.00    -0.267 A  
HETATM    6  C   UNL     1     -10.340   6.774  67.979  1.00  0.00    -0.224 A  
HETATM    7  C   UNL     1      -9.325   7.736  67.869  1.00  0.00    -0.140 A  
HETATM    8  C   UNL     1      -8.265   7.710  68.787  1.00  0.00    -0.128 A  
HETATM    9  C   UNL     1      -8.192   6.697  69.757  1.00  0.00    -0.127 A  
ENDROOT
BRANCH   7  10
HETATM   10  N   UNL     1      -9.334   8.733  66.840  1.00  0.00    -0.157 NA 
HETATM   11  N   UNL     1     -10.142   9.823  66.977  1.00  0.00    -0.205 NA 
HETATM   12  C   UNL     1     -10.150  10.365  65.753  1.00  0.00    -0.262 A  
HETATM   13  N   UNL     1      -9.271   9.752  64.892  1.00  0.00    -0.242 NA 
HETATM   14  C   UNL     1      -8.715   8.778  65.590  1.00  0.00    -0.184 A  
BRANCH  12  15
HETATM   15  C   UNL     1     -10.982  11.483  65.278  1.00  0.00    -0.291 A  
HETATM   16  C   UNL     1     -10.907  11.828  63.910  1.00  0.00    -0.468 A  
HETATM   17  C   UNL     1     -11.672  12.864  63.365  1.00  0.00    -0.526 A  
HETATM   18  H   UNL     1     -12.618  12.441  67.951  1.00  0.00     0.000 HD 
HETATM   19  C   UNL     1     -12.535  13.584  64.181  1.00  0.00    -0.301 A  
HETATM   20  O   UNL     1     -12.019  11.942  67.409  1.00  0.00    -0.603 OA 
HETATM   21  C   UNL     1     -12.635  13.264  65.534  1.00  0.00    -0.505 A  
HETATM   22  C   UNL     1     -11.867  12.221  66.079  1.00  0.00    -0.341 A  
ENDBRANCH  12  15
BRANCH  14  23
HETATM   23  C   UNL     1      -7.668   7.905  65.038  1.00  0.00    -0.106 A  
HETATM   24  C   UNL     1      -5.615   6.448  63.774  1.00  0.00    -0.022 A  
HETATM   25  C   UNL     1      -6.862   5.861  63.983  1.00  0.00    -0.049 A  
HETATM   26  C   UNL     1      -6.379   8.448  64.884  1.00  0.00    -0.060 A  
HETATM   27  C   UNL     1      -7.865   6.574  64.646  1.00  0.00    -0.112 A  
HETATM   28  C   UNL     1      -5.361   7.729  64.257  1.00  0.00    -0.029 A  
HETATM   29  O   UNL     1      -9.057   5.957  64.903  1.00  0.00    -0.364 OA 
HETATM   30  H   UNL     1      -9.191   5.055  64.637  1.00  0.00     0.000 HD 
ENDBRANCH  14  23
ENDBRANCH   7  10
TORSDOF 3
ENDMDL
MODEL       90
REMARK 921   NORMALIZED FREE ENERGY PREDICTED BY IDOCK:   -4.91 KCAL/MOL
REMARK 922        TOTAL FREE ENERGY PREDICTED BY IDOCK:   -7.02 KCAL/MOL
REMARK 923 INTER-LIGAND FREE ENERGY PREDICTED BY IDOCK:   -6.53 KCAL/MOL
REMARK 924 INTRA-LIGAND FREE ENERGY PREDICTED BY IDOCK:   -0.48 KCAL/MOL
REMARK 927      BINDING AFFINITY PREDICTED BY RF-SCORE:    0.00 PKD
ROOT
HETATM    1  O   UNL     1      -7.953   2.741  71.358  1.00  0.00    -0.050 OA 
HETATM    2  C   UNL     1      -7.207   3.791  70.940  1.00  0.00    -0.033 C  
HETATM    3  O   UNL     1      -5.997   3.840  71.079  1.00  0.00    -0.013 OA 
HETATM    4  C   UNL     1      -7.997   4.886  70.324  1.00  0.00    -0.069 A  
HETATM    5  C   UNL     1      -9.161   4.635  69.591  1.00  0.00    -0.186 A  
HETATM    6  C   UNL     1      -9.870   5.696  69.011  1.00  0.00    -0.210 A  
HETATM    7  C   UNL     1      -9.389   7.011  69.096  1.00  0.00    -0.140 A  
HETATM    8  C   UNL     1      -8.231   7.262  69.847  1.00  0.00    -0.133 A  
HETATM    9  C   UNL     1      -7.533   6.202  70.448  1.00  0.00    -0.090 A  
ENDROOT
BRANCH   7  10
HETATM   10  N   UNL     1     -10.038   8.100  68.428  1.00  0.00    -0.195 NA 
HETATM   11  N   UNL     1      -9.750   8.343  67.117  1.00  0.00    -0.173 NA 
HETATM   12  C   UNL     1     -10.256   9.565  66.906  1.00  0.00    -0.249 A  
HETATM   13  N   UNL     1     -10.975  10.038  67.977  1.00  0.00    -0.260 NA 
HETATM   14  C   UNL     1     -10.894   9.096  68.900  1.00  0.00    -0.070 A  
BRANCH  12  15
HETATM   15  C   UNL     1     -10.102  10.396  65.700  1.00  0.00    -0.337 A  
HETATM   16  C   UNL     1      -9.191   9.962  64.710  1.00  0.00    -0.309 A  
HETATM   17  C   UNL     1      -8.990  10.676  63.525  1.00  0.00    -0.216 A  
HETATM   18  H   UNL     1     -12.209  12.862  66.164  1.00  0.00     0.000 HD 
HETATM   19  C   UNL     1      -9.700  11.848  63.300  1.00  0.00    -0.280 A  
HETATM   20  O   UNL     1     -11.729  12.061  66.337  1.00  0.00    -0.518 OA 
HETATM   21  C   UNL     1     -10.610  12.300  64.255  1.00  0.00    -0.387 A  
HETATM   22  C   UNL     1     -10.812  11.579  65.445  1.00  0.00    -0.259 A  
ENDBRANCH  12  15
BRANCH  14  23
HETATM   23  C   UNL     1     -11.580   9.196  70.197  1.00  0.00    -0.041 A  
HETATM   24  C   UNL     1     -13.097   9.195  72.570  1.00  0.00    -0.445 A  
HETATM   25  C   UNL     1     -12.778  10.400  71.945  1.00  0.00    -0.459 A  
HETATM   26  C   UNL     1     -11.851   8.000  70.886  1.00  0.00    -0.236 A  
HETATM   27  C   UNL     1     -11.991  10.398  70.790  1.00  0.00    -0.363 A  
HETATM   28  C   UNL     1     -12.603   7.997  72.061  1.00  0.00    -0.346 A  
HETATM   29  O   UNL     1     -11.631  11.592  70.232  1.00  0.00    -0.467 OA 
HETATM   30  H   UNL     1     -11.910  12.406  70.634  1.00  0.00     0.000 HD 
ENDBRANCH  14  23
ENDBRANCH   7  10
TORSDOF 3
ENDMDL
MODEL       91
REMARK 921   NORMALIZED FREE ENERGY PREDICTED BY IDOCK:   -4.90 KCAL/MOL
REMARK 922        TOTAL FREE ENERGY PREDICTED BY IDOCK:   -7.01 KCAL/MOL
REMARK 923 INTER-LIGAND FREE ENERGY PREDICTED BY IDOCK:   -6.19 KCAL/MOL
REMARK 924 INTRA-LIGAND FREE ENERGY PREDICTED BY IDOCK:   -0.82 KCAL/MOL
REMARK 927      BINDING AFFINITY PREDICTED BY RF-SCORE:    0.00 PKD
ROOT
HETATM    1  O   UNL     1      -9.263  11.210  62.783  1.00  0.00    -0.316 OA 
HETATM    2  C   UNL     1      -8.264  10.483  63.339  1.00  0.00    -0.098 C  
HETATM    3  O   UNL     1      -7.104  10.567  62.975  1.00  0.00    -0.112 OA 
HETATM    4  C   UNL     1      -8.714   9.558  64.409  1.00  0.00    -0.235 A  
HETATM    5  C   UNL     1      -9.784   9.870  65.253  1.00  0.00    -0.383 A  
HETATM    6  C   UNL     1     -10.168   8.976  66.262  1.00  0.00    -0.237 A  
HETATM    7  C   UNL     1      -9.446   7.795  66.486  1.00  0.00    -0.201 A  
HETATM    8  C   UNL     1      -8.384   7.476  65.626  1.00  0.00    -0.144 A  
HETATM    9  C   UNL     1      -8.014   8.360  64.600  1.00  0.00    -0.147 A  
ENDROOT
BRANCH   7  10
HETATM   10  N   UNL     1      -9.752   6.913  67.573  1.00  0.00    -0.130 NA 
HETATM   11  N   UNL     1     -10.123   7.443  68.774  1.00  0.00    -0.174 NA 
HETATM   12  C   UNL     1     -10.026   6.407  69.617  1.00  0.00    -0.164 A  
HETATM   13  N   UNL     1      -9.755   5.221  68.977  1.00  0.00    -0.143 NA 
HETATM   14  C   UNL     1      -9.651   5.527  67.697  1.00  0.00    -0.123 A  
BRANCH  12  15
HETATM   15  C   UNL     1     -10.163   6.435  71.083  1.00  0.00    -0.224 A  
HETATM   16  C   UNL     1     -10.542   5.239  71.734  1.00  0.00    -0.268 A  
HETATM   17  C   UNL     1     -10.681   5.166  73.124  1.00  0.00    -0.318 A  
HETATM   18  H   UNL     1      -9.365   9.508  71.894  1.00  0.00     0.000 HD 
HETATM   19  C   UNL     1     -10.443   6.292  73.899  1.00  0.00    -0.292 A  
HETATM   20  O   UNL     1      -9.529   8.749  71.347  1.00  0.00    -0.210 OA 
HETATM   21  C   UNL     1     -10.062   7.486  73.287  1.00  0.00    -0.386 A  
HETATM   22  C   UNL     1      -9.921   7.557  71.890  1.00  0.00    -0.171 A  
ENDBRANCH  12  15
BRANCH  14  23
HETATM   23  C   UNL     1      -9.411   4.515  66.657  1.00  0.00    -0.156 A  
HETATM   24  C   UNL     1      -8.685   2.712  64.619  1.00  0.00    -0.106 A  
HETATM   25  C   UNL     1      -9.899   3.393  64.549  1.00  0.00    -0.164 A  
HETATM   26  C   UNL     1      -8.226   3.761  66.741  1.00  0.00    -0.096 A  
HETATM   27  C   UNL     1     -10.273   4.256  65.582  1.00  0.00    -0.197 A  
HETATM   28  C   UNL     1      -7.864   2.868  65.732  1.00  0.00    -0.081 A  
HETATM   29  O   UNL     1     -11.498   4.860  65.530  1.00  0.00    -0.914 OA 
HETATM   30  H   UNL     1     -12.083   4.685  64.802  1.00  0.00     0.000 HD 
ENDBRANCH  14  23
ENDBRANCH   7  10
TORSDOF 3
ENDMDL
MODEL       92
REMARK 921   NORMALIZED FREE ENERGY PREDICTED BY IDOCK:   -4.89 KCAL/MOL
REMARK 922        TOTAL FREE ENERGY PREDICTED BY IDOCK:   -7.00 KCAL/MOL
REMARK 923 INTER-LIGAND FREE ENERGY PREDICTED BY IDOCK:   -6.38 KCAL/MOL
REMARK 924 INTRA-LIGAND FREE ENERGY PREDICTED BY IDOCK:   -0.62 KCAL/MOL
REMARK 927      BINDING AFFINITY PREDICTED BY RF-SCORE:    0.00 PKD
ROOT
HETATM    1  O   UNL     1      -9.187   4.770  72.840  1.00  0.00    -0.124 OA 
HETATM    2  C   UNL     1     -10.261   5.437  72.355  1.00  0.00    -0.195 C  
HETATM    3  O   UNL     1     -11.353   5.415  72.896  1.00  0.00    -0.294 OA 
HETATM    4  C   UNL     1      -9.995   6.173  71.094  1.00  0.00    -0.218 A  
HETATM    5  C   UNL     1      -8.748   6.743  70.819  1.00  0.00    -0.146 A  
HETATM    6  C   UNL     1      -8.543   7.444  69.623  1.00  0.00    -0.137 A  
HETATM    7  C   UNL     1      -9.597   7.645  68.720  1.00  0.00    -0.153 A  
HETATM    8  C   UNL     1     -10.842   7.056  68.988  1.00  0.00    -0.212 A  
HETATM    9  C   UNL     1     -11.042   6.333  70.176  1.00  0.00    -0.443 A  
ENDROOT
BRANCH   7  10
HETATM   10  N   UNL     1      -9.442   8.442  67.539  1.00  0.00    -0.146 NA 
HETATM   11  N   UNL     1     -10.015   9.679  67.493  1.00  0.00    -0.173 NA 
HETATM   12  C   UNL     1      -9.955  10.004  66.195  1.00  0.00    -0.256 A  
HETATM   13  N   UNL     1      -9.242   9.096  65.449  1.00  0.00    -0.220 NA 
HETATM   14  C   UNL     1      -8.866   8.158  66.301  1.00  0.00    -0.164 A  
BRANCH  12  15
HETATM   15  C   UNL     1     -10.565  11.173  65.541  1.00  0.00    -0.289 A  
HETATM   16  C   UNL     1     -11.438  11.978  66.307  1.00  0.00    -0.408 A  
HETATM   17  C   UNL     1     -12.051  13.117  65.776  1.00  0.00    -0.502 A  
HETATM   18  H   UNL     1      -9.317  11.127  62.511  1.00  0.00     0.000 HD 
HETATM   19  C   UNL     1     -11.804  13.481  64.460  1.00  0.00    -0.442 A  
HETATM   20  O   UNL     1      -9.479  10.860  63.408  1.00  0.00    -0.250 OA 
HETATM   21  C   UNL     1     -10.943  12.710  63.679  1.00  0.00    -0.464 A  
HETATM   22  C   UNL     1     -10.326  11.567  64.215  1.00  0.00    -0.323 A  
ENDBRANCH  12  15
BRANCH  14  23
HETATM   23  C   UNL     1      -8.029   7.016  65.903  1.00  0.00    -0.113 A  
HETATM   24  C   UNL     1      -6.290   5.017  64.948  1.00  0.00    -0.034 A  
HETATM   25  C   UNL     1      -7.668   4.804  64.946  1.00  0.00    -0.078 A  
HETATM   26  C   UNL     1      -6.633   7.177  65.964  1.00  0.00    -0.052 A  
HETATM   27  C   UNL     1      -8.524   5.782  65.457  1.00  0.00    -0.150 A  
HETATM   28  C   UNL     1      -5.770   6.189  65.490  1.00  0.00    -0.024 A  
HETATM   29  O   UNL     1      -9.866   5.526  65.512  1.00  0.00    -0.368 OA 
HETATM   30  H   UNL     1     -10.201   4.690  65.210  1.00  0.00     0.000 HD 
ENDBRANCH  14  23
ENDBRANCH   7  10
TORSDOF 3
ENDMDL
MODEL       93
REMARK 921   NORMALIZED FREE ENERGY PREDICTED BY IDOCK:   -4.89 KCAL/MOL
REMARK 922        TOTAL FREE ENERGY PREDICTED BY IDOCK:   -7.00 KCAL/MOL
REMARK 923 INTER-LIGAND FREE ENERGY PREDICTED BY IDOCK:   -6.37 KCAL/MOL
REMARK 924 INTRA-LIGAND FREE ENERGY PREDICTED BY IDOCK:   -0.63 KCAL/MOL
REMARK 927      BINDING AFFINITY PREDICTED BY RF-SCORE:    0.00 PKD
ROOT
HETATM    1  O   UNL     1     -10.577  13.155  64.693  1.00  0.00    -0.347 OA 
HETATM    2  C   UNL     1     -11.367  12.497  65.575  1.00  0.00    -0.331 C  
HETATM    3  O   UNL     1     -12.485  12.881  65.874  1.00  0.00    -0.527 OA 
HETATM    4  C   UNL     1     -10.740  11.287  66.162  1.00  0.00    -0.307 A  
HETATM    5  C   UNL     1      -9.843  10.495  65.439  1.00  0.00    -0.335 A  
HETATM    6  C   UNL     1      -9.285   9.351  66.025  1.00  0.00    -0.253 A  
HETATM    7  C   UNL     1      -9.668   8.944  67.312  1.00  0.00    -0.181 A  
HETATM    8  C   UNL     1     -10.554   9.751  68.042  1.00  0.00    -0.291 A  
HETATM    9  C   UNL     1     -11.096  10.911  67.464  1.00  0.00    -0.375 A  
ENDROOT
BRANCH   7  10
HETATM   10  N   UNL     1      -9.191   7.726  67.895  1.00  0.00    -0.137 NA 
HETATM   11  N   UNL     1      -8.292   6.966  67.207  1.00  0.00    -0.121 NA 
HETATM   12  C   UNL     1      -8.304   5.797  67.859  1.00  0.00    -0.104 A  
HETATM   13  N   UNL     1      -9.056   5.834  69.009  1.00  0.00    -0.116 NA 
HETATM   14  C   UNL     1      -9.554   7.057  69.065  1.00  0.00    -0.141 A  
BRANCH  12  15
HETATM   15  C   UNL     1      -7.632   4.548  67.463  1.00  0.00    -0.078 A  
HETATM   16  C   UNL     1      -6.256   4.417  67.756  1.00  0.00    -0.036 A  
HETATM   17  C   UNL     1      -5.537   3.262  67.433  1.00  0.00    -0.021 A  
HETATM   18  H   UNL     1     -10.020   2.757  66.110  1.00  0.00     0.000 HD 
HETATM   19  C   UNL     1      -6.181   2.204  66.806  1.00  0.00    -0.024 A  
HETATM   20  O   UNL     1      -9.594   3.493  66.534  1.00  0.00    -0.181 OA 
HETATM   21  C   UNL     1      -7.540   2.301  66.508  1.00  0.00    -0.070 A  
HETATM   22  C   UNL     1      -8.261   3.462  66.836  1.00  0.00    -0.092 A  
ENDBRANCH  12  15
BRANCH  14  23
HETATM   23  C   UNL     1     -10.387   7.523  70.184  1.00  0.00    -0.217 A  
HETATM   24  C   UNL     1     -12.209   8.432  72.129  1.00  0.00    -0.434 A  
HETATM   25  C   UNL     1     -10.998   9.096  71.942  1.00  0.00    -0.372 A  
HETATM   26  C   UNL     1     -11.581   6.826  70.443  1.00  0.00    -0.422 A  
HETATM   27  C   UNL     1     -10.080   8.619  71.003  1.00  0.00    -0.215 A  
HETATM   28  C   UNL     1     -12.486   7.275  71.406  1.00  0.00    -0.418 A  
HETATM   29  O   UNL     1      -8.870   9.242  70.883  1.00  0.00    -0.222 OA 
HETATM   30  H   UNL     1      -8.662   9.984  71.438  1.00  0.00     0.000 HD 
ENDBRANCH  14  23
ENDBRANCH   7  10
TORSDOF 3
ENDMDL
MODEL       94
REMARK 921   NORMALIZED FREE ENERGY PREDICTED BY IDOCK:   -4.87 KCAL/MOL
REMARK 922        TOTAL FREE ENERGY PREDICTED BY IDOCK:   -6.97 KCAL/MOL
REMARK 923 INTER-LIGAND FREE ENERGY PREDICTED BY IDOCK:   -5.90 KCAL/MOL
REMARK 924 INTRA-LIGAND FREE ENERGY PREDICTED BY IDOCK:   -1.08 KCAL/MOL
REMARK 927      BINDING AFFINITY PREDICTED BY RF-SCORE:    0.00 PKD
ROOT
HETATM    1  O   UNL     1      -9.826   4.747  73.700  1.00  0.00    -0.137 OA 
HETATM    2  C   UNL     1     -10.870   5.255  73.003  1.00  0.00    -0.280 C  
HETATM    3  O   UNL     1     -12.022   4.904  73.190  1.00  0.00    -0.223 OA 
HETATM    4  C   UNL     1     -10.483   6.254  71.977  1.00  0.00    -0.239 A  
HETATM    5  C   UNL     1      -9.394   7.113  72.155  1.00  0.00    -0.148 A  
HETATM    6  C   UNL     1      -9.071   8.054  71.168  1.00  0.00    -0.172 A  
HETATM    7  C   UNL     1      -9.870   8.197  70.025  1.00  0.00    -0.182 A  
HETATM    8  C   UNL     1     -10.951   7.322  69.839  1.00  0.00    -0.262 A  
HETATM    9  C   UNL     1     -11.262   6.363  70.817  1.00  0.00    -0.386 A  
ENDROOT
BRANCH   7  10
HETATM   10  N   UNL     1      -9.622   9.217  69.049  1.00  0.00    -0.157 NA 
HETATM   11  N   UNL     1      -9.986  10.503  69.325  1.00  0.00    -0.220 NA 
HETATM   12  C   UNL     1      -9.913  11.111  68.134  1.00  0.00    -0.178 A  
HETATM   13  N   UNL     1      -9.381  10.307  67.155  1.00  0.00    -0.152 NA 
HETATM   14  C   UNL     1      -9.139   9.149  67.742  1.00  0.00    -0.126 A  
BRANCH  12  15
HETATM   15  C   UNL     1     -10.344  12.481  67.806  1.00  0.00    -0.224 A  
HETATM   16  C   UNL     1     -11.649  12.658  67.294  1.00  0.00    -0.428 A  
HETATM   17  C   UNL     1     -12.151  13.922  66.969  1.00  0.00    -0.451 A  
HETATM   18  H   UNL     1      -7.769  14.337  68.621  1.00  0.00     0.000 HD 
HETATM   19  C   UNL     1     -11.355  15.045  67.151  1.00  0.00    -0.323 A  
HETATM   20  O   UNL     1      -8.297  13.557  68.498  1.00  0.00    -0.155 OA 
HETATM   21  C   UNL     1     -10.065  14.904  67.660  1.00  0.00    -0.227 A  
HETATM   22  C   UNL     1      -9.563  13.633  67.988  1.00  0.00    -0.216 A  
ENDBRANCH  12  15
BRANCH  14  23
HETATM   23  C   UNL     1      -8.513   8.019  67.039  1.00  0.00    -0.120 A  
HETATM   24  C   UNL     1      -7.058   5.932  65.832  1.00  0.00    -0.074 A  
HETATM   25  C   UNL     1      -7.788   6.821  65.045  1.00  0.00    -0.118 A  
HETATM   26  C   UNL     1      -7.830   7.065  67.815  1.00  0.00    -0.113 A  
HETATM   27  C   UNL     1      -8.540   7.831  65.650  1.00  0.00    -0.127 A  
HETATM   28  C   UNL     1      -7.107   6.031  67.219  1.00  0.00    -0.070 A  
HETATM   29  O   UNL     1      -9.304   8.649  64.866  1.00  0.00    -0.389 OA 
HETATM   30  H   UNL     1      -9.323   8.522  63.925  1.00  0.00     0.000 HD 
ENDBRANCH  14  23
ENDBRANCH   7  10
TORSDOF 3
ENDMDL
MODEL       95
REMARK 921   NORMALIZED FREE ENERGY PREDICTED BY IDOCK:   -4.80 KCAL/MOL
REMARK 922        TOTAL FREE ENERGY PREDICTED BY IDOCK:   -6.88 KCAL/MOL
REMARK 923 INTER-LIGAND FREE ENERGY PREDICTED BY IDOCK:   -5.68 KCAL/MOL
REMARK 924 INTRA-LIGAND FREE ENERGY PREDICTED BY IDOCK:   -1.20 KCAL/MOL
REMARK 927      BINDING AFFINITY PREDICTED BY RF-SCORE:    0.00 PKD
ROOT
HETATM    1  O   UNL     1     -12.383  13.917  63.342  1.00  0.00    -0.760 OA 
HETATM    2  C   UNL     1     -12.595  13.228  64.489  1.00  0.00    -0.251 C  
HETATM    3  O   UNL     1     -13.548  13.438  65.219  1.00  0.00    -0.282 OA 
HETATM    4  C   UNL     1     -11.549  12.219  64.788  1.00  0.00    -0.393 A  
HETATM    5  C   UNL     1     -10.879  11.525  63.776  1.00  0.00    -0.486 A  
HETATM    6  C   UNL     1      -9.910  10.567  64.101  1.00  0.00    -0.401 A  
HETATM    7  C   UNL     1      -9.645  10.240  65.439  1.00  0.00    -0.251 A  
HETATM    8  C   UNL     1     -10.305  10.951  66.454  1.00  0.00    -0.306 A  
HETATM    9  C   UNL     1     -11.261  11.927  66.128  1.00  0.00    -0.387 A  
ENDROOT
BRANCH   7  10
HETATM   10  N   UNL     1      -8.734   9.195  65.799  1.00  0.00    -0.154 NA 
HETATM   11  N   UNL     1      -8.890   7.957  65.248  1.00  0.00    -0.005 NA 
HETATM   12  C   UNL     1      -8.112   7.175  66.007  1.00  0.00    -0.115 A  
HETATM   13  N   UNL     1      -7.362   7.886  66.913  1.00  0.00    -0.088 NA 
HETATM   14  C   UNL     1      -7.701   9.151  66.737  1.00  0.00    -0.097 A  
BRANCH  12  15
HETATM   15  C   UNL     1      -8.010   5.707  65.962  1.00  0.00    -0.106 A  
HETATM   16  C   UNL     1      -6.859   5.142  65.368  1.00  0.00    -0.060 A  
HETATM   17  C   UNL     1      -6.667   3.759  65.295  1.00  0.00    -0.045 A  
HETATM   18  H   UNL     1     -10.739   4.679  67.456  1.00  0.00     0.000 HD 
HETATM   19  C   UNL     1      -7.627   2.903  65.816  1.00  0.00    -0.073 A  
HETATM   20  O   UNL     1     -10.095   5.279  67.100  1.00  0.00    -0.166 OA 
HETATM   21  C   UNL     1      -8.772   3.430  66.413  1.00  0.00    -0.126 A  
HETATM   22  C   UNL     1      -8.962   4.820  66.488  1.00  0.00    -0.112 A  
ENDBRANCH  12  15
BRANCH  14  23
HETATM   23  C   UNL     1      -7.080  10.251  67.490  1.00  0.00    -0.086 A  
HETATM   24  C   UNL     1      -6.158  12.392  69.069  1.00  0.00    -0.077 A  
HETATM   25  C   UNL     1      -6.004  12.428  67.684  1.00  0.00    -0.128 A  
HETATM   26  C   UNL     1      -7.157  10.204  68.894  1.00  0.00    -0.069 A  
HETATM   27  C   UNL     1      -6.427  11.346  66.908  1.00  0.00    -0.138 A  
HETATM   28  C   UNL     1      -6.702  11.265  69.678  1.00  0.00    -0.122 A  
HETATM   29  O   UNL     1      -6.203  11.369  65.560  1.00  0.00    -0.391 OA 
HETATM   30  H   UNL     1      -5.761  12.111  65.166  1.00  0.00     0.000 HD 
ENDBRANCH  14  23
ENDBRANCH   7  10
TORSDOF 3
ENDMDL
MODEL       96
REMARK 921   NORMALIZED FREE ENERGY PREDICTED BY IDOCK:   -4.79 KCAL/MOL
REMARK 922        TOTAL FREE ENERGY PREDICTED BY IDOCK:   -6.87 KCAL/MOL
REMARK 923 INTER-LIGAND FREE ENERGY PREDICTED BY IDOCK:   -6.24 KCAL/MOL
REMARK 924 INTRA-LIGAND FREE ENERGY PREDICTED BY IDOCK:   -0.64 KCAL/MOL
REMARK 927      BINDING AFFINITY PREDICTED BY RF-SCORE:    0.00 PKD
ROOT
HETATM    1  O   UNL     1      -8.369   5.009  65.095  1.00  0.00    -0.124 OA 
HETATM    2  C   UNL     1      -8.266   6.211  64.480  1.00  0.00    -0.079 C  
HETATM    3  O   UNL     1      -7.836   6.339  63.347  1.00  0.00    -0.103 OA 
HETATM    4  C   UNL     1      -8.697   7.357  65.320  1.00  0.00     0.057 A  
HETATM    5  C   UNL     1      -9.725   7.239  66.260  1.00  0.00    -0.068 A  
HETATM    6  C   UNL     1     -10.112   8.349  67.022  1.00  0.00    -0.354 A  
HETATM    7  C   UNL     1      -9.528   9.606  66.806  1.00  0.00    -0.161 A  
HETATM    8  C   UNL     1      -8.484   9.718  65.875  1.00  0.00    -0.136 A  
HETATM    9  C   UNL     1      -8.079   8.600  65.128  1.00  0.00    -0.143 A  
ENDROOT
BRANCH   7  10
HETATM   10  N   UNL     1      -9.975  10.779  67.498  1.00  0.00    -0.171 NA 
HETATM   11  N   UNL     1     -10.119  11.945  66.806  1.00  0.00    -0.200 NA 
HETATM   12  C   UNL     1     -10.231  12.869  67.768  1.00  0.00    -0.224 A  
HETATM   13  N   UNL     1     -10.311  12.323  69.027  1.00  0.00    -0.044 NA 
HETATM   14  C   UNL     1     -10.218  11.017  68.851  1.00  0.00    -0.203 A  
BRANCH  12  15
HETATM   15  C   UNL     1     -10.259  14.332  67.599  1.00  0.00    -0.237 A  
HETATM   16  C   UNL     1      -9.798  14.864  66.374  1.00  0.00    -0.292 A  
HETATM   17  C   UNL     1      -9.802  16.239  66.117  1.00  0.00    -0.358 A  
HETATM   18  H   UNL     1     -11.545  15.429  70.407  1.00  0.00     0.000 HD 
HETATM   19  C   UNL     1     -10.271  17.118  67.083  1.00  0.00    -0.316 A  
HETATM   20  O   UNL     1     -11.222  14.813  69.760  1.00  0.00    -0.260 OA 
HETATM   21  C   UNL     1     -10.739  16.623  68.300  1.00  0.00    -0.351 A  
HETATM   22  C   UNL     1     -10.736  15.241  68.556  1.00  0.00    -0.247 A  
ENDBRANCH  12  15
BRANCH  14  23
HETATM   23  C   UNL     1     -10.311  10.059  69.963  1.00  0.00    -0.323 A  
HETATM   24  C   UNL     1     -10.615   8.448  72.253  1.00  0.00    -0.412 A  
HETATM   25  C   UNL     1      -9.367   8.569  71.645  1.00  0.00    -0.311 A  
HETATM   26  C   UNL     1     -11.574   9.862  70.551  1.00  0.00    -0.386 A  
HETATM   27  C   UNL     1      -9.229   9.338  70.486  1.00  0.00    -0.261 A  
HETATM   28  C   UNL     1     -11.727   9.065  71.686  1.00  0.00    -0.431 A  
HETATM   29  O   UNL     1      -8.012   9.387  69.865  1.00  0.00    -0.098 OA 
HETATM   30  H   UNL     1      -7.279   8.898  70.219  1.00  0.00     0.000 HD 
ENDBRANCH  14  23
ENDBRANCH   7  10
TORSDOF 3
ENDMDL
MODEL       97
REMARK 921   NORMALIZED FREE ENERGY PREDICTED BY IDOCK:   -4.78 KCAL/MOL
REMARK 922        TOTAL FREE ENERGY PREDICTED BY IDOCK:   -6.86 KCAL/MOL
REMARK 923 INTER-LIGAND FREE ENERGY PREDICTED BY IDOCK:   -5.81 KCAL/MOL
REMARK 924 INTRA-LIGAND FREE ENERGY PREDICTED BY IDOCK:   -1.05 KCAL/MOL
REMARK 927      BINDING AFFINITY PREDICTED BY RF-SCORE:    0.00 PKD
ROOT
HETATM    1  O   UNL     1     -12.673  12.590  65.129  1.00  0.00    -0.659 OA 
HETATM    2  C   UNL     1     -11.347  12.337  65.020  1.00  0.00    -0.328 C  
HETATM    3  O   UNL     1     -10.643  12.855  64.171  1.00  0.00    -0.389 OA 
HETATM    4  C   UNL     1     -10.837  11.353  66.007  1.00  0.00    -0.306 A  
HETATM    5  C   UNL     1     -11.372  11.252  67.294  1.00  0.00    -0.329 A  
HETATM    6  C   UNL     1     -10.851  10.320  68.202  1.00  0.00    -0.312 A  
HETATM    7  C   UNL     1      -9.746   9.527  67.861  1.00  0.00    -0.147 A  
HETATM    8  C   UNL     1      -9.222   9.617  66.562  1.00  0.00    -0.197 A  
HETATM    9  C   UNL     1      -9.759  10.534  65.644  1.00  0.00    -0.289 A  
ENDROOT
BRANCH   7  10
HETATM   10  N   UNL     1      -9.129   8.640  68.802  1.00  0.00    -0.142 NA 
HETATM   11  N   UNL     1      -8.635   9.146  69.968  1.00  0.00    -0.146 NA 
HETATM   12  C   UNL     1      -7.877   8.151  70.446  1.00  0.00    -0.090 A  
HETATM   13  N   UNL     1      -7.989   6.994  69.712  1.00  0.00    -0.121 NA 
HETATM   14  C   UNL     1      -8.821   7.281  68.727  1.00  0.00    -0.127 A  
BRANCH  12  15
HETATM   15  C   UNL     1      -6.979   8.196  71.612  1.00  0.00    -0.072 A  
HETATM   16  C   UNL     1      -6.946   7.069  72.464  1.00  0.00    -0.065 A  
HETATM   17  C   UNL     1      -6.112   7.014  73.586  1.00  0.00    -0.062 A  
HETATM   18  H   UNL     1      -5.505  11.112  71.363  1.00  0.00     0.000 HD 
HETATM   19  C   UNL     1      -5.287   8.090  73.883  1.00  0.00    -0.050 A  
HETATM   20  O   UNL     1      -6.080  10.388  71.148  1.00  0.00    -0.309 OA 
HETATM   21  C   UNL     1      -5.293   9.215  73.057  1.00  0.00    -0.082 A  
HETATM   22  C   UNL     1      -6.129   9.267  71.930  1.00  0.00     0.008 A  
ENDBRANCH  12  15
BRANCH  14  23
HETATM   23  C   UNL     1      -9.247   6.283  67.734  1.00  0.00    -0.115 A  
HETATM   24  C   UNL     1      -9.868   4.504  65.641  1.00  0.00    -0.227 A  
HETATM   25  C   UNL     1     -10.885   5.209  66.283  1.00  0.00    -0.180 A  
HETATM   26  C   UNL     1      -8.249   5.505  67.121  1.00  0.00    -0.101 A  
HETATM   27  C   UNL     1     -10.576   6.061  67.347  1.00  0.00    -0.283 A  
HETATM   28  C   UNL     1      -8.554   4.623  66.084  1.00  0.00    -0.114 A  
HETATM   29  O   UNL     1     -11.593   6.690  68.009  1.00  0.00    -0.574 OA 
HETATM   30  H   UNL     1     -12.494   6.540  67.746  1.00  0.00     0.000 HD 
ENDBRANCH  14  23
ENDBRANCH   7  10
TORSDOF 3
ENDMDL
MODEL       98
REMARK 921   NORMALIZED FREE ENERGY PREDICTED BY IDOCK:   -4.71 KCAL/MOL
REMARK 922        TOTAL FREE ENERGY PREDICTED BY IDOCK:   -6.79 KCAL/MOL
REMARK 923 INTER-LIGAND FREE ENERGY PREDICTED BY IDOCK:   -6.08 KCAL/MOL
REMARK 924 INTRA-LIGAND FREE ENERGY PREDICTED BY IDOCK:   -0.71 KCAL/MOL
REMARK 927      BINDING AFFINITY PREDICTED BY RF-SCORE:    0.00 PKD
ROOT
HETATM    1  O   UNL     1      -6.234  16.363  69.753  1.00  0.00    -0.207 OA 
HETATM    2  C   UNL     1      -7.425  16.265  69.117  1.00  0.00    -0.218 C  
HETATM    3  O   UNL     1      -8.115  17.234  68.853  1.00  0.00    -0.257 OA 
HETATM    4  C   UNL     1      -7.826  14.872  68.798  1.00  0.00    -0.149 A  
HETATM    5  C   UNL     1      -6.885  13.886  68.486  1.00  0.00    -0.098 A  
HETATM    6  C   UNL     1      -7.305  12.586  68.174  1.00  0.00    -0.110 A  
HETATM    7  C   UNL     1      -8.670  12.272  68.101  1.00  0.00    -0.186 A  
HETATM    8  C   UNL     1      -9.612  13.258  68.432  1.00  0.00    -0.185 A  
HETATM    9  C   UNL     1      -9.190  14.555  68.768  1.00  0.00    -0.162 A  
ENDROOT
BRANCH   7  10
HETATM   10  N   UNL     1      -9.130  10.980  67.686  1.00  0.00    -0.144 NA 
HETATM   11  N   UNL     1      -8.783   9.883  68.419  1.00  0.00    -0.118 NA 
HETATM   12  C   UNL     1      -9.089   8.858  67.614  1.00  0.00    -0.134 A  
HETATM   13  N   UNL     1      -9.747   9.251  66.473  1.00  0.00    -0.219 NA 
HETATM   14  C   UNL     1      -9.830  10.568  66.551  1.00  0.00    -0.206 A  
BRANCH  12  15
HETATM   15  C   UNL     1      -8.786   7.433  67.832  1.00  0.00    -0.123 A  
HETATM   16  C   UNL     1      -7.428   7.042  67.843  1.00  0.00    -0.099 A  
HETATM   17  C   UNL     1      -7.043   5.715  68.059  1.00  0.00    -0.071 A  
HETATM   18  H   UNL     1     -11.728   6.049  68.236  1.00  0.00     0.000 HD 
HETATM   19  C   UNL     1      -8.011   4.743  68.270  1.00  0.00    -0.085 A  
HETATM   20  O   UNL     1     -11.080   6.726  68.084  1.00  0.00    -0.218 OA 
HETATM   21  C   UNL     1      -9.360   5.099  68.271  1.00  0.00    -0.152 A  
HETATM   22  C   UNL     1      -9.745   6.433  68.056  1.00  0.00    -0.122 A  
ENDBRANCH  12  15
BRANCH  14  23
HETATM   23  C   UNL     1     -10.516  11.380  65.535  1.00  0.00    -0.322 A  
HETATM   24  C   UNL     1     -12.085  12.883  63.743  1.00  0.00    -0.583 A  
HETATM   25  C   UNL     1     -11.267  11.860  63.266  1.00  0.00    -0.382 A  
HETATM   26  C   UNL     1     -11.292  12.465  65.981  1.00  0.00    -0.397 A  
HETATM   27  C   UNL     1     -10.460  11.143  64.154  1.00  0.00    -0.377 A  
HETATM   28  C   UNL     1     -12.071  13.210  65.095  1.00  0.00    -0.463 A  
HETATM   29  O   UNL     1      -9.613  10.191  63.660  1.00  0.00    -0.294 OA 
HETATM   30  H   UNL     1      -9.575  10.030  62.724  1.00  0.00     0.000 HD 
ENDBRANCH  14  23
ENDBRANCH   7  10
TORSDOF 3
ENDMDL
MODEL       99
REMARK 921   NORMALIZED FREE ENERGY PREDICTED BY IDOCK:   -4.71 KCAL/MOL
REMARK 922        TOTAL FREE ENERGY PREDICTED BY IDOCK:   -6.78 KCAL/MOL
REMARK 923 INTER-LIGAND FREE ENERGY PREDICTED BY IDOCK:   -6.29 KCAL/MOL
REMARK 924 INTRA-LIGAND FREE ENERGY PREDICTED BY IDOCK:   -0.48 KCAL/MOL
REMARK 927      BINDING AFFINITY PREDICTED BY RF-SCORE:    0.00 PKD
ROOT
HETATM    1  O   UNL     1     -11.674   7.020  70.541  1.00  0.00    -0.324 OA 
HETATM    2  C   UNL     1     -10.385   7.378  70.330  1.00  0.00    -0.212 C  
HETATM    3  O   UNL     1      -9.442   6.692  70.681  1.00  0.00    -0.168 OA 
HETATM    4  C   UNL     1     -10.227   8.693  69.658  1.00  0.00    -0.208 A  
HETATM    5  C   UNL     1     -11.152   9.159  68.719  1.00  0.00     0.100 A  
HETATM    6  C   UNL     1     -10.957  10.399  68.096  1.00  0.00    -0.334 A  
HETATM    7  C   UNL     1      -9.804  11.156  68.349  1.00  0.00    -0.185 A  
HETATM    8  C   UNL     1      -8.887  10.695  69.306  1.00  0.00    -0.092 A  
HETATM    9  C   UNL     1      -9.093   9.463  69.948  1.00  0.00    -0.221 A  
ENDROOT
BRANCH   7  10
HETATM   10  N   UNL     1      -9.530  12.377  67.651  1.00  0.00    -0.185 NA 
HETATM   11  N   UNL     1      -9.369  13.529  68.364  1.00  0.00    -0.197 NA 
HETATM   12  C   UNL     1      -9.446  14.488  67.433  1.00  0.00    -0.202 A  
HETATM   13  N   UNL     1      -9.500  13.988  66.154  1.00  0.00    -0.233 NA 
HETATM   14  C   UNL     1      -9.485  12.673  66.289  1.00  0.00    -0.207 A  
BRANCH  12  15
HETATM   15  C   UNL     1      -9.490  15.943  67.654  1.00  0.00    -0.219 A  
HETATM   16  C   UNL     1     -10.198  16.419  68.781  1.00  0.00    -0.258 A  
HETATM   17  C   UNL     1     -10.280  17.782  69.082  1.00  0.00    -0.211 A  
HETATM   18  H   UNL     1      -7.704  17.172  65.197  1.00  0.00     0.000 HD 
HETATM   19  C   UNL     1      -9.652  18.707  68.259  1.00  0.00    -0.382 A  
HETATM   20  O   UNL     1      -8.132  16.525  65.746  1.00  0.00    -0.198 OA 
HETATM   21  C   UNL     1      -8.940  18.268  67.143  1.00  0.00    -0.264 A  
HETATM   22  C   UNL     1      -8.857  16.898  66.843  1.00  0.00    -0.225 A  
ENDBRANCH  12  15
BRANCH  14  23
HETATM   23  C   UNL     1      -9.481  11.759  65.137  1.00  0.00    -0.109 A  
HETATM   24  C   UNL     1      -9.184   9.951  62.998  1.00  0.00    -0.284 A  
HETATM   25  C   UNL     1      -9.667  11.237  62.763  1.00  0.00    -0.289 A  
HETATM   26  C   UNL     1      -9.067  10.433  65.358  1.00  0.00    -0.221 A  
HETATM   27  C   UNL     1      -9.850  12.117  63.833  1.00  0.00    -0.214 A  
HETATM   28  C   UNL     1      -8.918   9.536  64.300  1.00  0.00    -0.248 A  
HETATM   29  O   UNL     1     -10.391  13.349  63.592  1.00  0.00    -0.504 OA 
HETATM   30  H   UNL     1     -10.641  13.593  62.708  1.00  0.00     0.000 HD 
ENDBRANCH  14  23
ENDBRANCH   7  10
TORSDOF 3
ENDMDL
MODEL      100
REMARK 921   NORMALIZED FREE ENERGY PREDICTED BY IDOCK:   -4.61 KCAL/MOL
REMARK 922        TOTAL FREE ENERGY PREDICTED BY IDOCK:   -6.66 KCAL/MOL
REMARK 923 INTER-LIGAND FREE ENERGY PREDICTED BY IDOCK:   -5.65 KCAL/MOL
REMARK 924 INTRA-LIGAND FREE ENERGY PREDICTED BY IDOCK:   -1.01 KCAL/MOL
REMARK 927      BINDING AFFINITY PREDICTED BY RF-SCORE:    0.00 PKD
ROOT
HETATM    1  O   UNL     1      -5.876   7.090  72.443  1.00  0.00    -0.038 OA 
HETATM    2  C   UNL     1      -6.657   8.196  72.449  1.00  0.00    -0.081 C  
HETATM    3  O   UNL     1      -6.885   8.838  73.460  1.00  0.00    -0.322 OA 
HETATM    4  C   UNL     1      -7.232   8.537  71.124  1.00  0.00    -0.076 A  
HETATM    5  C   UNL     1      -6.545   8.284  69.933  1.00  0.00    -0.039 A  
HETATM    6  C   UNL     1      -7.116   8.636  68.703  1.00  0.00    -0.068 A  
HETATM    7  C   UNL     1      -8.346   9.307  68.649  1.00  0.00    -0.118 A  
HETATM    8  C   UNL     1      -9.042   9.543  69.844  1.00  0.00    -0.237 A  
HETATM    9  C   UNL     1      -8.481   9.170  71.076  1.00  0.00    -0.221 A  
ENDROOT
BRANCH   7  10
HETATM   10  N   UNL     1      -8.904   9.769  67.412  1.00  0.00    -0.132 NA 
HETATM   11  N   UNL     1      -9.297  11.070  67.305  1.00  0.00    -0.156 NA 
HETATM   12  C   UNL     1     -10.034  11.084  66.187  1.00  0.00    -0.231 A  
HETATM   13  N   UNL     1     -10.002   9.889  65.511  1.00  0.00    -0.312 NA 
HETATM   14  C   UNL     1      -9.243   9.091  66.241  1.00  0.00    -0.206 A  
BRANCH  12  15
HETATM   15  C   UNL     1     -10.838  12.202  65.665  1.00  0.00    -0.323 A  
HETATM   16  C   UNL     1     -11.780  12.800  66.533  1.00  0.00    -0.463 A  
HETATM   17  C   UNL     1     -12.576  13.877  66.131  1.00  0.00    -0.426 A  
HETATM   18  H   UNL     1      -9.746  12.599  62.601  1.00  0.00     0.000 HD 
HETATM   19  C   UNL     1     -12.449  14.385  64.845  1.00  0.00    -0.368 A  
HETATM   20  O   UNL     1      -9.824  12.236  63.475  1.00  0.00    -0.331 OA 
HETATM   21  C   UNL     1     -11.525  13.819  63.967  1.00  0.00    -0.244 A  
HETATM   22  C   UNL     1     -10.724  12.738  64.373  1.00  0.00    -0.376 A  
ENDBRANCH  12  15
BRANCH  14  23
HETATM   23  C   UNL     1      -8.915   7.717  65.832  1.00  0.00    -0.144 A  
HETATM   24  C   UNL     1      -8.154   5.054  65.320  1.00  0.00    -0.117 A  
HETATM   25  C   UNL     1      -7.808   6.064  64.423  1.00  0.00    -0.113 A  
HETATM   26  C   UNL     1      -9.315   6.670  66.682  1.00  0.00    -0.192 A  
HETATM   27  C   UNL     1      -8.222   7.378  64.661  1.00  0.00    -0.040 A  
HETATM   28  C   UNL     1      -8.938   5.350  66.431  1.00  0.00    -0.131 A  
HETATM   29  O   UNL     1      -7.934   8.341  63.736  1.00  0.00    -0.145 OA 
HETATM   30  H   UNL     1      -7.465   8.112  62.943  1.00  0.00     0.000 HD 
ENDBRANCH  14  23
ENDBRANCH   7  10
TORSDOF 3
ENDMDL
MODEL      101
REMARK 921   NORMALIZED FREE ENERGY PREDICTED BY IDOCK:   -4.59 KCAL/MOL
REMARK 922        TOTAL FREE ENERGY PREDICTED BY IDOCK:   -6.64 KCAL/MOL
REMARK 923 INTER-LIGAND FREE ENERGY PREDICTED BY IDOCK:   -5.84 KCAL/MOL
REMARK 924 INTRA-LIGAND FREE ENERGY PREDICTED BY IDOCK:   -0.81 KCAL/MOL
REMARK 927      BINDING AFFINITY PREDICTED BY RF-SCORE:    0.00 PKD
ROOT
HETATM    1  O   UNL     1      -6.657   9.382  62.408  1.00  0.00    -0.097 OA 
HETATM    2  C   UNL     1      -6.778   8.326  63.247  1.00  0.00    -0.085 C  
HETATM    3  O   UNL     1      -6.250   7.248  63.034  1.00  0.00    -0.051 OA 
HETATM    4  C   UNL     1      -7.632   8.591  64.432  1.00  0.00    -0.117 A  
HETATM    5  C   UNL     1      -7.698   9.854  65.028  1.00  0.00    -0.133 A  
HETATM    6  C   UNL     1      -8.504  10.059  66.156  1.00  0.00    -0.131 A  
HETATM    7  C   UNL     1      -9.200   8.992  66.744  1.00  0.00    -0.157 A  
HETATM    8  C   UNL     1      -9.147   7.730  66.132  1.00  0.00    -0.199 A  
HETATM    9  C   UNL     1      -8.357   7.529  64.988  1.00  0.00    -0.068 A  
ENDROOT
BRANCH   7  10
HETATM   10  N   UNL     1      -9.950   9.151  67.954  1.00  0.00    -0.176 NA 
HETATM   11  N   UNL     1     -10.753  10.243  68.100  1.00  0.00    -0.227 NA 
HETATM   12  C   UNL     1     -11.041  10.248  69.407  1.00  0.00    -0.252 A  
HETATM   13  N   UNL     1     -10.579   9.131  70.061  1.00  0.00    -0.218 NA 
HETATM   14  C   UNL     1      -9.957   8.417  69.140  1.00  0.00    -0.196 A  
BRANCH  12  15
HETATM   15  C   UNL     1     -11.756  11.294  70.158  1.00  0.00    -0.429 A  
HETATM   16  C   UNL     1     -12.431  10.914  71.340  1.00  0.00    -0.460 A  
HETATM   17  C   UNL     1     -13.122  11.841  72.127  1.00  0.00    -0.308 A  
HETATM   18  H   UNL     1     -11.183  14.029  68.446  1.00  0.00     0.000 HD 
HETATM   19  C   UNL     1     -13.155  13.176  71.749  1.00  0.00    -0.478 A  
HETATM   20  O   UNL     1     -11.155  13.110  68.687  1.00  0.00    -0.245 OA 
HETATM   21  C   UNL     1     -12.494  13.583  70.591  1.00  0.00    -0.405 A  
HETATM   22  C   UNL     1     -11.798  12.651  69.802  1.00  0.00    -0.309 A  
ENDBRANCH  12  15
BRANCH  14  23
HETATM   23  C   UNL     1      -9.355   7.106  69.427  1.00  0.00    -0.147 A  
HETATM   24  C   UNL     1      -7.990   4.667  69.774  1.00  0.00    -0.065 A  
HETATM   25  C   UNL     1      -9.351   4.669  69.476  1.00  0.00    -0.208 A  
HETATM   26  C   UNL     1      -7.999   7.078  69.803  1.00  0.00    -0.124 A  
HETATM   27  C   UNL     1     -10.033   5.881  69.343  1.00  0.00    -0.178 A  
HETATM   28  C   UNL     1      -7.321   5.871  69.974  1.00  0.00    -0.074 A  
HETATM   29  O   UNL     1     -11.381   5.863  69.120  1.00  0.00    -0.298 OA 
HETATM   30  H   UNL     1     -11.841   5.034  69.063  1.00  0.00     0.000 HD 
ENDBRANCH  14  23
ENDBRANCH   7  10
TORSDOF 3
ENDMDL
MODEL      102
REMARK 921   NORMALIZED FREE ENERGY PREDICTED BY IDOCK:   -4.58 KCAL/MOL
REMARK 922        TOTAL FREE ENERGY PREDICTED BY IDOCK:   -6.63 KCAL/MOL
REMARK 923 INTER-LIGAND FREE ENERGY PREDICTED BY IDOCK:   -5.75 KCAL/MOL
REMARK 924 INTRA-LIGAND FREE ENERGY PREDICTED BY IDOCK:   -0.88 KCAL/MOL
REMARK 927      BINDING AFFINITY PREDICTED BY RF-SCORE:    0.00 PKD
ROOT
HETATM    1  O   UNL     1     -11.195  19.607  67.442  1.00  0.00    -0.293 OA 
HETATM    2  C   UNL     1     -10.708  18.969  66.351  1.00  0.00    -0.324 C  
HETATM    3  O   UNL     1     -10.688  19.475  65.243  1.00  0.00    -0.408 OA 
HETATM    4  C   UNL     1     -10.228  17.591  66.623  1.00  0.00    -0.332 A  
HETATM    5  C   UNL     1      -9.649  17.237  67.845  1.00  0.00    -0.269 A  
HETATM    6  C   UNL     1      -9.194  15.929  68.056  1.00  0.00    -0.192 A  
HETATM    7  C   UNL     1      -9.246  14.977  67.027  1.00  0.00    -0.230 A  
HETATM    8  C   UNL     1      -9.845  15.329  65.808  1.00  0.00    -0.395 A  
HETATM    9  C   UNL     1     -10.322  16.634  65.604  1.00  0.00    -0.310 A  
ENDROOT
BRANCH   7  10
HETATM   10  N   UNL     1      -8.697  13.663  67.182  1.00  0.00    -0.219 NA 
HETATM   11  N   UNL     1      -9.251  12.625  66.493  1.00  0.00    -0.226 NA 
HETATM   12  C   UNL     1      -8.732  11.542  67.085  1.00  0.00    -0.160 A  
HETATM   13  N   UNL     1      -7.767  11.851  68.014  1.00  0.00    -0.123 NA 
HETATM   14  C   UNL     1      -7.699  13.171  68.025  1.00  0.00    -0.146 A  
BRANCH  12  15
HETATM   15  C   UNL     1      -9.098  10.135  66.848  1.00  0.00    -0.160 A  
HETATM   16  C   UNL     1     -10.178   9.600  67.586  1.00  0.00    -0.267 A  
HETATM   17  C   UNL     1     -10.608   8.280  67.417  1.00  0.00    -0.324 A  
HETATM   18  H   UNL     1      -7.008   9.155  64.522  1.00  0.00     0.000 HD 
HETATM   19  C   UNL     1      -9.965   7.460  66.500  1.00  0.00    -0.194 A  
HETATM   20  O   UNL     1      -7.432   9.728  65.149  1.00  0.00    -0.110 OA 
HETATM   21  C   UNL     1      -8.900   7.960  65.752  1.00  0.00    -0.155 A  
HETATM   22  C   UNL     1      -8.470   9.288  65.922  1.00  0.00    -0.132 A  
ENDBRANCH  12  15
BRANCH  14  23
HETATM   23  C   UNL     1      -6.740  13.908  68.861  1.00  0.00    -0.106 A  
HETATM   24  C   UNL     1      -5.130  15.363  70.656  1.00  0.00    -0.141 A  
HETATM   25  C   UNL     1      -5.196  15.738  69.315  1.00  0.00    -0.105 A  
HETATM   26  C   UNL     1      -6.598  13.505  70.201  1.00  0.00     0.168 A  
HETATM   27  C   UNL     1      -5.965  14.990  68.420  1.00  0.00    -0.107 A  
HETATM   28  C   UNL     1      -5.802  14.225  71.092  1.00  0.00    -0.200 A  
HETATM   29  O   UNL     1      -5.961  15.331  67.096  1.00  0.00    -0.290 OA 
HETATM   30  H   UNL     1      -5.436  16.064  66.798  1.00  0.00     0.000 HD 
ENDBRANCH  14  23
ENDBRANCH   7  10
TORSDOF 3
ENDMDL
MODEL      103
REMARK 921   NORMALIZED FREE ENERGY PREDICTED BY IDOCK:   -4.58 KCAL/MOL
REMARK 922        TOTAL FREE ENERGY PREDICTED BY IDOCK:   -6.62 KCAL/MOL
REMARK 923 INTER-LIGAND FREE ENERGY PREDICTED BY IDOCK:   -5.62 KCAL/MOL
REMARK 924 INTRA-LIGAND FREE ENERGY PREDICTED BY IDOCK:   -1.00 KCAL/MOL
REMARK 927      BINDING AFFINITY PREDICTED BY RF-SCORE:    0.00 PKD
ROOT
HETATM    1  O   UNL     1      -6.296  16.291  70.201  1.00  0.00    -0.131 OA 
HETATM    2  C   UNL     1      -7.086  16.137  69.112  1.00  0.00    -0.209 C  
HETATM    3  O   UNL     1      -7.486  17.077  68.447  1.00  0.00    -0.194 OA 
HETATM    4  C   UNL     1      -7.441  14.726  68.818  1.00  0.00    -0.133 A  
HETATM    5  C   UNL     1      -6.565  13.671  69.089  1.00  0.00    -0.109 A  
HETATM    6  C   UNL     1      -6.932  12.354  68.782  1.00  0.00    -0.094 A  
HETATM    7  C   UNL     1      -8.148  12.081  68.138  1.00  0.00    -0.160 A  
HETATM    8  C   UNL     1      -9.034  13.139  67.884  1.00  0.00    -0.200 A  
HETATM    9  C   UNL     1      -8.676  14.457  68.213  1.00  0.00    -0.180 A  
ENDROOT
BRANCH   7  10
HETATM   10  N   UNL     1      -8.504  10.757  67.722  1.00  0.00    -0.119 NA 
HETATM   11  N   UNL     1      -7.794  10.161  66.721  1.00  0.00    -0.107 NA 
HETATM   12  C   UNL     1      -8.556   9.115  66.376  1.00  0.00    -0.125 A  
HETATM   13  N   UNL     1      -9.635   8.941  67.210  1.00  0.00    -0.156 NA 
HETATM   14  C   UNL     1      -9.564   9.926  68.087  1.00  0.00    -0.139 A  
BRANCH  12  15
HETATM   15  C   UNL     1      -8.352   8.201  65.240  1.00  0.00    -0.160 A  
HETATM   16  C   UNL     1      -8.206   8.768  63.954  1.00  0.00    -0.160 A  
HETATM   17  C   UNL     1      -7.992   7.981  62.818  1.00  0.00    -0.151 A  
HETATM   18  H   UNL     1      -8.315   5.226  66.613  1.00  0.00     0.000 HD 
HETATM   19  C   UNL     1      -7.918   6.601  62.942  1.00  0.00    -0.083 A  
HETATM   20  O   UNL     1      -8.374   6.171  66.546  1.00  0.00    -0.109 OA 
HETATM   21  C   UNL     1      -8.053   6.011  64.198  1.00  0.00    -0.095 A  
HETATM   22  C   UNL     1      -8.266   6.803  65.339  1.00  0.00    -0.134 A  
ENDBRANCH  12  15
BRANCH  14  23
HETATM   23  C   UNL     1     -10.521  10.071  69.195  1.00  0.00    -0.238 A  
HETATM   24  C   UNL     1     -12.349  10.047  71.338  1.00  0.00    -0.512 A  
HETATM   25  C   UNL     1     -12.666  10.716  70.156  1.00  0.00    -0.224 A  
HETATM   26  C   UNL     1     -10.194   9.467  70.423  1.00  0.00    -0.337 A  
HETATM   27  C   UNL     1     -11.740  10.758  69.111  1.00  0.00    -0.296 A  
HETATM   28  C   UNL     1     -11.098   9.453  71.485  1.00  0.00    -0.446 A  
HETATM   29  O   UNL     1     -12.040  11.478  67.988  1.00  0.00    -0.617 OA 
HETATM   30  H   UNL     1     -12.866  11.944  67.931  1.00  0.00     0.000 HD 
ENDBRANCH  14  23
ENDBRANCH   7  10
TORSDOF 3
ENDMDL
MODEL      104
REMARK 921   NORMALIZED FREE ENERGY PREDICTED BY IDOCK:   -4.55 KCAL/MOL
REMARK 922        TOTAL FREE ENERGY PREDICTED BY IDOCK:   -6.59 KCAL/MOL
REMARK 923 INTER-LIGAND FREE ENERGY PREDICTED BY IDOCK:   -5.38 KCAL/MOL
REMARK 924 INTRA-LIGAND FREE ENERGY PREDICTED BY IDOCK:   -1.22 KCAL/MOL
REMARK 927      BINDING AFFINITY PREDICTED BY RF-SCORE:    0.00 PKD
ROOT
HETATM    1  O   UNL     1     -12.313  11.289  68.301  1.00  0.00    -0.542 OA 
HETATM    2  C   UNL     1     -11.700  11.858  67.236  1.00  0.00    -0.247 C  
HETATM    3  O   UNL     1     -11.959  11.554  66.084  1.00  0.00    -0.257 OA 
HETATM    4  C   UNL     1     -10.667  12.860  67.598  1.00  0.00    -0.237 A  
HETATM    5  C   UNL     1     -10.786  13.666  68.735  1.00  0.00    -0.265 A  
HETATM    6  C   UNL     1      -9.796  14.612  69.033  1.00  0.00    -0.178 A  
HETATM    7  C   UNL     1      -8.713  14.815  68.166  1.00  0.00    -0.168 A  
HETATM    8  C   UNL     1      -8.587  13.993  67.036  1.00  0.00    -0.193 A  
HETATM    9  C   UNL     1      -9.566  13.028  66.748  1.00  0.00    -0.248 A  
ENDROOT
BRANCH   7  10
HETATM   10  N   UNL     1      -7.742  15.844  68.393  1.00  0.00    -0.136 NA 
HETATM   11  N   UNL     1      -7.909  17.059  67.797  1.00  0.00    -0.178 NA 
HETATM   12  C   UNL     1      -6.716  17.649  67.949  1.00  0.00    -0.188 A  
HETATM   13  N   UNL     1      -5.858  16.923  68.740  1.00  0.00    -0.140 NA 
HETATM   14  C   UNL     1      -6.522  15.830  69.070  1.00  0.00    -0.130 A  
BRANCH  12  15
HETATM   15  C   UNL     1      -6.273  18.926  67.364  1.00  0.00    -0.179 A  
HETATM   16  C   UNL     1      -6.015  18.961  65.975  1.00  0.00    -0.197 A  
HETATM   17  C   UNL     1      -5.606  20.132  65.329  1.00  0.00    -0.204 A  
HETATM   18  H   UNL     1      -6.250  20.996  69.904  1.00  0.00     0.000 HD 
HETATM   19  C   UNL     1      -5.446  21.301  66.059  1.00  0.00    -0.267 A  
HETATM   20  O   UNL     1      -6.360  20.185  69.421  1.00  0.00    -0.314 OA 
HETATM   21  C   UNL     1      -5.698  21.300  67.431  1.00  0.00    -0.409 A  
HETATM   22  C   UNL     1      -6.111  20.123  68.079  1.00  0.00    -0.240 A  
ENDBRANCH  12  15
BRANCH  14  23
HETATM   23  C   UNL     1      -5.964  14.802  69.961  1.00  0.00    -0.140 A  
HETATM   24  C   UNL     1      -5.144  12.673  71.612  1.00  0.00    -0.100 A  
HETATM   25  C   UNL     1      -5.178  13.973  72.114  1.00  0.00    -0.212 A  
HETATM   26  C   UNL     1      -5.849  13.494  69.457  1.00  0.00    -0.104 A  
HETATM   27  C   UNL     1      -5.547  15.032  71.280  1.00  0.00     0.024 A  
HETATM   28  C   UNL     1      -5.444  12.437  70.274  1.00  0.00    -0.139 A  
HETATM   29  O   UNL     1      -5.507  16.307  71.770  1.00  0.00     0.213 OA 
HETATM   30  H   UNL     1      -5.225  16.463  72.664  1.00  0.00     0.000 HD 
ENDBRANCH  14  23
ENDBRANCH   7  10
TORSDOF 3
ENDMDL
MODEL      105
REMARK 921   NORMALIZED FREE ENERGY PREDICTED BY IDOCK:   -4.55 KCAL/MOL
REMARK 922        TOTAL FREE ENERGY PREDICTED BY IDOCK:   -6.59 KCAL/MOL
REMARK 923 INTER-LIGAND FREE ENERGY PREDICTED BY IDOCK:   -5.77 KCAL/MOL
REMARK 924 INTRA-LIGAND FREE ENERGY PREDICTED BY IDOCK:   -0.82 KCAL/MOL
REMARK 927      BINDING AFFINITY PREDICTED BY RF-SCORE:    0.00 PKD
ROOT
HETATM    1  O   UNL     1     -13.587  11.723  72.109  1.00  0.00    -0.358 OA 
HETATM    2  C   UNL     1     -13.347  10.409  71.888  1.00  0.00    -0.364 C  
HETATM    3  O   UNL     1     -13.933   9.521  72.482  1.00  0.00    -0.370 OA 
HETATM    4  C   UNL     1     -12.290  10.150  70.879  1.00  0.00    -0.461 A  
HETATM    5  C   UNL     1     -12.086  10.999  69.787  1.00  0.00    -0.424 A  
HETATM    6  C   UNL     1     -11.086  10.711  68.848  1.00  0.00    -0.314 A  
HETATM    7  C   UNL     1     -10.326   9.536  68.948  1.00  0.00    -0.208 A  
HETATM    8  C   UNL     1     -10.520   8.695  70.055  1.00  0.00    -0.229 A  
HETATM    9  C   UNL     1     -11.506   8.996  71.009  1.00  0.00    -0.358 A  
ENDROOT
BRANCH   7  10
HETATM   10  N   UNL     1      -9.369   9.165  67.949  1.00  0.00    -0.137 NA 
HETATM   11  N   UNL     1      -8.959  10.098  67.042  1.00  0.00    -0.135 NA 
HETATM   12  C   UNL     1      -8.343   9.370  66.101  1.00  0.00    -0.115 A  
HETATM   13  N   UNL     1      -8.217   8.046  66.446  1.00  0.00    -0.109 NA 
HETATM   14  C   UNL     1      -8.798   7.933  67.627  1.00  0.00    -0.128 A  
BRANCH  12  15
HETATM   15  C   UNL     1      -7.834   9.842  64.802  1.00  0.00    -0.134 A  
HETATM   16  C   UNL     1      -6.439   9.786  64.580  1.00  0.00    -0.111 A  
HETATM   17  C   UNL     1      -5.865  10.196  63.373  1.00  0.00    -0.142 A  
HETATM   18  H   UNL     1     -10.533  10.712  63.161  1.00  0.00     0.000 HD 
HETATM   19  C   UNL     1      -6.677  10.673  62.353  1.00  0.00    -0.130 A  
HETATM   20  O   UNL     1      -9.993  10.388  63.872  1.00  0.00    -0.315 OA 
HETATM   21  C   UNL     1      -8.057  10.735  62.539  1.00  0.00    -0.198 A  
HETATM   22  C   UNL     1      -8.632  10.321  63.752  1.00  0.00    -0.187 A  
ENDBRANCH  12  15
BRANCH  14  23
HETATM   23  C   UNL     1      -8.835   6.667  68.374  1.00  0.00    -0.121 A  
HETATM   24  C   UNL     1      -9.194   4.307  69.869  1.00  0.00    -0.208 A  
HETATM   25  C   UNL     1      -8.138   5.167  70.165  1.00  0.00    -0.083 A  
HETATM   26  C   UNL     1      -9.847   5.746  68.048  1.00  0.00    -0.155 A  
HETATM   27  C   UNL     1      -7.940   6.317  69.395  1.00  0.00    -0.109 A  
HETATM   28  C   UNL     1     -10.028   4.577  68.788  1.00  0.00    -0.120 A  
HETATM   29  O   UNL     1      -6.859   7.111  69.656  1.00  0.00    -0.048 OA 
HETATM   30  H   UNL     1      -6.253   6.874  70.347  1.00  0.00     0.000 HD 
ENDBRANCH  14  23
ENDBRANCH   7  10
TORSDOF 3
ENDMDL
MODEL      106
REMARK 921   NORMALIZED FREE ENERGY PREDICTED BY IDOCK:   -4.53 KCAL/MOL
REMARK 922        TOTAL FREE ENERGY PREDICTED BY IDOCK:   -6.56 KCAL/MOL
REMARK 923 INTER-LIGAND FREE ENERGY PREDICTED BY IDOCK:   -6.34 KCAL/MOL
REMARK 924 INTRA-LIGAND FREE ENERGY PREDICTED BY IDOCK:   -0.23 KCAL/MOL
REMARK 927      BINDING AFFINITY PREDICTED BY RF-SCORE:    0.00 PKD
ROOT
HETATM    1  O   UNL     1      -7.970   1.568  69.493  1.00  0.00    -0.042 OA 
HETATM    2  C   UNL     1      -7.350   2.365  68.590  1.00  0.00    -0.047 C  
HETATM    3  O   UNL     1      -6.328   2.038  68.013  1.00  0.00    -0.027 OA 
HETATM    4  C   UNL     1      -8.012   3.678  68.390  1.00  0.00    -0.072 A  
HETATM    5  C   UNL     1      -9.398   3.830  68.487  1.00  0.00    -0.227 A  
HETATM    6  C   UNL     1      -9.985   5.085  68.275  1.00  0.00    -0.193 A  
HETATM    7  C   UNL     1      -9.205   6.187  67.896  1.00  0.00    -0.115 A  
HETATM    8  C   UNL     1      -7.812   6.037  67.818  1.00  0.00    -0.105 A  
HETATM    9  C   UNL     1      -7.221   4.784  68.053  1.00  0.00    -0.066 A  
ENDROOT
BRANCH   7  10
HETATM   10  N   UNL     1      -9.789   7.455  67.575  1.00  0.00    -0.149 NA 
HETATM   11  N   UNL     1      -9.781   7.882  66.280  1.00  0.00    -0.153 NA 
HETATM   12  C   UNL     1     -10.097   9.180  66.375  1.00  0.00    -0.274 A  
HETATM   13  N   UNL     1     -10.447   9.552  67.651  1.00  0.00    -0.248 NA 
HETATM   14  C   UNL     1     -10.319   8.461  68.384  1.00  0.00    -0.200 A  
BRANCH  12  15
HETATM   15  C   UNL     1     -10.087  10.181  65.295  1.00  0.00    -0.344 A  
HETATM   16  C   UNL     1     -10.865  11.348  65.469  1.00  0.00    -0.282 A  
HETATM   17  C   UNL     1     -10.905  12.361  64.506  1.00  0.00    -0.358 A  
HETATM   18  H   UNL     1      -8.038   8.924  63.068  1.00  0.00     0.000 HD 
HETATM   19  C   UNL     1     -10.163  12.230  63.340  1.00  0.00    -0.360 A  
HETATM   20  O   UNL     1      -8.543   8.993  63.870  1.00  0.00    -0.191 OA 
HETATM   21  C   UNL     1      -9.381  11.093  63.141  1.00  0.00    -0.339 A  
HETATM   22  C   UNL     1      -9.340  10.077  64.111  1.00  0.00    -0.280 A  
ENDBRANCH  12  15
BRANCH  14  23
HETATM   23  C   UNL     1     -10.650   8.425  69.817  1.00  0.00    -0.221 A  
HETATM   24  C   UNL     1     -11.510   8.170  72.486  1.00  0.00    -0.470 A  
HETATM   25  C   UNL     1     -11.358   9.434  71.919  1.00  0.00    -0.276 A  
HETATM   26  C   UNL     1     -10.739   7.165  70.435  1.00  0.00    -0.255 A  
HETATM   27  C   UNL     1     -10.893   9.557  70.607  1.00  0.00    -0.306 A  
HETATM   28  C   UNL     1     -11.166   7.036  71.757  1.00  0.00    -0.278 A  
HETATM   29  O   UNL     1     -10.684  10.806  70.092  1.00  0.00    -0.457 OA 
HETATM   30  H   UNL     1     -10.849  11.573  70.627  1.00  0.00     0.000 HD 
ENDBRANCH  14  23
ENDBRANCH   7  10
TORSDOF 3
ENDMDL
MODEL      107
REMARK 921   NORMALIZED FREE ENERGY PREDICTED BY IDOCK:   -4.52 KCAL/MOL
REMARK 922        TOTAL FREE ENERGY PREDICTED BY IDOCK:   -6.56 KCAL/MOL
REMARK 923 INTER-LIGAND FREE ENERGY PREDICTED BY IDOCK:   -6.45 KCAL/MOL
REMARK 924 INTRA-LIGAND FREE ENERGY PREDICTED BY IDOCK:   -0.11 KCAL/MOL
REMARK 927      BINDING AFFINITY PREDICTED BY RF-SCORE:    0.00 PKD
ROOT
HETATM    1  O   UNL     1      -7.922   9.796  63.536  1.00  0.00    -0.130 OA 
HETATM    2  C   UNL     1      -9.115  10.435  63.588  1.00  0.00    -0.253 C  
HETATM    3  O   UNL     1      -9.958  10.332  62.714  1.00  0.00    -0.145 OA 
HETATM    4  C   UNL     1      -9.290  11.290  64.788  1.00  0.00    -0.166 A  
HETATM    5  C   UNL     1      -8.723  10.958  66.021  1.00  0.00    -0.192 A  
HETATM    6  C   UNL     1      -8.925  11.785  67.134  1.00  0.00    -0.177 A  
HETATM    7  C   UNL     1      -9.752  12.915  67.048  1.00  0.00    -0.230 A  
HETATM    8  C   UNL     1     -10.305  13.256  65.804  1.00  0.00    -0.290 A  
HETATM    9  C   UNL     1     -10.084  12.440  64.682  1.00  0.00    -0.266 A  
ENDROOT
BRANCH   7  10
HETATM   10  N   UNL     1     -10.058  13.720  68.193  1.00  0.00    -0.238 NA 
HETATM   11  N   UNL     1     -10.817  13.191  69.195  1.00  0.00    -0.155 NA 
HETATM   12  C   UNL     1     -11.168  14.260  69.921  1.00  0.00    -0.141 A  
HETATM   13  N   UNL     1     -10.546  15.413  69.508  1.00  0.00    -0.250 NA 
HETATM   14  C   UNL     1      -9.803  15.063  68.473  1.00  0.00    -0.217 A  
BRANCH  12  15
HETATM   15  C   UNL     1     -12.117  14.299  71.046  1.00  0.00    -0.416 A  
HETATM   16  C   UNL     1     -12.909  13.153  71.283  1.00  0.00    -0.384 A  
HETATM   17  C   UNL     1     -13.825  13.092  72.337  1.00  0.00    -0.583 A  
HETATM   18  H   UNL     1     -11.646  17.257  72.375  1.00  0.00     0.000 HD 
HETATM   19  C   UNL     1     -13.971  14.182  73.185  1.00  0.00     0.820 A  
HETATM   20  O   UNL     1     -11.537  16.524  71.782  1.00  0.00    -0.415 OA 
HETATM   21  C   UNL     1     -13.200  15.325  72.982  1.00  0.00    -0.617 A  
HETATM   22  C   UNL     1     -12.278  15.384  71.923  1.00  0.00    -0.379 A  
ENDBRANCH  12  15
BRANCH  14  23
HETATM   23  C   UNL     1      -8.931  16.013  67.765  1.00  0.00    -0.188 A  
HETATM   24  C   UNL     1      -7.505  17.909  66.248  1.00  0.00    -0.321 A  
HETATM   25  C   UNL     1      -7.043  16.597  66.339  1.00  0.00    -0.117 A  
HETATM   26  C   UNL     1      -9.335  17.359  67.719  1.00  0.00    -0.255 A  
HETATM   27  C   UNL     1      -7.732  15.669  67.125  1.00  0.00    -0.223 A  
HETATM   28  C   UNL     1      -8.631  18.300  66.967  1.00  0.00    -0.259 A  
HETATM   29  O   UNL     1      -7.226  14.407  67.258  1.00  0.00    -0.259 OA 
HETATM   30  H   UNL     1      -6.414  14.174  66.824  1.00  0.00     0.000 HD 
ENDBRANCH  14  23
ENDBRANCH   7  10
TORSDOF 3
ENDMDL
MODEL      108
REMARK 921   NORMALIZED FREE ENERGY PREDICTED BY IDOCK:   -4.51 KCAL/MOL
REMARK 922        TOTAL FREE ENERGY PREDICTED BY IDOCK:   -6.55 KCAL/MOL
REMARK 923 INTER-LIGAND FREE ENERGY PREDICTED BY IDOCK:   -5.50 KCAL/MOL
REMARK 924 INTRA-LIGAND FREE ENERGY PREDICTED BY IDOCK:   -1.05 KCAL/MOL
REMARK 927      BINDING AFFINITY PREDICTED BY RF-SCORE:    0.00 PKD
ROOT
HETATM    1  O   UNL     1     -11.263  15.419  66.363  1.00  0.00    -0.282 OA 
HETATM    2  C   UNL     1     -11.263  14.544  65.329  1.00  0.00    -0.352 C  
HETATM    3  O   UNL     1     -11.727  14.813  64.235  1.00  0.00    -0.348 OA 
HETATM    4  C   UNL     1     -10.673  13.222  65.658  1.00  0.00    -0.292 A  
HETATM    5  C   UNL     1      -9.622  13.088  66.571  1.00  0.00    -0.260 A  
HETATM    6  C   UNL     1      -9.082  11.824  66.842  1.00  0.00    -0.192 A  
HETATM    7  C   UNL     1      -9.535  10.688  66.155  1.00  0.00    -0.179 A  
HETATM    8  C   UNL     1     -10.603  10.822  65.254  1.00  0.00    -0.230 A  
HETATM    9  C   UNL     1     -11.160  12.086  64.999  1.00  0.00    -0.368 A  
ENDROOT
BRANCH   7  10
HETATM   10  N   UNL     1      -8.933   9.401  66.337  1.00  0.00    -0.146 NA 
HETATM   11  N   UNL     1      -8.362   8.776  65.268  1.00  0.00    -0.150 NA 
HETATM   12  C   UNL     1      -8.192   7.518  65.694  1.00  0.00    -0.133 A  
HETATM   13  N   UNL     1      -8.493   7.359  67.025  1.00  0.00    -0.117 NA 
HETATM   14  C   UNL     1      -8.891   8.548  67.441  1.00  0.00    -0.134 A  
BRANCH  12  15
HETATM   15  C   UNL     1      -7.750   6.361  64.898  1.00  0.00    -0.104 A  
HETATM   16  C   UNL     1      -8.678   5.318  64.677  1.00  0.00    -0.091 A  
HETATM   17  C   UNL     1      -8.355   4.188  63.920  1.00  0.00    -0.097 A  
HETATM   18  H   UNL     1      -4.668   7.101  64.067  1.00  0.00     0.000 HD 
HETATM   19  C   UNL     1      -7.089   4.073  63.362  1.00  0.00    -0.045 A  
HETATM   20  O   UNL     1      -5.527   7.194  64.461  1.00  0.00    -0.031 OA 
HETATM   21  C   UNL     1      -6.152   5.087  63.557  1.00  0.00    -0.022 A  
HETATM   22  C   UNL     1      -6.480   6.224  64.316  1.00  0.00    -0.033 A  
ENDBRANCH  12  15
BRANCH  14  23
HETATM   23  C   UNL     1      -9.261   8.816  68.839  1.00  0.00    -0.141 A  
HETATM   24  C   UNL     1      -9.869   9.050  71.579  1.00  0.00    -0.381 A  
HETATM   25  C   UNL     1     -10.851   9.300  70.622  1.00  0.00    -0.339 A  
HETATM   26  C   UNL     1      -8.269   8.642  69.821  1.00  0.00    -0.121 A  
HETATM   27  C   UNL     1     -10.535   9.221  69.263  1.00  0.00    -0.218 A  
HETATM   28  C   UNL     1      -8.569   8.756  71.179  1.00  0.00    -0.244 A  
HETATM   29  O   UNL     1     -11.492   9.538  68.340  1.00  0.00    -0.446 OA 
HETATM   30  H   UNL     1     -12.354   9.813  68.627  1.00  0.00     0.000 HD 
ENDBRANCH  14  23
ENDBRANCH   7  10
TORSDOF 3
ENDMDL
MODEL      109
REMARK 921   NORMALIZED FREE ENERGY PREDICTED BY IDOCK:   -4.42 KCAL/MOL
REMARK 922        TOTAL FREE ENERGY PREDICTED BY IDOCK:   -6.44 KCAL/MOL
REMARK 923 INTER-LIGAND FREE ENERGY PREDICTED BY IDOCK:   -5.34 KCAL/MOL
REMARK 924 INTRA-LIGAND FREE ENERGY PREDICTED BY IDOCK:   -1.10 KCAL/MOL
REMARK 927      BINDING AFFINITY PREDICTED BY RF-SCORE:    0.00 PKD
ROOT
HETATM    1  O   UNL     1      -5.132  15.413  71.246  1.00  0.00    -0.161 OA 
HETATM    2  C   UNL     1      -5.592  14.168  71.516  1.00  0.00    -0.224 C  
HETATM    3  O   UNL     1      -5.545  13.672  72.628  1.00  0.00    -0.431 OA 
HETATM    4  C   UNL     1      -6.132  13.455  70.331  1.00  0.00    -0.077 A  
HETATM    5  C   UNL     1      -6.778  14.131  69.292  1.00  0.00    -0.122 A  
HETATM    6  C   UNL     1      -7.288  13.419  68.198  1.00  0.00    -0.117 A  
HETATM    7  C   UNL     1      -7.223  12.018  68.162  1.00  0.00    -0.090 A  
HETATM    8  C   UNL     1      -6.558  11.343  69.197  1.00  0.00    -0.095 A  
HETATM    9  C   UNL     1      -6.026  12.058  70.282  1.00  0.00    -0.143 A  
ENDROOT
BRANCH   7  10
HETATM   10  N   UNL     1      -7.825  11.258  67.107  1.00  0.00    -0.143 NA 
HETATM   11  N   UNL     1      -7.177  10.160  66.624  1.00  0.00    -0.101 NA 
HETATM   12  C   UNL     1      -7.826   9.887  65.485  1.00  0.00    -0.126 A  
HETATM   13  N   UNL     1      -8.941  10.671  65.305  1.00  0.00    -0.185 NA 
HETATM   14  C   UNL     1      -8.976  11.479  66.349  1.00  0.00    -0.197 A  
BRANCH  12  15
HETATM   15  C   UNL     1      -7.458   8.889  64.467  1.00  0.00    -0.105 A  
HETATM   16  C   UNL     1      -8.051   7.609  64.553  1.00  0.00    -0.098 A  
HETATM   17  C   UNL     1      -7.775   6.603  63.622  1.00  0.00    -0.107 A  
HETATM   18  H   UNL     1      -5.383  10.491  62.501  1.00  0.00     0.000 HD 
HETATM   19  C   UNL     1      -6.896   6.854  62.577  1.00  0.00    -0.051 A  
HETATM   20  O   UNL     1      -5.978  10.336  63.225  1.00  0.00    -0.134 OA 
HETATM   21  C   UNL     1      -6.299   8.109  62.462  1.00  0.00    -0.087 A  
HETATM   22  C   UNL     1      -6.579   9.120  63.397  1.00  0.00    -0.090 A  
ENDBRANCH  12  15
BRANCH  14  23
HETATM   23  C   UNL     1     -10.058  12.453  66.561  1.00  0.00    -0.246 A  
HETATM   24  C   UNL     1     -12.304  14.083  67.042  1.00  0.00    -0.278 A  
HETATM   25  C   UNL     1     -11.627  14.167  65.826  1.00  0.00    -0.343 A  
HETATM   26  C   UNL     1     -10.712  12.441  67.807  1.00  0.00    -0.247 A  
HETATM   27  C   UNL     1     -10.490  13.385  65.607  1.00  0.00    -0.290 A  
HETATM   28  C   UNL     1     -11.825  13.247  68.047  1.00  0.00    -0.392 A  
HETATM   29  O   UNL     1      -9.799  13.532  64.437  1.00  0.00    -0.659 OA 
HETATM   30  H   UNL     1     -10.092  14.163  63.790  1.00  0.00     0.000 HD 
ENDBRANCH  14  23
ENDBRANCH   7  10
TORSDOF 3
ENDMDL
MODEL      110
REMARK 921   NORMALIZED FREE ENERGY PREDICTED BY IDOCK:   -4.41 KCAL/MOL
REMARK 922        TOTAL FREE ENERGY PREDICTED BY IDOCK:   -6.43 KCAL/MOL
REMARK 923 INTER-LIGAND FREE ENERGY PREDICTED BY IDOCK:   -5.55 KCAL/MOL
REMARK 924 INTRA-LIGAND FREE ENERGY PREDICTED BY IDOCK:   -0.88 KCAL/MOL
REMARK 927      BINDING AFFINITY PREDICTED BY RF-SCORE:    0.00 PKD
ROOT
HETATM    1  O   UNL     1      -7.776   1.938  68.938  1.00  0.00    -0.046 OA 
HETATM    2  C   UNL     1      -7.465   2.985  68.138  1.00  0.00    -0.053 C  
HETATM    3  O   UNL     1      -6.749   2.878  67.157  1.00  0.00    -0.039 OA 
HETATM    4  C   UNL     1      -8.050   4.276  68.579  1.00  0.00    -0.077 A  
HETATM    5  C   UNL     1      -9.291   4.345  69.218  1.00  0.00    -0.223 A  
HETATM    6  C   UNL     1      -9.816   5.585  69.604  1.00  0.00    -0.258 A  
HETATM    7  C   UNL     1      -9.143   6.777  69.295  1.00  0.00    -0.139 A  
HETATM    8  C   UNL     1      -7.889   6.704  68.670  1.00  0.00    -0.114 A  
HETATM    9  C   UNL     1      -7.351   5.459  68.303  1.00  0.00    -0.072 A  
ENDROOT
BRANCH   7  10
HETATM   10  N   UNL     1      -9.704   8.062  69.587  1.00  0.00    -0.169 NA 
HETATM   11  N   UNL     1     -10.336   8.753  68.595  1.00  0.00    -0.207 NA 
HETATM   12  C   UNL     1     -10.449   9.989  69.097  1.00  0.00    -0.219 A  
HETATM   13  N   UNL     1     -10.053  10.072  70.410  1.00  0.00    -0.195 NA 
HETATM   14  C   UNL     1      -9.651   8.855  70.734  1.00  0.00    -0.229 A  
BRANCH  12  15
HETATM   15  C   UNL     1     -10.922  11.195  68.396  1.00  0.00    -0.277 A  
HETATM   16  C   UNL     1     -11.434  12.255  69.178  1.00  0.00    -0.352 A  
HETATM   17  C   UNL     1     -11.890  13.445  68.602  1.00  0.00    -0.397 A  
HETATM   18  H   UNL     1     -10.348  10.550  65.235  1.00  0.00     0.000 HD 
HETATM   19  C   UNL     1     -11.844  13.605  67.224  1.00  0.00    -0.429 A  
HETATM   20  O   UNL     1     -10.378  10.421  66.176  1.00  0.00    -0.242 OA 
HETATM   21  C   UNL     1     -11.338  12.579  66.426  1.00  0.00    -0.379 A  
HETATM   22  C   UNL     1     -10.878  11.385  67.006  1.00  0.00    -0.282 A  
ENDBRANCH  12  15
BRANCH  14  23
HETATM   23  C   UNL     1      -9.189   8.507  72.086  1.00  0.00    -0.336 A  
HETATM   24  C   UNL     1      -8.064   7.714  74.543  1.00  0.00    -0.256 A  
HETATM   25  C   UNL     1      -9.374   7.356  74.227  1.00  0.00    -0.142 A  
HETATM   26  C   UNL     1      -7.897   8.919  72.461  1.00  0.00     0.262 A  
HETATM   27  C   UNL     1      -9.941   7.785  73.024  1.00  0.00    -0.293 A  
HETATM   28  C   UNL     1      -7.338   8.526  73.677  1.00  0.00    -0.063 A  
HETATM   29  O   UNL     1     -11.248   7.483  72.763  1.00  0.00    -0.320 OA 
HETATM   30  H   UNL     1     -11.758   6.994  73.398  1.00  0.00     0.000 HD 
ENDBRANCH  14  23
ENDBRANCH   7  10
TORSDOF 3
ENDMDL
MODEL      111
REMARK 921   NORMALIZED FREE ENERGY PREDICTED BY IDOCK:   -4.39 KCAL/MOL
REMARK 922        TOTAL FREE ENERGY PREDICTED BY IDOCK:   -6.41 KCAL/MOL
REMARK 923 INTER-LIGAND FREE ENERGY PREDICTED BY IDOCK:   -5.13 KCAL/MOL
REMARK 924 INTRA-LIGAND FREE ENERGY PREDICTED BY IDOCK:   -1.28 KCAL/MOL
REMARK 927      BINDING AFFINITY PREDICTED BY RF-SCORE:    0.00 PKD
ROOT
HETATM    1  O   UNL     1      -9.717  13.977  66.895  1.00  0.00    -0.253 OA 
HETATM    2  C   UNL     1      -8.861  13.404  67.775  1.00  0.00    -0.199 C  
HETATM    3  O   UNL     1      -8.084  14.049  68.457  1.00  0.00    -0.139 OA 
HETATM    4  C   UNL     1      -8.937  11.922  67.813  1.00  0.00    -0.173 A  
HETATM    5  C   UNL     1     -10.136  11.237  67.595  1.00  0.00    -0.201 A  
HETATM    6  C   UNL     1     -10.169   9.838  67.655  1.00  0.00    -0.261 A  
HETATM    7  C   UNL     1      -9.022   9.108  68.002  1.00  0.00    -0.128 A  
HETATM    8  C   UNL     1      -7.815   9.796  68.202  1.00  0.00    -0.085 A  
HETATM    9  C   UNL     1      -7.777  11.198  68.119  1.00  0.00    -0.107 A  
ENDROOT
BRANCH   7  10
HETATM   10  N   UNL     1      -9.050   7.686  68.170  1.00  0.00    -0.133 NA 
HETATM   11  N   UNL     1      -8.531   6.890  67.192  1.00  0.00    -0.120 NA 
HETATM   12  C   UNL     1      -8.989   5.671  67.503  1.00  0.00    -0.107 A  
HETATM   13  N   UNL     1      -9.648   5.639  68.709  1.00  0.00    -0.125 NA 
HETATM   14  C   UNL     1      -9.627   6.882  69.155  1.00  0.00    -0.144 A  
BRANCH  12  15
HETATM   15  C   UNL     1      -8.865   4.441  66.702  1.00  0.00    -0.114 A  
HETATM   16  C   UNL     1      -9.611   4.355  65.505  1.00  0.00    -0.188 A  
HETATM   17  C   UNL     1      -9.545   3.234  64.672  1.00  0.00    -0.156 A  
HETATM   18  H   UNL     1      -6.705   2.625  68.368  1.00  0.00     0.000 HD 
HETATM   19  C   UNL     1      -8.726   2.168  65.016  1.00  0.00    -0.115 A  
HETATM   20  O   UNL     1      -7.265   3.361  68.151  1.00  0.00    -0.050 OA 
HETATM   21  C   UNL     1      -7.972   2.226  66.188  1.00  0.00    -0.082 A  
HETATM   22  C   UNL     1      -8.038   3.354  67.024  1.00  0.00    -0.083 A  
ENDBRANCH  12  15
BRANCH  14  23
HETATM   23  C   UNL     1     -10.193   7.267  70.457  1.00  0.00    -0.203 A  
HETATM   24  C   UNL     1     -11.044   7.856  73.076  1.00  0.00    -0.379 A  
HETATM   25  C   UNL     1     -11.922   7.258  72.174  1.00  0.00    -0.307 A  
HETATM   26  C   UNL     1      -9.350   7.937  71.362  1.00  0.00    -0.174 A  
HETATM   27  C   UNL     1     -11.508   7.004  70.864  1.00  0.00    -0.308 A  
HETATM   28  C   UNL     1      -9.769   8.229  72.661  1.00  0.00    -0.357 A  
HETATM   29  O   UNL     1     -12.405   6.482  69.974  1.00  0.00    -0.437 OA 
HETATM   30  H   UNL     1     -13.296   6.304  70.250  1.00  0.00     0.000 HD 
ENDBRANCH  14  23
ENDBRANCH   7  10
TORSDOF 3
ENDMDL
MODEL      112
REMARK 921   NORMALIZED FREE ENERGY PREDICTED BY IDOCK:   -4.37 KCAL/MOL
REMARK 922        TOTAL FREE ENERGY PREDICTED BY IDOCK:   -6.38 KCAL/MOL
REMARK 923 INTER-LIGAND FREE ENERGY PREDICTED BY IDOCK:   -5.18 KCAL/MOL
REMARK 924 INTRA-LIGAND FREE ENERGY PREDICTED BY IDOCK:   -1.20 KCAL/MOL
REMARK 927      BINDING AFFINITY PREDICTED BY RF-SCORE:    0.00 PKD
ROOT
HETATM    1  O   UNL     1      -9.732  12.946  66.831  1.00  0.00    -0.227 OA 
HETATM    2  C   UNL     1      -8.908  12.176  67.581  1.00  0.00    -0.172 C  
HETATM    3  O   UNL     1      -8.145  12.639  68.411  1.00  0.00    -0.155 OA 
HETATM    4  C   UNL     1      -8.997  10.725  67.279  1.00  0.00    -0.143 A  
HETATM    5  C   UNL     1     -10.195  10.125  66.880  1.00  0.00    -0.295 A  
HETATM    6  C   UNL     1     -10.240   8.749  66.620  1.00  0.00    -0.340 A  
HETATM    7  C   UNL     1      -9.110   7.943  66.823  1.00  0.00    -0.156 A  
HETATM    8  C   UNL     1      -7.904   8.551  67.205  1.00  0.00    -0.097 A  
HETATM    9  C   UNL     1      -7.852   9.934  67.443  1.00  0.00    -0.098 A  
ENDROOT
BRANCH   7  10
HETATM   10  N   UNL     1      -9.155   6.520  66.663  1.00  0.00    -0.143 NA 
HETATM   11  N   UNL     1      -8.699   5.967  65.503  1.00  0.00    -0.150 NA 
HETATM   12  C   UNL     1      -9.163   4.711  65.551  1.00  0.00    -0.153 A  
HETATM   13  N   UNL     1      -9.761   4.408  66.750  1.00  0.00    -0.202 NA 
HETATM   14  C   UNL     1      -9.696   5.516  67.467  1.00  0.00    -0.128 A  
BRANCH  12  15
HETATM   15  C   UNL     1      -9.100   3.697  64.485  1.00  0.00    -0.131 A  
HETATM   16  C   UNL     1      -7.855   3.079  64.234  1.00  0.00    -0.078 A  
HETATM   17  C   UNL     1      -7.702   2.094  63.253  1.00  0.00    -0.056 A  
HETATM   18  H   UNL     1     -12.180   3.519  63.380  1.00  0.00     0.000 HD 
HETATM   19  C   UNL     1      -8.798   1.700  62.497  1.00  0.00    -0.072 A  
HETATM   20  O   UNL     1     -11.440   3.804  63.903  1.00  0.00    -0.115 OA 
HETATM   21  C   UNL     1     -10.042   2.288  62.725  1.00  0.00    -0.100 A  
HETATM   22  C   UNL     1     -10.194   3.276  63.712  1.00  0.00    -0.207 A  
ENDBRANCH  12  15
BRANCH  14  23
HETATM   23  C   UNL     1     -10.189   5.596  68.850  1.00  0.00    -0.279 A  
HETATM   24  C   UNL     1     -11.091   6.047  71.479  1.00  0.00    -0.336 A  
HETATM   25  C   UNL     1     -10.077   5.122  71.238  1.00  0.00    -0.278 A  
HETATM   26  C   UNL     1     -11.262   6.468  69.111  1.00  0.00    -0.367 A  
HETATM   27  C   UNL     1      -9.660   4.872  69.928  1.00  0.00    -0.182 A  
HETATM   28  C   UNL     1     -11.709   6.694  70.413  1.00  0.00    -0.446 A  
HETATM   29  O   UNL     1      -8.713   3.912  69.705  1.00  0.00    -0.070 OA 
HETATM   30  H   UNL     1      -8.355   3.422  70.435  1.00  0.00     0.000 HD 
ENDBRANCH  14  23
ENDBRANCH   7  10
TORSDOF 3
ENDMDL
MODEL      113
REMARK 921   NORMALIZED FREE ENERGY PREDICTED BY IDOCK:   -4.36 KCAL/MOL
REMARK 922        TOTAL FREE ENERGY PREDICTED BY IDOCK:   -6.36 KCAL/MOL
REMARK 923 INTER-LIGAND FREE ENERGY PREDICTED BY IDOCK:   -5.55 KCAL/MOL
REMARK 924 INTRA-LIGAND FREE ENERGY PREDICTED BY IDOCK:   -0.81 KCAL/MOL
REMARK 927      BINDING AFFINITY PREDICTED BY RF-SCORE:    0.00 PKD
ROOT
HETATM    1  O   UNL     1      -8.118   6.437  68.124  1.00  0.00    -0.111 OA 
HETATM    2  C   UNL     1      -9.078   7.238  68.643  1.00  0.00    -0.133 C  
HETATM    3  O   UNL     1      -9.960   6.824  69.376  1.00  0.00    -0.155 OA 
HETATM    4  C   UNL     1      -8.977   8.656  68.216  1.00  0.00    -0.142 A  
HETATM    5  C   UNL     1      -7.744   9.266  67.966  1.00  0.00    -0.088 A  
HETATM    6  C   UNL     1      -7.690  10.612  67.581  1.00  0.00    -0.097 A  
HETATM    7  C   UNL     1      -8.859  11.385  67.508  1.00  0.00    -0.146 A  
HETATM    8  C   UNL     1     -10.096  10.765  67.741  1.00  0.00    -0.201 A  
HETATM    9  C   UNL     1     -10.153   9.410  68.105  1.00  0.00    -0.215 A  
ENDROOT
BRANCH   7  10
HETATM   10  N   UNL     1      -8.824  12.787  67.216  1.00  0.00    -0.190 NA 
HETATM   11  N   UNL     1      -7.999  13.597  67.940  1.00  0.00    -0.145 NA 
HETATM   12  C   UNL     1      -8.430  14.829  67.644  1.00  0.00    -0.177 A  
HETATM   13  N   UNL     1      -9.388  14.838  66.659  1.00  0.00    -0.254 NA 
HETATM   14  C   UNL     1      -9.584  13.569  66.346  1.00  0.00    -0.259 A  
BRANCH  12  15
HETATM   15  C   UNL     1      -8.000  16.096  68.260  1.00  0.00    -0.152 A  
HETATM   16  C   UNL     1      -8.751  17.258  67.974  1.00  0.00    -0.231 A  
HETATM   17  C   UNL     1      -8.428  18.502  68.526  1.00  0.00    -0.354 A  
HETATM   18  H   UNL     1      -5.406  15.252  70.075  1.00  0.00     0.000 HD 
HETATM   19  C   UNL     1      -7.341  18.613  69.382  1.00  0.00    -0.015 A  
HETATM   20  O   UNL     1      -6.143  15.158  69.483  1.00  0.00    -0.106 OA 
HETATM   21  C   UNL     1      -6.583  17.483  69.688  1.00  0.00    -0.088 A  
HETATM   22  C   UNL     1      -6.911  16.233  69.134  1.00  0.00    -0.202 A  
ENDBRANCH  12  15
BRANCH  14  23
HETATM   23  C   UNL     1     -10.511  13.148  65.284  1.00  0.00    -0.319 A  
HETATM   24  C   UNL     1     -12.442  12.201  63.467  1.00  0.00    -0.666 A  
HETATM   25  C   UNL     1     -11.089  11.960  63.236  1.00  0.00    -0.390 A  
HETATM   26  C   UNL     1     -11.876  13.442  65.455  1.00  0.00    -0.394 A  
HETATM   27  C   UNL     1     -10.132  12.466  64.120  1.00  0.00    -0.295 A  
HETATM   28  C   UNL     1     -12.835  12.973  64.557  1.00  0.00    -0.225 A  
HETATM   29  O   UNL     1      -8.807  12.280  63.840  1.00  0.00     0.198 OA 
HETATM   30  H   UNL     1      -8.550  11.818  63.051  1.00  0.00     0.000 HD 
ENDBRANCH  14  23
ENDBRANCH   7  10
TORSDOF 3
ENDMDL
MODEL      114
REMARK 921   NORMALIZED FREE ENERGY PREDICTED BY IDOCK:   -4.33 KCAL/MOL
REMARK 922        TOTAL FREE ENERGY PREDICTED BY IDOCK:   -6.34 KCAL/MOL
REMARK 923 INTER-LIGAND FREE ENERGY PREDICTED BY IDOCK:   -5.20 KCAL/MOL
REMARK 924 INTRA-LIGAND FREE ENERGY PREDICTED BY IDOCK:   -1.14 KCAL/MOL
REMARK 927      BINDING AFFINITY PREDICTED BY RF-SCORE:    0.00 PKD
ROOT
HETATM    1  O   UNL     1     -13.420  11.379  72.323  1.00  0.00    -0.351 OA 
HETATM    2  C   UNL     1     -13.399  10.052  72.054  1.00  0.00    -0.409 C  
HETATM    3  O   UNL     1     -14.182   9.263  72.555  1.00  0.00    -0.464 OA 
HETATM    4  C   UNL     1     -12.322   9.643  71.118  1.00  0.00    -0.427 A  
HETATM    5  C   UNL     1     -11.879  10.480  70.090  1.00  0.00    -0.404 A  
HETATM    6  C   UNL     1     -10.871  10.050  69.218  1.00  0.00    -0.261 A  
HETATM    7  C   UNL     1     -10.342   8.754  69.316  1.00  0.00    -0.214 A  
HETATM    8  C   UNL     1     -10.775   7.923  70.360  1.00  0.00    -0.233 A  
HETATM    9  C   UNL     1     -11.770   8.362  71.249  1.00  0.00    -0.325 A  
ENDROOT
BRANCH   7  10
HETATM   10  N   UNL     1      -9.384   8.253  68.375  1.00  0.00    -0.135 NA 
HETATM   11  N   UNL     1      -9.641   7.082  67.724  1.00  0.00    -0.123 NA 
HETATM   12  C   UNL     1      -8.458   6.753  67.191  1.00  0.00    -0.120 A  
HETATM   13  N   UNL     1      -7.508   7.733  67.352  1.00  0.00    -0.091 NA 
HETATM   14  C   UNL     1      -8.106   8.695  68.032  1.00  0.00    -0.111 A  
BRANCH  12  15
HETATM   15  C   UNL     1      -8.109   5.499  66.502  1.00  0.00    -0.105 A  
HETATM   16  C   UNL     1      -8.041   5.518  65.091  1.00  0.00    -0.124 A  
HETATM   17  C   UNL     1      -7.702   4.381  64.351  1.00  0.00    -0.081 A  
HETATM   18  H   UNL     1      -7.629   3.363  68.940  1.00  0.00     0.000 HD 
HETATM   19  C   UNL     1      -7.419   3.192  65.009  1.00  0.00    -0.072 A  
HETATM   20  O   UNL     1      -7.830   4.184  68.507  1.00  0.00    -0.072 OA 
HETATM   21  C   UNL     1      -7.472   3.142  66.402  1.00  0.00    -0.076 A  
HETATM   22  C   UNL     1      -7.811   4.287  67.144  1.00  0.00    -0.096 A  
ENDBRANCH  12  15
BRANCH  14  23
HETATM   23  C   UNL     1      -7.436   9.960  68.372  1.00  0.00    -0.082 A  
HETATM   24  C   UNL     1      -5.935  12.298  68.832  1.00  0.00    -0.069 A  
HETATM   25  C   UNL     1      -6.349  11.511  69.905  1.00  0.00    -0.136 A  
HETATM   26  C   UNL     1      -7.071  10.810  67.312  1.00  0.00    -0.091 A  
HETATM   27  C   UNL     1      -7.127  10.373  69.675  1.00  0.00    -0.135 A  
HETATM   28  C   UNL     1      -6.326  11.968  67.538  1.00  0.00    -0.118 A  
HETATM   29  O   UNL     1      -7.582   9.654  70.745  1.00  0.00    -0.271 OA 
HETATM   30  H   UNL     1      -7.373   9.934  71.628  1.00  0.00     0.000 HD 
ENDBRANCH  14  23
ENDBRANCH   7  10
TORSDOF 3
ENDMDL
MODEL      115
REMARK 921   NORMALIZED FREE ENERGY PREDICTED BY IDOCK:   -4.33 KCAL/MOL
REMARK 922        TOTAL FREE ENERGY PREDICTED BY IDOCK:   -6.33 KCAL/MOL
REMARK 923 INTER-LIGAND FREE ENERGY PREDICTED BY IDOCK:   -5.31 KCAL/MOL
REMARK 924 INTRA-LIGAND FREE ENERGY PREDICTED BY IDOCK:   -1.02 KCAL/MOL
REMARK 927      BINDING AFFINITY PREDICTED BY RF-SCORE:    0.00 PKD
ROOT
HETATM    1  O   UNL     1      -5.183  16.585  71.562  1.00  0.00    -0.173 OA 
HETATM    2  C   UNL     1      -5.607  16.810  70.296  1.00  0.00    -0.198 C  
HETATM    3  O   UNL     1      -5.390  17.851  69.702  1.00  0.00    -0.180 OA 
HETATM    4  C   UNL     1      -6.382  15.687  69.710  1.00  0.00    -0.170 A  
HETATM    5  C   UNL     1      -6.112  14.355  70.035  1.00  0.00    -0.151 A  
HETATM    6  C   UNL     1      -6.857  13.323  69.448  1.00  0.00     0.023 A  
HETATM    7  C   UNL     1      -7.830  13.603  68.478  1.00  0.00    -0.131 A  
HETATM    8  C   UNL     1      -8.112  14.943  68.168  1.00  0.00    -0.137 A  
HETATM    9  C   UNL     1      -7.382  15.979  68.773  1.00  0.00    -0.165 A  
ENDROOT
BRANCH   7  10
HETATM   10  N   UNL     1      -8.535  12.564  67.787  1.00  0.00    -0.159 NA 
HETATM   11  N   UNL     1      -7.925  11.923  66.749  1.00  0.00    -0.129 NA 
HETATM   12  C   UNL     1      -8.929  11.269  66.151  1.00  0.00    -0.202 A  
HETATM   13  N   UNL     1     -10.110  11.350  66.849  1.00  0.00    -0.209 NA 
HETATM   14  C   UNL     1      -9.846  12.102  67.903  1.00  0.00    -0.199 A  
BRANCH  12  15
HETATM   15  C   UNL     1      -8.877  10.529  64.880  1.00  0.00    -0.207 A  
HETATM   16  C   UNL     1      -9.481  11.119  63.746  1.00  0.00    -0.258 A  
HETATM   17  C   UNL     1      -9.468  10.499  62.493  1.00  0.00    -0.288 A  
HETATM   18  H   UNL     1      -7.193   7.815  65.611  1.00  0.00     0.000 HD 
HETATM   19  C   UNL     1      -8.845   9.267  62.342  1.00  0.00    -0.242 A  
HETATM   20  O   UNL     1      -7.619   8.655  65.734  1.00  0.00    -0.086 OA 
HETATM   21  C   UNL     1      -8.235   8.661  63.440  1.00  0.00    -0.155 A  
HETATM   22  C   UNL     1      -8.248   9.287  64.698  1.00  0.00    -0.148 A  
ENDBRANCH  12  15
BRANCH  14  23
HETATM   23  C   UNL     1     -10.848  12.393  68.940  1.00  0.00    -0.239 A  
HETATM   24  C   UNL     1     -12.907  12.696  70.837  1.00  0.00    -0.178 A  
HETATM   25  C   UNL     1     -12.606  13.737  69.960  1.00  0.00    -0.207 A  
HETATM   26  C   UNL     1     -11.121  11.386  69.884  1.00  0.00    -0.134 A  
HETATM   27  C   UNL     1     -11.558  13.597  69.047  1.00  0.00    -0.312 A  
HETATM   28  C   UNL     1     -12.141  11.534  70.824  1.00  0.00    -0.410 A  
HETATM   29  O   UNL     1     -11.232  14.654  68.244  1.00  0.00    -0.262 OA 
HETATM   30  H   UNL     1     -11.713  15.470  68.316  1.00  0.00     0.000 HD 
ENDBRANCH  14  23
ENDBRANCH   7  10
TORSDOF 3
ENDMDL
MODEL      116
REMARK 921   NORMALIZED FREE ENERGY PREDICTED BY IDOCK:   -4.32 KCAL/MOL
REMARK 922        TOTAL FREE ENERGY PREDICTED BY IDOCK:   -6.32 KCAL/MOL
REMARK 923 INTER-LIGAND FREE ENERGY PREDICTED BY IDOCK:   -5.29 KCAL/MOL
REMARK 924 INTRA-LIGAND FREE ENERGY PREDICTED BY IDOCK:   -1.04 KCAL/MOL
REMARK 927      BINDING AFFINITY PREDICTED BY RF-SCORE:    0.00 PKD
ROOT
HETATM    1  O   UNL     1     -11.003   5.896  71.718  1.00  0.00    -0.255 OA 
HETATM    2  C   UNL     1      -9.770   6.455  71.760  1.00  0.00    -0.159 C  
HETATM    3  O   UNL     1      -8.899   6.078  72.524  1.00  0.00    -0.132 OA 
HETATM    4  C   UNL     1      -9.586   7.583  70.813  1.00  0.00    -0.166 A  
HETATM    5  C   UNL     1     -10.230   7.619  69.573  1.00  0.00    -0.209 A  
HETATM    6  C   UNL     1     -10.018   8.694  68.700  1.00  0.00    -0.197 A  
HETATM    7  C   UNL     1      -9.108   9.711  69.024  1.00  0.00    -0.148 A  
HETATM    8  C   UNL     1      -8.477   9.683  70.277  1.00  0.00    -0.221 A  
HETATM    9  C   UNL     1      -8.707   8.617  71.162  1.00  0.00    -0.244 A  
ENDROOT
BRANCH   7  10
HETATM   10  N   UNL     1      -8.795  10.769  68.109  1.00  0.00    -0.129 NA 
HETATM   11  N   UNL     1      -9.190  12.041  68.402  1.00  0.00    -0.184 NA 
HETATM   12  C   UNL     1      -9.031  12.694  67.244  1.00  0.00    -0.194 A  
HETATM   13  N   UNL     1      -8.418  11.930  66.279  1.00  0.00    -0.044 NA 
HETATM   14  C   UNL     1      -8.211  10.752  66.841  1.00  0.00    -0.130 A  
BRANCH  12  15
HETATM   15  C   UNL     1      -9.446  14.072  66.934  1.00  0.00    -0.271 A  
HETATM   16  C   UNL     1     -10.176  14.289  65.743  1.00  0.00    -0.351 A  
HETATM   17  C   UNL     1     -10.628  15.560  65.374  1.00  0.00    -0.428 A  
HETATM   18  H   UNL     1      -8.345  15.822  69.476  1.00  0.00     0.000 HD 
HETATM   19  C   UNL     1     -10.359  16.650  66.191  1.00  0.00    -0.340 A  
HETATM   20  O   UNL     1      -8.515  15.066  68.926  1.00  0.00    -0.172 OA 
HETATM   21  C   UNL     1      -9.646  16.467  67.376  1.00  0.00    -0.231 A  
HETATM   22  C   UNL     1      -9.195  15.188  67.746  1.00  0.00    -0.180 A  
ENDBRANCH  12  15
BRANCH  14  23
HETATM   23  C   UNL     1      -7.523   9.653  66.148  1.00  0.00    -0.098 A  
HETATM   24  C   UNL     1      -6.032   7.759  64.690  1.00  0.00    -0.041 A  
HETATM   25  C   UNL     1      -7.423   7.767  64.606  1.00  0.00    -0.095 A  
HETATM   26  C   UNL     1      -6.124   9.576  66.273  1.00  0.00    -0.060 A  
HETATM   27  C   UNL     1      -8.161   8.683  65.362  1.00  0.00    -0.136 A  
HETATM   28  C   UNL     1      -5.383   8.640  65.551  1.00  0.00    -0.034 A  
HETATM   29  O   UNL     1      -9.526   8.629  65.320  1.00  0.00    -0.435 OA 
HETATM   30  H   UNL     1      -9.959   7.972  64.788  1.00  0.00     0.000 HD 
ENDBRANCH  14  23
ENDBRANCH   7  10
TORSDOF 3
ENDMDL
MODEL      117
REMARK 921   NORMALIZED FREE ENERGY PREDICTED BY IDOCK:   -4.27 KCAL/MOL
REMARK 922        TOTAL FREE ENERGY PREDICTED BY IDOCK:   -6.26 KCAL/MOL
REMARK 923 INTER-LIGAND FREE ENERGY PREDICTED BY IDOCK:   -5.02 KCAL/MOL
REMARK 924 INTRA-LIGAND FREE ENERGY PREDICTED BY IDOCK:   -1.24 KCAL/MOL
REMARK 927      BINDING AFFINITY PREDICTED BY RF-SCORE:    0.00 PKD
ROOT
HETATM    1  O   UNL     1     -13.177  11.288  72.219  1.00  0.00    -0.402 OA 
HETATM    2  C   UNL     1     -13.389   9.959  72.065  1.00  0.00    -0.432 C  
HETATM    3  O   UNL     1     -14.354   9.385  72.537  1.00  0.00    -0.389 OA 
HETATM    4  C   UNL     1     -12.327   9.264  71.295  1.00  0.00    -0.403 A  
HETATM    5  C   UNL     1     -11.632   9.894  70.259  1.00  0.00    -0.319 A  
HETATM    6  C   UNL     1     -10.648   9.198  69.546  1.00  0.00    -0.233 A  
HETATM    7  C   UNL     1     -10.393   7.844  69.811  1.00  0.00    -0.219 A  
HETATM    8  C   UNL     1     -11.078   7.219  70.864  1.00  0.00    -0.284 A  
HETATM    9  C   UNL     1     -12.049   7.923  71.594  1.00  0.00    -0.333 A  
ENDROOT
BRANCH   7  10
HETATM   10  N   UNL     1      -9.465   7.080  69.031  1.00  0.00    -0.139 NA 
HETATM   11  N   UNL     1      -9.667   6.958  67.688  1.00  0.00    -0.125 NA 
HETATM   12  C   UNL     1      -8.843   5.964  67.335  1.00  0.00    -0.106 A  
HETATM   13  N   UNL     1      -8.027   5.556  68.363  1.00  0.00    -0.095 NA 
HETATM   14  C   UNL     1      -8.370   6.298  69.401  1.00  0.00    -0.121 A  
BRANCH  12  15
HETATM   15  C   UNL     1      -8.755   5.303  66.022  1.00  0.00    -0.137 A  
HETATM   16  C   UNL     1      -9.427   4.071  65.856  1.00  0.00    -0.180 A  
HETATM   17  C   UNL     1      -9.413   3.379  64.641  1.00  0.00    -0.154 A  
HETATM   18  H   UNL     1      -6.953   7.363  64.219  1.00  0.00     0.000 HD 
HETATM   19  C   UNL     1      -8.725   3.906  63.557  1.00  0.00    -0.102 A  
HETATM   20  O   UNL     1      -7.414   7.014  64.973  1.00  0.00    -0.081 OA 
HETATM   21  C   UNL     1      -8.056   5.123  63.687  1.00  0.00    -0.111 A  
HETATM   22  C   UNL     1      -8.073   5.818  64.909  1.00  0.00    -0.131 A  
ENDBRANCH  12  15
BRANCH  14  23
HETATM   23  C   UNL     1      -7.691   6.203  70.702  1.00  0.00    -0.105 A  
HETATM   24  C   UNL     1      -6.638   5.879  73.294  1.00  0.00    -0.073 A  
HETATM   25  C   UNL     1      -6.677   7.144  72.709  1.00  0.00    -0.067 A  
HETATM   26  C   UNL     1      -7.572   4.928  71.284  1.00  0.00    -0.082 A  
HETATM   27  C   UNL     1      -7.164   7.294  71.408  1.00  0.00    -0.076 A  
HETATM   28  C   UNL     1      -7.051   4.766  72.569  1.00  0.00    -0.080 A  
HETATM   29  O   UNL     1      -7.130   8.530  70.825  1.00  0.00    -0.046 OA 
HETATM   30  H   UNL     1      -6.773   9.269  71.303  1.00  0.00     0.000 HD 
ENDBRANCH  14  23
ENDBRANCH   7  10
TORSDOF 3
ENDMDL
MODEL      118
REMARK 921   NORMALIZED FREE ENERGY PREDICTED BY IDOCK:   -4.21 KCAL/MOL
REMARK 922        TOTAL FREE ENERGY PREDICTED BY IDOCK:   -6.20 KCAL/MOL
REMARK 923 INTER-LIGAND FREE ENERGY PREDICTED BY IDOCK:   -5.60 KCAL/MOL
REMARK 924 INTRA-LIGAND FREE ENERGY PREDICTED BY IDOCK:   -0.60 KCAL/MOL
REMARK 927      BINDING AFFINITY PREDICTED BY RF-SCORE:    0.00 PKD
ROOT
HETATM    1  O   UNL     1      -6.048  13.626  71.461  1.00  0.00    -0.261 OA 
HETATM    2  C   UNL     1      -5.877  13.836  70.134  1.00  0.00    -0.142 C  
HETATM    3  O   UNL     1      -5.221  14.762  69.691  1.00  0.00    -0.092 OA 
HETATM    4  C   UNL     1      -6.582  12.855  69.272  1.00  0.00    -0.085 A  
HETATM    5  C   UNL     1      -6.761  11.524  69.660  1.00  0.00    -0.083 A  
HETATM    6  C   UNL     1      -7.418  10.625  68.809  1.00  0.00    -0.104 A  
HETATM    7  C   UNL     1      -7.843  11.025  67.534  1.00  0.00    -0.116 A  
HETATM    8  C   UNL     1      -7.679  12.366  67.154  1.00  0.00    -0.122 A  
HETATM    9  C   UNL     1      -7.041  13.273  68.016  1.00  0.00    -0.122 A  
ENDROOT
BRANCH   7  10
HETATM   10  N   UNL     1      -8.426  10.102  66.605  1.00  0.00    -0.126 NA 
HETATM   11  N   UNL     1      -7.862   8.871  66.448  1.00  0.00    -0.102 NA 
HETATM   12  C   UNL     1      -8.429   8.406  65.328  1.00  0.00    -0.171 A  
HETATM   13  N   UNL     1      -9.428   9.224  64.856  1.00  0.00    -0.096 NA 
HETATM   14  C   UNL     1      -9.470  10.247  65.691  1.00  0.00    -0.221 A  
BRANCH  12  15
HETATM   15  C   UNL     1      -8.082   7.176  64.597  1.00  0.00    -0.083 A  
HETATM   16  C   UNL     1      -7.295   7.300  63.430  1.00  0.00    -0.086 A  
HETATM   17  C   UNL     1      -6.902   6.187  62.680  1.00  0.00    -0.041 A  
HETATM   18  H   UNL     1      -9.443   4.786  66.379  1.00  0.00     0.000 HD 
HETATM   19  C   UNL     1      -7.287   4.916  63.083  1.00  0.00    -0.049 A  
HETATM   20  O   UNL     1      -9.193   5.664  66.115  1.00  0.00    -0.155 OA 
HETATM   21  C   UNL     1      -8.059   4.759  64.234  1.00  0.00    -0.111 A  
HETATM   22  C   UNL     1      -8.451   5.879  64.987  1.00  0.00    -0.111 A  
ENDBRANCH  12  15
BRANCH  14  23
HETATM   23  C   UNL     1     -10.451  11.335  65.563  1.00  0.00    -0.323 A  
HETATM   24  C   UNL     1     -12.490  13.278  65.533  1.00  0.00    -0.531 A  
HETATM   25  C   UNL     1     -12.104  12.652  64.348  1.00  0.00    -0.487 A  
HETATM   26  C   UNL     1     -10.807  12.034  66.731  1.00  0.00    -0.307 A  
HETATM   27  C   UNL     1     -11.065  11.717  64.361  1.00  0.00    -0.334 A  
HETATM   28  C   UNL     1     -11.817  12.996  66.718  1.00  0.00    -0.451 A  
HETATM   29  O   UNL     1     -10.653  11.167  63.180  1.00  0.00    -0.689 OA 
HETATM   30  H   UNL     1     -11.069  11.426  62.366  1.00  0.00     0.000 HD 
ENDBRANCH  14  23
ENDBRANCH   7  10
TORSDOF 3
ENDMDL
MODEL      119
REMARK 921   NORMALIZED FREE ENERGY PREDICTED BY IDOCK:   -4.20 KCAL/MOL
REMARK 922        TOTAL FREE ENERGY PREDICTED BY IDOCK:   -6.18 KCAL/MOL
REMARK 923 INTER-LIGAND FREE ENERGY PREDICTED BY IDOCK:   -5.36 KCAL/MOL
REMARK 924 INTRA-LIGAND FREE ENERGY PREDICTED BY IDOCK:   -0.82 KCAL/MOL
REMARK 927      BINDING AFFINITY PREDICTED BY RF-SCORE:    0.00 PKD
ROOT
HETATM    1  O   UNL     1      -9.552   2.693  74.012  1.00  0.00    -0.086 OA 
HETATM    2  C   UNL     1      -8.435   3.189  73.430  1.00  0.00    -0.074 C  
HETATM    3  O   UNL     1      -7.312   2.937  73.831  1.00  0.00    -0.044 OA 
HETATM    4  C   UNL     1      -8.702   4.089  72.280  1.00  0.00    -0.118 A  
HETATM    5  C   UNL     1      -9.799   3.899  71.433  1.00  0.00    -0.243 A  
HETATM    6  C   UNL     1     -10.007   4.761  70.348  1.00  0.00    -0.315 A  
HETATM    7  C   UNL     1      -9.088   5.779  70.054  1.00  0.00    -0.142 A  
HETATM    8  C   UNL     1      -7.999   5.979  70.916  1.00  0.00    -0.115 A  
HETATM    9  C   UNL     1      -7.802   5.129  72.017  1.00  0.00    -0.111 A  
ENDROOT
BRANCH   7  10
HETATM   10  N   UNL     1      -9.222   6.610  68.894  1.00  0.00    -0.131 NA 
HETATM   11  N   UNL     1      -9.512   7.933  69.054  1.00  0.00    -0.151 NA 
HETATM   12  C   UNL     1      -9.870   8.326  67.825  1.00  0.00    -0.170 A  
HETATM   13  N   UNL     1      -9.678   7.352  66.875  1.00  0.00    -0.191 NA 
HETATM   14  C   UNL     1      -9.211   6.305  67.532  1.00  0.00    -0.108 A  
BRANCH  12  15
HETATM   15  C   UNL     1     -10.431   9.630  67.435  1.00  0.00    -0.319 A  
HETATM   16  C   UNL     1     -11.170  10.347  68.403  1.00  0.00    -0.318 A  
HETATM   17  C   UNL     1     -11.727  11.601  68.130  1.00  0.00    -0.365 A  
HETATM   18  H   UNL     1      -9.435  10.028  64.339  1.00  0.00     0.000 HD 
HETATM   19  C   UNL     1     -11.555  12.171  66.876  1.00  0.00    -0.408 A  
HETATM   20  O   UNL     1      -9.546   9.620  65.189  1.00  0.00    -0.283 OA 
HETATM   21  C   UNL     1     -10.826  11.491  65.901  1.00  0.00    -0.316 A  
HETATM   22  C   UNL     1     -10.265  10.232  66.178  1.00  0.00    -0.217 A  
ENDBRANCH  12  15
BRANCH  14  23
HETATM   23  C   UNL     1      -8.826   5.054  66.861  1.00  0.00    -0.106 A  
HETATM   24  C   UNL     1      -7.819   2.786  65.530  1.00  0.00    -0.078 A  
HETATM   25  C   UNL     1      -9.011   3.372  65.107  1.00  0.00    -0.138 A  
HETATM   26  C   UNL     1      -7.666   4.401  67.315  1.00  0.00    -0.089 A  
HETATM   27  C   UNL     1      -9.527   4.473  65.795  1.00  0.00    -0.172 A  
HETATM   28  C   UNL     1      -7.165   3.277  66.656  1.00  0.00    -0.066 A  
HETATM   29  O   UNL     1     -10.732   4.990  65.409  1.00  0.00    -0.487 OA 
HETATM   30  H   UNL     1     -11.207   4.597  64.687  1.00  0.00     0.000 HD 
ENDBRANCH  14  23
ENDBRANCH   7  10
TORSDOF 3
ENDMDL
MODEL      120
REMARK 921   NORMALIZED FREE ENERGY PREDICTED BY IDOCK:   -4.13 KCAL/MOL
REMARK 922        TOTAL FREE ENERGY PREDICTED BY IDOCK:   -6.10 KCAL/MOL
REMARK 923 INTER-LIGAND FREE ENERGY PREDICTED BY IDOCK:   -5.48 KCAL/MOL
REMARK 924 INTRA-LIGAND FREE ENERGY PREDICTED BY IDOCK:   -0.62 KCAL/MOL
REMARK 927      BINDING AFFINITY PREDICTED BY RF-SCORE:    0.00 PKD
ROOT
HETATM    1  O   UNL     1      -6.135  18.526  69.094  1.00  0.00    -0.222 OA 
HETATM    2  C   UNL     1      -7.455  18.322  68.866  1.00  0.00    -0.239 C  
HETATM    3  O   UNL     1      -8.292  19.197  69.006  1.00  0.00    -0.315 OA 
HETATM    4  C   UNL     1      -7.790  16.935  68.460  1.00  0.00    -0.240 A  
HETATM    5  C   UNL     1      -6.913  16.154  67.700  1.00  0.00    -0.175 A  
HETATM    6  C   UNL     1      -7.274  14.854  67.324  1.00  0.00    -0.142 A  
HETATM    7  C   UNL     1      -8.541  14.342  67.640  1.00  0.00    -0.183 A  
HETATM    8  C   UNL     1      -9.412  15.119  68.418  1.00  0.00    -0.208 A  
HETATM    9  C   UNL     1      -9.042  16.414  68.816  1.00  0.00    -0.244 A  
ENDROOT
BRANCH   7  10
HETATM   10  N   UNL     1      -8.975  13.055  67.181  1.00  0.00    -0.216 NA 
HETATM   11  N   UNL     1      -8.500  11.935  67.796  1.00  0.00    -0.146 NA 
HETATM   12  C   UNL     1      -8.835  10.949  66.954  1.00  0.00    -0.142 A  
HETATM   13  N   UNL     1      -9.625  11.378  65.915  1.00  0.00    -0.220 NA 
HETATM   14  C   UNL     1      -9.766  12.680  66.095  1.00  0.00    -0.251 A  
BRANCH  12  15
HETATM   15  C   UNL     1      -8.439   9.533  67.039  1.00  0.00    -0.128 A  
HETATM   16  C   UNL     1      -9.462   8.558  67.015  1.00  0.00    -0.223 A  
HETATM   17  C   UNL     1      -9.182   7.190  67.073  1.00  0.00    -0.167 A  
HETATM   18  H   UNL     1      -5.166   9.632  67.173  1.00  0.00     0.000 HD 
HETATM   19  C   UNL     1      -7.864   6.760  67.156  1.00  0.00    -0.112 A  
HETATM   20  O   UNL     1      -6.062   9.944  67.122  1.00  0.00    -0.057 OA 
HETATM   21  C   UNL     1      -6.832   7.697  67.176  1.00  0.00    -0.068 A  
HETATM   22  C   UNL     1      -7.115   9.073  67.115  1.00  0.00    -0.079 A  
ENDBRANCH  12  15
BRANCH  14  23
HETATM   23  C   UNL     1     -10.593  13.516  65.212  1.00  0.00    -0.335 A  
HETATM   24  C   UNL     1     -12.266  15.264  63.771  1.00  0.00     0.348 A  
HETATM   25  C   UNL     1     -12.395  13.885  63.613  1.00  0.00    -0.177 A  
HETATM   26  C   UNL     1     -10.433  14.911  65.297  1.00  0.00    -0.427 A  
HETATM   27  C   UNL     1     -11.537  13.023  64.300  1.00  0.00    -0.385 A  
HETATM   28  C   UNL     1     -11.262  15.779  64.585  1.00  0.00    -0.373 A  
HETATM   29  O   UNL     1     -11.632  11.677  64.079  1.00  0.00    -0.354 OA 
HETATM   30  H   UNL     1     -12.271  11.343  63.461  1.00  0.00     0.000 HD 
ENDBRANCH  14  23
ENDBRANCH   7  10
TORSDOF 3
ENDMDL
MODEL      121
REMARK 921   NORMALIZED FREE ENERGY PREDICTED BY IDOCK:   -4.10 KCAL/MOL
REMARK 922        TOTAL FREE ENERGY PREDICTED BY IDOCK:   -6.07 KCAL/MOL
REMARK 923 INTER-LIGAND FREE ENERGY PREDICTED BY IDOCK:   -5.16 KCAL/MOL
REMARK 924 INTRA-LIGAND FREE ENERGY PREDICTED BY IDOCK:   -0.91 KCAL/MOL
REMARK 927      BINDING AFFINITY PREDICTED BY RF-SCORE:    0.00 PKD
ROOT
HETATM    1  O   UNL     1      -5.999  17.186  70.281  1.00  0.00    -0.198 OA 
HETATM    2  C   UNL     1      -6.372  17.173  68.980  1.00  0.00    -0.204 C  
HETATM    3  O   UNL     1      -6.332  18.163  68.271  1.00  0.00    -0.187 OA 
HETATM    4  C   UNL     1      -6.859  15.853  68.505  1.00  0.00    -0.124 A  
HETATM    5  C   UNL     1      -6.346  14.653  69.004  1.00  0.00    -0.094 A  
HETATM    6  C   UNL     1      -6.822  13.428  68.517  1.00  0.00    -0.099 A  
HETATM    7  C   UNL     1      -7.764  13.386  67.478  1.00  0.00    -0.176 A  
HETATM    8  C   UNL     1      -8.291  14.592  66.992  1.00  0.00    -0.195 A  
HETATM    9  C   UNL     1      -7.831  15.820  67.496  1.00  0.00    -0.182 A  
ENDROOT
BRANCH   7  10
HETATM   10  N   UNL     1      -8.192  12.150  66.892  1.00  0.00    -0.164 NA 
HETATM   11  N   UNL     1      -7.358  11.072  66.930  1.00  0.00    -0.126 NA 
HETATM   12  C   UNL     1      -7.905  10.221  66.053  1.00  0.00    -0.133 A  
HETATM   13  N   UNL     1      -9.121  10.652  65.578  1.00  0.00    -0.182 NA 
HETATM   14  C   UNL     1      -9.329  11.823  66.153  1.00  0.00    -0.225 A  
BRANCH  12  15
HETATM   15  C   UNL     1      -7.340   8.947  65.576  1.00  0.00    -0.085 A  
HETATM   16  C   UNL     1      -7.180   8.777  64.182  1.00  0.00    -0.091 A  
HETATM   17  C   UNL     1      -6.637   7.609  63.638  1.00  0.00    -0.058 A  
HETATM   18  H   UNL     1      -6.737   7.269  68.325  1.00  0.00     0.000 HD 
HETATM   19  C   UNL     1      -6.238   6.579  64.478  1.00  0.00    -0.037 A  
HETATM   20  O   UNL     1      -7.020   7.982  67.765  1.00  0.00    -0.074 OA 
HETATM   21  C   UNL     1      -6.379   6.719  65.858  1.00  0.00    -0.049 A  
HETATM   22  C   UNL     1      -6.922   7.894  66.404  1.00  0.00    -0.067 A  
ENDBRANCH  12  15
BRANCH  14  23
HETATM   23  C   UNL     1     -10.559  12.602  65.942  1.00  0.00    -0.297 A  
HETATM   24  C   UNL     1     -12.740  14.297  65.397  1.00  0.00    -0.385 A  
HETATM   25  C   UNL     1     -12.496  13.871  66.701  1.00  0.00    -0.313 A  
HETATM   26  C   UNL     1     -10.870  12.985  64.625  1.00  0.00    -0.373 A  
HETATM   27  C   UNL     1     -11.436  12.998  66.961  1.00  0.00    -0.333 A  
HETATM   28  C   UNL     1     -11.950  13.826  64.353  1.00  0.00    -0.480 A  
HETATM   29  O   UNL     1     -11.254  12.536  68.235  1.00  0.00    -0.229 OA 
HETATM   30  H   UNL     1     -11.849  12.805  68.925  1.00  0.00     0.000 HD 
ENDBRANCH  14  23
ENDBRANCH   7  10
TORSDOF 3
ENDMDL
MODEL      122
REMARK 921   NORMALIZED FREE ENERGY PREDICTED BY IDOCK:   -4.07 KCAL/MOL
REMARK 922        TOTAL FREE ENERGY PREDICTED BY IDOCK:   -6.03 KCAL/MOL
REMARK 923 INTER-LIGAND FREE ENERGY PREDICTED BY IDOCK:   -4.87 KCAL/MOL
REMARK 924 INTRA-LIGAND FREE ENERGY PREDICTED BY IDOCK:   -1.16 KCAL/MOL
REMARK 927      BINDING AFFINITY PREDICTED BY RF-SCORE:    0.00 PKD
ROOT
HETATM    1  O   UNL     1     -10.405   6.398  73.932  1.00  0.00    -0.272 OA 
HETATM    2  C   UNL     1      -9.192   6.742  73.439  1.00  0.00    -0.138 C  
HETATM    3  O   UNL     1      -8.155   6.566  74.054  1.00  0.00    -0.112 OA 
HETATM    4  C   UNL     1      -9.242   7.375  72.098  1.00  0.00    -0.158 A  
HETATM    5  C   UNL     1     -10.208   7.023  71.150  1.00  0.00    -0.208 A  
HETATM    6  C   UNL     1     -10.212   7.633  69.889  1.00  0.00    -0.215 A  
HETATM    7  C   UNL     1      -9.212   8.550  69.532  1.00  0.00    -0.150 A  
HETATM    8  C   UNL     1      -8.255   8.916  70.492  1.00  0.00    -0.160 A  
HETATM    9  C   UNL     1      -8.264   8.321  71.764  1.00  0.00    -0.186 A  
ENDROOT
BRANCH   7  10
HETATM   10  N   UNL     1      -9.132   9.112  68.217  1.00  0.00    -0.133 NA 
HETATM   11  N   UNL     1      -8.545   8.390  67.220  1.00  0.00    -0.123 NA 
HETATM   12  C   UNL     1      -8.356   9.293  66.249  1.00  0.00    -0.122 A  
HETATM   13  N   UNL     1      -8.927  10.510  66.532  1.00  0.00    -0.154 NA 
HETATM   14  C   UNL     1      -9.468  10.376  67.730  1.00  0.00    -0.145 A  
BRANCH  12  15
HETATM   15  C   UNL     1      -7.619   9.103  64.988  1.00  0.00    -0.106 A  
HETATM   16  C   UNL     1      -8.356   8.733  63.841  1.00  0.00    -0.145 A  
HETATM   17  C   UNL     1      -7.746   8.547  62.597  1.00  0.00    -0.124 A  
HETATM   18  H   UNL     1      -4.514   9.795  65.774  1.00  0.00     0.000 HD 
HETATM   19  C   UNL     1      -6.375   8.729  62.469  1.00  0.00    -0.095 A  
HETATM   20  O   UNL     1      -5.449   9.669  65.882  1.00  0.00    -0.042 OA 
HETATM   21  C   UNL     1      -5.620   9.100  63.582  1.00  0.00    -0.070 A  
HETATM   22  C   UNL     1      -6.236   9.289  64.831  1.00  0.00    -0.067 A  
ENDBRANCH  12  15
BRANCH  14  23
HETATM   23  C   UNL     1     -10.229  11.453  68.381  1.00  0.00    -0.206 A  
HETATM   24  C   UNL     1     -11.934  13.390  69.508  1.00  0.00    -0.377 A  
HETATM   25  C   UNL     1     -10.835  13.785  68.746  1.00  0.00    -0.281 A  
HETATM   26  C   UNL     1     -11.299  11.082  69.215  1.00  0.00    -0.350 A  
HETATM   27  C   UNL     1      -9.970  12.821  68.222  1.00  0.00    -0.230 A  
HETATM   28  C   UNL     1     -12.146  12.041  69.773  1.00  0.00    -0.317 A  
HETATM   29  O   UNL     1      -8.859  13.229  67.537  1.00  0.00    -0.184 OA 
HETATM   30  H   UNL     1      -8.684  14.156  67.428  1.00  0.00     0.000 HD 
ENDBRANCH  14  23
ENDBRANCH   7  10
TORSDOF 3
ENDMDL
MODEL      123
REMARK 921   NORMALIZED FREE ENERGY PREDICTED BY IDOCK:   -3.97 KCAL/MOL
REMARK 922        TOTAL FREE ENERGY PREDICTED BY IDOCK:   -5.91 KCAL/MOL
REMARK 923 INTER-LIGAND FREE ENERGY PREDICTED BY IDOCK:   -5.29 KCAL/MOL
REMARK 924 INTRA-LIGAND FREE ENERGY PREDICTED BY IDOCK:   -0.62 KCAL/MOL
REMARK 927      BINDING AFFINITY PREDICTED BY RF-SCORE:    0.00 PKD
ROOT
HETATM    1  O   UNL     1     -13.224  16.166  73.251  1.00  0.00    -0.542 OA 
HETATM    2  C   UNL     1     -13.396  15.636  72.017  1.00  0.00    -0.455 C  
HETATM    3  O   UNL     1     -14.402  15.029  71.693  1.00  0.00    -0.482 OA 
HETATM    4  C   UNL     1     -12.241  15.837  71.107  1.00  0.00    -0.473 A  
HETATM    5  C   UNL     1     -11.438  16.980  71.173  1.00  0.00     0.914 A  
HETATM    6  C   UNL     1     -10.366  17.140  70.285  1.00  0.00     0.753 A  
HETATM    7  C   UNL     1     -10.125  16.196  69.276  1.00  0.00    -0.260 A  
HETATM    8  C   UNL     1     -10.920  15.041  69.223  1.00  0.00    -0.269 A  
HETATM    9  C   UNL     1     -11.980  14.869  70.128  1.00  0.00    -0.368 A  
ENDROOT
BRANCH   7  10
HETATM   10  N   UNL     1      -9.100  16.383  68.292  1.00  0.00    -0.202 NA 
HETATM   11  N   UNL     1      -8.536  17.616  68.146  1.00  0.00    -0.252 NA 
HETATM   12  C   UNL     1      -7.881  17.526  66.981  1.00  0.00    -0.214 A  
HETATM   13  N   UNL     1      -7.885  16.252  66.463  1.00  0.00    -0.275 NA 
HETATM   14  C   UNL     1      -8.589  15.528  67.315  1.00  0.00    -0.193 A  
BRANCH  12  15
HETATM   15  C   UNL     1      -7.211  18.613  66.249  1.00  0.00    -0.281 A  
HETATM   16  C   UNL     1      -5.855  18.433  65.893  1.00  0.00    -0.228 A  
HETATM   17  C   UNL     1      -5.141  19.403  65.183  1.00  0.00    -0.182 A  
HETATM   18  H   UNL     1      -9.554  20.872  65.867  1.00  0.00     0.000 HD 
HETATM   19  C   UNL     1      -5.769  20.583  64.809  1.00  0.00    -0.256 A  
HETATM   20  O   UNL     1      -9.139  20.061  66.135  1.00  0.00    -0.358 OA 
HETATM   21  C   UNL     1      -7.108  20.789  65.141  1.00  0.00     0.074 A  
HETATM   22  C   UNL     1      -7.825  19.811  65.853  1.00  0.00    -0.301 A  
ENDBRANCH  12  15
BRANCH  14  23
HETATM   23  C   UNL     1      -8.791  14.081  67.146  1.00  0.00    -0.239 A  
HETATM   24  C   UNL     1      -8.886  11.277  66.897  1.00  0.00    -0.165 A  
HETATM   25  C   UNL     1      -9.314  12.087  65.846  1.00  0.00    -0.164 A  
HETATM   26  C   UNL     1      -8.435  13.243  68.219  1.00  0.00    -0.160 A  
HETATM   27  C   UNL     1      -9.302  13.477  65.989  1.00  0.00     0.003 A  
HETATM   28  C   UNL     1      -8.481  11.854  68.098  1.00  0.00    -0.163 A  
HETATM   29  O   UNL     1      -9.791  14.252  64.975  1.00  0.00    -0.555 OA 
HETATM   30  H   UNL     1     -10.137  13.843  64.191  1.00  0.00     0.000 HD 
ENDBRANCH  14  23
ENDBRANCH   7  10
TORSDOF 3
ENDMDL
MODEL      124
REMARK 921   NORMALIZED FREE ENERGY PREDICTED BY IDOCK:   -3.95 KCAL/MOL
REMARK 922        TOTAL FREE ENERGY PREDICTED BY IDOCK:   -5.89 KCAL/MOL
REMARK 923 INTER-LIGAND FREE ENERGY PREDICTED BY IDOCK:   -6.68 KCAL/MOL
REMARK 924 INTRA-LIGAND FREE ENERGY PREDICTED BY IDOCK:    0.79 KCAL/MOL
REMARK 927      BINDING AFFINITY PREDICTED BY RF-SCORE:    0.00 PKD
ROOT
HETATM    1  O   UNL     1     -12.241  14.298  63.756  1.00  0.00    -0.609 OA 
HETATM    2  C   UNL     1     -12.725  13.678  64.859  1.00  0.00    -0.271 C  
HETATM    3  O   UNL     1     -13.745  14.034  65.422  1.00  0.00    -0.376 OA 
HETATM    4  C   UNL     1     -11.887  12.549  65.332  1.00  0.00    -0.479 A  
HETATM    5  C   UNL     1     -11.165  11.742  64.448  1.00  0.00    -0.383 A  
HETATM    6  C   UNL     1     -10.398  10.675  64.934  1.00  0.00    -0.347 A  
HETATM    7  C   UNL     1     -10.399  10.356  66.300  1.00  0.00    -0.203 A  
HETATM    8  C   UNL     1     -11.109  11.178  67.188  1.00  0.00    -0.352 A  
HETATM    9  C   UNL     1     -11.859  12.262  66.704  1.00  0.00    -0.362 A  
ENDROOT
BRANCH   7  10
HETATM   10  N   UNL     1      -9.706   9.210  66.811  1.00  0.00    -0.191 NA 
HETATM   11  N   UNL     1      -8.770   8.597  66.032  1.00  0.00    -0.159 NA 
HETATM   12  C   UNL     1      -8.561   7.429  66.653  1.00  0.00    -0.127 A  
HETATM   13  N   UNL     1      -9.211   7.343  67.861  1.00  0.00    -0.132 NA 
HETATM   14  C   UNL     1      -9.870   8.480  67.989  1.00  0.00    -0.169 A  
BRANCH  12  15
HETATM   15  C   UNL     1      -7.755   6.295  66.171  1.00  0.00    -0.096 A  
HETATM   16  C   UNL     1      -7.230   5.402  67.132  1.00  0.00    -0.075 A  
HETATM   17  C   UNL     1      -6.466   4.288  66.768  1.00  0.00    -0.041 A  
HETATM   18  H   UNL     1      -7.793   6.625  62.911  1.00  0.00     0.000 HD 
HETATM   19  C   UNL     1      -6.209   4.039  65.427  1.00  0.00    -0.027 A  
HETATM   20  O   UNL     1      -7.974   6.815  63.824  1.00  0.00    -0.117 OA 
HETATM   21  C   UNL     1      -6.719   4.899  64.454  1.00  0.00    -0.044 A  
HETATM   22  C   UNL     1      -7.487   6.016  64.822  1.00  0.00    -0.079 A  
ENDBRANCH  12  15
BRANCH  14  23
HETATM   23  C   UNL     1     -10.662   8.807  69.184  1.00  0.00    -0.150 A  
HETATM   24  C   UNL     1     -11.937   9.586  71.572  1.00  0.00    -0.475 A  
HETATM   25  C   UNL     1     -11.890   8.240  71.212  1.00  0.00    -0.319 A  
HETATM   26  C   UNL     1     -10.789  10.165  69.532  1.00  0.00    -0.289 A  
HETATM   27  C   UNL     1     -11.291   7.862  70.007  1.00  0.00    -0.027 A  
HETATM   28  C   UNL     1     -11.419  10.553  70.715  1.00  0.00    -0.376 A  
HETATM   29  O   UNL     1     -11.316   6.547  69.638  1.00  0.00    -0.409 OA 
HETATM   30  H   UNL     1     -11.742   5.906  70.196  1.00  0.00     0.000 HD 
ENDBRANCH  14  23
ENDBRANCH   7  10
TORSDOF 3
ENDMDL
MODEL      125
REMARK 921   NORMALIZED FREE ENERGY PREDICTED BY IDOCK:   -3.82 KCAL/MOL
REMARK 922        TOTAL FREE ENERGY PREDICTED BY IDOCK:   -5.73 KCAL/MOL
REMARK 923 INTER-LIGAND FREE ENERGY PREDICTED BY IDOCK:   -5.01 KCAL/MOL
REMARK 924 INTRA-LIGAND FREE ENERGY PREDICTED BY IDOCK:   -0.72 KCAL/MOL
REMARK 927      BINDING AFFINITY PREDICTED BY RF-SCORE:    0.00 PKD
ROOT
HETATM    1  O   UNL     1      -8.945   2.509  65.599  1.00  0.00    -0.131 OA 
HETATM    2  C   UNL     1      -8.004   3.482  65.561  1.00  0.00    -0.093 C  
HETATM    3  O   UNL     1      -6.917   3.331  65.032  1.00  0.00    -0.054 OA 
HETATM    4  C   UNL     1      -8.406   4.736  66.246  1.00  0.00    -0.111 A  
HETATM    5  C   UNL     1      -9.734   5.173  66.270  1.00  0.00    -0.188 A  
HETATM    6  C   UNL     1     -10.069   6.371  66.914  1.00  0.00    -0.244 A  
HETATM    7  C   UNL     1      -9.076   7.183  67.481  1.00  0.00    -0.123 A  
HETATM    8  C   UNL     1      -7.746   6.734  67.472  1.00  0.00    -0.110 A  
HETATM    9  C   UNL     1      -7.412   5.522  66.847  1.00  0.00    -0.088 A  
ENDROOT
BRANCH   7  10
HETATM   10  N   UNL     1      -9.377   8.461  68.056  1.00  0.00    -0.136 NA 
HETATM   11  N   UNL     1      -9.824   9.465  67.248  1.00  0.00    -0.168 NA 
HETATM   12  C   UNL     1      -9.705  10.558  68.011  1.00  0.00    -0.147 A  
HETATM   13  N   UNL     1      -9.344  10.270  69.306  1.00  0.00    -0.203 NA 
HETATM   14  C   UNL     1      -9.205   8.957  69.348  1.00  0.00    -0.146 A  
BRANCH  12  15
HETATM   15  C   UNL     1      -9.902  11.958  67.599  1.00  0.00    -0.192 A  
HETATM   16  C   UNL     1      -8.849  12.870  67.834  1.00  0.00    -0.190 A  
HETATM   17  C   UNL     1      -8.938  14.215  67.462  1.00  0.00    -0.198 A  
HETATM   18  H   UNL     1     -12.887  11.973  66.248  1.00  0.00     0.000 HD 
HETATM   19  C   UNL     1     -10.089  14.683  66.842  1.00  0.00    -0.255 A  
HETATM   20  O   UNL     1     -12.110  11.637  66.678  1.00  0.00    -0.441 OA 
HETATM   21  C   UNL     1     -11.144  13.806  66.591  1.00  0.00    -0.316 A  
HETATM   22  C   UNL     1     -11.051  12.454  66.964  1.00  0.00    -0.278 A  
ENDBRANCH  12  15
BRANCH  14  23
HETATM   23  C   UNL     1      -8.869   8.235  70.585  1.00  0.00    -0.151 A  
HETATM   24  C   UNL     1      -8.246   6.599  72.791  1.00  0.00    -0.108 A  
HETATM   25  C   UNL     1      -9.281   7.528  72.881  1.00  0.00    -0.218 A  
HETATM   26  C   UNL     1      -7.781   7.344  70.545  1.00  0.00    -0.096 A  
HETATM   27  C   UNL     1      -9.561   8.365  71.797  1.00  0.00    -0.234 A  
HETATM   28  C   UNL     1      -7.472   6.532  71.637  1.00  0.00    -0.089 A  
HETATM   29  O   UNL     1     -10.534   9.316  71.928  1.00  0.00    -0.305 OA 
HETATM   30  H   UNL     1     -11.003   9.404  72.750  1.00  0.00     0.000 HD 
ENDBRANCH  14  23
ENDBRANCH   7  10
TORSDOF 3
ENDMDL
MODEL      126
REMARK 921   NORMALIZED FREE ENERGY PREDICTED BY IDOCK:   -3.71 KCAL/MOL
REMARK 922        TOTAL FREE ENERGY PREDICTED BY IDOCK:   -5.61 KCAL/MOL
REMARK 923 INTER-LIGAND FREE ENERGY PREDICTED BY IDOCK:   -5.31 KCAL/MOL
REMARK 924 INTRA-LIGAND FREE ENERGY PREDICTED BY IDOCK:   -0.29 KCAL/MOL
REMARK 927      BINDING AFFINITY PREDICTED BY RF-SCORE:    0.00 PKD
ROOT
HETATM    1  O   UNL     1     -11.960  16.275  68.122  1.00  0.00     0.035 OA 
HETATM    2  C   UNL     1     -12.305  15.367  69.065  1.00  0.00    -0.012 C  
HETATM    3  O   UNL     1     -12.940  15.659  70.064  1.00  0.00    -0.167 OA 
HETATM    4  C   UNL     1     -11.817  13.993  68.787  1.00  0.00    -0.396 A  
HETATM    5  C   UNL     1     -11.694  13.502  67.484  1.00  0.00    -0.403 A  
HETATM    6  C   UNL     1     -11.245  12.193  67.264  1.00  0.00    -0.366 A  
HETATM    7  C   UNL     1     -10.979  11.336  68.342  1.00  0.00    -0.219 A  
HETATM    8  C   UNL     1     -11.084  11.837  69.649  1.00  0.00    -0.139 A  
HETATM    9  C   UNL     1     -11.513  13.156  69.869  1.00  0.00    -0.159 A  
ENDROOT
BRANCH   7  10
HETATM   10  N   UNL     1     -10.616   9.963  68.148  1.00  0.00    -0.213 NA 
HETATM   11  N   UNL     1     -10.973   9.042  69.088  1.00  0.00    -0.078 NA 
HETATM   12  C   UNL     1     -10.234   7.970  68.773  1.00  0.00    -0.206 A  
HETATM   13  N   UNL     1      -9.542   8.126  67.596  1.00  0.00    -0.148 NA 
HETATM   14  C   UNL     1      -9.833   9.343  67.173  1.00  0.00    -0.187 A  
BRANCH  12  15
HETATM   15  C   UNL     1     -10.099   6.723  69.544  1.00  0.00    -0.192 A  
HETATM   16  C   UNL     1     -10.271   5.500  68.857  1.00  0.00    -0.284 A  
HETATM   17  C   UNL     1     -10.146   4.266  69.502  1.00  0.00     0.031 A  
HETATM   18  H   UNL     1      -9.370   7.739  72.573  1.00  0.00     0.000 HD 
HETATM   19  C   UNL     1      -9.843   4.224  70.856  1.00  0.00    -0.259 A  
HETATM   20  O   UNL     1      -9.582   7.787  71.648  1.00  0.00    -0.151 OA 
HETATM   21  C   UNL     1      -9.662   5.414  71.561  1.00  0.00    -0.209 A  
HETATM   22  C   UNL     1      -9.786   6.654  70.910  1.00  0.00    -0.183 A  
ENDBRANCH  12  15
BRANCH  14  23
HETATM   23  C   UNL     1      -9.325   9.885  65.904  1.00  0.00    -0.245 A  
HETATM   24  C   UNL     1      -8.573  10.768  63.338  1.00  0.00    -0.085 A  
HETATM   25  C   UNL     1      -7.634  10.164  64.171  1.00  0.00    -0.125 A  
HETATM   26  C   UNL     1     -10.234  10.565  65.074  1.00  0.00    -0.365 A  
HETATM   27  C   UNL     1      -8.001   9.763  65.458  1.00  0.00    -0.123 A  
HETATM   28  C   UNL     1      -9.864  11.002  63.801  1.00  0.00    -0.379 A  
HETATM   29  O   UNL     1      -7.049   9.236  66.286  1.00  0.00    -0.085 OA 
HETATM   30  H   UNL     1      -6.152   9.153  65.984  1.00  0.00     0.000 HD 
ENDBRANCH  14  23
ENDBRANCH   7  10
TORSDOF 3
ENDMDL
MODEL      127
REMARK 921   NORMALIZED FREE ENERGY PREDICTED BY IDOCK:   -3.57 KCAL/MOL
REMARK 922        TOTAL FREE ENERGY PREDICTED BY IDOCK:   -5.44 KCAL/MOL
REMARK 923 INTER-LIGAND FREE ENERGY PREDICTED BY IDOCK:   -4.43 KCAL/MOL
REMARK 924 INTRA-LIGAND FREE ENERGY PREDICTED BY IDOCK:   -1.01 KCAL/MOL
REMARK 927      BINDING AFFINITY PREDICTED BY RF-SCORE:    0.00 PKD
ROOT
HETATM    1  O   UNL     1      -8.892  18.058  68.475  1.00  0.00    -0.296 OA 
HETATM    2  C   UNL     1      -9.882  17.203  68.828  1.00  0.00    -0.293 C  
HETATM    3  O   UNL     1     -10.939  17.577  69.304  1.00  0.00     0.128 OA 
HETATM    4  C   UNL     1      -9.551  15.773  68.609  1.00  0.00    -0.207 A  
HETATM    5  C   UNL     1      -8.733  15.357  67.554  1.00  0.00    -0.186 A  
HETATM    6  C   UNL     1      -8.458  13.995  67.371  1.00  0.00    -0.209 A  
HETATM    7  C   UNL     1      -9.050  13.027  68.196  1.00  0.00    -0.204 A  
HETATM    8  C   UNL     1      -9.855  13.448  69.266  1.00  0.00     0.514 A  
HETATM    9  C   UNL     1     -10.113  14.815  69.463  1.00  0.00    -0.065 A  
ENDROOT
BRANCH   7  10
HETATM   10  N   UNL     1      -8.867  11.624  67.970  1.00  0.00    -0.155 NA 
HETATM   11  N   UNL     1      -8.203  10.882  68.902  1.00  0.00    -0.146 NA 
HETATM   12  C   UNL     1      -7.939   9.736  68.260  1.00  0.00    -0.096 A  
HETATM   13  N   UNL     1      -8.532   9.668  67.022  1.00  0.00    -0.124 NA 
HETATM   14  C   UNL     1      -9.166  10.818  66.871  1.00  0.00    -0.156 A  
BRANCH  12  15
HETATM   15  C   UNL     1      -7.105   8.621  68.736  1.00  0.00    -0.064 A  
HETATM   16  C   UNL     1      -6.296   7.950  67.791  1.00  0.00    -0.052 A  
HETATM   17  C   UNL     1      -5.459   6.890  68.152  1.00  0.00    -0.019 A  
HETATM   18  H   UNL     1      -7.710   8.496  71.954  1.00  0.00     0.000 HD 
HETATM   19  C   UNL     1      -5.409   6.474  69.476  1.00  0.00    -0.014 A  
HETATM   20  O   UNL     1      -7.761   8.791  71.053  1.00  0.00    -0.095 OA 
HETATM   21  C   UNL     1      -6.191   7.119  70.434  1.00  0.00    -0.034 A  
HETATM   22  C   UNL     1      -7.030   8.186  70.068  1.00  0.00    -0.040 A  
ENDBRANCH  12  15
BRANCH  14  23
HETATM   23  C   UNL     1      -9.977  11.126  65.683  1.00  0.00    -0.297 A  
HETATM   24  C   UNL     1     -11.294  11.878  63.311  1.00  0.00    -0.373 A  
HETATM   25  C   UNL     1     -11.901  12.097  64.546  1.00  0.00    -0.418 A  
HETATM   26  C   UNL     1      -9.419  10.847  64.422  1.00  0.00    -0.287 A  
HETATM   27  C   UNL     1     -11.261  11.687  65.719  1.00  0.00    -0.230 A  
HETATM   28  C   UNL     1     -10.069  11.220  63.246  1.00  0.00    -0.428 A  
HETATM   29  O   UNL     1     -11.902  11.847  66.915  1.00  0.00    -0.590 OA 
HETATM   30  H   UNL     1     -12.773  12.227  66.939  1.00  0.00     0.000 HD 
ENDBRANCH  14  23
ENDBRANCH   7  10
TORSDOF 3
ENDMDL
MODEL      128
REMARK 921   NORMALIZED FREE ENERGY PREDICTED BY IDOCK:   -3.38 KCAL/MOL
REMARK 922        TOTAL FREE ENERGY PREDICTED BY IDOCK:   -5.21 KCAL/MOL
REMARK 923 INTER-LIGAND FREE ENERGY PREDICTED BY IDOCK:   -3.92 KCAL/MOL
REMARK 924 INTRA-LIGAND FREE ENERGY PREDICTED BY IDOCK:   -1.29 KCAL/MOL
REMARK 927      BINDING AFFINITY PREDICTED BY RF-SCORE:    0.00 PKD
ROOT
HETATM    1  O   UNL     1     -12.093   6.279  69.533  1.00  0.00     0.177 OA 
HETATM    2  C   UNL     1     -10.904   6.670  70.050  1.00  0.00    -0.280 C  
HETATM    3  O   UNL     1     -10.300   6.019  70.884  1.00  0.00    -0.204 OA 
HETATM    4  C   UNL     1     -10.419   7.973  69.529  1.00  0.00    -0.226 A  
HETATM    5  C   UNL     1     -10.682   8.391  68.221  1.00  0.00    -0.084 A  
HETATM    6  C   UNL     1     -10.192   9.621  67.763  1.00  0.00    -0.253 A  
HETATM    7  C   UNL     1      -9.377  10.417  68.581  1.00  0.00    -0.167 A  
HETATM    8  C   UNL     1      -9.130  10.005  69.899  1.00  0.00    -0.188 A  
HETATM    9  C   UNL     1      -9.640   8.782  70.366  1.00  0.00    -0.210 A  
ENDROOT
BRANCH   7  10
HETATM   10  N   UNL     1      -8.779  11.630  68.105  1.00  0.00    -0.154 NA 
HETATM   11  N   UNL     1      -9.298  12.827  68.502  1.00  0.00    -0.135 NA 
HETATM   12  C   UNL     1      -8.739  13.706  67.660  1.00  0.00    -0.182 A  
HETATM   13  N   UNL     1      -7.783  13.138  66.852  1.00  0.00     0.117 NA 
HETATM   14  C   UNL     1      -7.763  11.857  67.177  1.00  0.00    -0.163 A  
BRANCH  12  15
HETATM   15  C   UNL     1      -9.055  15.138  67.529  1.00  0.00    -0.187 A  
HETATM   16  C   UNL     1      -8.322  16.051  68.320  1.00  0.00    -0.164 A  
HETATM   17  C   UNL     1      -8.539  17.430  68.251  1.00  0.00    -0.260 A  
HETATM   18  H   UNL     1     -11.403  15.225  65.245  1.00  0.00     0.000 HD 
HETATM   19  C   UNL     1      -9.500  17.933  67.384  1.00  0.00    -0.258 A  
HETATM   20  O   UNL     1     -10.754  14.864  65.837  1.00  0.00    -0.300 OA 
HETATM   21  C   UNL     1     -10.236  17.058  66.586  1.00  0.00    -0.310 A  
HETATM   22  C   UNL     1     -10.014  15.672  66.655  1.00  0.00    -0.258 A  
ENDBRANCH  12  15
BRANCH  14  23
HETATM   23  C   UNL     1      -6.828  10.900  66.567  1.00  0.00    -0.132 A  
HETATM   24  C   UNL     1      -5.278   8.943  65.262  1.00  0.00    -0.038 A  
HETATM   25  C   UNL     1      -5.186   9.100  66.644  1.00  0.00    -0.038 A  
HETATM   26  C   UNL     1      -6.847  10.773  65.166  1.00  0.00     0.164 A  
HETATM   27  C   UNL     1      -5.927  10.098  67.282  1.00  0.00    -0.054 A  
HETATM   28  C   UNL     1      -6.081   9.803  64.517  1.00  0.00    -0.096 A  
HETATM   29  O   UNL     1      -5.771  10.283  68.627  1.00  0.00    -0.038 OA 
HETATM   30  H   UNL     1      -5.161   9.740  69.112  1.00  0.00     0.000 HD 
ENDBRANCH  14  23
ENDBRANCH   7  10
TORSDOF 3
ENDMDL
MODEL      129
REMARK 921   NORMALIZED FREE ENERGY PREDICTED BY IDOCK:   -3.13 KCAL/MOL
REMARK 922        TOTAL FREE ENERGY PREDICTED BY IDOCK:   -4.92 KCAL/MOL
REMARK 923 INTER-LIGAND FREE ENERGY PREDICTED BY IDOCK:   -3.84 KCAL/MOL
REMARK 924 INTRA-LIGAND FREE ENERGY PREDICTED BY IDOCK:   -1.08 KCAL/MOL
REMARK 927      BINDING AFFINITY PREDICTED BY RF-SCORE:    0.00 PKD
ROOT
HETATM    1  O   UNL     1      -5.125  15.844  72.200  1.00  0.00    -0.208 OA 
HETATM    2  C   UNL     1      -5.636  14.609  72.423  1.00  0.00     0.115 C  
HETATM    3  O   UNL     1      -5.751  14.133  73.539  1.00  0.00    -0.420 OA 
HETATM    4  C   UNL     1      -6.015  13.881  71.186  1.00  0.00    -0.137 A  
HETATM    5  C   UNL     1      -6.499  14.546  70.056  1.00  0.00    -0.160 A  
HETATM    6  C   UNL     1      -6.861  13.820  68.913  1.00  0.00    -0.110 A  
HETATM    7  C   UNL     1      -6.811  12.418  68.909  1.00  0.00    -0.099 A  
HETATM    8  C   UNL     1      -6.307  11.754  70.038  1.00  0.00    -0.092 A  
HETATM    9  C   UNL     1      -5.922  12.483  71.175  1.00  0.00     0.528 A  
ENDROOT
BRANCH   7  10
HETATM   10  N   UNL     1      -7.270  11.647  67.792  1.00  0.00    -0.094 NA 
HETATM   11  N   UNL     1      -6.491  10.632  67.319  1.00  0.00    -0.069 NA 
HETATM   12  C   UNL     1      -7.038  10.344  66.131  1.00  0.00    -0.130 A  
HETATM   13  N   UNL     1      -8.209  11.027  65.902  1.00  0.00    -0.139 NA 
HETATM   14  C   UNL     1      -8.387  11.788  66.967  1.00  0.00    -0.172 A  
BRANCH  12  15
HETATM   15  C   UNL     1      -6.513   9.424  65.108  1.00  0.00    -0.075 A  
HETATM   16  C   UNL     1      -6.195   9.959  63.840  1.00  0.00    -0.125 A  
HETATM   17  C   UNL     1      -5.675   9.167  62.811  1.00  0.00    -0.085 A  
HETATM   18  H   UNL     1      -6.376   6.531  66.640  1.00  0.00     0.000 HD 
HETATM   19  C   UNL     1      -5.460   7.813  63.029  1.00  0.00    -0.050 A  
HETATM   20  O   UNL     1      -6.536   7.458  66.508  1.00  0.00    -0.049 OA 
HETATM   21  C   UNL     1      -5.758   7.256  64.272  1.00  0.00    -0.033 A  
HETATM   22  C   UNL     1      -6.278   8.055  65.305  1.00  0.00    -0.045 A  
ENDBRANCH  12  15
BRANCH  14  23
HETATM   23  C   UNL     1      -9.568  12.648  67.138  1.00  0.00    -0.207 A  
HETATM   24  C   UNL     1     -11.654  14.525  67.372  1.00  0.00    -0.406 A  
HETATM   25  C   UNL     1     -11.321  13.712  68.454  1.00  0.00    -0.329 A  
HETATM   26  C   UNL     1      -9.972  13.427  66.038  1.00  0.00    -0.300 A  
HETATM   27  C   UNL     1     -10.312  12.755  68.321  1.00  0.00    -0.243 A  
HETATM   28  C   UNL     1     -11.004  14.358  66.152  1.00  0.00    -0.320 A  
HETATM   29  O   UNL     1     -10.047  11.921  69.371  1.00  0.00    -0.388 OA 
HETATM   30  H   UNL     1     -10.551  11.993  70.173  1.00  0.00     0.000 HD 
ENDBRANCH  14  23
ENDBRANCH   7  10
TORSDOF 3
ENDMDL
MODEL      130
REMARK 921   NORMALIZED FREE ENERGY PREDICTED BY IDOCK:   -3.10 KCAL/MOL
REMARK 922        TOTAL FREE ENERGY PREDICTED BY IDOCK:   -4.88 KCAL/MOL
REMARK 923 INTER-LIGAND FREE ENERGY PREDICTED BY IDOCK:   -3.70 KCAL/MOL
REMARK 924 INTRA-LIGAND FREE ENERGY PREDICTED BY IDOCK:   -1.18 KCAL/MOL
REMARK 927      BINDING AFFINITY PREDICTED BY RF-SCORE:    0.00 PKD
ROOT
HETATM    1  O   UNL     1      -8.503   2.788  70.509  1.00  0.00    -0.051 OA 
HETATM    2  C   UNL     1      -7.759   3.867  70.848  1.00  0.00    -0.051 C  
HETATM    3  O   UNL     1      -6.987   3.867  71.791  1.00  0.00    -0.026 OA 
HETATM    4  C   UNL     1      -7.989   5.054  69.987  1.00  0.00    -0.074 A  
HETATM    5  C   UNL     1      -8.304   4.933  68.631  1.00  0.00    -0.083 A  
HETATM    6  C   UNL     1      -8.498   6.078  67.848  1.00  0.00    -0.115 A  
HETATM    7  C   UNL     1      -8.312   7.358  68.391  1.00  0.00    -0.125 A  
HETATM    8  C   UNL     1      -8.014   7.477  69.758  1.00  0.00    -0.124 A  
HETATM    9  C   UNL     1      -7.842   6.329  70.548  1.00  0.00    -0.106 A  
ENDROOT
BRANCH   7  10
HETATM   10  N   UNL     1      -8.404   8.543  67.591  1.00  0.00    -0.128 NA 
HETATM   11  N   UNL     1      -9.071   9.626  68.081  1.00  0.00    -0.123 NA 
HETATM   12  C   UNL     1      -9.239  10.405  67.005  1.00  0.00    -0.147 A  
HETATM   13  N   UNL     1      -8.581   9.932  65.895  1.00  0.00    -0.134 NA 
HETATM   14  C   UNL     1      -8.006   8.806  66.280  1.00  0.00    -0.106 A  
BRANCH  12  15
HETATM   15  C   UNL     1     -10.032  11.643  66.916  1.00  0.00    -0.225 A  
HETATM   16  C   UNL     1     -11.280  11.581  66.255  1.00  0.00    -0.286 A  
HETATM   17  C   UNL     1     -12.110  12.700  66.135  1.00  0.00    -0.399 A  
HETATM   18  H   UNL     1      -8.220  13.862  68.506  1.00  0.00     0.000 HD 
HETATM   19  C   UNL     1     -11.710  13.914  66.677  1.00  0.00    -0.417 A  
HETATM   20  O   UNL     1      -8.475  13.025  68.136  1.00  0.00    -0.164 OA 
HETATM   21  C   UNL     1     -10.487  14.006  67.340  1.00  0.00    -0.263 A  
HETATM   22  C   UNL     1      -9.655  12.879  67.461  1.00  0.00    -0.200 A  
ENDBRANCH  12  15
BRANCH  14  23
HETATM   23  C   UNL     1      -7.155   8.005  65.387  1.00  0.00    -0.060 A  
HETATM   24  C   UNL     1      -5.752   6.272  63.667  1.00  0.00    -0.022 A  
HETATM   25  C   UNL     1      -5.166   6.699  64.858  1.00  0.00    -0.026 A  
HETATM   26  C   UNL     1      -7.693   7.620  64.145  1.00  0.00    -0.128 A  
HETATM   27  C   UNL     1      -5.850   7.591  65.689  1.00  0.00    -0.037 A  
HETATM   28  C   UNL     1      -7.000   6.760  63.292  1.00  0.00    -0.055 A  
HETATM   29  O   UNL     1      -5.232   8.053  66.817  1.00  0.00    -0.027 OA 
HETATM   30  H   UNL     1      -4.348   7.772  67.022  1.00  0.00     0.000 HD 
ENDBRANCH  14  23
ENDBRANCH   7  10
TORSDOF 3
ENDMDL
MODEL      131
REMARK 921   NORMALIZED FREE ENERGY PREDICTED BY IDOCK:   -3.06 KCAL/MOL
REMARK 922        TOTAL FREE ENERGY PREDICTED BY IDOCK:   -4.83 KCAL/MOL
REMARK 923 INTER-LIGAND FREE ENERGY PREDICTED BY IDOCK:   -3.71 KCAL/MOL
REMARK 924 INTRA-LIGAND FREE ENERGY PREDICTED BY IDOCK:   -1.13 KCAL/MOL
REMARK 927      BINDING AFFINITY PREDICTED BY RF-SCORE:    0.00 PKD
ROOT
HETATM    1  O   UNL     1      -7.942   2.039  64.081  1.00  0.00    -0.071 OA 
HETATM    2  C   UNL     1      -9.141   2.489  64.521  1.00  0.00    -0.128 C  
HETATM    3  O   UNL     1     -10.197   1.966  64.210  1.00  0.00     0.003 OA 
HETATM    4  C   UNL     1      -9.054   3.689  65.390  1.00  0.00    -0.147 A  
HETATM    5  C   UNL     1      -7.971   3.904  66.247  1.00  0.00    -0.094 A  
HETATM    6  C   UNL     1      -7.934   5.042  67.064  1.00  0.00    -0.103 A  
HETATM    7  C   UNL     1      -9.009   5.943  67.086  1.00  0.00    -0.113 A  
HETATM    8  C   UNL     1     -10.086   5.736  66.211  1.00  0.00    -0.129 A  
HETATM    9  C   UNL     1     -10.113   4.607  65.376  1.00  0.00    -0.170 A  
ENDROOT
BRANCH   7  10
HETATM   10  N   UNL     1      -9.044   7.059  67.984  1.00  0.00    -0.128 NA 
HETATM   11  N   UNL     1      -9.101   8.322  67.473  1.00  0.00    -0.136 NA 
HETATM   12  C   UNL     1      -8.807   9.099  68.523  1.00  0.00    -0.129 A  
HETATM   13  N   UNL     1      -8.712   8.395  69.699  1.00  0.00    -0.132 NA 
HETATM   14  C   UNL     1      -8.926   7.133  69.372  1.00  0.00    -0.136 A  
BRANCH  12  15
HETATM   15  C   UNL     1      -8.577  10.554  68.518  1.00  0.00    -0.135 A  
HETATM   16  C   UNL     1      -7.328  11.026  68.982  1.00  0.00    -0.123 A  
HETATM   17  C   UNL     1      -7.013  12.389  68.999  1.00  0.00    -0.071 A  
HETATM   18  H   UNL     1     -11.340  11.789  67.263  1.00  0.00     0.000 HD 
HETATM   19  C   UNL     1      -7.943  13.316  68.548  1.00  0.00    -0.097 A  
HETATM   20  O   UNL     1     -10.719  11.141  67.573  1.00  0.00    -0.207 OA 
HETATM   21  C   UNL     1      -9.181  12.880  68.078  1.00  0.00    -0.212 A  
HETATM   22  C   UNL     1      -9.496  11.511  68.060  1.00  0.00    -0.181 A  
ENDBRANCH  12  15
BRANCH  14  23
HETATM   23  C   UNL     1      -8.959   6.051  70.368  1.00  0.00    -0.153 A  
HETATM   24  C   UNL     1      -9.316   4.044  72.311  1.00  0.00    -0.174 A  
HETATM   25  C   UNL     1      -8.311   4.997  72.468  1.00  0.00    -0.117 A  
HETATM   26  C   UNL     1      -9.916   5.035  70.196  1.00  0.00    -0.328 A  
HETATM   27  C   UNL     1      -8.112   5.967  71.482  1.00  0.00    -0.114 A  
HETATM   28  C   UNL     1     -10.096   4.040  71.158  1.00  0.00    -0.112 A  
HETATM   29  O   UNL     1      -7.078   6.849  71.620  1.00  0.00    -0.072 OA 
HETATM   30  H   UNL     1      -6.504   6.792  72.375  1.00  0.00     0.000 HD 
ENDBRANCH  14  23
ENDBRANCH   7  10
TORSDOF 3
ENDMDL
MODEL      132
REMARK 921   NORMALIZED FREE ENERGY PREDICTED BY IDOCK:   -3.04 KCAL/MOL
REMARK 922        TOTAL FREE ENERGY PREDICTED BY IDOCK:   -4.82 KCAL/MOL
REMARK 923 INTER-LIGAND FREE ENERGY PREDICTED BY IDOCK:   -3.97 KCAL/MOL
REMARK 924 INTRA-LIGAND FREE ENERGY PREDICTED BY IDOCK:   -0.85 KCAL/MOL
REMARK 927      BINDING AFFINITY PREDICTED BY RF-SCORE:    0.00 PKD
ROOT
HETATM    1  O   UNL     1     -10.328   6.622  73.749  1.00  0.00    -0.288 OA 
HETATM    2  C   UNL     1      -9.128   6.419  73.157  1.00  0.00    -0.128 C  
HETATM    3  O   UNL     1      -8.455   5.421  73.351  1.00  0.00    -0.116 OA 
HETATM    4  C   UNL     1      -8.695   7.530  72.274  1.00  0.00    -0.148 A  
HETATM    5  C   UNL     1      -9.611   8.297  71.548  1.00  0.00    -0.247 A  
HETATM    6  C   UNL     1      -9.160   9.328  70.712  1.00  0.00    -0.306 A  
HETATM    7  C   UNL     1      -7.788   9.561  70.537  1.00  0.00    -0.157 A  
HETATM    8  C   UNL     1      -6.871   8.802  71.281  1.00  0.00    -0.082 A  
HETATM    9  C   UNL     1      -7.324   7.784  72.136  1.00  0.00    -0.083 A  
ENDROOT
BRANCH   7  10
HETATM   10  N   UNL     1      -7.297  10.539  69.613  1.00  0.00    -0.149 NA 
HETATM   11  N   UNL     1      -6.704  11.669  70.094  1.00  0.00    -0.041 NA 
HETATM   12  C   UNL     1      -6.656  12.477  69.027  1.00  0.00    -0.100 A  
HETATM   13  N   UNL     1      -7.055  11.856  67.868  1.00  0.00    -0.086 NA 
HETATM   14  C   UNL     1      -7.391  10.628  68.224  1.00  0.00    -0.089 A  
BRANCH  12  15
HETATM   15  C   UNL     1      -6.250  13.892  68.998  1.00  0.00    -0.094 A  
HETATM   16  C   UNL     1      -6.473  14.620  67.807  1.00  0.00    -0.182 A  
HETATM   17  C   UNL     1      -6.136  15.972  67.692  1.00  0.00    -0.180 A  
HETATM   18  H   UNL     1      -5.062  14.436  72.003  1.00  0.00     0.000 HD 
HETATM   19  C   UNL     1      -5.565  16.633  68.771  1.00  0.00    -0.124 A  
HETATM   20  O   UNL     1      -5.448  13.966  71.274  1.00  0.00    -0.166 OA 
HETATM   21  C   UNL     1      -5.337  15.944  69.962  1.00  0.00    -0.143 A  
HETATM   22  C   UNL     1      -5.679  14.585  70.077  1.00  0.00    -0.121 A  
ENDBRANCH  12  15
BRANCH  14  23
HETATM   23  C   UNL     1      -7.831   9.614  67.253  1.00  0.00    -0.095 A  
HETATM   24  C   UNL     1      -8.384   7.592  65.373  1.00  0.00    -0.129 A  
HETATM   25  C   UNL     1      -8.827   8.895  65.148  1.00  0.00    -0.209 A  
HETATM   26  C   UNL     1      -7.461   8.278  67.493  1.00  0.00    -0.094 A  
HETATM   27  C   UNL     1      -8.584   9.886  66.103  1.00  0.00    -0.128 A  
HETATM   28  C   UNL     1      -7.733   7.275  66.562  1.00  0.00    -0.093 A  
HETATM   29  O   UNL     1      -9.086  11.141  65.897  1.00  0.00    -0.195 OA 
HETATM   30  H   UNL     1      -9.596  11.325  65.117  1.00  0.00     0.000 HD 
ENDBRANCH  14  23
ENDBRANCH   7  10
TORSDOF 3
ENDMDL
MODEL      133
REMARK 921   NORMALIZED FREE ENERGY PREDICTED BY IDOCK:   -3.00 KCAL/MOL
REMARK 922        TOTAL FREE ENERGY PREDICTED BY IDOCK:   -4.77 KCAL/MOL
REMARK 923 INTER-LIGAND FREE ENERGY PREDICTED BY IDOCK:   -4.13 KCAL/MOL
REMARK 924 INTRA-LIGAND FREE ENERGY PREDICTED BY IDOCK:   -0.64 KCAL/MOL
REMARK 927      BINDING AFFINITY PREDICTED BY RF-SCORE:    0.00 PKD
ROOT
HETATM    1  O   UNL     1      -5.265  16.553  71.731  1.00  0.00    -0.180 OA 
HETATM    2  C   UNL     1      -5.848  16.731  70.521  1.00  0.00     0.069 C  
HETATM    3  O   UNL     1      -5.933  17.821  69.983  1.00  0.00    -0.249 OA 
HETATM    4  C   UNL     1      -6.398  15.487  69.927  1.00  0.00    -0.151 A  
HETATM    5  C   UNL     1      -5.801  14.241  70.138  1.00  0.00    -0.140 A  
HETATM    6  C   UNL     1      -6.341  13.092  69.546  1.00  0.00    -0.103 A  
HETATM    7  C   UNL     1      -7.442  13.181  68.681  1.00  0.00    -0.092 A  
HETATM    8  C   UNL     1      -8.051  14.430  68.486  1.00  0.00    -0.146 A  
HETATM    9  C   UNL     1      -7.523  15.579  69.097  1.00  0.00    -0.191 A  
ENDROOT
BRANCH   7  10
HETATM   10  N   UNL     1      -7.952  12.039  67.983  1.00  0.00    -0.139 NA 
HETATM   11  N   UNL     1      -7.243  10.874  68.004  1.00  0.00    -0.084 NA 
HETATM   12  C   UNL     1      -7.809  10.144  67.035  1.00  0.00    -0.102 A  
HETATM   13  N   UNL     1      -8.931  10.735  66.507  1.00  0.00    -0.153 NA 
HETATM   14  C   UNL     1      -9.057  11.885  67.145  1.00  0.00    -0.178 A  
BRANCH  12  15
HETATM   15  C   UNL     1      -7.347   8.848  66.512  1.00  0.00    -0.085 A  
HETATM   16  C   UNL     1      -7.142   7.798  67.435  1.00  0.00    -0.086 A  
HETATM   17  C   UNL     1      -6.721   6.527  67.030  1.00  0.00    -0.060 A  
HETATM   18  H   UNL     1      -7.157   9.321  63.275  1.00  0.00     0.000 HD 
HETATM   19  C   UNL     1      -6.494   6.275  65.684  1.00  0.00    -0.039 A  
HETATM   20  O   UNL     1      -7.312   9.514  64.192  1.00  0.00    -0.106 OA 
HETATM   21  C   UNL     1      -6.692   7.289  64.747  1.00  0.00    -0.050 A  
HETATM   22  C   UNL     1      -7.118   8.564  65.156  1.00  0.00    -0.075 A  
ENDBRANCH  12  15
BRANCH  14  23
HETATM   23  C   UNL     1     -10.178  12.807  66.903  1.00  0.00    -0.241 A  
HETATM   24  C   UNL     1     -12.505  14.349  66.531  1.00  0.00    -0.151 A  
HETATM   25  C   UNL     1     -11.592  14.200  65.488  1.00  0.00    -0.337 A  
HETATM   26  C   UNL     1     -11.076  13.034  67.961  1.00  0.00    -0.288 A  
HETATM   27  C   UNL     1     -10.419  13.467  65.689  1.00  0.00    -0.293 A  
HETATM   28  C   UNL     1     -12.230  13.797  67.779  1.00  0.00    -0.208 A  
HETATM   29  O   UNL     1      -9.503  13.391  64.678  1.00  0.00    -0.275 OA 
HETATM   30  H   UNL     1      -9.667  13.838  63.856  1.00  0.00     0.000 HD 
ENDBRANCH  14  23
ENDBRANCH   7  10
TORSDOF 3
ENDMDL
MODEL      134
REMARK 921   NORMALIZED FREE ENERGY PREDICTED BY IDOCK:   -2.81 KCAL/MOL
REMARK 922        TOTAL FREE ENERGY PREDICTED BY IDOCK:   -4.55 KCAL/MOL
REMARK 923 INTER-LIGAND FREE ENERGY PREDICTED BY IDOCK:   -4.61 KCAL/MOL
REMARK 924 INTRA-LIGAND FREE ENERGY PREDICTED BY IDOCK:    0.06 KCAL/MOL
REMARK 927      BINDING AFFINITY PREDICTED BY RF-SCORE:    0.00 PKD
ROOT
HETATM    1  O   UNL     1      -5.171  18.568  71.529  1.00  0.00    -0.435 OA 
HETATM    2  C   UNL     1      -5.545  18.838  70.256  1.00  0.00    -0.225 C  
HETATM    3  O   UNL     1      -5.343  19.914  69.722  1.00  0.00    -0.196 OA 
HETATM    4  C   UNL     1      -6.247  17.716  69.583  1.00  0.00    -0.220 A  
HETATM    5  C   UNL     1      -5.939  16.381  69.858  1.00  0.00    -0.195 A  
HETATM    6  C   UNL     1      -6.614  15.351  69.188  1.00  0.00    -0.133 A  
HETATM    7  C   UNL     1      -7.553  15.641  68.187  1.00  0.00    -0.120 A  
HETATM    8  C   UNL     1      -7.873  16.982  67.927  1.00  0.00    -0.188 A  
HETATM    9  C   UNL     1      -7.214  18.014  68.614  1.00  0.00    -0.276 A  
ENDROOT
BRANCH   7  10
HETATM   10  N   UNL     1      -8.182  14.610  67.417  1.00  0.00    -0.188 NA 
HETATM   11  N   UNL     1      -9.044  14.958  66.419  1.00  0.00    -0.278 NA 
HETATM   12  C   UNL     1      -9.671  13.810  66.131  1.00  0.00    -0.264 A  
HETATM   13  N   UNL     1      -9.141  12.731  66.796  1.00  0.00    -0.221 NA 
HETATM   14  C   UNL     1      -8.170  13.221  67.546  1.00  0.00    -0.184 A  
BRANCH  12  15
HETATM   15  C   UNL     1     -10.819  13.624  65.228  1.00  0.00    -0.324 A  
HETATM   16  C   UNL     1     -11.535  14.774  64.824  1.00  0.00    -0.410 A  
HETATM   17  C   UNL     1     -12.628  14.698  63.955  1.00  0.00     0.105 A  
HETATM   18  H   UNL     1     -10.883  10.394  64.683  1.00  0.00     0.000 HD 
HETATM   19  C   UNL     1     -13.033  13.464  63.466  1.00  0.00     0.686 A  
HETATM   20  O   UNL     1     -10.596  11.229  65.032  1.00  0.00    -0.294 OA 
HETATM   21  C   UNL     1     -12.343  12.311  63.841  1.00  0.00    -0.606 A  
HETATM   22  C   UNL     1     -11.243  12.390  64.712  1.00  0.00    -0.310 A  
ENDBRANCH  12  15
BRANCH  14  23
HETATM   23  C   UNL     1      -7.312  12.371  68.386  1.00  0.00    -0.113 A  
HETATM   24  C   UNL     1      -5.825  10.851  70.232  1.00  0.00    -0.118 A  
HETATM   25  C   UNL     1      -5.171  11.682  69.324  1.00  0.00    -0.048 A  
HETATM   26  C   UNL     1      -7.944  11.469  69.262  1.00  0.00     0.198 A  
HETATM   27  C   UNL     1      -5.911  12.405  68.384  1.00  0.00    -0.056 A  
HETATM   28  C   UNL     1      -7.209  10.716  70.178  1.00  0.00     0.067 A  
HETATM   29  O   UNL     1      -5.248  13.160  67.458  1.00  0.00    -0.268 OA 
HETATM   30  H   UNL     1      -4.299  13.183  67.456  1.00  0.00     0.000 HD 
ENDBRANCH  14  23
ENDBRANCH   7  10
TORSDOF 3
ENDMDL
MODEL      135
REMARK 921   NORMALIZED FREE ENERGY PREDICTED BY IDOCK:   -2.78 KCAL/MOL
REMARK 922        TOTAL FREE ENERGY PREDICTED BY IDOCK:   -4.51 KCAL/MOL
REMARK 923 INTER-LIGAND FREE ENERGY PREDICTED BY IDOCK:   -3.97 KCAL/MOL
REMARK 924 INTRA-LIGAND FREE ENERGY PREDICTED BY IDOCK:   -0.54 KCAL/MOL
REMARK 927      BINDING AFFINITY PREDICTED BY RF-SCORE:    0.00 PKD
ROOT
HETATM    1  O   UNL     1      -6.580  12.937  66.798  1.00  0.00     0.100 OA 
HETATM    2  C   UNL     1      -6.676  11.610  66.545  1.00  0.00     0.039 C  
HETATM    3  O   UNL     1      -6.422  11.125  65.457  1.00  0.00     0.078 OA 
HETATM    4  C   UNL     1      -7.143  10.808  67.703  1.00  0.00    -0.091 A  
HETATM    5  C   UNL     1      -6.828  11.156  69.020  1.00  0.00    -0.092 A  
HETATM    6  C   UNL     1      -7.276  10.363  70.084  1.00  0.00    -0.093 A  
HETATM    7  C   UNL     1      -7.983   9.175  69.846  1.00  0.00    -0.104 A  
HETATM    8  C   UNL     1      -8.315   8.838  68.525  1.00  0.00    -0.129 A  
HETATM    9  C   UNL     1      -7.886   9.645  67.458  1.00  0.00    -0.095 A  
ENDROOT
BRANCH   7  10
HETATM   10  N   UNL     1      -8.365   8.293  70.908  1.00  0.00    -0.122 NA 
HETATM   11  N   UNL     1      -7.431   7.458  71.447  1.00  0.00    -0.079 NA 
HETATM   12  C   UNL     1      -8.161   6.587  72.156  1.00  0.00    -0.107 A  
HETATM   13  N   UNL     1      -9.493   6.923  72.207  1.00  0.00    -0.141 NA 
HETATM   14  C   UNL     1      -9.607   8.023  71.485  1.00  0.00    -0.163 A  
BRANCH  12  15
HETATM   15  C   UNL     1      -7.685   5.367  72.830  1.00  0.00    -0.098 A  
HETATM   16  C   UNL     1      -6.487   4.780  72.364  1.00  0.00    -0.041 A  
HETATM   17  C   UNL     1      -5.950   3.631  72.952  1.00  0.00    -0.008 A  
HETATM   18  H   UNL     1      -9.899   4.852  75.190  1.00  0.00     0.000 HD 
HETATM   19  C   UNL     1      -6.600   3.039  74.027  1.00  0.00    -0.030 A  
HETATM   20  O   UNL     1      -9.470   5.267  74.451  1.00  0.00    -0.125 OA 
HETATM   21  C   UNL     1      -7.782   3.598  74.513  1.00  0.00    -0.062 A  
HETATM   22  C   UNL     1      -8.319   4.754  73.922  1.00  0.00    -0.104 A  
ENDBRANCH  12  15
BRANCH  14  23
HETATM   23  C   UNL     1     -10.881   8.740  71.328  1.00  0.00    -0.347 A  
HETATM   24  C   UNL     1     -13.208  10.323  71.211  1.00  0.00    -0.447 A  
HETATM   25  C   UNL     1     -13.295   8.977  71.565  1.00  0.00    -0.394 A  
HETATM   26  C   UNL     1     -10.829  10.079  70.901  1.00  0.00    -0.276 A  
HETATM   27  C   UNL     1     -12.144   8.186  71.584  1.00  0.00    -0.304 A  
HETATM   28  C   UNL     1     -11.980  10.865  70.843  1.00  0.00    -0.416 A  
HETATM   29  O   UNL     1     -12.259   6.854  71.865  1.00  0.00    -0.322 OA 
HETATM   30  H   UNL     1     -13.114   6.478  72.039  1.00  0.00     0.000 HD 
ENDBRANCH  14  23
ENDBRANCH   7  10
TORSDOF 3
ENDMDL
MODEL      136
REMARK 921   NORMALIZED FREE ENERGY PREDICTED BY IDOCK:   -2.52 KCAL/MOL
REMARK 922        TOTAL FREE ENERGY PREDICTED BY IDOCK:   -4.20 KCAL/MOL
REMARK 923 INTER-LIGAND FREE ENERGY PREDICTED BY IDOCK:   -4.85 KCAL/MOL
REMARK 924 INTRA-LIGAND FREE ENERGY PREDICTED BY IDOCK:    0.65 KCAL/MOL
REMARK 927      BINDING AFFINITY PREDICTED BY RF-SCORE:    0.00 PKD
ROOT
HETATM    1  O   UNL     1      -7.711  11.160  64.697  1.00  0.00     0.429 OA 
HETATM    2  C   UNL     1      -8.061   9.853  64.641  1.00  0.00    -0.152 C  
HETATM    3  O   UNL     1      -8.173   9.242  63.593  1.00  0.00    -0.146 OA 
HETATM    4  C   UNL     1      -8.322   9.241  65.968  1.00  0.00    -0.117 A  
HETATM    5  C   UNL     1      -7.627   9.638  67.115  1.00  0.00    -0.091 A  
HETATM    6  C   UNL     1      -7.892   9.024  68.346  1.00  0.00    -0.103 A  
HETATM    7  C   UNL     1      -8.802   7.960  68.436  1.00  0.00    -0.130 A  
HETATM    8  C   UNL     1      -9.512   7.577  67.288  1.00  0.00    -0.186 A  
HETATM    9  C   UNL     1      -9.263   8.207  66.058  1.00  0.00    -0.207 A  
ENDROOT
BRANCH   7  10
HETATM   10  N   UNL     1      -9.017   7.248  69.661  1.00  0.00    -0.141 NA 
HETATM   11  N   UNL     1      -8.303   6.112  69.903  1.00  0.00    -0.126 NA 
HETATM   12  C   UNL     1      -8.950   5.549  70.932  1.00  0.00    -0.139 A  
HETATM   13  N   UNL     1      -9.944   6.350  71.441  1.00  0.00    -0.184 NA 
HETATM   14  C   UNL     1      -9.941   7.436  70.690  1.00  0.00    -0.186 A  
BRANCH  12  15
HETATM   15  C   UNL     1      -8.707   4.220  71.517  1.00  0.00    -0.138 A  
HETATM   16  C   UNL     1      -9.809   3.532  72.075  1.00  0.00    -0.238 A  
HETATM   17  C   UNL     1      -9.678   2.258  72.637  1.00  0.00    -0.172 A  
HETATM   18  H   UNL     1      -5.508   3.709  71.021  1.00  0.00     0.000 HD 
HETATM   19  C   UNL     1      -8.436   1.639  72.656  1.00  0.00    -0.057 A  
HETATM   20  O   UNL     1      -6.349   4.150  71.005  1.00  0.00    -0.017 OA 
HETATM   21  C   UNL     1      -7.330   2.289  72.108  1.00  0.00    -0.039 A  
HETATM   22  C   UNL     1      -7.464   3.568  71.541  1.00  0.00    -0.047 A  
ENDBRANCH  12  15
BRANCH  14  23
HETATM   23  C   UNL     1     -10.836   8.576  70.940  1.00  0.00    -0.275 A  
HETATM   24  C   UNL     1     -12.767  10.597  71.283  1.00  0.00    -0.537 A  
HETATM   25  C   UNL     1     -11.548  10.892  70.676  1.00  0.00    -0.341 A  
HETATM   26  C   UNL     1     -12.043   8.321  71.616  1.00  0.00    -0.346 A  
HETATM   27  C   UNL     1     -10.577   9.896  70.544  1.00  0.00    -0.293 A  
HETATM   28  C   UNL     1     -13.002   9.320  71.786  1.00  0.00    -0.471 A  
HETATM   29  O   UNL     1      -9.362  10.221  70.010  1.00  0.00    -0.400 OA 
HETATM   30  H   UNL     1      -9.186  11.115  69.741  1.00  0.00     0.000 HD 
ENDBRANCH  14  23
ENDBRANCH   7  10
TORSDOF 3
ENDMDL
MODEL      137
REMARK 921   NORMALIZED FREE ENERGY PREDICTED BY IDOCK:   -2.38 KCAL/MOL
REMARK 922        TOTAL FREE ENERGY PREDICTED BY IDOCK:   -4.04 KCAL/MOL
REMARK 923 INTER-LIGAND FREE ENERGY PREDICTED BY IDOCK:   -3.12 KCAL/MOL
REMARK 924 INTRA-LIGAND FREE ENERGY PREDICTED BY IDOCK:   -0.92 KCAL/MOL
REMARK 927      BINDING AFFINITY PREDICTED BY RF-SCORE:    0.00 PKD
ROOT
HETATM    1  O   UNL     1     -12.877  11.503  65.977  1.00  0.00     2.175 OA 
HETATM    2  C   UNL     1     -12.326  12.462  65.196  1.00  0.00    -0.332 C  
HETATM    3  O   UNL     1     -12.690  12.672  64.052  1.00  0.00    -0.672 OA 
HETATM    4  C   UNL     1     -11.223  13.211  65.848  1.00  0.00    -0.311 A  
HETATM    5  C   UNL     1     -11.213  13.465  67.222  1.00  0.00    -0.319 A  
HETATM    6  C   UNL     1     -10.161  14.191  67.797  1.00  0.00    -0.242 A  
HETATM    7  C   UNL     1      -9.143  14.731  66.998  1.00  0.00    -0.239 A  
HETATM    8  C   UNL     1      -9.144  14.459  65.622  1.00  0.00     0.552 A  
HETATM    9  C   UNL     1     -10.187  13.712  65.048  1.00  0.00    -0.356 A  
ENDROOT
BRANCH   7  10
HETATM   10  N   UNL     1      -8.110  15.561  67.544  1.00  0.00    -0.153 NA 
HETATM   11  N   UNL     1      -8.199  16.914  67.399  1.00  0.00    -0.179 NA 
HETATM   12  C   UNL     1      -6.973  17.346  67.722  1.00  0.00    -0.163 A  
HETATM   13  N   UNL     1      -6.164  16.344  68.204  1.00  0.00    -0.121 NA 
HETATM   14  C   UNL     1      -6.896  15.245  68.155  1.00  0.00    -0.129 A  
BRANCH  12  15
HETATM   15  C   UNL     1      -6.449  18.716  67.598  1.00  0.00    -0.205 A  
HETATM   16  C   UNL     1      -6.226  19.222  66.298  1.00  0.00    -0.189 A  
HETATM   17  C   UNL     1      -5.747  20.518  66.080  1.00  0.00    -0.219 A  
HETATM   18  H   UNL     1      -6.202  19.753  70.697  1.00  0.00     0.000 HD 
HETATM   19  C   UNL     1      -5.478  21.343  67.164  1.00  0.00    -0.382 A  
HETATM   20  O   UNL     1      -6.385  19.173  69.967  1.00  0.00    -0.231 OA 
HETATM   21  C   UNL     1      -5.693  20.874  68.460  1.00  0.00    -0.386 A  
HETATM   22  C   UNL     1      -6.178  19.573  68.676  1.00  0.00    -0.244 A  
ENDBRANCH  12  15
BRANCH  14  23
HETATM   23  C   UNL     1      -6.406  13.944  68.634  1.00  0.00    -0.090 A  
HETATM   24  C   UNL     1      -5.230  11.603  69.667  1.00  0.00    -0.059 A  
HETATM   25  C   UNL     1      -5.587  11.670  68.322  1.00  0.00    -0.045 A  
HETATM   26  C   UNL     1      -6.106  13.825  70.003  1.00  0.00    -0.142 A  
HETATM   27  C   UNL     1      -6.206  12.819  67.822  1.00  0.00    -0.138 A  
HETATM   28  C   UNL     1      -5.523  12.666  70.517  1.00  0.00    -0.161 A  
HETATM   29  O   UNL     1      -6.612  12.840  66.517  1.00  0.00    -0.137 OA 
HETATM   30  H   UNL     1      -6.476  12.078  65.967  1.00  0.00     0.000 HD 
ENDBRANCH  14  23
ENDBRANCH   7  10
TORSDOF 3
ENDMDL
MODEL      138
REMARK 921   NORMALIZED FREE ENERGY PREDICTED BY IDOCK:   -2.31 KCAL/MOL
REMARK 922        TOTAL FREE ENERGY PREDICTED BY IDOCK:   -3.96 KCAL/MOL
REMARK 923 INTER-LIGAND FREE ENERGY PREDICTED BY IDOCK:   -3.60 KCAL/MOL
REMARK 924 INTRA-LIGAND FREE ENERGY PREDICTED BY IDOCK:   -0.36 KCAL/MOL
REMARK 927      BINDING AFFINITY PREDICTED BY RF-SCORE:    0.00 PKD
ROOT
HETATM    1  O   UNL     1      -7.276  17.533  67.244  1.00  0.00    -0.163 OA 
HETATM    2  C   UNL     1      -6.864  16.296  66.879  1.00  0.00    -0.160 C  
HETATM    3  O   UNL     1      -5.789  16.090  66.342  1.00  0.00     0.251 OA 
HETATM    4  C   UNL     1      -7.848  15.223  67.165  1.00  0.00    -0.249 A  
HETATM    5  C   UNL     1      -8.702  15.278  68.270  1.00  0.00    -0.165 A  
HETATM    6  C   UNL     1      -9.606  14.236  68.514  1.00  0.00    -0.220 A  
HETATM    7  C   UNL     1      -9.621  13.094  67.700  1.00  0.00    -0.210 A  
HETATM    8  C   UNL     1      -8.776  13.049  66.580  1.00  0.00    -0.030 A  
HETATM    9  C   UNL     1      -7.886  14.104  66.322  1.00  0.00     1.774 A  
ENDROOT
BRANCH   7  10
HETATM   10  N   UNL     1     -10.463  11.970  67.985  1.00  0.00    -0.200 NA 
HETATM   11  N   UNL     1     -11.158  11.941  69.158  1.00  0.00    -0.238 NA 
HETATM   12  C   UNL     1     -11.568  10.669  69.247  1.00  0.00    -0.275 A  
HETATM   13  N   UNL     1     -11.290   9.937  68.118  1.00  0.00    -0.074 NA 
HETATM   14  C   UNL     1     -10.661  10.768  67.306  1.00  0.00    -0.257 A  
BRANCH  12  15
HETATM   15  C   UNL     1     -12.238  10.028  70.391  1.00  0.00    -0.249 A  
HETATM   16  C   UNL     1     -13.100  10.821  71.182  1.00  0.00    -0.381 A  
HETATM   17  C   UNL     1     -13.792  10.296  72.277  1.00  0.00     0.059 A  
HETATM   18  H   UNL     1     -11.223   6.915  70.260  1.00  0.00     0.000 HD 
HETATM   19  C   UNL     1     -13.638   8.957  72.610  1.00  0.00    -0.395 A  
HETATM   20  O   UNL     1     -11.311   7.830  70.021  1.00  0.00    -0.185 OA 
HETATM   21  C   UNL     1     -12.799   8.146  71.846  1.00  0.00    -0.360 A  
HETATM   22  C   UNL     1     -12.106   8.676  70.743  1.00  0.00    -0.068 A  
ENDBRANCH  12  15
BRANCH  14  23
HETATM   23  C   UNL     1     -10.230  10.380  65.954  1.00  0.00    -0.302 A  
HETATM   24  C   UNL     1      -9.121   9.666  63.466  1.00  0.00    -0.211 A  
HETATM   25  C   UNL     1     -10.057  10.696  63.543  1.00  0.00    -0.288 A  
HETATM   26  C   UNL     1      -9.341   9.296  65.838  1.00  0.00    -0.297 A  
HETATM   27  C   UNL     1     -10.634  11.020  64.774  1.00  0.00    -0.280 A  
HETATM   28  C   UNL     1      -8.789   8.941  64.607  1.00  0.00    -0.098 A  
HETATM   29  O   UNL     1     -11.601  11.985  64.819  1.00  0.00    -0.324 OA 
HETATM   30  H   UNL     1     -11.875  12.419  64.020  1.00  0.00     0.000 HD 
ENDBRANCH  14  23
ENDBRANCH   7  10
TORSDOF 3
ENDMDL
MODEL      139
REMARK 921   NORMALIZED FREE ENERGY PREDICTED BY IDOCK:   -2.19 KCAL/MOL
REMARK 922        TOTAL FREE ENERGY PREDICTED BY IDOCK:   -3.82 KCAL/MOL
REMARK 923 INTER-LIGAND FREE ENERGY PREDICTED BY IDOCK:   -2.70 KCAL/MOL
REMARK 924 INTRA-LIGAND FREE ENERGY PREDICTED BY IDOCK:   -1.11 KCAL/MOL
REMARK 927      BINDING AFFINITY PREDICTED BY RF-SCORE:    0.00 PKD
ROOT
HETATM    1  O   UNL     1      -8.828   2.849  65.000  1.00  0.00    -0.115 OA 
HETATM    2  C   UNL     1      -9.960   3.573  65.163  1.00  0.00    -0.029 C  
HETATM    3  O   UNL     1     -11.031   3.243  64.684  1.00  0.00     0.199 OA 
HETATM    4  C   UNL     1      -9.773   4.817  65.951  1.00  0.00    -0.203 A  
HETATM    5  C   UNL     1      -8.841   4.900  66.990  1.00  0.00    -0.106 A  
HETATM    6  C   UNL     1      -8.706   6.088  67.721  1.00  0.00    -0.104 A  
HETATM    7  C   UNL     1      -9.546   7.184  67.471  1.00  0.00    -0.132 A  
HETATM    8  C   UNL     1     -10.467   7.104  66.415  1.00  0.00     0.149 A  
HETATM    9  C   UNL     1     -10.587   5.922  65.667  1.00  0.00     0.895 A  
ENDROOT
BRANCH   7  10
HETATM   10  N   UNL     1      -9.499   8.373  68.268  1.00  0.00    -0.138 NA 
HETATM   11  N   UNL     1      -9.410   9.585  67.649  1.00  0.00    -0.124 NA 
HETATM   12  C   UNL     1      -9.075  10.420  68.642  1.00  0.00    -0.157 A  
HETATM   13  N   UNL     1      -9.094   9.817  69.876  1.00  0.00    -0.222 NA 
HETATM   14  C   UNL     1      -9.423   8.558  69.649  1.00  0.00    -0.165 A  
BRANCH  12  15
HETATM   15  C   UNL     1      -8.698  11.838  68.523  1.00  0.00    -0.118 A  
HETATM   16  C   UNL     1      -9.735  12.799  68.520  1.00  0.00    -0.129 A  
HETATM   17  C   UNL     1      -9.473  14.170  68.428  1.00  0.00    -0.214 A  
HETATM   18  H   UNL     1      -5.424  11.781  68.401  1.00  0.00     0.000 HD 
HETATM   19  C   UNL     1      -8.161  14.615  68.338  1.00  0.00    -0.147 A  
HETATM   20  O   UNL     1      -6.315  11.458  68.458  1.00  0.00    -0.046 OA 
HETATM   21  C   UNL     1      -7.115  13.692  68.345  1.00  0.00    -0.107 A  
HETATM   22  C   UNL     1      -7.380  12.315  68.439  1.00  0.00    -0.109 A  
ENDBRANCH  12  15
BRANCH  14  23
HETATM   23  C   UNL     1      -9.600   7.577  70.731  1.00  0.00    -0.166 A  
HETATM   24  C   UNL     1      -9.753   5.520  72.648  1.00  0.00    -0.170 A  
HETATM   25  C   UNL     1     -10.919   6.048  72.096  1.00  0.00    -0.314 A  
HETATM   26  C   UNL     1      -8.443   7.080  71.357  1.00  0.00    -0.114 A  
HETATM   27  C   UNL     1     -10.840   7.096  71.174  1.00  0.00    -0.239 A  
HETATM   28  C   UNL     1      -8.516   6.060  72.306  1.00  0.00    -0.117 A  
HETATM   29  O   UNL     1     -11.996   7.647  70.697  1.00  0.00    -0.459 OA 
HETATM   30  H   UNL     1     -12.836   7.321  70.998  1.00  0.00     0.000 HD 
ENDBRANCH  14  23
ENDBRANCH   7  10
TORSDOF 3
ENDMDL
MODEL      140
REMARK 921   NORMALIZED FREE ENERGY PREDICTED BY IDOCK:   -1.88 KCAL/MOL
REMARK 922        TOTAL FREE ENERGY PREDICTED BY IDOCK:   -3.45 KCAL/MOL
REMARK 923 INTER-LIGAND FREE ENERGY PREDICTED BY IDOCK:   -2.65 KCAL/MOL
REMARK 924 INTRA-LIGAND FREE ENERGY PREDICTED BY IDOCK:   -0.80 KCAL/MOL
REMARK 927      BINDING AFFINITY PREDICTED BY RF-SCORE:    0.00 PKD
ROOT
HETATM    1  O   UNL     1      -5.130  15.831  72.210  1.00  0.00    -0.182 OA 
HETATM    2  C   UNL     1      -5.540  14.602  72.604  1.00  0.00     0.122 C  
HETATM    3  O   UNL     1      -5.538  14.247  73.770  1.00  0.00    -0.368 OA 
HETATM    4  C   UNL     1      -5.963  13.720  71.488  1.00  0.00     0.052 A  
HETATM    5  C   UNL     1      -6.575  14.226  70.337  1.00  0.00    -0.001 A  
HETATM    6  C   UNL     1      -6.974  13.358  69.313  1.00  0.00     0.006 A  
HETATM    7  C   UNL     1      -6.833  11.970  69.453  1.00  0.00    -0.028 A  
HETATM    8  C   UNL     1      -6.202  11.465  70.601  1.00  0.00     0.164 A  
HETATM    9  C   UNL     1      -5.780  12.337  71.618  1.00  0.00     0.640 A  
ENDROOT
BRANCH   7  10
HETATM   10  N   UNL     1      -7.324  11.054  68.467  1.00  0.00    -0.094 NA 
HETATM   11  N   UNL     1      -7.395  11.453  67.165  1.00  0.00    -0.130 NA 
HETATM   12  C   UNL     1      -8.162  10.518  66.591  1.00  0.00    -0.129 A  
HETATM   13  N   UNL     1      -8.454   9.474  67.436  1.00  0.00    -0.125 NA 
HETATM   14  C   UNL     1      -7.876   9.777  68.584  1.00  0.00    -0.081 A  
BRANCH  12  15
HETATM   15  C   UNL     1      -8.697  10.523  65.219  1.00  0.00    -0.200 A  
HETATM   16  C   UNL     1      -8.012   9.768  64.240  1.00  0.00    -0.143 A  
HETATM   17  C   UNL     1      -8.454   9.700  62.915  1.00  0.00    -0.181 A  
HETATM   18  H   UNL     1     -11.376  12.400  65.420  1.00  0.00     0.000 HD 
HETATM   19  C   UNL     1      -9.599  10.388  62.536  1.00  0.00    -0.228 A  
HETATM   20  O   UNL     1     -10.592  11.940  65.697  1.00  0.00    -0.251 OA 
HETATM   21  C   UNL     1     -10.300  11.138  63.480  1.00  0.00    -0.446 A  
HETATM   22  C   UNL     1      -9.855  11.203  64.811  1.00  0.00    -0.277 A  
ENDBRANCH  12  15
BRANCH  14  23
HETATM   23  C   UNL     1      -7.911   8.882  69.750  1.00  0.00    -0.090 A  
HETATM   24  C   UNL     1      -7.850   6.957  71.805  1.00  0.00    -0.099 A  
HETATM   25  C   UNL     1      -9.045   7.598  71.483  1.00  0.00    -0.150 A  
HETATM   26  C   UNL     1      -6.703   8.276  70.144  1.00  0.00    -0.036 A  
HETATM   27  C   UNL     1      -9.063   8.580  70.490  1.00  0.00    -0.156 A  
HETATM   28  C   UNL     1      -6.671   7.321  71.161  1.00  0.00    -0.044 A  
HETATM   29  O   UNL     1     -10.229   9.247  70.237  1.00  0.00    -0.196 OA 
HETATM   30  H   UNL     1     -11.009   9.043  70.738  1.00  0.00     0.000 HD 
ENDBRANCH  14  23
ENDBRANCH   7  10
TORSDOF 3
ENDMDL
MODEL      141
REMARK 921   NORMALIZED FREE ENERGY PREDICTED BY IDOCK:   -1.77 KCAL/MOL
REMARK 922        TOTAL FREE ENERGY PREDICTED BY IDOCK:   -3.33 KCAL/MOL
REMARK 923 INTER-LIGAND FREE ENERGY PREDICTED BY IDOCK:   -2.82 KCAL/MOL
REMARK 924 INTRA-LIGAND FREE ENERGY PREDICTED BY IDOCK:   -0.51 KCAL/MOL
REMARK 927      BINDING AFFINITY PREDICTED BY RF-SCORE:    0.00 PKD
ROOT
HETATM    1  O   UNL     1      -5.127  15.947  72.279  1.00  0.00    -0.171 OA 
HETATM    2  C   UNL     1      -5.752  16.132  71.093  1.00  0.00     0.372 C  
HETATM    3  O   UNL     1      -5.840  17.222  70.555  1.00  0.00    -0.141 OA 
HETATM    4  C   UNL     1      -6.344  14.896  70.523  1.00  0.00    -0.053 A  
HETATM    5  C   UNL     1      -5.759  13.641  70.714  1.00  0.00    -0.197 A  
HETATM    6  C   UNL     1      -6.340  12.500  70.145  1.00  0.00     0.062 A  
HETATM    7  C   UNL     1      -7.471  12.605  69.322  1.00  0.00     0.306 A  
HETATM    8  C   UNL     1      -8.067  13.863  69.147  1.00  0.00     0.242 A  
HETATM    9  C   UNL     1      -7.498  15.005  69.736  1.00  0.00    -0.102 A  
ENDROOT
BRANCH   7  10
HETATM   10  N   UNL     1      -8.025  11.470  68.646  1.00  0.00    -0.145 NA 
HETATM   11  N   UNL     1      -7.331  10.296  68.637  1.00  0.00    -0.080 NA 
HETATM   12  C   UNL     1      -7.947   9.574  67.693  1.00  0.00    -0.106 A  
HETATM   13  N   UNL     1      -9.083  10.180  67.213  1.00  0.00    -0.138 NA 
HETATM   14  C   UNL     1      -9.167  11.331  67.856  1.00  0.00    -0.157 A  
BRANCH  12  15
HETATM   15  C   UNL     1      -7.524   8.272  67.150  1.00  0.00    -0.089 A  
HETATM   16  C   UNL     1      -6.578   8.269  66.100  1.00  0.00    -0.050 A  
HETATM   17  C   UNL     1      -6.106   7.082  65.533  1.00  0.00    -0.037 A  
HETATM   18  H   UNL     1      -9.172   6.090  68.956  1.00  0.00     0.000 HD 
HETATM   19  C   UNL     1      -6.570   5.862  66.006  1.00  0.00    -0.047 A  
HETATM   20  O   UNL     1      -8.869   6.933  68.642  1.00  0.00    -0.125 OA 
HETATM   21  C   UNL     1      -7.499   5.831  67.045  1.00  0.00    -0.081 A  
HETATM   22  C   UNL     1      -7.971   7.025  67.615  1.00  0.00    -0.114 A  
ENDBRANCH  12  15
BRANCH  14  23
HETATM   23  C   UNL     1     -10.284  12.268  67.662  1.00  0.00    -0.208 A  
HETATM   24  C   UNL     1     -12.233  14.229  67.127  1.00  0.00    -0.312 A  
HETATM   25  C   UNL     1     -11.968  13.848  68.441  1.00  0.00    -0.391 A  
HETATM   26  C   UNL     1     -10.623  12.615  66.342  1.00  0.00    -0.272 A  
HETATM   27  C   UNL     1     -11.029  12.846  68.700  1.00  0.00    -0.261 A  
HETATM   28  C   UNL     1     -11.588  13.587  66.074  1.00  0.00    -0.363 A  
HETATM   29  O   UNL     1     -10.833  12.438  69.989  1.00  0.00    -0.160 OA 
HETATM   30  H   UNL     1     -11.337  12.830  70.692  1.00  0.00     0.000 HD 
ENDBRANCH  14  23
ENDBRANCH   7  10
TORSDOF 3
ENDMDL
MODEL      142
REMARK 921   NORMALIZED FREE ENERGY PREDICTED BY IDOCK:   -1.42 KCAL/MOL
REMARK 922        TOTAL FREE ENERGY PREDICTED BY IDOCK:   -2.92 KCAL/MOL
REMARK 923 INTER-LIGAND FREE ENERGY PREDICTED BY IDOCK:   -2.09 KCAL/MOL
REMARK 924 INTRA-LIGAND FREE ENERGY PREDICTED BY IDOCK:   -0.82 KCAL/MOL
REMARK 927      BINDING AFFINITY PREDICTED BY RF-SCORE:    0.00 PKD
ROOT
HETATM    1  O   UNL     1     -12.230  11.381  64.911  1.00  0.00     0.155 OA 
HETATM    2  C   UNL     1     -11.114  11.709  65.603  1.00  0.00    -0.249 C  
HETATM    3  O   UNL     1     -10.673  12.844  65.648  1.00  0.00    -0.268 OA 
HETATM    4  C   UNL     1     -10.462  10.558  66.277  1.00  0.00    -0.250 A  
HETATM    5  C   UNL     1     -11.200   9.484  66.783  1.00  0.00     0.686 A  
HETATM    6  C   UNL     1     -10.548   8.424  67.428  1.00  0.00    -0.313 A  
HETATM    7  C   UNL     1      -9.161   8.456  67.637  1.00  0.00    -0.134 A  
HETATM    8  C   UNL     1      -8.421   9.526  67.112  1.00  0.00    -0.131 A  
HETATM    9  C   UNL     1      -9.071  10.578  66.445  1.00  0.00    -0.181 A  
ENDROOT
BRANCH   7  10
HETATM   10  N   UNL     1      -8.483   7.436  68.381  1.00  0.00    -0.125 NA 
HETATM   11  N   UNL     1      -8.472   7.502  69.743  1.00  0.00    -0.134 NA 
HETATM   12  C   UNL     1      -7.526   6.622  70.092  1.00  0.00    -0.094 A  
HETATM   13  N   UNL     1      -7.047   5.901  69.025  1.00  0.00    -0.067 NA 
HETATM   14  C   UNL     1      -7.692   6.363  67.969  1.00  0.00    -0.104 A  
BRANCH  12  15
HETATM   15  C   UNL     1      -6.981   6.388  71.440  1.00  0.00    -0.076 A  
HETATM   16  C   UNL     1      -6.709   5.054  71.820  1.00  0.00    -0.044 A  
HETATM   17  C   UNL     1      -6.175   4.736  73.073  1.00  0.00    -0.036 A  
HETATM   18  H   UNL     1      -6.695   9.394  72.712  1.00  0.00     0.000 HD 
HETATM   19  C   UNL     1      -5.899   5.749  73.980  1.00  0.00    -0.056 A  
HETATM   20  O   UNL     1      -6.896   8.713  72.081  1.00  0.00    -0.113 OA 
HETATM   21  C   UNL     1      -6.151   7.076  73.633  1.00  0.00    -0.062 A  
HETATM   22  C   UNL     1      -6.685   7.394  72.372  1.00  0.00    -0.055 A  
ENDBRANCH  12  15
BRANCH  14  23
HETATM   23  C   UNL     1      -7.499   5.813  66.619  1.00  0.00    -0.084 A  
HETATM   24  C   UNL     1      -7.024   4.509  64.168  1.00  0.00    -0.046 A  
HETATM   25  C   UNL     1      -6.495   5.778  64.398  1.00  0.00    -0.033 A  
HETATM   26  C   UNL     1      -8.084   4.565  66.333  1.00  0.00    -0.103 A  
HETATM   27  C   UNL     1      -6.766   6.437  65.600  1.00  0.00    -0.048 A  
HETATM   28  C   UNL     1      -7.849   3.917  65.120  1.00  0.00    -0.086 A  
HETATM   29  O   UNL     1      -6.297   7.709  65.779  1.00  0.00    -0.041 OA 
HETATM   30  H   UNL     1      -5.801   8.132  65.089  1.00  0.00     0.000 HD 
ENDBRANCH  14  23
ENDBRANCH   7  10
TORSDOF 3
ENDMDL
MODEL      143
REMARK 921   NORMALIZED FREE ENERGY PREDICTED BY IDOCK:   -1.23 KCAL/MOL
REMARK 922        TOTAL FREE ENERGY PREDICTED BY IDOCK:   -2.69 KCAL/MOL
REMARK 923 INTER-LIGAND FREE ENERGY PREDICTED BY IDOCK:   -2.39 KCAL/MOL
REMARK 924 INTRA-LIGAND FREE ENERGY PREDICTED BY IDOCK:   -0.30 KCAL/MOL
REMARK 927      BINDING AFFINITY PREDICTED BY RF-SCORE:    0.00 PKD
ROOT
HETATM    1  O   UNL     1     -11.948  16.316  68.134  1.00  0.00     0.035 OA 
HETATM    2  C   UNL     1     -12.208  15.648  69.283  1.00  0.00    -0.142 C  
HETATM    3  O   UNL     1     -12.758  16.167  70.239  1.00  0.00    -0.168 OA 
HETATM    4  C   UNL     1     -11.738  14.240  69.282  1.00  0.00    -0.363 A  
HETATM    5  C   UNL     1     -11.723  13.467  68.117  1.00  0.00    -0.397 A  
HETATM    6  C   UNL     1     -11.288  12.136  68.162  1.00  0.00    -0.349 A  
HETATM    7  C   UNL     1     -10.928  11.539  69.379  1.00  0.00    -0.176 A  
HETATM    8  C   UNL     1     -10.926  12.323  70.544  1.00  0.00     1.726 A  
HETATM    9  C   UNL     1     -11.341  13.664  70.496  1.00  0.00     0.310 A  
ENDROOT
BRANCH   7  10
HETATM   10  N   UNL     1     -10.576  10.153  69.470  1.00  0.00    -0.228 NA 
HETATM   11  N   UNL     1     -11.170   9.377  70.421  1.00  0.00    -0.254 NA 
HETATM   12  C   UNL     1     -10.415   8.272  70.441  1.00  0.00    -0.215 A  
HETATM   13  N   UNL     1      -9.466   8.255  69.447  1.00  0.00    -0.158 NA 
HETATM   14  C   UNL     1      -9.612   9.399  68.802  1.00  0.00    -0.154 A  
BRANCH  12  15
HETATM   15  C   UNL     1     -10.503   7.149  71.390  1.00  0.00    -0.220 A  
HETATM   16  C   UNL     1     -10.147   7.393  72.736  1.00  0.00    -0.272 A  
HETATM   17  C   UNL     1     -10.215   6.393  73.712  1.00  0.00    -0.306 A  
HETATM   18  H   UNL     1     -11.623   4.662  69.574  1.00  0.00     0.000 HD 
HETATM   19  C   UNL     1     -10.644   5.120  73.363  1.00  0.00    -0.302 A  
HETATM   20  O   UNL     1     -11.326   5.538  69.793  1.00  0.00     0.018 OA 
HETATM   21  C   UNL     1     -11.008   4.850  72.044  1.00  0.00    -0.024 A  
HETATM   22  C   UNL     1     -10.941   5.856  71.065  1.00  0.00    -0.266 A  
ENDBRANCH  12  15
BRANCH  14  23
HETATM   23  C   UNL     1      -8.807   9.751  67.622  1.00  0.00    -0.127 A  
HETATM   24  C   UNL     1      -7.500  10.595  65.274  1.00  0.00     0.006 A  
HETATM   25  C   UNL     1      -7.616   9.235  65.559  1.00  0.00    -0.091 A  
HETATM   26  C   UNL     1      -8.612  11.117  67.350  1.00  0.00    -0.137 A  
HETATM   27  C   UNL     1      -8.230   8.822  66.744  1.00  0.00    -0.108 A  
HETATM   28  C   UNL     1      -7.966  11.538  66.186  1.00  0.00     0.093 A  
HETATM   29  O   UNL     1      -8.271   7.489  67.040  1.00  0.00    -0.120 OA 
HETATM   30  H   UNL     1      -7.880   6.859  66.445  1.00  0.00     0.000 HD 
ENDBRANCH  14  23
ENDBRANCH   7  10
TORSDOF 3
ENDMDL
MODEL      144
REMARK 921   NORMALIZED FREE ENERGY PREDICTED BY IDOCK:   -0.90 KCAL/MOL
REMARK 922        TOTAL FREE ENERGY PREDICTED BY IDOCK:   -2.30 KCAL/MOL
REMARK 923 INTER-LIGAND FREE ENERGY PREDICTED BY IDOCK:   -2.60 KCAL/MOL
REMARK 924 INTRA-LIGAND FREE ENERGY PREDICTED BY IDOCK:    0.30 KCAL/MOL
REMARK 927      BINDING AFFINITY PREDICTED BY RF-SCORE:    0.00 PKD
ROOT
HETATM    1  O   UNL     1     -12.377  11.137  66.906  1.00  0.00     0.806 OA 
HETATM    2  C   UNL     1     -11.057  10.926  67.120  1.00  0.00    -0.240 C  
HETATM    3  O   UNL     1     -10.535   9.831  67.000  1.00  0.00    -0.238 OA 
HETATM    4  C   UNL     1     -10.312  12.139  67.540  1.00  0.00    -0.219 A  
HETATM    5  C   UNL     1     -10.659  13.414  67.085  1.00  0.00    -0.259 A  
HETATM    6  C   UNL     1      -9.920  14.532  67.493  1.00  0.00    -0.224 A  
HETATM    7  C   UNL     1      -8.785  14.385  68.303  1.00  0.00    -0.180 A  
HETATM    8  C   UNL     1      -8.449  13.107  68.774  1.00  0.00     0.142 A  
HETATM    9  C   UNL     1      -9.203  11.988  68.384  1.00  0.00    -0.160 A  
ENDROOT
BRANCH   7  10
HETATM   10  N   UNL     1      -7.952  15.498  68.652  1.00  0.00    -0.137 NA 
HETATM   11  N   UNL     1      -8.146  16.695  68.027  1.00  0.00    -0.176 NA 
HETATM   12  C   UNL     1      -7.045  17.392  68.336  1.00  0.00    -0.212 A  
HETATM   13  N   UNL     1      -6.241  16.745  69.244  1.00  0.00    -0.188 NA 
HETATM   14  C   UNL     1      -6.841  15.594  69.490  1.00  0.00    -0.189 A  
BRANCH  12  15
HETATM   15  C   UNL     1      -6.644  18.706  67.806  1.00  0.00    -0.216 A  
HETATM   16  C   UNL     1      -6.772  19.828  68.655  1.00  0.00    -0.341 A  
HETATM   17  C   UNL     1      -6.402  21.112  68.245  1.00  0.00    -0.163 A  
HETATM   18  H   UNL     1      -5.582  18.047  64.777  1.00  0.00     0.000 HD 
HETATM   19  C   UNL     1      -5.891  21.306  66.969  1.00  0.00    -0.392 A  
HETATM   20  O   UNL     1      -5.939  17.896  65.645  1.00  0.00    -0.199 OA 
HETATM   21  C   UNL     1      -5.747  20.218  66.109  1.00  0.00    -0.198 A  
HETATM   22  C   UNL     1      -6.118  18.927  66.524  1.00  0.00    -0.166 A  
ENDBRANCH  12  15
BRANCH  14  23
HETATM   23  C   UNL     1      -6.319  14.619  70.460  1.00  0.00    -0.109 A  
HETATM   24  C   UNL     1      -5.148  12.977  72.425  1.00  0.00     0.023 A  
HETATM   25  C   UNL     1      -5.125  12.589  71.087  1.00  0.00    -0.154 A  
HETATM   26  C   UNL     1      -6.395  14.952  71.825  1.00  0.00     0.823 A  
HETATM   27  C   UNL     1      -5.742  13.388  70.120  1.00  0.00    -0.136 A  
HETATM   28  C   UNL     1      -5.815  14.140  72.800  1.00  0.00     0.164 A  
HETATM   29  O   UNL     1      -5.770  12.957  68.823  1.00  0.00    -0.065 OA 
HETATM   30  H   UNL     1      -5.379  12.123  68.593  1.00  0.00     0.000 HD 
ENDBRANCH  14  23
ENDBRANCH   7  10
TORSDOF 3
ENDMDL
MODEL      145
REMARK 921   NORMALIZED FREE ENERGY PREDICTED BY IDOCK:   -0.44 KCAL/MOL
REMARK 922        TOTAL FREE ENERGY PREDICTED BY IDOCK:   -1.76 KCAL/MOL
REMARK 923 INTER-LIGAND FREE ENERGY PREDICTED BY IDOCK:   -1.54 KCAL/MOL
REMARK 924 INTRA-LIGAND FREE ENERGY PREDICTED BY IDOCK:   -0.22 KCAL/MOL
REMARK 927      BINDING AFFINITY PREDICTED BY RF-SCORE:    0.00 PKD
ROOT
HETATM    1  O   UNL     1      -9.829   6.583  66.678  1.00  0.00    -0.167 OA 
HETATM    2  C   UNL     1      -9.359   7.680  66.037  1.00  0.00    -0.013 C  
HETATM    3  O   UNL     1      -8.710   7.617  65.008  1.00  0.00    -0.005 OA 
HETATM    4  C   UNL     1      -9.684   8.959  66.715  1.00  0.00    -0.282 A  
HETATM    5  C   UNL     1     -10.869   9.135  67.436  1.00  0.00    -0.140 A  
HETATM    6  C   UNL     1     -11.145  10.364  68.048  1.00  0.00    -0.359 A  
HETATM    7  C   UNL     1     -10.276  11.455  67.892  1.00  0.00    -0.182 A  
HETATM    8  C   UNL     1      -9.079  11.271  67.184  1.00  0.00    -0.160 A  
HETATM    9  C   UNL     1      -8.790  10.032  66.589  1.00  0.00    -0.145 A  
ENDROOT
BRANCH   7  10
HETATM   10  N   UNL     1     -10.583  12.750  68.421  1.00  0.00    -0.243 NA 
HETATM   11  N   UNL     1     -10.537  12.945  69.770  1.00  0.00     0.605 NA 
HETATM   12  C   UNL     1     -11.161  14.118  69.939  1.00  0.00    -0.107 A  
HETATM   13  N   UNL     1     -11.466  14.737  68.750  1.00  0.00    -0.285 NA 
HETATM   14  C   UNL     1     -11.045  13.915  67.806  1.00  0.00    -0.262 A  
BRANCH  12  15
HETATM   15  C   UNL     1     -11.538  14.751  71.214  1.00  0.00    -0.314 A  
HETATM   16  C   UNL     1     -11.593  16.163  71.259  1.00  0.00    -0.470 A  
HETATM   17  C   UNL     1     -11.957  16.852  72.421  1.00  0.00     0.323 A  
HETATM   18  H   UNL     1     -12.095  12.221  73.221  1.00  0.00     0.000 HD 
HETATM   19  C   UNL     1     -12.276  16.142  73.570  1.00  0.00    -0.630 A  
HETATM   20  O   UNL     1     -11.867  12.691  72.427  1.00  0.00     2.241 OA 
HETATM   21  C   UNL     1     -12.236  14.748  73.556  1.00  0.00    -0.416 A  
HETATM   22  C   UNL     1     -11.873  14.057  72.387  1.00  0.00     0.906 A  
ENDBRANCH  12  15
BRANCH  14  23
HETATM   23  C   UNL     1     -11.142  14.236  66.374  1.00  0.00    -0.325 A  
HETATM   24  C   UNL     1     -11.476  15.101  63.715  1.00  0.00     0.762 A  
HETATM   25  C   UNL     1     -11.880  13.820  64.089  1.00  0.00    -0.439 A  
HETATM   26  C   UNL     1     -10.675  15.495  65.955  1.00  0.00    -0.331 A  
HETATM   27  C   UNL     1     -11.676  13.381  65.400  1.00  0.00    -0.331 A  
HETATM   28  C   UNL     1     -10.840  15.926  64.638  1.00  0.00    -0.234 A  
HETATM   29  O   UNL     1     -12.014  12.099  65.730  1.00  0.00    -0.536 OA 
HETATM   30  H   UNL     1     -12.376  11.519  65.069  1.00  0.00     0.000 HD 
ENDBRANCH  14  23
ENDBRANCH   7  10
TORSDOF 3
ENDMDL
MODEL      146
REMARK 921   NORMALIZED FREE ENERGY PREDICTED BY IDOCK:    0.81 KCAL/MOL
REMARK 922        TOTAL FREE ENERGY PREDICTED BY IDOCK:   -0.30 KCAL/MOL
REMARK 923 INTER-LIGAND FREE ENERGY PREDICTED BY IDOCK:   -1.79 KCAL/MOL
REMARK 924 INTRA-LIGAND FREE ENERGY PREDICTED BY IDOCK:    1.50 KCAL/MOL
REMARK 927      BINDING AFFINITY PREDICTED BY RF-SCORE:    0.00 PKD
ROOT
HETATM    1  O   UNL     1     -10.305  19.638  68.694  1.00  0.00    -0.420 OA 
HETATM    2  C   UNL     1     -10.530  19.069  67.486  1.00  0.00    -0.454 C  
HETATM    3  O   UNL     1     -11.132  19.635  66.591  1.00  0.00    -0.356 OA 
HETATM    4  C   UNL     1     -10.002  17.687  67.362  1.00  0.00    -0.321 A  
HETATM    5  C   UNL     1      -8.839  17.278  68.021  1.00  0.00    -0.238 A  
HETATM    6  C   UNL     1      -8.364  15.969  67.865  1.00  0.00    -0.158 A  
HETATM    7  C   UNL     1      -9.004  15.074  66.995  1.00  0.00    -0.234 A  
HETATM    8  C   UNL     1     -10.181  15.480  66.349  1.00  0.00    -0.300 A  
HETATM    9  C   UNL     1     -10.671  16.785  66.524  1.00  0.00    -0.104 A  
ENDROOT
BRANCH   7  10
HETATM   10  N   UNL     1      -8.483  13.763  66.739  1.00  0.00    -0.058 NA 
HETATM   11  N   UNL     1      -8.743  13.168  65.540  1.00  0.00     1.221 NA 
HETATM   12  C   UNL     1      -8.403  11.889  65.744  1.00  0.00     0.490 A  
HETATM   13  N   UNL     1      -7.806  11.684  66.965  1.00  0.00    -0.159 NA 
HETATM   14  C   UNL     1      -7.796  12.865  67.556  1.00  0.00    -0.177 A  
BRANCH  12  15
HETATM   15  C   UNL     1      -8.617  10.753  64.832  1.00  0.00    -0.097 A  
HETATM   16  C   UNL     1      -9.056  11.035  63.518  1.00  0.00    -0.175 A  
HETATM   17  C   UNL     1      -9.270  10.024  62.577  1.00  0.00    -0.319 A  
HETATM   18  H   UNL     1      -7.795   8.134  66.620  1.00  0.00     0.000 HD 
HETATM   19  C   UNL     1      -9.048   8.699  62.927  1.00  0.00     0.583 A  
HETATM   20  O   UNL     1      -7.947   9.045  66.399  1.00  0.00    -0.101 OA 
HETATM   21  C   UNL     1      -8.610   8.389  64.214  1.00  0.00     0.044 A  
HETATM   22  C   UNL     1      -8.393   9.407  65.159  1.00  0.00    -0.145 A  
ENDBRANCH  12  15
BRANCH  14  23
HETATM   23  C   UNL     1      -7.190  13.085  68.878  1.00  0.00    -0.047 A  
HETATM   24  C   UNL     1      -5.877  13.735  71.283  1.00  0.00    -0.156 A  
HETATM   25  C   UNL     1      -5.830  12.432  70.792  1.00  0.00    -0.003 A  
HETATM   26  C   UNL     1      -7.286  14.374  69.433  1.00  0.00    -0.086 A  
HETATM   27  C   UNL     1      -6.516  12.105  69.619  1.00  0.00    -0.082 A  
HETATM   28  C   UNL     1      -6.635  14.699  70.624  1.00  0.00     0.109 A  
HETATM   29  O   UNL     1      -6.516  10.807  69.190  1.00  0.00    -0.050 OA 
HETATM   30  H   UNL     1      -6.058  10.142  69.692  1.00  0.00     0.000 HD 
ENDBRANCH  14  23
ENDBRANCH   7  10
TORSDOF 3
ENDMDL
MODEL      147
REMARK 921   NORMALIZED FREE ENERGY PREDICTED BY IDOCK:    1.39 KCAL/MOL
REMARK 922        TOTAL FREE ENERGY PREDICTED BY IDOCK:    0.39 KCAL/MOL
REMARK 923 INTER-LIGAND FREE ENERGY PREDICTED BY IDOCK:    1.07 KCAL/MOL
REMARK 924 INTRA-LIGAND FREE ENERGY PREDICTED BY IDOCK:   -0.68 KCAL/MOL
REMARK 927      BINDING AFFINITY PREDICTED BY RF-SCORE:    0.00 PKD
ROOT
HETATM    1  O   UNL     1      -5.130  15.210  72.801  1.00  0.00    -0.158 OA 
HETATM    2  C   UNL     1      -5.840  14.096  73.098  1.00  0.00     0.205 C  
HETATM    3  O   UNL     1      -6.451  13.961  74.144  1.00  0.00    -0.044 OA 
HETATM    4  C   UNL     1      -5.784  13.047  72.049  1.00  0.00     0.591 A  
HETATM    5  C   UNL     1      -5.687  13.364  70.691  1.00  0.00    -0.182 A  
HETATM    6  C   UNL     1      -5.653  12.345  69.731  1.00  0.00    -0.102 A  
HETATM    7  C   UNL     1      -5.785  11.000  70.107  1.00  0.00    -0.104 A  
HETATM    8  C   UNL     1      -5.862  10.683  71.472  1.00  0.00     0.335 A  
HETATM    9  C   UNL     1      -5.874  11.704  72.437  1.00  0.00     1.838 A  
ENDROOT
BRANCH   7  10
HETATM   10  N   UNL     1      -5.855   9.945  69.141  1.00  0.00    -0.034 NA 
HETATM   11  N   UNL     1      -5.674  10.239  67.821  1.00  0.00    -0.044 NA 
HETATM   12  C   UNL     1      -6.105   9.137  67.193  1.00  0.00    -0.057 A  
HETATM   13  N   UNL     1      -6.408   8.113  68.057  1.00  0.00    -0.054 NA 
HETATM   14  C   UNL     1      -6.188   8.596  69.267  1.00  0.00    -0.042 A  
BRANCH  12  15
HETATM   15  C   UNL     1      -6.282   8.951  65.743  1.00  0.00    -0.052 A  
HETATM   16  C   UNL     1      -5.142   8.625  64.974  1.00  0.00    -0.034 A  
HETATM   17  C   UNL     1      -5.216   8.413  63.594  1.00  0.00    -0.057 A  
HETATM   18  H   UNL     1      -9.494   9.402  65.273  1.00  0.00     0.000 HD 
HETATM   19  C   UNL     1      -6.439   8.522  62.946  1.00  0.00    -0.090 A  
HETATM   20  O   UNL     1      -8.665   9.337  65.733  1.00  0.00    -0.139 OA 
HETATM   21  C   UNL     1      -7.583   8.837  63.678  1.00  0.00    -0.124 A  
HETATM   22  C   UNL     1      -7.508   9.047  65.065  1.00  0.00    -0.097 A  
ENDBRANCH  12  15
BRANCH  14  23
HETATM   23  C   UNL     1      -6.350   7.787  70.485  1.00  0.00    -0.037 A  
HETATM   24  C   UNL     1      -6.440   6.059  72.707  1.00  0.00    -0.063 A  
HETATM   25  C   UNL     1      -7.606   6.351  72.001  1.00  0.00    -0.095 A  
HETATM   26  C   UNL     1      -5.202   7.536  71.258  1.00  0.00    -0.027 A  
HETATM   27  C   UNL     1      -7.564   7.240  70.923  1.00  0.00    -0.084 A  
HETATM   28  C   UNL     1      -5.244   6.679  72.359  1.00  0.00    -0.032 A  
HETATM   29  O   UNL     1      -8.728   7.568  70.287  1.00  0.00    -0.142 OA 
HETATM   30  H   UNL     1      -9.551   7.197  70.584  1.00  0.00     0.000 HD 
ENDBRANCH  14  23
ENDBRANCH   7  10
TORSDOF 3
ENDMDL
MODEL      148
REMARK 921   NORMALIZED FREE ENERGY PREDICTED BY IDOCK:    1.96 KCAL/MOL
REMARK 922        TOTAL FREE ENERGY PREDICTED BY IDOCK:    1.06 KCAL/MOL
REMARK 923 INTER-LIGAND FREE ENERGY PREDICTED BY IDOCK:    0.93 KCAL/MOL
REMARK 924 INTRA-LIGAND FREE ENERGY PREDICTED BY IDOCK:    0.13 KCAL/MOL
REMARK 927      BINDING AFFINITY PREDICTED BY RF-SCORE:    0.00 PKD
ROOT
HETATM    1  O   UNL     1      -6.450  20.167  68.166  1.00  0.00    -0.250 OA 
HETATM    2  C   UNL     1      -7.411  19.389  68.717  1.00  0.00    -0.358 C  
HETATM    3  O   UNL     1      -8.251  19.821  69.487  1.00  0.00    -0.021 OA 
HETATM    4  C   UNL     1      -7.332  17.961  68.320  1.00  0.00    -0.249 A  
HETATM    5  C   UNL     1      -6.880  17.568  67.057  1.00  0.00    -0.208 A  
HETATM    6  C   UNL     1      -6.835  16.210  66.716  1.00  0.00    -0.049 A  
HETATM    7  C   UNL     1      -7.307  15.232  67.604  1.00  0.00    -0.178 A  
HETATM    8  C   UNL     1      -7.743  15.626  68.878  1.00  0.00    -0.181 A  
HETATM    9  C   UNL     1      -7.766  16.986  69.229  1.00  0.00    -0.019 A  
ENDROOT
BRANCH   7  10
HETATM   10  N   UNL     1      -7.368  13.846  67.243  1.00  0.00    -0.090 NA 
HETATM   11  N   UNL     1      -7.798  13.502  65.995  1.00  0.00     1.963 NA 
HETATM   12  C   UNL     1      -8.031  12.187  66.095  1.00  0.00     0.578 A  
HETATM   13  N   UNL     1      -7.629  11.664  67.300  1.00  0.00    -0.138 NA 
HETATM   14  C   UNL     1      -7.155  12.687  67.989  1.00  0.00    -0.103 A  
BRANCH  12  15
HETATM   15  C   UNL     1      -8.657  11.315  65.088  1.00  0.00     0.163 A  
HETATM   16  C   UNL     1     -10.017  11.538  64.774  1.00  0.00    -0.304 A  
HETATM   17  C   UNL     1     -10.691  10.771  63.819  1.00  0.00     0.021 A  
HETATM   18  H   UNL     1      -6.230   9.325  64.145  1.00  0.00     0.000 HD 
HETATM   19  C   UNL     1     -10.018   9.757  63.150  1.00  0.00     1.001 A  
HETATM   20  O   UNL     1      -6.676  10.019  64.617  1.00  0.00    -0.118 OA 
HETATM   21  C   UNL     1      -8.673   9.516  63.434  1.00  0.00    -0.235 A  
HETATM   22  C   UNL     1      -7.997  10.290  64.392  1.00  0.00    -0.135 A  
ENDBRANCH  12  15
BRANCH  14  23
HETATM   23  C   UNL     1      -6.572  12.537  69.331  1.00  0.00    -0.073 A  
HETATM   24  C   UNL     1      -5.201  12.362  71.784  1.00  0.00     0.052 A  
HETATM   25  C   UNL     1      -5.843  11.241  71.262  1.00  0.00     0.320 A  
HETATM   26  C   UNL     1      -5.981  13.672  69.915  1.00  0.00    -0.131 A  
HETATM   27  C   UNL     1      -6.555  11.342  70.064  1.00  0.00    -0.031 A  
HETATM   28  C   UNL     1      -5.300  13.587  71.131  1.00  0.00    -0.189 A  
HETATM   29  O   UNL     1      -7.236  10.250  69.603  1.00  0.00    -0.105 OA 
HETATM   30  H   UNL     1      -7.225   9.441  70.100  1.00  0.00     0.000 HD 
ENDBRANCH  14  23
ENDBRANCH   7  10
TORSDOF 3
ENDMDL
MODEL      149
REMARK 921   NORMALIZED FREE ENERGY PREDICTED BY IDOCK:    2.10 KCAL/MOL
REMARK 922        TOTAL FREE ENERGY PREDICTED BY IDOCK:    1.22 KCAL/MOL
REMARK 923 INTER-LIGAND FREE ENERGY PREDICTED BY IDOCK:    1.69 KCAL/MOL
REMARK 924 INTRA-LIGAND FREE ENERGY PREDICTED BY IDOCK:   -0.47 KCAL/MOL
REMARK 927      BINDING AFFINITY PREDICTED BY RF-SCORE:    0.00 PKD
ROOT
HETATM    1  O   UNL     1      -5.257  19.671  70.689  1.00  0.00    -0.203 OA 
HETATM    2  C   UNL     1      -6.582  19.418  70.572  1.00  0.00     0.229 C  
HETATM    3  O   UNL     1      -7.440  20.177  70.989  1.00  0.00     0.472 OA 
HETATM    4  C   UNL     1      -6.894  18.122  69.918  1.00  0.00     0.339 A  
HETATM    5  C   UNL     1      -6.080  17.586  68.916  1.00  0.00    -0.195 A  
HETATM    6  C   UNL     1      -6.418  16.367  68.312  1.00  0.00    -0.133 A  
HETATM    7  C   UNL     1      -7.607  15.704  68.650  1.00  0.00    -0.143 A  
HETATM    8  C   UNL     1      -8.412  16.235  69.670  1.00  0.00     0.324 A  
HETATM    9  C   UNL     1      -8.062  17.444  70.292  1.00  0.00     2.932 A  
ENDROOT
BRANCH   7  10
HETATM   10  N   UNL     1      -8.027  14.511  67.978  1.00  0.00    -0.125 NA 
HETATM   11  N   UNL     1      -7.612  13.301  68.450  1.00  0.00    -0.131 NA 
HETATM   12  C   UNL     1      -7.904  12.458  67.451  1.00  0.00    -0.174 A  
HETATM   13  N   UNL     1      -8.614  13.056  66.437  1.00  0.00     0.155 NA 
HETATM   14  C   UNL     1      -8.748  14.319  66.799  1.00  0.00    -0.134 A  
BRANCH  12  15
HETATM   15  C   UNL     1      -7.536  11.036  67.349  1.00  0.00    -0.106 A  
HETATM   16  C   UNL     1      -8.269  10.226  66.452  1.00  0.00    -0.129 A  
HETATM   17  C   UNL     1      -7.981   8.869  66.275  1.00  0.00    -0.103 A  
HETATM   18  H   UNL     1      -5.009  10.722  69.411  1.00  0.00     0.000 HD 
HETATM   19  C   UNL     1      -6.947   8.286  66.996  1.00  0.00    -0.071 A  
HETATM   20  O   UNL     1      -5.716  11.136  68.931  1.00  0.00    -0.040 OA 
HETATM   21  C   UNL     1      -6.202   9.060  67.885  1.00  0.00    -0.051 A  
HETATM   22  C   UNL     1      -6.491  10.424  68.059  1.00  0.00    -0.060 A  
ENDBRANCH  12  15
BRANCH  14  23
HETATM   23  C   UNL     1      -9.500  15.297  65.998  1.00  0.00    -0.372 A  
HETATM   24  C   UNL     1     -11.056  17.269  64.725  1.00  0.00     0.578 A  
HETATM   25  C   UNL     1     -11.142  15.940  64.315  1.00  0.00     0.012 A  
HETATM   26  C   UNL     1      -9.376  16.656  66.342  1.00  0.00    -0.309 A  
HETATM   27  C   UNL     1     -10.338  14.971  64.923  1.00  0.00    -0.282 A  
HETATM   28  C   UNL     1     -10.147  17.634  65.714  1.00  0.00    -0.098 A  
HETATM   29  O   UNL     1     -10.385  13.686  64.460  1.00  0.00    -0.488 OA 
HETATM   30  H   UNL     1     -10.953  13.465  63.732  1.00  0.00     0.000 HD 
ENDBRANCH  14  23
ENDBRANCH   7  10
TORSDOF 3
ENDMDL
MODEL      150
REMARK 921   NORMALIZED FREE ENERGY PREDICTED BY IDOCK:    3.29 KCAL/MOL
REMARK 922        TOTAL FREE ENERGY PREDICTED BY IDOCK:    2.63 KCAL/MOL
REMARK 923 INTER-LIGAND FREE ENERGY PREDICTED BY IDOCK:    3.07 KCAL/MOL
REMARK 924 INTRA-LIGAND FREE ENERGY PREDICTED BY IDOCK:   -0.45 KCAL/MOL
REMARK 927      BINDING AFFINITY PREDICTED BY RF-SCORE:    0.00 PKD
ROOT
HETATM    1  O   UNL     1     -11.422  10.204  70.804  1.00  0.00    -0.310 OA 
HETATM    2  C   UNL     1     -11.924  11.446  70.999  1.00  0.00    -0.055 C  
HETATM    3  O   UNL     1     -12.933  11.656  71.651  1.00  0.00    -0.432 OA 
HETATM    4  C   UNL     1     -11.154  12.522  70.327  1.00  0.00     0.845 A  
HETATM    5  C   UNL     1      -9.768  12.445  70.160  1.00  0.00     3.465 A  
HETATM    6  C   UNL     1      -9.075  13.489  69.533  1.00  0.00     1.253 A  
HETATM    7  C   UNL     1      -9.746  14.653  69.129  1.00  0.00    -0.103 A  
HETATM    8  C   UNL     1     -11.139  14.720  69.281  1.00  0.00    -0.283 A  
HETATM    9  C   UNL     1     -11.837  13.664  69.888  1.00  0.00    -0.389 A  
ENDROOT
BRANCH   7  10
HETATM   10  N   UNL     1      -9.048  15.778  68.579  1.00  0.00    -0.187 NA 
HETATM   11  N   UNL     1      -8.131  16.432  69.347  1.00  0.00    -0.115 NA 
HETATM   12  C   UNL     1      -7.915  17.571  68.676  1.00  0.00    -0.268 A  
HETATM   13  N   UNL     1      -8.540  17.596  67.452  1.00  0.00    -0.224 NA 
HETATM   14  C   UNL     1      -9.191  16.450  67.365  1.00  0.00    -0.208 A  
BRANCH  12  15
HETATM   15  C   UNL     1      -7.125  18.731  69.121  1.00  0.00    -0.272 A  
HETATM   16  C   UNL     1      -6.916  18.895  70.509  1.00  0.00     1.089 A  
HETATM   17  C   UNL     1      -6.165  19.956  71.024  1.00  0.00    -0.168 A  
HETATM   18  H   UNL     1      -6.271  20.224  66.332  1.00  0.00     0.000 HD 
HETATM   19  C   UNL     1      -5.601  20.883  70.159  1.00  0.00    -0.177 A  
HETATM   20  O   UNL     1      -6.669  19.583  66.910  1.00  0.00    -0.191 OA 
HETATM   21  C   UNL     1      -5.784  20.745  68.783  1.00  0.00    -0.398 A  
HETATM   22  C   UNL     1      -6.537  19.677  68.267  1.00  0.00    -0.259 A  
ENDBRANCH  12  15
BRANCH  14  23
HETATM   23  C   UNL     1      -9.957  16.063  66.170  1.00  0.00    -0.347 A  
HETATM   24  C   UNL     1     -11.191  15.139  63.814  1.00  0.00     1.088 A  
HETATM   25  C   UNL     1     -11.038  16.507  64.031  1.00  0.00     1.055 A  
HETATM   26  C   UNL     1     -10.191  14.692  65.962  1.00  0.00    -0.326 A  
HETATM   27  C   UNL     1     -10.460  16.962  65.220  1.00  0.00    -0.081 A  
HETATM   28  C   UNL     1     -10.801  14.231  64.795  1.00  0.00    -0.420 A  
HETATM   29  O   UNL     1     -10.382  18.308  65.446  1.00  0.00    -0.509 OA 
HETATM   30  H   UNL     1     -10.723  18.917  64.802  1.00  0.00     0.000 HD 
ENDBRANCH  14  23
ENDBRANCH   7  10
TORSDOF 3
ENDMDL
MODEL      151
REMARK 921   NORMALIZED FREE ENERGY PREDICTED BY IDOCK:    4.38 KCAL/MOL
REMARK 922        TOTAL FREE ENERGY PREDICTED BY IDOCK:    3.90 KCAL/MOL
REMARK 923 INTER-LIGAND FREE ENERGY PREDICTED BY IDOCK:    3.92 KCAL/MOL
REMARK 924 INTRA-LIGAND FREE ENERGY PREDICTED BY IDOCK:   -0.02 KCAL/MOL
REMARK 927      BINDING AFFINITY PREDICTED BY RF-SCORE:    0.00 PKD
ROOT
HETATM    1  O   UNL     1     -11.618   6.844  70.539  1.00  0.00    -0.318 OA 
HETATM    2  C   UNL     1     -10.526   7.641  70.451  1.00  0.00    -0.220 C  
HETATM    3  O   UNL     1      -9.394   7.234  70.642  1.00  0.00    -0.158 OA 
HETATM    4  C   UNL     1     -10.836   9.056  70.129  1.00  0.00    -0.261 A  
HETATM    5  C   UNL     1     -11.916   9.409  69.313  1.00  0.00     0.908 A  
HETATM    6  C   UNL     1     -12.165  10.757  69.020  1.00  0.00    -0.046 A  
HETATM    7  C   UNL     1     -11.301  11.762  69.478  1.00  0.00    -0.248 A  
HETATM    8  C   UNL     1     -10.230  11.407  70.311  1.00  0.00     1.677 A  
HETATM    9  C   UNL     1      -9.993  10.059  70.625  1.00  0.00     0.063 A  
ENDROOT
BRANCH   7  10
HETATM   10  N   UNL     1     -11.474  13.136  69.110  1.00  0.00    -0.289 NA 
HETATM   11  N   UNL     1     -11.350  13.494  67.800  1.00  0.00    -0.281 NA 
HETATM   12  C   UNL     1     -11.253  14.829  67.847  1.00  0.00    -0.306 A  
HETATM   13  N   UNL     1     -11.459  15.335  69.108  1.00  0.00    -0.295 NA 
HETATM   14  C   UNL     1     -11.662  14.283  69.881  1.00  0.00    -0.311 A  
BRANCH  12  15
HETATM   15  C   UNL     1     -10.950  15.740  66.731  1.00  0.00    -0.192 A  
HETATM   16  C   UNL     1     -10.695  15.170  65.463  1.00  0.00    -0.379 A  
HETATM   17  C   UNL     1     -10.415  15.956  64.341  1.00  0.00     0.863 A  
HETATM   18  H   UNL     1     -11.156  18.725  68.067  1.00  0.00     0.000 HD 
HETATM   19  C   UNL     1     -10.383  17.338  64.460  1.00  0.00     2.455 A  
HETATM   20  O   UNL     1     -11.176  17.778  68.005  1.00  0.00    -0.066 OA 
HETATM   21  C   UNL     1     -10.636  17.932  65.697  1.00  0.00    -0.110 A  
HETATM   22  C   UNL     1     -10.920  17.140  66.823  1.00  0.00     0.170 A  
ENDBRANCH  12  15
BRANCH  14  23
HETATM   23  C   UNL     1     -11.972  14.401  71.314  1.00  0.00    -0.359 A  
HETATM   24  C   UNL     1     -12.824  14.482  73.997  1.00  0.00     0.660 A  
HETATM   25  C   UNL     1     -12.445  15.656  73.349  1.00  0.00    -0.639 A  
HETATM   26  C   UNL     1     -12.288  13.221  72.012  1.00  0.00     0.285 A  
HETATM   27  C   UNL     1     -11.985  15.606  72.030  1.00  0.00    -0.457 A  
HETATM   28  C   UNL     1     -12.712  13.259  73.341  1.00  0.00     2.335 A  
HETATM   29  O   UNL     1     -11.552  16.758  71.435  1.00  0.00    -0.557 OA 
HETATM   30  H   UNL     1     -11.561  17.574  71.920  1.00  0.00     0.000 HD 
ENDBRANCH  14  23
ENDBRANCH   7  10
TORSDOF 3
ENDMDL
MODEL      152
REMARK 921   NORMALIZED FREE ENERGY PREDICTED BY IDOCK:    4.54 KCAL/MOL
REMARK 922        TOTAL FREE ENERGY PREDICTED BY IDOCK:    4.09 KCAL/MOL
REMARK 923 INTER-LIGAND FREE ENERGY PREDICTED BY IDOCK:    5.15 KCAL/MOL
REMARK 924 INTRA-LIGAND FREE ENERGY PREDICTED BY IDOCK:   -1.05 KCAL/MOL
REMARK 927      BINDING AFFINITY PREDICTED BY RF-SCORE:    0.00 PKD
ROOT
HETATM    1  O   UNL     1     -10.719   3.315  64.886  1.00  0.00     0.286 OA 
HETATM    2  C   UNL     1     -11.518   4.396  65.049  1.00  0.00     0.863 C  
HETATM    3  O   UNL     1     -12.595   4.512  64.491  1.00  0.00     2.862 OA 
HETATM    4  C   UNL     1     -10.950   5.437  65.942  1.00  0.00     0.190 A  
HETATM    5  C   UNL     1     -10.135   5.112  67.030  1.00  0.00    -0.252 A  
HETATM    6  C   UNL     1      -9.632   6.123  67.859  1.00  0.00    -0.118 A  
HETATM    7  C   UNL     1      -9.992   7.464  67.655  1.00  0.00    -0.167 A  
HETATM    8  C   UNL     1     -10.794   7.789  66.551  1.00  0.00     0.571 A  
HETATM    9  C   UNL     1     -11.280   6.778  65.706  1.00  0.00     3.313 A  
ENDROOT
BRANCH   7  10
HETATM   10  N   UNL     1      -9.575   8.505  68.546  1.00  0.00    -0.150 NA 
HETATM   11  N   UNL     1      -8.784   9.509  68.072  1.00  0.00    -0.120 NA 
HETATM   12  C   UNL     1      -8.335  10.107  69.183  1.00  0.00    -0.154 A  
HETATM   13  N   UNL     1      -8.922   9.620  70.326  1.00  0.00    -0.241 NA 
HETATM   14  C   UNL     1      -9.744   8.667  69.922  1.00  0.00    -0.173 A  
BRANCH  12  15
HETATM   15  C   UNL     1      -7.317  11.167  69.275  1.00  0.00    -0.097 A  
HETATM   16  C   UNL     1      -7.572  12.387  68.609  1.00  0.00    -0.082 A  
HETATM   17  C   UNL     1      -6.673  13.457  68.654  1.00  0.00    -0.095 A  
HETATM   18  H   UNL     1      -4.989   9.867  71.179  1.00  0.00     0.000 HD 
HETATM   19  C   UNL     1      -5.490  13.331  69.370  1.00  0.00    -0.079 A  
HETATM   20  O   UNL     1      -5.800   9.933  70.690  1.00  0.00    -0.063 OA 
HETATM   21  C   UNL     1      -5.211  12.141  70.042  1.00  0.00    -0.089 A  
HETATM   22  C   UNL     1      -6.118  11.069  69.998  1.00  0.00    -0.128 A  
ENDBRANCH  12  15
BRANCH  14  23
HETATM   23  C   UNL     1     -10.609   7.921  70.848  1.00  0.00    -0.227 A  
HETATM   24  C   UNL     1     -12.324   6.758  72.754  1.00  0.00     0.484 A  
HETATM   25  C   UNL     1     -11.030   6.269  72.590  1.00  0.00    -0.285 A  
HETATM   26  C   UNL     1     -11.943   8.347  70.981  1.00  0.00    -0.255 A  
HETATM   27  C   UNL     1     -10.195   6.823  71.615  1.00  0.00    -0.191 A  
HETATM   28  C   UNL     1     -12.794   7.773  71.926  1.00  0.00    -0.317 A  
HETATM   29  O   UNL     1      -8.954   6.284  71.421  1.00  0.00    -0.139 OA 
HETATM   30  H   UNL     1      -8.674   5.540  71.940  1.00  0.00     0.000 HD 
ENDBRANCH  14  23
ENDBRANCH   7  10
TORSDOF 3
ENDMDL
MODEL      153
REMARK 921   NORMALIZED FREE ENERGY PREDICTED BY IDOCK:    4.64 KCAL/MOL
REMARK 922        TOTAL FREE ENERGY PREDICTED BY IDOCK:    4.20 KCAL/MOL
REMARK 923 INTER-LIGAND FREE ENERGY PREDICTED BY IDOCK:    4.00 KCAL/MOL
REMARK 924 INTRA-LIGAND FREE ENERGY PREDICTED BY IDOCK:    0.20 KCAL/MOL
REMARK 927      BINDING AFFINITY PREDICTED BY RF-SCORE:    0.00 PKD
ROOT
HETATM    1  O   UNL     1      -5.201  18.579  71.507  1.00  0.00    -0.435 OA 
HETATM    2  C   UNL     1      -5.562  19.108  70.313  1.00  0.00    -0.238 C  
HETATM    3  O   UNL     1      -5.146  20.181  69.913  1.00  0.00    -0.187 OA 
HETATM    4  C   UNL     1      -6.528  18.276  69.553  1.00  0.00    -0.201 A  
HETATM    5  C   UNL     1      -6.518  16.880  69.623  1.00  0.00    -0.181 A  
HETATM    6  C   UNL     1      -7.437  16.131  68.876  1.00  0.00    -0.197 A  
HETATM    7  C   UNL     1      -8.330  16.761  67.998  1.00  0.00    -0.200 A  
HETATM    8  C   UNL     1      -8.351  18.163  67.943  1.00  0.00    -0.254 A  
HETATM    9  C   UNL     1      -7.446  18.916  68.709  1.00  0.00    -0.360 A  
ENDROOT
BRANCH   7  10
HETATM   10  N   UNL     1      -9.210  16.016  67.148  1.00  0.00    -0.204 NA 
HETATM   11  N   UNL     1      -9.106  14.657  67.110  1.00  0.00    -0.212 NA 
HETATM   12  C   UNL     1      -9.818  14.317  66.028  1.00  0.00    -0.314 A  
HETATM   13  N   UNL     1     -10.484  15.382  65.471  1.00  0.00    -0.350 NA 
HETATM   14  C   UNL     1     -10.158  16.428  66.210  1.00  0.00    -0.331 A  
BRANCH  12  15
HETATM   15  C   UNL     1      -9.927  12.982  65.417  1.00  0.00    -0.201 A  
HETATM   16  C   UNL     1      -9.002  11.993  65.821  1.00  0.00     0.096 A  
HETATM   17  C   UNL     1      -9.038  10.693  65.308  1.00  0.00    -0.221 A  
HETATM   18  H   UNL     1     -12.505  13.238  63.410  1.00  0.00     0.000 HD 
HETATM   19  C   UNL     1     -10.005  10.348  64.374  1.00  0.00    -0.388 A  
HETATM   20  O   UNL     1     -11.846  13.493  64.046  1.00  0.00    -0.422 OA 
HETATM   21  C   UNL     1     -10.936  11.301  63.958  1.00  0.00    -0.377 A  
HETATM   22  C   UNL     1     -10.899  12.606  64.477  1.00  0.00    -0.336 A  
ENDBRANCH  12  15
BRANCH  14  23
HETATM   23  C   UNL     1     -10.708  17.770  65.970  1.00  0.00    -0.119 A  
HETATM   24  C   UNL     1     -11.497  20.410  65.384  1.00  0.00     1.321 A  
HETATM   25  C   UNL     1     -11.611  19.919  66.684  1.00  0.00     1.085 A  
HETATM   26  C   UNL     1     -10.673  18.264  64.653  1.00  0.00     2.673 A  
HETATM   27  C   UNL     1     -11.255  18.596  66.962  1.00  0.00     0.391 A  
HETATM   28  C   UNL     1     -11.062  19.572  64.361  1.00  0.00     3.871 A  
HETATM   29  O   UNL     1     -11.440  18.112  68.227  1.00  0.00     0.296 OA 
HETATM   30  H   UNL     1     -11.811  18.671  68.899  1.00  0.00     0.000 HD 
ENDBRANCH  14  23
ENDBRANCH   7  10
TORSDOF 3
ENDMDL
MODEL      154
REMARK 921   NORMALIZED FREE ENERGY PREDICTED BY IDOCK:    6.15 KCAL/MOL
REMARK 922        TOTAL FREE ENERGY PREDICTED BY IDOCK:    5.98 KCAL/MOL
REMARK 923 INTER-LIGAND FREE ENERGY PREDICTED BY IDOCK:    5.66 KCAL/MOL
REMARK 924 INTRA-LIGAND FREE ENERGY PREDICTED BY IDOCK:    0.33 KCAL/MOL
REMARK 927      BINDING AFFINITY PREDICTED BY RF-SCORE:    0.00 PKD
ROOT
HETATM    1  O   UNL     1     -11.605  11.023  73.266  1.00  0.00     6.988 OA 
HETATM    2  C   UNL     1     -12.455  10.674  72.270  1.00  0.00     0.575 C  
HETATM    3  O   UNL     1     -13.648  10.506  72.449  1.00  0.00    -0.201 OA 
HETATM    4  C   UNL     1     -11.796  10.489  70.953  1.00  0.00    -0.455 A  
HETATM    5  C   UNL     1     -10.685  11.245  70.569  1.00  0.00     1.202 A  
HETATM    6  C   UNL     1     -10.102  11.050  69.310  1.00  0.00    -0.121 A  
HETATM    7  C   UNL     1     -10.663  10.150  68.392  1.00  0.00    -0.230 A  
HETATM    8  C   UNL     1     -11.766   9.378  68.786  1.00  0.00     0.831 A  
HETATM    9  C   UNL     1     -12.337   9.556  70.057  1.00  0.00     0.412 A  
ENDROOT
BRANCH   7  10
HETATM   10  N   UNL     1     -10.149  10.004  67.062  1.00  0.00    -0.208 NA 
HETATM   11  N   UNL     1      -9.644   8.799  66.672  1.00  0.00    -0.199 NA 
HETATM   12  C   UNL     1      -8.986   9.086  65.541  1.00  0.00    -0.204 A  
HETATM   13  N   UNL     1      -9.178  10.381  65.125  1.00  0.00    -0.191 NA 
HETATM   14  C   UNL     1      -9.957  10.933  66.038  1.00  0.00    -0.240 A  
BRANCH  12  15
HETATM   15  C   UNL     1      -8.118   8.186  64.764  1.00  0.00    -0.152 A  
HETATM   16  C   UNL     1      -8.575   6.870  64.525  1.00  0.00     0.312 A  
HETATM   17  C   UNL     1      -7.827   5.951  63.783  1.00  0.00    -0.115 A  
HETATM   18  H   UNL     1      -5.527  10.045  64.007  1.00  0.00     0.000 HD 
HETATM   19  C   UNL     1      -6.598   6.327  63.259  1.00  0.00    -0.040 A  
HETATM   20  O   UNL     1      -6.367   9.803  64.378  1.00  0.00    -0.101 OA 
HETATM   21  C   UNL     1      -6.122   7.621  63.472  1.00  0.00    -0.054 A  
HETATM   22  C   UNL     1      -6.876   8.544  64.216  1.00  0.00    -0.074 A  
ENDBRANCH  12  15
BRANCH  14  23
HETATM   23  C   UNL     1     -10.442  12.318  65.935  1.00  0.00    -0.288 A  
HETATM   24  C   UNL     1     -11.089  15.056  65.808  1.00  0.00    -0.346 A  
HETATM   25  C   UNL     1     -11.842  14.197  66.606  1.00  0.00    -0.447 A  
HETATM   26  C   UNL     1      -9.745  13.191  65.080  1.00  0.00     0.036 A  
HETATM   27  C   UNL     1     -11.542  12.832  66.635  1.00  0.00    -0.370 A  
HETATM   28  C   UNL     1     -10.063  14.548  65.016  1.00  0.00    -0.325 A  
HETATM   29  O   UNL     1     -12.335  11.994  67.368  1.00  0.00    -0.340 OA 
HETATM   30  H   UNL     1     -13.081  12.343  67.843  1.00  0.00     0.000 HD 
ENDBRANCH  14  23
ENDBRANCH   7  10
TORSDOF 3
ENDMDL
MODEL      155
REMARK 921   NORMALIZED FREE ENERGY PREDICTED BY IDOCK:    9.17 KCAL/MOL
REMARK 922        TOTAL FREE ENERGY PREDICTED BY IDOCK:    9.54 KCAL/MOL
REMARK 923 INTER-LIGAND FREE ENERGY PREDICTED BY IDOCK:    8.62 KCAL/MOL
REMARK 924 INTRA-LIGAND FREE ENERGY PREDICTED BY IDOCK:    0.92 KCAL/MOL
REMARK 927      BINDING AFFINITY PREDICTED BY RF-SCORE:    0.00 PKD
ROOT
HETATM    1  O   UNL     1      -9.082   4.601  66.617  1.00  0.00    -0.114 OA 
HETATM    2  C   UNL     1      -9.663   5.653  65.991  1.00  0.00    -0.051 C  
HETATM    3  O   UNL     1     -10.067   5.598  64.843  1.00  0.00     0.840 OA 
HETATM    4  C   UNL     1      -9.736   6.882  66.820  1.00  0.00    -0.232 A  
HETATM    5  C   UNL     1      -9.902   6.830  68.207  1.00  0.00    -0.144 A  
HETATM    6  C   UNL     1      -9.982   8.015  68.951  1.00  0.00    -0.199 A  
HETATM    7  C   UNL     1      -9.968   9.265  68.314  1.00  0.00    -0.173 A  
HETATM    8  C   UNL     1      -9.782   9.315  66.924  1.00  0.00    -0.248 A  
HETATM    9  C   UNL     1      -9.678   8.128  66.180  1.00  0.00    -0.154 A  
ENDROOT
BRANCH   7  10
HETATM   10  N   UNL     1     -10.150  10.487  69.038  1.00  0.00    -0.207 NA 
HETATM   11  N   UNL     1      -9.669  11.650  68.512  1.00  0.00    -0.197 NA 
HETATM   12  C   UNL     1      -9.718  12.505  69.542  1.00  0.00     1.309 A  
HETATM   13  N   UNL     1     -10.343  11.976  70.645  1.00  0.00     3.407 NA 
HETATM   14  C   UNL     1     -10.671  10.741  70.307  1.00  0.00     0.124 A  
BRANCH  12  15
HETATM   15  C   UNL     1      -9.179  13.874  69.589  1.00  0.00     1.130 A  
HETATM   16  C   UNL     1      -9.977  14.917  69.068  1.00  0.00    -0.235 A  
HETATM   17  C   UNL     1      -9.556  16.250  69.085  1.00  0.00    -0.251 A  
HETATM   18  H   UNL     1      -6.270  13.528  71.058  1.00  0.00     0.000 HD 
HETATM   19  C   UNL     1      -8.320  16.574  69.627  1.00  0.00     0.494 A  
HETATM   20  O   UNL     1      -7.110  13.287  70.685  1.00  0.00     1.064 OA 
HETATM   21  C   UNL     1      -7.511  15.568  70.155  1.00  0.00     0.339 A  
HETATM   22  C   UNL     1      -7.937  14.229  70.139  1.00  0.00     1.140 A  
ENDBRANCH  12  15
BRANCH  14  23
HETATM   23  C   UNL     1     -11.411   9.843  71.207  1.00  0.00    -0.404 A  
HETATM   24  C   UNL     1     -12.938   7.992  72.681  1.00  0.00     0.118 A  
HETATM   25  C   UNL     1     -13.057   9.357  72.938  1.00  0.00     0.184 A  
HETATM   26  C   UNL     1     -11.254   8.458  71.019  1.00  0.00    -0.304 A  
HETATM   27  C   UNL     1     -12.268  10.269  72.231  1.00  0.00     0.639 A  
HETATM   28  C   UNL     1     -12.011   7.539  71.747  1.00  0.00    -0.334 A  
HETATM   29  O   UNL     1     -12.347  11.597  72.546  1.00  0.00     1.076 OA 
HETATM   30  H   UNL     1     -12.927  11.886  73.239  1.00  0.00     0.000 HD 
ENDBRANCH  14  23
ENDBRANCH   7  10
TORSDOF 3
ENDMDL
MODEL      156
REMARK 921   NORMALIZED FREE ENERGY PREDICTED BY IDOCK:   10.31 KCAL/MOL
REMARK 922        TOTAL FREE ENERGY PREDICTED BY IDOCK:   10.87 KCAL/MOL
REMARK 923 INTER-LIGAND FREE ENERGY PREDICTED BY IDOCK:   11.18 KCAL/MOL
REMARK 924 INTRA-LIGAND FREE ENERGY PREDICTED BY IDOCK:   -0.31 KCAL/MOL
REMARK 927      BINDING AFFINITY PREDICTED BY RF-SCORE:    0.00 PKD
ROOT
HETATM    1  O   UNL     1     -12.073  17.014  74.506  1.00  0.00    -0.554 OA 
HETATM    2  C   UNL     1     -12.565  16.348  73.434  1.00  0.00    -0.386 C  
HETATM    3  O   UNL     1     -13.520  15.594  73.506  1.00  0.00    -0.423 OA 
HETATM    4  C   UNL     1     -11.821  16.597  72.174  1.00  0.00    -0.169 A  
HETATM    5  C   UNL     1     -11.220  17.830  71.902  1.00  0.00     2.432 A  
HETATM    6  C   UNL     1     -10.540  18.030  70.694  1.00  0.00     1.987 A  
HETATM    7  C   UNL     1     -10.511  17.028  69.713  1.00  0.00    -0.011 A  
HETATM    8  C   UNL     1     -11.098  15.785  69.996  1.00  0.00    -0.348 A  
HETATM    9  C   UNL     1     -11.760  15.576  71.217  1.00  0.00    -0.457 A  
ENDROOT
BRANCH   7  10
HETATM   10  N   UNL     1      -9.911  17.241  68.429  1.00  0.00    -0.293 NA 
HETATM   11  N   UNL     1      -9.793  18.513  67.953  1.00  0.00    -0.311 NA 
HETATM   12  C   UNL     1      -9.502  18.337  66.657  1.00  0.00    -0.308 A  
HETATM   13  N   UNL     1      -9.287  17.019  66.332  1.00  0.00    -0.265 NA 
HETATM   14  C   UNL     1      -9.477  16.344  67.452  1.00  0.00    -0.227 A  
BRANCH  12  15
HETATM   15  C   UNL     1      -9.414  19.374  65.616  1.00  0.00     0.331 A  
HETATM   16  C   UNL     1     -10.605  19.751  64.957  1.00  0.00     0.694 A  
HETATM   17  C   UNL     1     -10.622  20.738  63.966  1.00  0.00     4.045 A  
HETATM   18  H   UNL     1      -6.244  20.204  65.591  1.00  0.00     0.000 HD 
HETATM   19  C   UNL     1      -9.441  21.376  63.610  1.00  0.00     4.330 A  
HETATM   20  O   UNL     1      -7.041  19.753  65.844  1.00  0.00    -0.265 OA 
HETATM   21  C   UNL     1      -8.250  21.030  64.246  1.00  0.00     2.200 A  
HETATM   22  C   UNL     1      -8.235  20.039  65.243  1.00  0.00     0.689 A  
ENDBRANCH  12  15
BRANCH  14  23
HETATM   23  C   UNL     1      -9.292  14.888  67.540  1.00  0.00    -0.193 A  
HETATM   24  C   UNL     1      -9.083  12.113  67.975  1.00  0.00    -0.190 A  
HETATM   25  C   UNL     1      -7.944  12.863  67.691  1.00  0.00    -0.167 A  
HETATM   26  C   UNL     1     -10.436  14.097  67.754  1.00  0.00    -0.246 A  
HETATM   27  C   UNL     1      -8.057  14.233  67.437  1.00  0.00    -0.196 A  
HETATM   28  C   UNL     1     -10.335  12.723  67.971  1.00  0.00    -0.232 A  
HETATM   29  O   UNL     1      -6.939  14.938  67.091  1.00  0.00    -0.286 OA 
HETATM   30  H   UNL     1      -6.102  14.495  67.021  1.00  0.00     0.000 HD 
ENDBRANCH  14  23
ENDBRANCH   7  10
TORSDOF 3
ENDMDL
MODEL      157
REMARK 921   NORMALIZED FREE ENERGY PREDICTED BY IDOCK:   10.78 KCAL/MOL
REMARK 922        TOTAL FREE ENERGY PREDICTED BY IDOCK:   11.43 KCAL/MOL
REMARK 923 INTER-LIGAND FREE ENERGY PREDICTED BY IDOCK:    5.04 KCAL/MOL
REMARK 924 INTRA-LIGAND FREE ENERGY PREDICTED BY IDOCK:    6.39 KCAL/MOL
REMARK 927      BINDING AFFINITY PREDICTED BY RF-SCORE:    0.00 PKD
ROOT
HETATM    1  O   UNL     1      -8.411   2.621  70.570  1.00  0.00    -0.048 OA 
HETATM    2  C   UNL     1      -7.428   3.516  70.831  1.00  0.00    -0.037 C  
HETATM    3  O   UNL     1      -6.477   3.261  71.548  1.00  0.00    -0.017 OA 
HETATM    4  C   UNL     1      -7.629   4.838  70.187  1.00  0.00    -0.055 A  
HETATM    5  C   UNL     1      -8.257   4.968  68.945  1.00  0.00    -0.084 A  
HETATM    6  C   UNL     1      -8.413   6.233  68.364  1.00  0.00    -0.115 A  
HETATM    7  C   UNL     1      -7.883   7.376  68.980  1.00  0.00    -0.120 A  
HETATM    8  C   UNL     1      -7.269   7.245  70.236  1.00  0.00    -0.067 A  
HETATM    9  C   UNL     1      -7.133   5.980  70.830  1.00  0.00    -0.068 A  
ENDROOT
BRANCH   7  10
HETATM   10  N   UNL     1      -7.938   8.666  68.361  1.00  0.00    -0.112 NA 
HETATM   11  N   UNL     1      -7.755   9.780  69.127  1.00  0.00    -0.086 NA 
HETATM   12  C   UNL     1      -8.172  10.777  68.336  1.00  0.00    -0.129 A  
HETATM   13  N   UNL     1      -8.468  10.359  67.061  1.00  0.00    -0.126 NA 
HETATM   14  C   UNL     1      -8.258   9.054  67.060  1.00  0.00    -0.109 A  
BRANCH  12  15
HETATM   15  C   UNL     1      -8.341  12.193  68.702  1.00  0.00    -0.016 A  
HETATM   16  C   UNL     1      -9.028  13.032  67.795  1.00  0.00    -0.191 A  
HETATM   17  C   UNL     1      -9.251  14.386  68.065  1.00  0.00    -0.193 A  
HETATM   18  H   UNL     1      -6.937  12.421  71.654  1.00  0.00     0.000 HD 
HETATM   19  C   UNL     1      -8.791  14.936  69.253  1.00  0.00    -0.095 A  
HETATM   20  O   UNL     1      -7.239  12.029  70.843  1.00  0.00     2.246 OA 
HETATM   21  C   UNL     1      -8.115  14.133  70.171  1.00  0.00     1.430 A  
HETATM   22  C   UNL     1      -7.893  12.772  69.900  1.00  0.00     1.943 A  
ENDBRANCH  12  15
BRANCH  14  23
HETATM   23  C   UNL     1      -8.417   8.227  65.854  1.00  0.00    -0.151 A  
HETATM   24  C   UNL     1      -8.892   6.867  63.434  1.00  0.00     0.934 A  
HETATM   25  C   UNL     1      -9.156   6.240  64.651  1.00  0.00     0.679 A  
HETATM   26  C   UNL     1      -8.089   8.809  64.616  1.00  0.00    -0.157 A  
HETATM   27  C   UNL     1      -8.882   6.905  65.850  1.00  0.00    -0.105 A  
HETATM   28  C   UNL     1      -8.324   8.137  63.416  1.00  0.00     0.010 A  
HETATM   29  O   UNL     1      -9.081   6.249  67.032  1.00  0.00    -0.119 OA 
HETATM   30  H   UNL     1      -9.396   5.353  67.030  1.00  0.00     0.000 HD 
ENDBRANCH  14  23
ENDBRANCH   7  10
TORSDOF 3
ENDMDL
MODEL      158
REMARK 921   NORMALIZED FREE ENERGY PREDICTED BY IDOCK:   11.41 KCAL/MOL
REMARK 922        TOTAL FREE ENERGY PREDICTED BY IDOCK:   12.17 KCAL/MOL
REMARK 923 INTER-LIGAND FREE ENERGY PREDICTED BY IDOCK:   13.19 KCAL/MOL
REMARK 924 INTRA-LIGAND FREE ENERGY PREDICTED BY IDOCK:   -1.02 KCAL/MOL
REMARK 927      BINDING AFFINITY PREDICTED BY RF-SCORE:    0.00 PKD
ROOT
HETATM    1  O   UNL     1      -5.213  20.428  71.205  1.00  0.00    -0.243 OA 
HETATM    2  C   UNL     1      -6.565  20.450  71.281  1.00  0.00     0.334 C  
HETATM    3  O   UNL     1      -7.175  21.261  71.954  1.00  0.00     2.211 OA 
HETATM    4  C   UNL     1      -7.231  19.383  70.494  1.00  0.00     0.839 A  
HETATM    5  C   UNL     1      -6.695  18.905  69.294  1.00  0.00    -0.310 A  
HETATM    6  C   UNL     1      -7.364  17.908  68.572  1.00  0.00    -0.268 A  
HETATM    7  C   UNL     1      -8.608  17.423  69.002  1.00  0.00    -0.053 A  
HETATM    8  C   UNL     1      -9.134  17.890  70.216  1.00  0.00     2.853 A  
HETATM    9  C   UNL     1      -8.454  18.874  70.952  1.00  0.00     4.341 A  
ENDROOT
BRANCH   7  10
HETATM   10  N   UNL     1      -9.361  16.478  68.232  1.00  0.00    -0.212 NA 
HETATM   11  N   UNL     1      -9.366  15.167  68.609  1.00  0.00    -0.192 NA 
HETATM   12  C   UNL     1      -9.875  14.536  67.543  1.00  0.00    -0.222 A  
HETATM   13  N   UNL     1     -10.325  15.401  66.575  1.00  0.00    -0.280 NA 
HETATM   14  C   UNL     1     -10.065  16.612  67.035  1.00  0.00    -0.281 A  
BRANCH  12  15
HETATM   15  C   UNL     1      -9.972  13.082  67.331  1.00  0.00    -0.228 A  
HETATM   16  C   UNL     1      -9.287  12.529  66.226  1.00  0.00    -0.177 A  
HETATM   17  C   UNL     1      -9.307  11.158  65.954  1.00  0.00    -0.235 A  
HETATM   18  H   UNL     1     -11.822  12.040  69.826  1.00  0.00     0.000 HD 
HETATM   19  C   UNL     1     -10.016  10.302  66.786  1.00  0.00    -0.261 A  
HETATM   20  O   UNL     1     -11.347  12.641  69.264  1.00  0.00    -0.260 OA 
HETATM   21  C   UNL     1     -10.698  10.817  67.888  1.00  0.00    -0.282 A  
HETATM   22  C   UNL     1     -10.674  12.195  68.161  1.00  0.00    -0.211 A  
ENDBRANCH  12  15
BRANCH  14  23
HETATM   23  C   UNL     1     -10.442  17.834  66.308  1.00  0.00    -0.307 A  
HETATM   24  C   UNL     1     -11.391  20.202  65.114  1.00  0.00     0.931 A  
HETATM   25  C   UNL     1     -11.195  19.059  64.340  1.00  0.00     4.492 A  
HETATM   26  C   UNL     1     -10.576  19.020  67.052  1.00  0.00    -0.543 A  
HETATM   27  C   UNL     1     -10.687  17.898  64.929  1.00  0.00     1.180 A  
HETATM   28  C   UNL     1     -11.047  20.194  66.463  1.00  0.00     0.342 A  
HETATM   29  O   UNL     1     -10.436  16.810  64.141  1.00  0.00     0.234 OA 
HETATM   30  H   UNL     1     -10.602  16.853  63.207  1.00  0.00     0.000 HD 
ENDBRANCH  14  23
ENDBRANCH   7  10
TORSDOF 3
ENDMDL
MODEL      159
REMARK 921   NORMALIZED FREE ENERGY PREDICTED BY IDOCK:   11.67 KCAL/MOL
REMARK 922        TOTAL FREE ENERGY PREDICTED BY IDOCK:   12.47 KCAL/MOL
REMARK 923 INTER-LIGAND FREE ENERGY PREDICTED BY IDOCK:   13.57 KCAL/MOL
REMARK 924 INTRA-LIGAND FREE ENERGY PREDICTED BY IDOCK:   -1.10 KCAL/MOL
REMARK 927      BINDING AFFINITY PREDICTED BY RF-SCORE:    0.00 PKD
ROOT
HETATM    1  O   UNL     1     -13.354  14.807  74.289  1.00  0.00     0.769 OA 
HETATM    2  C   UNL     1     -12.435  14.036  73.659  1.00  0.00     0.986 C  
HETATM    3  O   UNL     1     -11.878  13.097  74.200  1.00  0.00     5.212 OA 
HETATM    4  C   UNL     1     -12.150  14.456  72.264  1.00  0.00    -0.133 A  
HETATM    5  C   UNL     1     -13.132  15.023  71.448  1.00  0.00    -0.464 A  
HETATM    6  C   UNL     1     -12.826  15.391  70.131  1.00  0.00    -0.196 A  
HETATM    7  C   UNL     1     -11.558  15.134  69.590  1.00  0.00    -0.311 A  
HETATM    8  C   UNL     1     -10.568  14.581  70.418  1.00  0.00     0.377 A  
HETATM    9  C   UNL     1     -10.867  14.233  71.745  1.00  0.00     2.297 A  
ENDROOT
BRANCH   7  10
HETATM   10  N   UNL     1     -11.248  15.406  68.218  1.00  0.00    -0.308 NA 
HETATM   11  N   UNL     1     -11.888  14.703  67.240  1.00  0.00    -0.389 NA 
HETATM   12  C   UNL     1     -11.166  14.963  66.143  1.00  0.00    -0.325 A  
HETATM   13  N   UNL     1     -10.193  15.911  66.356  1.00  0.00    -0.287 NA 
HETATM   14  C   UNL     1     -10.289  16.234  67.633  1.00  0.00    -0.284 A  
BRANCH  12  15
HETATM   15  C   UNL     1     -11.310  14.346  64.814  1.00  0.00    -0.388 A  
HETATM   16  C   UNL     1     -11.165  12.943  64.718  1.00  0.00    -0.336 A  
HETATM   17  C   UNL     1     -11.301  12.267  63.502  1.00  0.00    -0.549 A  
HETATM   18  H   UNL     1     -11.989  16.869  62.837  1.00  0.00     0.000 HD 
HETATM   19  C   UNL     1     -11.589  12.980  62.346  1.00  0.00     3.367 A  
HETATM   20  O   UNL     1     -11.787  16.398  63.637  1.00  0.00    -0.871 OA 
HETATM   21  C   UNL     1     -11.744  14.365  62.409  1.00  0.00     5.126 A  
HETATM   22  C   UNL     1     -11.608  15.043  63.633  1.00  0.00     0.977 A  
ENDBRANCH  12  15
BRANCH  14  23
HETATM   23  C   UNL     1      -9.445  17.265  68.256  1.00  0.00    -0.283 A  
HETATM   24  C   UNL     1      -8.032  19.442  69.349  1.00  0.00    -0.013 A  
HETATM   25  C   UNL     1      -7.384  18.542  68.504  1.00  0.00    -0.314 A  
HETATM   26  C   UNL     1     -10.056  18.144  69.169  1.00  0.00    -0.194 A  
HETATM   27  C   UNL     1      -8.079  17.441  67.995  1.00  0.00    -0.227 A  
HETATM   28  C   UNL     1      -9.357  19.223  69.711  1.00  0.00     0.466 A  
HETATM   29  O   UNL     1      -7.409  16.532  67.226  1.00  0.00    -0.136 OA 
HETATM   30  H   UNL     1      -6.484  16.651  67.049  1.00  0.00     0.000 HD 
ENDBRANCH  14  23
ENDBRANCH   7  10
TORSDOF 3
ENDMDL
MODEL      160
REMARK 921   NORMALIZED FREE ENERGY PREDICTED BY IDOCK:   12.00 KCAL/MOL
REMARK 922        TOTAL FREE ENERGY PREDICTED BY IDOCK:   12.86 KCAL/MOL
REMARK 923 INTER-LIGAND FREE ENERGY PREDICTED BY IDOCK:   13.46 KCAL/MOL
REMARK 924 INTRA-LIGAND FREE ENERGY PREDICTED BY IDOCK:   -0.60 KCAL/MOL
REMARK 927      BINDING AFFINITY PREDICTED BY RF-SCORE:    0.00 PKD
ROOT
HETATM    1  O   UNL     1      -7.089  17.723  66.665  1.00  0.00    -0.187 OA 
HETATM    2  C   UNL     1      -6.505  16.527  66.419  1.00  0.00     0.382 C  
HETATM    3  O   UNL     1      -5.595  16.387  65.620  1.00  0.00     1.533 OA 
HETATM    4  C   UNL     1      -7.091  15.399  67.186  1.00  0.00    -0.135 A  
HETATM    5  C   UNL     1      -7.608  15.572  68.474  1.00  0.00    -0.127 A  
HETATM    6  C   UNL     1      -8.138  14.478  69.172  1.00  0.00    -0.032 A  
HETATM    7  C   UNL     1      -8.095  13.188  68.623  1.00  0.00    -0.014 A  
HETATM    8  C   UNL     1      -7.593  13.021  67.323  1.00  0.00    -0.097 A  
HETATM    9  C   UNL     1      -7.082  14.121  66.614  1.00  0.00     1.741 A  
ENDROOT
BRANCH   7  10
HETATM   10  N   UNL     1      -8.536  12.038  69.354  1.00  0.00     0.780 NA 
HETATM   11  N   UNL     1      -7.664  11.409  70.193  1.00  0.00     0.910 NA 
HETATM   12  C   UNL     1      -8.268  10.242  70.456  1.00  0.00     0.845 A  
HETATM   13  N   UNL     1      -9.540  10.171  69.941  1.00  0.00    -0.186 NA 
HETATM   14  C   UNL     1      -9.730  11.317  69.311  1.00  0.00     0.137 A  
BRANCH  12  15
HETATM   15  C   UNL     1      -7.709   9.096  71.192  1.00  0.00    -0.116 A  
HETATM   16  C   UNL     1      -6.349   9.154  71.571  1.00  0.00    -0.060 A  
HETATM   17  C   UNL     1      -5.736   8.122  72.287  1.00  0.00    -0.040 A  
HETATM   18  H   UNL     1     -10.250   7.053  71.524  1.00  0.00     0.000 HD 
HETATM   19  C   UNL     1      -6.472   7.000  72.644  1.00  0.00    -0.053 A  
HETATM   20  O   UNL     1      -9.760   7.825  71.267  1.00  0.00    -0.157 OA 
HETATM   21  C   UNL     1      -7.819   6.916  72.290  1.00  0.00    -0.093 A  
HETATM   22  C   UNL     1      -8.434   7.956  71.572  1.00  0.00    -0.114 A  
ENDBRANCH  12  15
BRANCH  14  23
HETATM   23  C   UNL     1     -11.002  11.661  68.658  1.00  0.00    -0.266 A  
HETATM   24  C   UNL     1     -13.273  12.404  67.167  1.00  0.00     4.870 A  
HETATM   25  C   UNL     1     -13.076  12.923  68.445  1.00  0.00     3.007 A  
HETATM   26  C   UNL     1     -11.261  11.094  67.397  1.00  0.00    -0.363 A  
HETATM   27  C   UNL     1     -11.969  12.521  69.197  1.00  0.00    -0.236 A  
HETATM   28  C   UNL     1     -12.385  11.462  66.656  1.00  0.00     2.050 A  
HETATM   29  O   UNL     1     -11.830  12.987  70.475  1.00  0.00    -0.518 OA 
HETATM   30  H   UNL     1     -12.485  13.570  70.840  1.00  0.00     0.000 HD 
ENDBRANCH  14  23
ENDBRANCH   7  10
TORSDOF 3
ENDMDL
MODEL      161
REMARK 921   NORMALIZED FREE ENERGY PREDICTED BY IDOCK:   12.18 KCAL/MOL
REMARK 922        TOTAL FREE ENERGY PREDICTED BY IDOCK:   13.08 KCAL/MOL
REMARK 923 INTER-LIGAND FREE ENERGY PREDICTED BY IDOCK:   13.85 KCAL/MOL
REMARK 924 INTRA-LIGAND FREE ENERGY PREDICTED BY IDOCK:   -0.78 KCAL/MOL
REMARK 927      BINDING AFFINITY PREDICTED BY RF-SCORE:    0.00 PKD
ROOT
HETATM    1  O   UNL     1      -7.804   7.084  70.652  1.00  0.00    -0.094 OA 
HETATM    2  C   UNL     1      -8.223   8.084  71.464  1.00  0.00    -0.115 C  
HETATM    3  O   UNL     1      -8.570   7.898  72.617  1.00  0.00    -0.124 OA 
HETATM    4  C   UNL     1      -8.246   9.419  70.814  1.00  0.00    -0.173 A  
HETATM    5  C   UNL     1      -7.320   9.779  69.831  1.00  0.00    -0.134 A  
HETATM    6  C   UNL     1      -7.366  11.055  69.254  1.00  0.00    -0.113 A  
HETATM    7  C   UNL     1      -8.292  12.010  69.699  1.00  0.00     1.508 A  
HETATM    8  C   UNL     1      -9.233  11.640  70.672  1.00  0.00     5.777 A  
HETATM    9  C   UNL     1      -9.202  10.354  71.235  1.00  0.00     3.399 A  
ENDROOT
BRANCH   7  10
HETATM   10  N   UNL     1      -8.297  13.353  69.199  1.00  0.00     0.374 NA 
HETATM   11  N   UNL     1      -7.417  14.258  69.716  1.00  0.00     0.154 NA 
HETATM   12  C   UNL     1      -7.885  15.434  69.280  1.00  0.00    -0.225 A  
HETATM   13  N   UNL     1      -8.927  15.300  68.394  1.00  0.00    -0.178 NA 
HETATM   14  C   UNL     1      -9.139  13.999  68.294  1.00  0.00    -0.191 A  
BRANCH  12  15
HETATM   15  C   UNL     1      -7.412  16.776  69.658  1.00  0.00     0.326 A  
HETATM   16  C   UNL     1      -8.335  17.653  70.273  1.00  0.00     3.122 A  
HETATM   17  C   UNL     1      -7.974  18.940  70.682  1.00  0.00     2.967 A  
HETATM   18  H   UNL     1      -4.252  16.777  68.792  1.00  0.00     0.000 HD 
HETATM   19  C   UNL     1      -6.673  19.384  70.486  1.00  0.00     0.301 A  
HETATM   20  O   UNL     1      -5.139  16.459  68.913  1.00  0.00    -0.107 OA 
HETATM   21  C   UNL     1      -5.737  18.541  69.887  1.00  0.00    -0.249 A  
HETATM   22  C   UNL     1      -6.102  17.246  69.479  1.00  0.00    -0.247 A  
ENDBRANCH  12  15
BRANCH  14  23
HETATM   23  C   UNL     1     -10.153  13.429  67.394  1.00  0.00    -0.237 A  
HETATM   24  C   UNL     1     -11.866  12.203  65.525  1.00  0.00    -0.350 A  
HETATM   25  C   UNL     1     -11.932  13.579  65.735  1.00  0.00    -0.439 A  
HETATM   26  C   UNL     1     -10.158  12.033  67.219  1.00  0.00    -0.208 A  
HETATM   27  C   UNL     1     -11.107  14.178  66.691  1.00  0.00    -0.312 A  
HETATM   28  C   UNL     1     -11.006  11.424  66.293  1.00  0.00    -0.303 A  
HETATM   29  O   UNL     1     -11.235  15.517  66.932  1.00  0.00    -0.276 OA 
HETATM   30  H   UNL     1     -11.882  16.024  66.456  1.00  0.00     0.000 HD 
ENDBRANCH  14  23
ENDBRANCH   7  10
TORSDOF 3
ENDMDL
MODEL      162
REMARK 921   NORMALIZED FREE ENERGY PREDICTED BY IDOCK:   13.55 KCAL/MOL
REMARK 922        TOTAL FREE ENERGY PREDICTED BY IDOCK:   14.69 KCAL/MOL
REMARK 923 INTER-LIGAND FREE ENERGY PREDICTED BY IDOCK:   15.10 KCAL/MOL
REMARK 924 INTRA-LIGAND FREE ENERGY PREDICTED BY IDOCK:   -0.41 KCAL/MOL
REMARK 927      BINDING AFFINITY PREDICTED BY RF-SCORE:    0.00 PKD
ROOT
HETATM    1  O   UNL     1     -11.231   8.211  71.807  1.00  0.00    -0.248 OA 
HETATM    2  C   UNL     1      -9.904   8.465  71.887  1.00  0.00    -0.258 C  
HETATM    3  O   UNL     1      -9.130   7.751  72.500  1.00  0.00    -0.142 OA 
HETATM    4  C   UNL     1      -9.483   9.703  71.185  1.00  0.00     0.190 A  
HETATM    5  C   UNL     1     -10.120  10.146  70.021  1.00  0.00    -0.241 A  
HETATM    6  C   UNL     1      -9.682  11.312  69.379  1.00  0.00     0.238 A  
HETATM    7  C   UNL     1      -8.560  12.011  69.849  1.00  0.00     2.548 A  
HETATM    8  C   UNL     1      -7.935  11.576  71.028  1.00  0.00     6.315 A  
HETATM    9  C   UNL     1      -8.388  10.420  71.685  1.00  0.00     4.739 A  
ENDROOT
BRANCH   7  10
HETATM   10  N   UNL     1      -8.029  13.147  69.156  1.00  0.00     0.303 NA 
HETATM   11  N   UNL     1      -7.330  14.086  69.855  1.00  0.00     0.306 NA 
HETATM   12  C   UNL     1      -7.260  15.121  69.008  1.00  0.00    -0.149 A  
HETATM   13  N   UNL     1      -7.753  14.823  67.760  1.00  0.00    -0.141 NA 
HETATM   14  C   UNL     1      -8.170  13.572  67.834  1.00  0.00    -0.168 A  
BRANCH  12  15
HETATM   15  C   UNL     1      -6.744  16.470  69.291  1.00  0.00    -0.218 A  
HETATM   16  C   UNL     1      -6.691  16.888  70.640  1.00  0.00     1.736 A  
HETATM   17  C   UNL     1      -6.201  18.145  71.007  1.00  0.00     1.190 A  
HETATM   18  H   UNL     1      -5.949  17.650  66.339  1.00  0.00     0.000 HD 
HETATM   19  C   UNL     1      -5.749  19.019  70.028  1.00  0.00    -0.263 A  
HETATM   20  O   UNL     1      -6.268  17.041  66.995  1.00  0.00    -0.153 OA 
HETATM   21  C   UNL     1      -5.783  18.635  68.688  1.00  0.00    -0.199 A  
HETATM   22  C   UNL     1      -6.274  17.370  68.321  1.00  0.00    -0.162 A  
ENDBRANCH  12  15
BRANCH  14  23
HETATM   23  C   UNL     1      -8.728  12.853  66.679  1.00  0.00    -0.046 A  
HETATM   24  C   UNL     1     -10.000  11.359  64.658  1.00  0.00    -0.315 A  
HETATM   25  C   UNL     1      -8.624  11.241  64.854  1.00  0.00     0.258 A  
HETATM   26  C   UNL     1     -10.100  13.010  66.413  1.00  0.00    -0.279 A  
HETATM   27  C   UNL     1      -7.992  12.014  65.831  1.00  0.00     0.795 A  
HETATM   28  C   UNL     1     -10.733  12.270  65.413  1.00  0.00    -0.320 A  
HETATM   29  O   UNL     1      -6.633  11.936  65.961  1.00  0.00    -0.219 OA 
HETATM   30  H   UNL     1      -6.134  11.368  65.386  1.00  0.00     0.000 HD 
ENDBRANCH  14  23
ENDBRANCH   7  10
TORSDOF 3
ENDMDL
MODEL      163
REMARK 921   NORMALIZED FREE ENERGY PREDICTED BY IDOCK:   15.71 KCAL/MOL
REMARK 922        TOTAL FREE ENERGY PREDICTED BY IDOCK:   17.22 KCAL/MOL
REMARK 923 INTER-LIGAND FREE ENERGY PREDICTED BY IDOCK:   17.41 KCAL/MOL
REMARK 924 INTRA-LIGAND FREE ENERGY PREDICTED BY IDOCK:   -0.19 KCAL/MOL
REMARK 927      BINDING AFFINITY PREDICTED BY RF-SCORE:    0.00 PKD
ROOT
HETATM    1  O   UNL     1      -5.920  20.326  68.022  1.00  0.00    -0.220 OA 
HETATM    2  C   UNL     1      -6.864  20.058  68.955  1.00  0.00    -0.267 C  
HETATM    3  O   UNL     1      -7.418  20.929  69.603  1.00  0.00     1.115 OA 
HETATM    4  C   UNL     1      -7.142  18.612  69.136  1.00  0.00    -0.251 A  
HETATM    5  C   UNL     1      -7.059  17.705  68.074  1.00  0.00    -0.200 A  
HETATM    6  C   UNL     1      -7.345  16.349  68.283  1.00  0.00    -0.158 A  
HETATM    7  C   UNL     1      -7.783  15.893  69.535  1.00  0.00    -0.125 A  
HETATM    8  C   UNL     1      -7.846  16.801  70.603  1.00  0.00     3.736 A  
HETATM    9  C   UNL     1      -7.538  18.156  70.400  1.00  0.00     2.629 A  
ENDROOT
BRANCH   7  10
HETATM   10  N   UNL     1      -8.179  14.533  69.750  1.00  0.00     0.316 NA 
HETATM   11  N   UNL     1      -7.293  13.532  69.480  1.00  0.00     0.251 NA 
HETATM   12  C   UNL     1      -8.054  12.430  69.482  1.00  0.00     1.181 A  
HETATM   13  N   UNL     1      -9.345  12.674  69.884  1.00  0.00     2.513 NA 
HETATM   14  C   UNL     1      -9.404  13.973  70.115  1.00  0.00     2.147 A  
BRANCH  12  15
HETATM   15  C   UNL     1      -7.650  11.068  69.097  1.00  0.00    -0.113 A  
HETATM   16  C   UNL     1      -7.686  10.730  67.726  1.00  0.00    -0.104 A  
HETATM   17  C   UNL     1      -7.304   9.466  67.264  1.00  0.00    -0.087 A  
HETATM   18  H   UNL     1      -6.814   9.659  71.936  1.00  0.00     0.000 HD 
HETATM   19  C   UNL     1      -6.874   8.505  68.169  1.00  0.00    -0.069 A  
HETATM   20  O   UNL     1      -7.116  10.327  71.332  1.00  0.00     0.282 OA 
HETATM   21  C   UNL     1      -6.822   8.809  69.529  1.00  0.00    -0.048 A  
HETATM   22  C   UNL     1      -7.204  10.081  69.990  1.00  0.00    -0.156 A  
ENDBRANCH  12  15
BRANCH  14  23
HETATM   23  C   UNL     1     -10.617  14.635  70.617  1.00  0.00     0.420 A  
HETATM   24  C   UNL     1     -12.988  15.995  71.295  1.00  0.00     0.055 A  
HETATM   25  C   UNL     1     -11.809  16.259  71.989  1.00  0.00    -0.568 A  
HETATM   26  C   UNL     1     -11.835  14.332  69.983  1.00  0.00    -0.378 A  
HETATM   27  C   UNL     1     -10.644  15.554  71.676  1.00  0.00     0.676 A  
HETATM   28  C   UNL     1     -13.011  15.006  70.316  1.00  0.00    -0.206 A  
HETATM   29  O   UNL     1      -9.516  15.777  72.414  1.00  0.00     5.034 OA 
HETATM   30  H   UNL     1      -9.534  16.399  73.131  1.00  0.00     0.000 HD 
ENDBRANCH  14  23
ENDBRANCH   7  10
TORSDOF 3
ENDMDL
MODEL      164
REMARK 921   NORMALIZED FREE ENERGY PREDICTED BY IDOCK:   16.80 KCAL/MOL
REMARK 922        TOTAL FREE ENERGY PREDICTED BY IDOCK:   18.50 KCAL/MOL
REMARK 923 INTER-LIGAND FREE ENERGY PREDICTED BY IDOCK:   19.16 KCAL/MOL
REMARK 924 INTRA-LIGAND FREE ENERGY PREDICTED BY IDOCK:   -0.65 KCAL/MOL
REMARK 927      BINDING AFFINITY PREDICTED BY RF-SCORE:    0.00 PKD
ROOT
HETATM    1  O   UNL     1     -10.510  21.228  71.188  1.00  0.00     3.010 OA 
HETATM    2  C   UNL     1     -11.270  20.383  70.451  1.00  0.00     3.726 C  
HETATM    3  O   UNL     1     -12.481  20.489  70.365  1.00  0.00     7.532 OA 
HETATM    4  C   UNL     1     -10.500  19.304  69.784  1.00  0.00     0.808 A  
HETATM    5  C   UNL     1      -9.193  19.502  69.328  1.00  0.00    -0.097 A  
HETATM    6  C   UNL     1      -8.506  18.463  68.688  1.00  0.00    -0.318 A  
HETATM    7  C   UNL     1      -9.137  17.236  68.433  1.00  0.00    -0.265 A  
HETATM    8  C   UNL     1     -10.442  17.033  68.907  1.00  0.00    -0.347 A  
HETATM    9  C   UNL     1     -11.123  18.068  69.570  1.00  0.00     1.646 A  
ENDROOT
BRANCH   7  10
HETATM   10  N   UNL     1      -8.494  16.192  67.692  1.00  0.00    -0.166 NA 
HETATM   11  N   UNL     1      -8.607  14.904  68.123  1.00  0.00    -0.154 NA 
HETATM   12  C   UNL     1      -7.666  14.255  67.424  1.00  0.00    -0.173 A  
HETATM   13  N   UNL     1      -7.070  15.044  66.471  1.00  0.00     0.716 NA 
HETATM   14  C   UNL     1      -7.633  16.233  66.594  1.00  0.00    -0.232 A  
BRANCH  12  15
HETATM   15  C   UNL     1      -7.236  12.857  67.594  1.00  0.00    -0.147 A  
HETATM   16  C   UNL     1      -5.956  12.622  68.144  1.00  0.00    -0.081 A  
HETATM   17  C   UNL     1      -5.468  11.329  68.357  1.00  0.00    -0.042 A  
HETATM   18  H   UNL     1      -9.799  11.107  66.543  1.00  0.00     0.000 HD 
HETATM   19  C   UNL     1      -6.255  10.234  68.025  1.00  0.00    -0.056 A  
HETATM   20  O   UNL     1      -9.273  11.868  66.758  1.00  0.00    -0.183 OA 
HETATM   21  C   UNL     1      -7.525  10.433  67.486  1.00  0.00    -0.093 A  
HETATM   22  C   UNL     1      -8.014  11.733  67.274  1.00  0.00    -0.161 A  
ENDBRANCH  12  15
BRANCH  14  23
HETATM   23  C   UNL     1      -7.302  17.362  65.711  1.00  0.00     0.055 A  
HETATM   24  C   UNL     1      -6.449  19.593  64.219  1.00  0.00     0.144 A  
HETATM   25  C   UNL     1      -7.788  19.470  64.589  1.00  0.00     2.304 A  
HETATM   26  C   UNL     1      -5.974  17.471  65.262  1.00  0.00     0.621 A  
HETATM   27  C   UNL     1      -8.214  18.342  65.295  1.00  0.00     1.667 A  
HETATM   28  C   UNL     1      -5.549  18.576  64.523  1.00  0.00    -0.140 A  
HETATM   29  O   UNL     1      -9.542  18.206  65.588  1.00  0.00    -0.419 OA 
HETATM   30  H   UNL     1     -10.160  18.870  65.306  1.00  0.00     0.000 HD 
ENDBRANCH  14  23
ENDBRANCH   7  10
TORSDOF 3
ENDMDL
MODEL      165
REMARK 921   NORMALIZED FREE ENERGY PREDICTED BY IDOCK:   20.08 KCAL/MOL
REMARK 922        TOTAL FREE ENERGY PREDICTED BY IDOCK:   22.36 KCAL/MOL
REMARK 923 INTER-LIGAND FREE ENERGY PREDICTED BY IDOCK:   20.52 KCAL/MOL
REMARK 924 INTRA-LIGAND FREE ENERGY PREDICTED BY IDOCK:    1.84 KCAL/MOL
REMARK 927      BINDING AFFINITY PREDICTED BY RF-SCORE:    0.00 PKD
ROOT
HETATM    1  O   UNL     1      -9.228  13.697  63.679  1.00  0.00     2.845 OA 
HETATM    2  C   UNL     1      -8.560  13.788  64.853  1.00  0.00     4.278 C  
HETATM    3  O   UNL     1      -7.496  14.371  64.965  1.00  0.00     8.315 OA 
HETATM    4  C   UNL     1      -9.227  13.092  65.982  1.00  0.00     0.078 A  
HETATM    5  C   UNL     1     -10.619  13.004  66.078  1.00  0.00    -0.292 A  
HETATM    6  C   UNL     1     -11.210  12.352  67.168  1.00  0.00    -0.353 A  
HETATM    7  C   UNL     1     -10.422  11.842  68.211  1.00  0.00    -0.206 A  
HETATM    8  C   UNL     1      -9.025  11.915  68.104  1.00  0.00    -0.185 A  
HETATM    9  C   UNL     1      -8.432  12.548  66.999  1.00  0.00    -0.161 A  
ENDROOT
BRANCH   7  10
HETATM   10  N   UNL     1     -11.003  11.261  69.385  1.00  0.00    -0.243 NA 
HETATM   11  N   UNL     1     -11.208   9.913  69.428  1.00  0.00    -0.194 NA 
HETATM   12  C   UNL     1     -12.022   9.754  70.480  1.00  0.00    -0.206 A  
HETATM   13  N   UNL     1     -12.217  10.917  71.186  1.00  0.00    -0.352 NA 
HETATM   14  C   UNL     1     -11.528  11.841  70.540  1.00  0.00     0.339 A  
BRANCH  12  15
HETATM   15  C   UNL     1     -12.693   8.514  70.907  1.00  0.00     0.103 A  
HETATM   16  C   UNL     1     -13.725   8.006  70.087  1.00  0.00     2.394 A  
HETATM   17  C   UNL     1     -14.408   6.827  70.402  1.00  0.00     2.920 A  
HETATM   18  H   UNL     1     -11.148   7.691  73.677  1.00  0.00     0.000 HD 
HETATM   19  C   UNL     1     -14.072   6.124  71.551  1.00  0.00     1.026 A  
HETATM   20  O   UNL     1     -11.368   8.188  72.898  1.00  0.00    -0.387 OA 
HETATM   21  C   UNL     1     -13.054   6.597  72.379  1.00  0.00     0.265 A  
HETATM   22  C   UNL     1     -12.367   7.781  72.059  1.00  0.00    -0.294 A  
ENDBRANCH  12  15
BRANCH  14  23
HETATM   23  C   UNL     1     -11.437  13.232  71.008  1.00  0.00     1.178 A  
HETATM   24  C   UNL     1     -11.564  15.896  71.911  1.00  0.00    -0.542 A  
HETATM   25  C   UNL     1     -10.837  15.582  70.764  1.00  0.00    -0.298 A  
HETATM   26  C   UNL     1     -12.101  13.564  72.203  1.00  0.00     0.740 A  
HETATM   27  C   UNL     1     -10.744  14.253  70.342  1.00  0.00     0.565 A  
HETATM   28  C   UNL     1     -12.166  14.883  72.652  1.00  0.00    -0.395 A  
HETATM   29  O   UNL     1      -9.970  13.955  69.256  1.00  0.00    -0.423 OA 
HETATM   30  H   UNL     1      -9.500  14.647  68.805  1.00  0.00     0.000 HD 
ENDBRANCH  14  23
ENDBRANCH   7  10
TORSDOF 3
ENDMDL
MODEL      166
REMARK 921   NORMALIZED FREE ENERGY PREDICTED BY IDOCK:   22.77 KCAL/MOL
REMARK 922        TOTAL FREE ENERGY PREDICTED BY IDOCK:   25.52 KCAL/MOL
REMARK 923 INTER-LIGAND FREE ENERGY PREDICTED BY IDOCK:   25.14 KCAL/MOL
REMARK 924 INTRA-LIGAND FREE ENERGY PREDICTED BY IDOCK:    0.38 KCAL/MOL
REMARK 927      BINDING AFFINITY PREDICTED BY RF-SCORE:    0.00 PKD
ROOT
HETATM    1  O   UNL     1     -10.032   6.938  66.669  1.00  0.00    -0.184 OA 
HETATM    2  C   UNL     1      -9.829   7.834  65.673  1.00  0.00     0.854 C  
HETATM    3  O   UNL     1      -9.489   7.507  64.550  1.00  0.00     1.545 OA 
HETATM    4  C   UNL     1     -10.031   9.246  66.081  1.00  0.00    -0.348 A  
HETATM    5  C   UNL     1     -10.978   9.610  67.044  1.00  0.00    -0.020 A  
HETATM    6  C   UNL     1     -11.149  10.957  67.390  1.00  0.00    -0.373 A  
HETATM    7  C   UNL     1     -10.428  11.963  66.730  1.00  0.00    -0.221 A  
HETATM    8  C   UNL     1      -9.465  11.595  65.778  1.00  0.00    -0.244 A  
HETATM    9  C   UNL     1      -9.277  10.243  65.447  1.00  0.00    -0.236 A  
ENDROOT
BRANCH   7  10
HETATM   10  N   UNL     1     -10.655  13.354  66.991  1.00  0.00    -0.263 NA 
HETATM   11  N   UNL     1     -10.236  13.885  68.175  1.00  0.00    -0.242 NA 
HETATM   12  C   UNL     1     -10.863  15.067  68.228  1.00  0.00    -0.259 A  
HETATM   13  N   UNL     1     -11.538  15.366  67.069  1.00  0.00    -0.116 NA 
HETATM   14  C   UNL     1     -11.352  14.327  66.275  1.00  0.00    -0.346 A  
BRANCH  12  15
HETATM   15  C   UNL     1     -10.898  16.007  69.361  1.00  0.00    -0.300 A  
HETATM   16  C   UNL     1      -9.717  16.172  70.119  1.00  0.00     0.532 A  
HETATM   17  C   UNL     1      -9.649  17.055  71.201  1.00  0.00     5.022 A  
HETATM   18  H   UNL     1     -13.943  17.216  69.294  1.00  0.00     0.000 HD 
HETATM   19  C   UNL     1     -10.768  17.797  71.554  1.00  0.00     2.694 A  
HETATM   20  O   UNL     1     -13.189  16.696  69.042  1.00  0.00     2.271 OA 
HETATM   21  C   UNL     1     -11.947  17.661  70.822  1.00  0.00     5.253 A  
HETATM   22  C   UNL     1     -12.012  16.776  69.733  1.00  0.00     1.277 A  
ENDBRANCH  12  15
BRANCH  14  23
HETATM   23  C   UNL     1     -11.879  14.274  64.902  1.00  0.00    -0.414 A  
HETATM   24  C   UNL     1     -13.052  14.416  62.346  1.00  0.00     4.680 A  
HETATM   25  C   UNL     1     -13.102  13.228  63.072  1.00  0.00     1.445 A  
HETATM   26  C   UNL     1     -11.777  15.438  64.119  1.00  0.00    -0.109 A  
HETATM   27  C   UNL     1     -12.484  13.150  64.323  1.00  0.00    -0.288 A  
HETATM   28  C   UNL     1     -12.358  15.511  62.853  1.00  0.00     3.841 A  
HETATM   29  O   UNL     1     -12.483  11.957  64.990  1.00  0.00    -0.315 OA 
HETATM   30  H   UNL     1     -12.894  11.195  64.597  1.00  0.00     0.000 HD 
ENDBRANCH  14  23
ENDBRANCH   7  10
TORSDOF 3
ENDMDL
MODEL      167
REMARK 921   NORMALIZED FREE ENERGY PREDICTED BY IDOCK:   22.82 KCAL/MOL
REMARK 922        TOTAL FREE ENERGY PREDICTED BY IDOCK:   25.57 KCAL/MOL
REMARK 923 INTER-LIGAND FREE ENERGY PREDICTED BY IDOCK:   25.69 KCAL/MOL
REMARK 924 INTRA-LIGAND FREE ENERGY PREDICTED BY IDOCK:   -0.12 KCAL/MOL
REMARK 927      BINDING AFFINITY PREDICTED BY RF-SCORE:    0.00 PKD
ROOT
HETATM    1  O   UNL     1     -13.695   7.961  67.442  1.00  0.00    16.854 OA 
HETATM    2  C   UNL     1     -12.596   8.060  68.226  1.00  0.00     7.077 C  
HETATM    3  O   UNL     1     -12.238   7.170  68.978  1.00  0.00     1.188 OA 
HETATM    4  C   UNL     1     -11.885   9.358  68.108  1.00  0.00     1.901 A  
HETATM    5  C   UNL     1     -11.843  10.071  66.907  1.00  0.00     2.677 A  
HETATM    6  C   UNL     1     -11.147  11.285  66.833  1.00  0.00    -0.339 A  
HETATM    7  C   UNL     1     -10.428  11.767  67.936  1.00  0.00    -0.196 A  
HETATM    8  C   UNL     1     -10.488  11.060  69.146  1.00  0.00    -0.238 A  
HETATM    9  C   UNL     1     -11.204   9.854  69.228  1.00  0.00    -0.174 A  
ENDROOT
BRANCH   7  10
HETATM   10  N   UNL     1      -9.626  12.952  67.859  1.00  0.00    -0.208 NA 
HETATM   11  N   UNL     1     -10.102  14.113  68.394  1.00  0.00    -0.233 NA 
HETATM   12  C   UNL     1      -9.288  15.048  67.888  1.00  0.00    -0.183 A  
HETATM   13  N   UNL     1      -8.237  14.516  67.181  1.00  0.00    -0.205 NA 
HETATM   14  C   UNL     1      -8.412  13.207  67.220  1.00  0.00    -0.198 A  
BRANCH  12  15
HETATM   15  C   UNL     1      -9.426  16.509  68.008  1.00  0.00    -0.222 A  
HETATM   16  C   UNL     1     -10.620  17.100  67.535  1.00  0.00    -0.323 A  
HETATM   17  C   UNL     1     -10.848  18.477  67.622  1.00  0.00    -0.319 A  
HETATM   18  H   UNL     1      -6.651  17.451  69.473  1.00  0.00     0.000 HD 
HETATM   19  C   UNL     1      -9.884  19.300  68.187  1.00  0.00    -0.464 A  
HETATM   20  O   UNL     1      -7.297  16.873  69.084  1.00  0.00    -0.239 OA 
HETATM   21  C   UNL     1      -8.698  18.746  68.668  1.00  0.00    -0.360 A  
HETATM   22  C   UNL     1      -8.471  17.362  68.582  1.00  0.00    -0.257 A  
ENDBRANCH  12  15
BRANCH  14  23
HETATM   23  C   UNL     1      -7.462  12.261  66.614  1.00  0.00     0.243 A  
HETATM   24  C   UNL     1      -5.466  10.689  65.399  1.00  0.00    -0.139 A  
HETATM   25  C   UNL     1      -6.785  10.609  64.955  1.00  0.00     0.084 A  
HETATM   26  C   UNL     1      -6.140  12.269  67.093  1.00  0.00    -0.119 A  
HETATM   27  C   UNL     1      -7.779  11.361  65.587  1.00  0.00     0.435 A  
HETATM   28  C   UNL     1      -5.149  11.491  66.492  1.00  0.00    -0.096 A  
HETATM   29  O   UNL     1      -9.077  11.217  65.184  1.00  0.00    -0.252 OA 
HETATM   30  H   UNL     1      -9.292  10.607  64.488  1.00  0.00     0.000 HD 
ENDBRANCH  14  23
ENDBRANCH   7  10
TORSDOF 3
ENDMDL
MODEL      168
REMARK 921   NORMALIZED FREE ENERGY PREDICTED BY IDOCK:   25.68 KCAL/MOL
REMARK 922        TOTAL FREE ENERGY PREDICTED BY IDOCK:   28.94 KCAL/MOL
REMARK 923 INTER-LIGAND FREE ENERGY PREDICTED BY IDOCK:   28.96 KCAL/MOL
REMARK 924 INTRA-LIGAND FREE ENERGY PREDICTED BY IDOCK:   -0.03 KCAL/MOL
REMARK 927      BINDING AFFINITY PREDICTED BY RF-SCORE:    0.00 PKD
ROOT
HETATM    1  O   UNL     1      -9.093   4.600  66.622  1.00  0.00    -0.114 OA 
HETATM    2  C   UNL     1      -9.690   5.675  66.055  1.00  0.00    -0.051 C  
HETATM    3  O   UNL     1      -9.982   5.722  64.872  1.00  0.00     0.858 OA 
HETATM    4  C   UNL     1      -9.932   6.797  66.995  1.00  0.00    -0.234 A  
HETATM    5  C   UNL     1     -10.222   6.581  68.346  1.00  0.00    -0.192 A  
HETATM    6  C   UNL     1     -10.459   7.667  69.198  1.00  0.00    -0.220 A  
HETATM    7  C   UNL     1     -10.480   8.978  68.700  1.00  0.00    -0.200 A  
HETATM    8  C   UNL     1     -10.170   9.195  67.348  1.00  0.00    -0.310 A  
HETATM    9  C   UNL     1      -9.909   8.107  66.498  1.00  0.00    -0.309 A  
ENDROOT
BRANCH   7  10
HETATM   10  N   UNL     1     -10.820  10.098  69.526  1.00  0.00    -0.239 NA 
HETATM   11  N   UNL     1     -11.601  11.091  69.012  1.00  0.00    -0.296 NA 
HETATM   12  C   UNL     1     -11.463  12.088  69.896  1.00  0.00    -0.162 A  
HETATM   13  N   UNL     1     -10.752  11.718  71.012  1.00  0.00     3.236 NA 
HETATM   14  C   UNL     1     -10.409  10.458  70.810  1.00  0.00     0.658 A  
BRANCH  12  15
HETATM   15  C   UNL     1     -11.968  13.466  69.770  1.00  0.00    -0.396 A  
HETATM   16  C   UNL     1     -13.320  13.707  70.102  1.00  0.00     0.882 A  
HETATM   17  C   UNL     1     -13.883  14.985  70.029  1.00  0.00     1.342 A  
HETATM   18  H   UNL     1      -9.356  15.178  68.778  1.00  0.00     0.000 HD 
HETATM   19  C   UNL     1     -13.103  16.058  69.622  1.00  0.00     1.419 A  
HETATM   20  O   UNL     1      -9.876  14.431  69.050  1.00  0.00    -0.193 OA 
HETATM   21  C   UNL     1     -11.763  15.853  69.293  1.00  0.00    -0.360 A  
HETATM   22  C   UNL     1     -11.198  14.569  69.368  1.00  0.00    -0.280 A  
ENDBRANCH  12  15
BRANCH  14  23
HETATM   23  C   UNL     1      -9.669   9.669  71.806  1.00  0.00     1.063 A  
HETATM   24  C   UNL     1      -8.391   7.913  73.599  1.00  0.00    -0.282 A  
HETATM   25  C   UNL     1      -9.090   9.018  74.083  1.00  0.00     2.809 A  
HETATM   26  C   UNL     1      -8.896   8.590  71.341  1.00  0.00    -0.253 A  
HETATM   27  C   UNL     1      -9.690   9.908  73.188  1.00  0.00     7.067 A  
HETATM   28  C   UNL     1      -8.262   7.719  72.227  1.00  0.00    -0.149 A  
HETATM   29  O   UNL     1     -10.310  11.023  73.677  1.00  0.00    13.867 OA 
HETATM   30  H   UNL     1     -10.324  11.185  74.613  1.00  0.00     0.000 HD 
ENDBRANCH  14  23
ENDBRANCH   7  10
TORSDOF 3
ENDMDL
MODEL      169
REMARK 921   NORMALIZED FREE ENERGY PREDICTED BY IDOCK:   28.78 KCAL/MOL
REMARK 922        TOTAL FREE ENERGY PREDICTED BY IDOCK:   32.58 KCAL/MOL
REMARK 923 INTER-LIGAND FREE ENERGY PREDICTED BY IDOCK:   33.25 KCAL/MOL
REMARK 924 INTRA-LIGAND FREE ENERGY PREDICTED BY IDOCK:   -0.67 KCAL/MOL
REMARK 927      BINDING AFFINITY PREDICTED BY RF-SCORE:    0.00 PKD
ROOT
HETATM    1  O   UNL     1      -6.188  17.455  64.314  1.00  0.00     2.380 OA 
HETATM    2  C   UNL     1      -6.047  16.171  64.719  1.00  0.00     9.669 C  
HETATM    3  O   UNL     1      -5.142  15.452  64.333  1.00  0.00    10.867 OA 
HETATM    4  C   UNL     1      -7.106  15.712  65.651  1.00  0.00     4.911 A  
HETATM    5  C   UNL     1      -7.710  16.577  66.569  1.00  0.00    -0.323 A  
HETATM    6  C   UNL     1      -8.695  16.100  67.443  1.00  0.00    -0.194 A  
HETATM    7  C   UNL     1      -9.042  14.741  67.461  1.00  0.00    -0.189 A  
HETATM    8  C   UNL     1      -8.449  13.878  66.526  1.00  0.00     0.289 A  
HETATM    9  C   UNL     1      -7.477  14.360  65.634  1.00  0.00     6.298 A  
ENDROOT
BRANCH   7  10
HETATM   10  N   UNL     1      -9.971  14.208  68.412  1.00  0.00    -0.231 NA 
HETATM   11  N   UNL     1     -10.831  15.054  69.048  1.00  0.00    -0.232 NA 
HETATM   12  C   UNL     1     -11.313  14.314  70.054  1.00  0.00    -0.165 A  
HETATM   13  N   UNL     1     -10.910  13.001  69.992  1.00  0.00     0.617 NA 
HETATM   14  C   UNL     1     -10.128  12.922  68.931  1.00  0.00     0.060 A  
BRANCH  12  15
HETATM   15  C   UNL     1     -12.174  14.766  71.160  1.00  0.00    -0.388 A  
HETATM   16  C   UNL     1     -11.863  14.319  72.464  1.00  0.00     0.421 A  
HETATM   17  C   UNL     1     -12.614  14.709  73.578  1.00  0.00    -0.459 A  
HETATM   18  H   UNL     1     -14.370  16.717  69.707  1.00  0.00     0.000 HD 
HETATM   19  C   UNL     1     -13.698  15.560  73.413  1.00  0.00    -0.061 A  
HETATM   20  O   UNL     1     -13.628  16.130  69.800  1.00  0.00     1.116 OA 
HETATM   21  C   UNL     1     -14.026  16.023  72.139  1.00  0.00     0.030 A  
HETATM   22  C   UNL     1     -13.270  15.632  71.021  1.00  0.00    -0.372 A  
ENDBRANCH  12  15
BRANCH  14  23
HETATM   23  C   UNL     1      -9.524  11.658  68.483  1.00  0.00    -0.175 A  
HETATM   24  C   UNL     1      -8.634   9.106  67.690  1.00  0.00    -0.117 A  
HETATM   25  C   UNL     1      -7.908   9.839  68.628  1.00  0.00    -0.081 A  
HETATM   26  C   UNL     1     -10.197  10.931  67.485  1.00  0.00    -0.224 A  
HETATM   27  C   UNL     1      -8.332  11.121  68.989  1.00  0.00    -0.049 A  
HETATM   28  C   UNL     1      -9.758   9.666  67.091  1.00  0.00    -0.222 A  
HETATM   29  O   UNL     1      -7.569  11.852  69.856  1.00  0.00     0.076 OA 
HETATM   30  H   UNL     1      -6.761  11.488  70.199  1.00  0.00     0.000 HD 
ENDBRANCH  14  23
ENDBRANCH   7  10
TORSDOF 3
ENDMDL
MODEL      170
REMARK 921   NORMALIZED FREE ENERGY PREDICTED BY IDOCK:   29.77 KCAL/MOL
REMARK 922        TOTAL FREE ENERGY PREDICTED BY IDOCK:   33.75 KCAL/MOL
REMARK 923 INTER-LIGAND FREE ENERGY PREDICTED BY IDOCK:   34.86 KCAL/MOL
REMARK 924 INTRA-LIGAND FREE ENERGY PREDICTED BY IDOCK:   -1.11 KCAL/MOL
REMARK 927      BINDING AFFINITY PREDICTED BY RF-SCORE:    0.00 PKD
ROOT
HETATM    1  O   UNL     1     -14.259  13.562  74.339  1.00  0.00     7.917 OA 
HETATM    2  C   UNL     1     -13.308  12.774  73.785  1.00  0.00     6.647 C  
HETATM    3  O   UNL     1     -12.803  11.833  74.373  1.00  0.00    12.407 OA 
HETATM    4  C   UNL     1     -12.918  13.175  72.410  1.00  0.00    -0.292 A  
HETATM    5  C   UNL     1     -13.831  13.747  71.519  1.00  0.00    -0.226 A  
HETATM    6  C   UNL     1     -13.427  14.097  70.225  1.00  0.00     0.613 A  
HETATM    7  C   UNL     1     -12.126  13.818  69.779  1.00  0.00    -0.340 A  
HETATM    8  C   UNL     1     -11.206  13.262  70.681  1.00  0.00     1.089 A  
HETATM    9  C   UNL     1     -11.604  12.932  71.986  1.00  0.00     3.328 A  
ENDROOT
BRANCH   7  10
HETATM   10  N   UNL     1     -11.716  14.073  68.430  1.00  0.00    -0.334 NA 
HETATM   11  N   UNL     1     -12.228  13.308  67.424  1.00  0.00    -0.263 NA 
HETATM   12  C   UNL     1     -11.430  13.582  66.384  1.00  0.00    -0.331 A  
HETATM   13  N   UNL     1     -10.534  14.590  66.649  1.00  0.00    -0.271 NA 
HETATM   14  C   UNL     1     -10.758  14.940  67.903  1.00  0.00    -0.265 A  
BRANCH  12  15
HETATM   15  C   UNL     1     -11.424  12.923  65.068  1.00  0.00    -0.350 A  
HETATM   16  C   UNL     1     -11.465  13.743  63.918  1.00  0.00    -0.141 A  
HETATM   17  C   UNL     1     -11.446  13.208  62.626  1.00  0.00     2.191 A  
HETATM   18  H   UNL     1     -11.243   9.730  65.781  1.00  0.00     0.000 HD 
HETATM   19  C   UNL     1     -11.385  11.832  62.452  1.00  0.00     1.815 A  
HETATM   20  O   UNL     1     -11.290  10.668  65.919  1.00  0.00     0.246 OA 
HETATM   21  C   UNL     1     -11.338  10.996  63.567  1.00  0.00     0.385 A  
HETATM   22  C   UNL     1     -11.355  11.536  64.865  1.00  0.00    -0.119 A  
ENDBRANCH  12  15
BRANCH  14  23
HETATM   23  C   UNL     1     -10.030  16.035  68.563  1.00  0.00    -0.222 A  
HETATM   24  C   UNL     1      -8.845  18.318  69.708  1.00  0.00     1.191 A  
HETATM   25  C   UNL     1      -8.081  17.451  68.929  1.00  0.00    -0.183 A  
HETATM   26  C   UNL     1     -10.761  16.885  69.413  1.00  0.00    -0.258 A  
HETATM   27  C   UNL     1      -8.664  16.298  68.396  1.00  0.00    -0.205 A  
HETATM   28  C   UNL     1     -10.176  18.017  69.981  1.00  0.00     0.964 A  
HETATM   29  O   UNL     1      -7.882  15.424  67.694  1.00  0.00    -0.133 OA 
HETATM   30  H   UNL     1      -6.956  15.602  67.580  1.00  0.00     0.000 HD 
ENDBRANCH  14  23
ENDBRANCH   7  10
TORSDOF 3
ENDMDL
MODEL      171
REMARK 921   NORMALIZED FREE ENERGY PREDICTED BY IDOCK:   61.45 KCAL/MOL
REMARK 922        TOTAL FREE ENERGY PREDICTED BY IDOCK:   70.98 KCAL/MOL
REMARK 923 INTER-LIGAND FREE ENERGY PREDICTED BY IDOCK:   72.23 KCAL/MOL
REMARK 924 INTRA-LIGAND FREE ENERGY PREDICTED BY IDOCK:   -1.25 KCAL/MOL
REMARK 927      BINDING AFFINITY PREDICTED BY RF-SCORE:    0.00 PKD
ROOT
HETATM    1  O   UNL     1      -6.836   9.364  68.673  1.00  0.00    -0.060 OA 
HETATM    2  C   UNL     1      -6.417  10.535  68.136  1.00  0.00    -0.062 C  
HETATM    3  O   UNL     1      -5.257  10.742  67.827  1.00  0.00    -0.040 OA 
HETATM    4  C   UNL     1      -7.490  11.548  67.986  1.00  0.00    -0.098 A  
HETATM    5  C   UNL     1      -8.813  11.189  67.709  1.00  0.00    -0.135 A  
HETATM    6  C   UNL     1      -9.794  12.178  67.558  1.00  0.00    -0.193 A  
HETATM    7  C   UNL     1      -9.456  13.538  67.614  1.00  0.00    -0.222 A  
HETATM    8  C   UNL     1      -8.132  13.896  67.912  1.00  0.00    -0.158 A  
HETATM    9  C   UNL     1      -7.152  12.905  68.085  1.00  0.00    -0.108 A  
ENDROOT
BRANCH   7  10
HETATM   10  N   UNL     1     -10.418  14.570  67.364  1.00  0.00    -0.263 NA 
HETATM   11  N   UNL     1     -10.751  14.871  66.076  1.00  0.00    -0.312 NA 
HETATM   12  C   UNL     1     -11.397  16.039  66.184  1.00  0.00     0.299 A  
HETATM   13  N   UNL     1     -11.615  16.411  67.489  1.00  0.00     0.223 NA 
HETATM   14  C   UNL     1     -11.063  15.461  68.223  1.00  0.00    -0.309 A  
BRANCH  12  15
HETATM   15  C   UNL     1     -11.852  16.909  65.087  1.00  0.00     1.700 A  
HETATM   16  C   UNL     1     -13.241  17.141  64.961  1.00  0.00     8.999 A  
HETATM   17  C   UNL     1     -13.765  17.966  63.961  1.00  0.00    16.804 A  
HETATM   18  H   UNL     1      -9.079  17.836  63.607  1.00  0.00     0.000 HD 
HETATM   19  C   UNL     1     -12.909  18.583  63.059  1.00  0.00    22.426 A  
HETATM   20  O   UNL     1      -9.650  17.401  64.229  1.00  0.00     4.156 OA 
HETATM   21  C   UNL     1     -11.533  18.379  63.161  1.00  0.00    14.935 A  
HETATM   22  C   UNL     1     -11.008  17.551  64.168  1.00  0.00     3.355 A  
ENDBRANCH  12  15
BRANCH  14  23
HETATM   23  C   UNL     1     -11.121  15.460  69.692  1.00  0.00    -0.280 A  
HETATM   24  C   UNL     1     -11.534  15.443  72.478  1.00  0.00    -0.441 A  
HETATM   25  C   UNL     1     -10.771  16.451  71.891  1.00  0.00     1.720 A  
HETATM   26  C   UNL     1     -11.823  14.413  70.317  1.00  0.00    -0.382 A  
HETATM   27  C   UNL     1     -10.536  16.434  70.514  1.00  0.00     0.232 A  
HETATM   28  C   UNL     1     -12.030  14.403  71.697  1.00  0.00    -0.257 A  
HETATM   29  O   UNL     1      -9.728  17.391  69.967  1.00  0.00     0.703 OA 
HETATM   30  H   UNL     1      -9.332  18.051  70.524  1.00  0.00     0.000 HD 
ENDBRANCH  14  23
ENDBRANCH   7  10
TORSDOF 3
ENDMDL
