MODEL        1
REMARK 921   NORMALIZED FREE ENERGY PREDICTED BY IDOCK:   -8.04 KCAL/MOL
REMARK 922        TOTAL FREE ENERGY PREDICTED BY IDOCK:  -10.16 KCAL/MOL
REMARK 923 INTER-LIGAND FREE ENERGY PREDICTED BY IDOCK:   -9.91 KCAL/MOL
REMARK 924 INTRA-LIGAND FREE ENERGY PREDICTED BY IDOCK:   -0.25 KCAL/MOL
REMARK 927      BINDING AFFINITY PREDICTED BY RF-SCORE:    0.00 PKD
ROOT
HETATM    1  C   UNL     1     -11.910  14.490  66.846  1.00  0.00    -0.377 C  
HETATM    2  C   UNL     1     -11.781  14.104  68.270  1.00  0.00    -0.383 C  
HETATM    3  C   UNL     1     -10.685  13.038  68.269  1.00  0.00    -0.261 C  
HETATM    4  C   UNL     1     -10.952  11.613  68.715  1.00  0.00    -0.274 C  
HETATM    5  C   UNL     1     -12.025  11.590  69.813  1.00  0.00    -0.415 C  
HETATM    6  C   UNL     1     -12.159  10.223  70.433  1.00  0.00    -0.373 C  
HETATM    7  C   UNL     1     -10.810   9.699  70.945  1.00  0.00    -0.409 C  
HETATM    8  C   UNL     1     -10.853   8.690  71.837  1.00  0.00    -0.419 C  
HETATM    9  C   UNL     1     -11.391   7.504  71.075  1.00  0.00    -0.273 C  
HETATM   10  C   UNL     1     -10.989   7.411  69.613  1.00  0.00    -0.186 C  
HETATM   11  O   UNL     1     -12.109   6.674  71.616  1.00  0.00    -0.331 OA 
HETATM   12  C   UNL     1     -10.246   8.382  69.013  1.00  0.00    -0.217 C  
HETATM   13  C   UNL     1      -9.728   9.589  69.834  1.00  0.00    -0.252 C  
HETATM   14  C   UNL     1      -9.600  11.073  69.277  1.00  0.00    -0.008 C  
HETATM   15  C   UNL     1      -8.328   9.122  70.314  1.00  0.00    -0.187 C  
HETATM   16  C   UNL     1      -8.335  11.504  68.435  1.00  0.00    -0.154 C  
HETATM   17  C   UNL     1      -8.400  12.961  67.711  1.00  0.00    -0.178 C  
HETATM   18  O   UNL     1      -7.981  10.454  67.538  1.00  0.00    -0.106 OA 
HETATM   19  C   UNL     1      -9.787  13.116  66.973  1.00  0.00    -0.244 C  
HETATM   20  H   UNL     1      -7.221  10.713  67.031  1.00  0.00     0.000 HD 
HETATM   21  C   UNL     1      -9.578  12.011  65.870  1.00  0.00    -0.238 C  
HETATM   22  C   UNL     1     -10.506  14.383  66.239  1.00  0.00    -0.290 C  
HETATM   23  N   UNL     1     -10.917  13.995  64.827  1.00  0.00    -0.386 NA 
HETATM   24  O   UNL     1     -12.661  13.469  66.200  1.00  0.00    -0.391 OA 
HETATM   25  C   UNL     1     -12.470  12.103  64.270  1.00  0.00    -0.461 C  
HETATM   26  C   UNL     1     -11.989  13.282  65.051  1.00  0.00    -0.371 C  
ENDROOT
BRANCH  22  27
HETATM   27  C   UNL     1      -9.682  15.675  66.248  1.00  0.00    -0.301 C  
HETATM   28  O   UNL     1      -8.453  15.638  66.124  1.00  0.00    -0.256 OA 
BRANCH  27  29
HETATM   29  C   UNL     1     -10.402  17.009  66.422  1.00  0.00    -0.303 C  
BRANCH  29  30
HETATM   30  O   UNL     1      -9.638  18.098  65.890  1.00  0.00    -0.519 OA 
BRANCH  30  31
HETATM   31  C   UNL     1     -10.087  19.321  66.286  1.00  0.00    -0.442 C  
HETATM   32  C   UNL     1      -9.706  19.599  67.712  1.00  0.00    -0.481 C  
HETATM   33  O   UNL     1     -10.735  20.087  65.574  1.00  0.00    -0.426 OA 
ENDBRANCH  30  31
ENDBRANCH  29  30
ENDBRANCH  27  29
ENDBRANCH  22  27
TORSDOF 4
ENDMDL
MODEL        2
REMARK 921   NORMALIZED FREE ENERGY PREDICTED BY IDOCK:   -7.85 KCAL/MOL
REMARK 922        TOTAL FREE ENERGY PREDICTED BY IDOCK:   -9.93 KCAL/MOL
REMARK 923 INTER-LIGAND FREE ENERGY PREDICTED BY IDOCK:   -9.88 KCAL/MOL
REMARK 924 INTRA-LIGAND FREE ENERGY PREDICTED BY IDOCK:   -0.05 KCAL/MOL
REMARK 927      BINDING AFFINITY PREDICTED BY RF-SCORE:    0.00 PKD
ROOT
HETATM    1  C   UNL     1     -12.712  14.324  65.873  1.00  0.00    -0.283 C  
HETATM    2  C   UNL     1     -12.447  14.062  67.305  1.00  0.00    -0.026 C  
HETATM    3  C   UNL     1     -11.149  13.254  67.301  1.00  0.00    -0.301 C  
HETATM    4  C   UNL     1     -11.086  11.835  67.834  1.00  0.00    -0.302 C  
HETATM    5  C   UNL     1     -12.084  11.654  68.987  1.00  0.00    -0.288 C  
HETATM    6  C   UNL     1     -11.896  10.330  69.682  1.00  0.00    -0.181 C  
HETATM    7  C   UNL     1     -10.447  10.136  70.149  1.00  0.00    -0.311 C  
HETATM    8  C   UNL     1     -10.237   9.198  71.093  1.00  0.00    -0.384 C  
HETATM    9  C   UNL     1     -10.539   7.880  70.422  1.00  0.00    -0.228 C  
HETATM   10  C   UNL     1     -10.186   7.784  68.948  1.00  0.00    -0.220 C  
HETATM   11  O   UNL     1     -11.040   6.952  71.042  1.00  0.00    -0.246 OA 
HETATM   12  C   UNL     1      -9.693   8.851  68.261  1.00  0.00    -0.174 C  
HETATM   13  C   UNL     1      -9.412  10.189  68.989  1.00  0.00    -0.195 C  
HETATM   14  C   UNL     1      -9.628  11.629  68.351  1.00  0.00    -0.195 C  
HETATM   15  C   UNL     1      -7.927  10.060  69.419  1.00  0.00    -0.145 C  
HETATM   16  C   UNL     1      -8.520  12.265  67.422  1.00  0.00    -0.176 C  
HETATM   17  C   UNL     1      -8.924  13.628  66.629  1.00  0.00    -0.138 C  
HETATM   18  O   UNL     1      -7.986  11.261  66.563  1.00  0.00    -0.157 OA 
HETATM   19  C   UNL     1     -10.341  13.441  65.958  1.00  0.00    -0.297 C  
HETATM   20  H   UNL     1      -7.320  11.643  66.005  1.00  0.00     0.000 HD 
HETATM   21  C   UNL     1      -9.946  12.339  64.904  1.00  0.00    -0.219 C  
HETATM   22  C   UNL     1     -11.344  14.479  65.198  1.00  0.00    -0.366 C  
HETATM   23  N   UNL     1     -11.720  13.927  63.832  1.00  0.00    -0.283 NA 
HETATM   24  O   UNL     1     -13.253  13.130  65.320  1.00  0.00    -0.643 OA 
HETATM   25  C   UNL     1     -12.853  11.718  63.456  1.00  0.00    -0.347 C  
HETATM   26  C   UNL     1     -12.604  13.018  64.148  1.00  0.00    -0.224 C  
ENDROOT
BRANCH  22  27
HETATM   27  C   UNL     1     -10.816  15.914  65.097  1.00  0.00    -0.421 C  
HETATM   28  O   UNL     1     -11.227  16.675  64.214  1.00  0.00    -1.098 OA 
BRANCH  27  29
HETATM   29  C   UNL     1      -9.767  16.387  66.099  1.00  0.00    -0.327 C  
BRANCH  29  30
HETATM   30  O   UNL     1      -9.713  17.817  66.176  1.00  0.00    -0.444 OA 
BRANCH  30  31
HETATM   31  C   UNL     1     -10.410  18.330  67.226  1.00  0.00    -0.390 C  
HETATM   32  C   UNL     1     -10.503  17.336  68.349  1.00  0.00    -0.381 C  
HETATM   33  O   UNL     1     -10.913  19.454  67.245  1.00  0.00    -0.491 OA 
ENDBRANCH  30  31
ENDBRANCH  29  30
ENDBRANCH  27  29
ENDBRANCH  22  27
TORSDOF 4
ENDMDL
MODEL        3
REMARK 921   NORMALIZED FREE ENERGY PREDICTED BY IDOCK:   -7.68 KCAL/MOL
REMARK 922        TOTAL FREE ENERGY PREDICTED BY IDOCK:   -9.73 KCAL/MOL
REMARK 923 INTER-LIGAND FREE ENERGY PREDICTED BY IDOCK:   -9.55 KCAL/MOL
REMARK 924 INTRA-LIGAND FREE ENERGY PREDICTED BY IDOCK:   -0.17 KCAL/MOL
REMARK 927      BINDING AFFINITY PREDICTED BY RF-SCORE:    0.00 PKD
ROOT
HETATM    1  C   UNL     1      -9.320  15.103  67.322  1.00  0.00    -0.203 C  
HETATM    2  C   UNL     1      -8.550  13.864  67.067  1.00  0.00    -0.190 C  
HETATM    3  C   UNL     1      -9.518  12.741  67.441  1.00  0.00    -0.190 C  
HETATM    4  C   UNL     1      -9.219  11.765  68.563  1.00  0.00    -0.152 C  
HETATM    5  C   UNL     1      -7.706  11.526  68.672  1.00  0.00    -0.139 C  
HETATM    6  C   UNL     1      -7.388  10.402  69.624  1.00  0.00    -0.156 C  
HETATM    7  C   UNL     1      -8.142   9.117  69.257  1.00  0.00    -0.102 C  
HETATM    8  C   UNL     1      -7.669   7.968  69.778  1.00  0.00    -0.101 C  
HETATM    9  C   UNL     1      -7.913   8.072  71.264  1.00  0.00    -0.093 C  
HETATM   10  C   UNL     1      -9.170   8.813  71.685  1.00  0.00    -0.333 C  
HETATM   11  O   UNL     1      -7.134   7.583  72.071  1.00  0.00    -0.061 OA 
HETATM   12  C   UNL     1      -9.987   9.409  70.772  1.00  0.00    -0.358 C  
HETATM   13  C   UNL     1      -9.688   9.287  69.258  1.00  0.00    -0.169 C  
HETATM   14  C   UNL     1      -9.946  10.436  68.189  1.00  0.00    -0.170 C  
HETATM   15  C   UNL     1     -10.494   8.031  68.831  1.00  0.00    -0.207 C  
HETATM   16  C   UNL     1     -11.384  10.642  67.569  1.00  0.00    -0.162 C  
HETATM   17  C   UNL     1     -11.608  11.981  66.670  1.00  0.00    -0.389 C  
HETATM   18  O   UNL     1     -12.368  10.487  68.588  1.00  0.00    -0.785 OA 
HETATM   19  C   UNL     1     -11.019  13.229  67.436  1.00  0.00    -0.287 C  
HETATM   20  H   UNL     1     -13.233  10.610  68.215  1.00  0.00     0.000 HD 
HETATM   21  C   UNL     1     -12.034  13.251  68.641  1.00  0.00    -0.345 C  
HETATM   22  C   UNL     1     -10.782  14.781  66.993  1.00  0.00    -0.300 C  
HETATM   23  N   UNL     1     -11.435  15.712  68.004  1.00  0.00    -0.328 NA 
HETATM   24  O   UNL     1      -9.307  15.323  68.728  1.00  0.00    -0.190 OA 
HETATM   25  C   UNL     1     -10.876  15.764  70.451  1.00  0.00    -0.345 C  
HETATM   26  C   UNL     1     -10.578  15.672  68.990  1.00  0.00    -0.234 C  
ENDROOT
BRANCH  22  27
HETATM   27  C   UNL     1     -11.225  15.108  65.563  1.00  0.00    -0.320 C  
HETATM   28  O   UNL     1     -10.561  15.877  64.859  1.00  0.00    -0.546 OA 
BRANCH  27  29
HETATM   29  C   UNL     1     -12.505  14.477  65.023  1.00  0.00    -0.301 C  
BRANCH  29  30
HETATM   30  O   UNL     1     -12.368  14.088  63.651  1.00  0.00    -0.728 OA 
BRANCH  30  31
HETATM   31  C   UNL     1     -12.257  12.742  63.478  1.00  0.00    -0.525 C  
HETATM   32  C   UNL     1     -10.817  12.334  63.347  1.00  0.00    -0.457 C  
HETATM   33  O   UNL     1     -13.210  11.967  63.419  1.00  0.00    -0.687 OA 
ENDBRANCH  30  31
ENDBRANCH  29  30
ENDBRANCH  27  29
ENDBRANCH  22  27
TORSDOF 4
ENDMDL
MODEL        4
REMARK 921   NORMALIZED FREE ENERGY PREDICTED BY IDOCK:   -7.65 KCAL/MOL
REMARK 922        TOTAL FREE ENERGY PREDICTED BY IDOCK:   -9.69 KCAL/MOL
REMARK 923 INTER-LIGAND FREE ENERGY PREDICTED BY IDOCK:   -9.25 KCAL/MOL
REMARK 924 INTRA-LIGAND FREE ENERGY PREDICTED BY IDOCK:   -0.44 KCAL/MOL
REMARK 927      BINDING AFFINITY PREDICTED BY RF-SCORE:    0.00 PKD
ROOT
HETATM    1  C   UNL     1      -9.444  11.886  66.896  1.00  0.00    -0.199 C  
HETATM    2  C   UNL     1      -8.426  12.824  67.421  1.00  0.00    -0.191 C  
HETATM    3  C   UNL     1      -9.240  14.020  67.914  1.00  0.00    -0.195 C  
HETATM    4  C   UNL     1      -9.075  15.404  67.316  1.00  0.00    -0.218 C  
HETATM    5  C   UNL     1      -7.626  15.616  66.855  1.00  0.00    -0.201 C  
HETATM    6  C   UNL     1      -7.372  17.048  66.460  1.00  0.00    -0.320 C  
HETATM    7  C   UNL     1      -7.762  18.023  67.579  1.00  0.00    -0.217 C  
HETATM    8  C   UNL     1      -7.244  19.265  67.507  1.00  0.00    -0.246 C  
HETATM    9  C   UNL     1      -7.882  19.895  66.293  1.00  0.00    -0.321 C  
HETATM   10  C   UNL     1      -9.317  19.489  66.006  1.00  0.00    -0.280 C  
HETATM   11  O   UNL     1      -7.267  20.685  65.591  1.00  0.00    -0.127 OA 
HETATM   12  C   UNL     1      -9.960  18.556  66.761  1.00  0.00    -0.381 C  
HETATM   13  C   UNL     1      -9.259  17.926  67.990  1.00  0.00    -0.267 C  
HETATM   14  C   UNL     1      -9.430  16.413  68.452  1.00  0.00    -0.220 C  
HETATM   15  C   UNL     1      -9.688  18.848  69.161  1.00  0.00    -0.269 C  
HETATM   16  C   UNL     1     -10.669  15.983  69.332  1.00  0.00    -0.294 C  
HETATM   17  C   UNL     1     -10.886  14.385  69.557  1.00  0.00    -0.179 C  
HETATM   18  O   UNL     1     -11.841  16.641  68.858  1.00  0.00    -0.074 OA 
HETATM   19  C   UNL     1     -10.750  13.639  68.172  1.00  0.00    -0.260 C  
HETATM   20  H   UNL     1     -12.585  16.382  69.387  1.00  0.00     0.000 HD 
HETATM   21  C   UNL     1     -12.032  14.232  67.473  1.00  0.00    -0.411 C  
HETATM   22  C   UNL     1     -10.688  12.058  67.775  1.00  0.00    -0.210 C  
HETATM   23  N   UNL     1     -11.737  11.749  66.719  1.00  0.00    -0.571 NA 
HETATM   24  O   UNL     1      -9.838  12.367  65.616  1.00  0.00    -0.254 OA 
HETATM   25  C   UNL     1     -11.856  12.860  64.470  1.00  0.00    -0.429 C  
HETATM   26  C   UNL     1     -11.175  12.230  65.641  1.00  0.00    -0.333 C  
ENDROOT
BRANCH  22  27
HETATM   27  C   UNL     1     -10.793  11.099  68.967  1.00  0.00    -0.231 C  
HETATM   28  O   UNL     1      -9.796  10.497  69.378  1.00  0.00    -0.221 OA 
BRANCH  27  29
HETATM   29  C   UNL     1     -12.151  10.893  69.631  1.00  0.00    -0.329 C  
BRANCH  29  30
HETATM   30  O   UNL     1     -12.041  10.121  70.834  1.00  0.00    -0.302 OA 
BRANCH  30  31
HETATM   31  C   UNL     1     -13.025  10.384  71.738  1.00  0.00    -0.475 C  
HETATM   32  C   UNL     1     -13.632   9.113  72.258  1.00  0.00    -0.548 C  
HETATM   33  O   UNL     1     -13.379  11.514  72.071  1.00  0.00    -0.476 OA 
ENDBRANCH  30  31
ENDBRANCH  29  30
ENDBRANCH  27  29
ENDBRANCH  22  27
TORSDOF 4
ENDMDL
MODEL        5
REMARK 921   NORMALIZED FREE ENERGY PREDICTED BY IDOCK:   -7.58 KCAL/MOL
REMARK 922        TOTAL FREE ENERGY PREDICTED BY IDOCK:   -9.61 KCAL/MOL
REMARK 923 INTER-LIGAND FREE ENERGY PREDICTED BY IDOCK:   -9.16 KCAL/MOL
REMARK 924 INTRA-LIGAND FREE ENERGY PREDICTED BY IDOCK:   -0.44 KCAL/MOL
REMARK 927      BINDING AFFINITY PREDICTED BY RF-SCORE:    0.00 PKD
ROOT
HETATM    1  C   UNL     1      -9.146  10.081  65.708  1.00  0.00    -0.163 C  
HETATM    2  C   UNL     1     -10.155   9.108  66.185  1.00  0.00    -0.278 C  
HETATM    3  C   UNL     1     -10.673   9.718  67.488  1.00  0.00    -0.327 C  
HETATM    4  C   UNL     1     -10.509   9.017  68.823  1.00  0.00    -0.230 C  
HETATM    5  C   UNL     1     -10.550   7.493  68.633  1.00  0.00    -0.171 C  
HETATM    6  C   UNL     1     -10.610   6.770  69.954  1.00  0.00    -0.257 C  
HETATM    7  C   UNL     1     -11.775   7.267  70.820  1.00  0.00    -0.333 C  
HETATM    8  C   UNL     1     -12.163   6.464  71.830  1.00  0.00    -0.332 C  
HETATM    9  C   UNL     1     -11.012   6.463  72.806  1.00  0.00    -0.257 C  
HETATM   10  C   UNL     1     -10.235   7.763  72.924  1.00  0.00    -0.377 C  
HETATM   11  O   UNL     1     -10.733   5.467  73.459  1.00  0.00    -0.246 OA 
HETATM   12  C   UNL     1     -10.519   8.839  72.138  1.00  0.00    -0.384 C  
HETATM   13  C   UNL     1     -11.702   8.787  71.140  1.00  0.00    -0.344 C  
HETATM   14  C   UNL     1     -11.708   9.478  69.707  1.00  0.00     0.127 C  
HETATM   15  C   UNL     1     -12.892   9.351  71.962  1.00  0.00    -0.496 C  
HETATM   16  C   UNL     1     -12.062  11.011  69.563  1.00  0.00    -0.329 C  
HETATM   17  C   UNL     1     -11.813  11.684  68.100  1.00  0.00    -0.315 C  
HETATM   18  O   UNL     1     -11.449  11.743  70.621  1.00  0.00    -0.370 OA 
HETATM   19  C   UNL     1     -10.386  11.268  67.570  1.00  0.00    -0.224 C  
HETATM   20  H   UNL     1     -11.662  12.665  70.534  1.00  0.00     0.000 HD 
HETATM   21  C   UNL     1      -9.518  12.037  68.636  1.00  0.00    -0.069 C  
HETATM   22  C   UNL     1      -9.646  11.468  66.130  1.00  0.00    -0.225 C  
HETATM   23  N   UNL     1      -8.292  12.128  66.332  1.00  0.00     0.018 NA 
HETATM   24  O   UNL     1      -7.967   9.875  66.478  1.00  0.00    -0.108 OA 
HETATM   25  C   UNL     1      -6.450  11.180  67.751  1.00  0.00    -0.063 C  
HETATM   26  C   UNL     1      -7.573  11.127  66.769  1.00  0.00    -0.146 C  
ENDROOT
BRANCH  22  27
HETATM   27  C   UNL     1     -10.482  12.214  65.084  1.00  0.00    -0.281 C  
HETATM   28  O   UNL     1     -11.394  11.639  64.481  1.00  0.00    -0.308 OA 
BRANCH  27  29
HETATM   29  C   UNL     1     -10.165  13.678  64.792  1.00  0.00    -0.337 C  
BRANCH  29  30
HETATM   30  O   UNL     1     -11.355  14.470  64.694  1.00  0.00    -0.382 OA 
BRANCH  30  31
HETATM   31  C   UNL     1     -11.115  15.810  64.682  1.00  0.00    -0.361 C  
HETATM   32  C   UNL     1     -10.127  16.190  65.749  1.00  0.00    -0.390 C  
HETATM   33  O   UNL     1     -11.649  16.605  63.911  1.00  0.00    -1.204 OA 
ENDBRANCH  30  31
ENDBRANCH  29  30
ENDBRANCH  27  29
ENDBRANCH  22  27
TORSDOF 4
ENDMDL
MODEL        6
REMARK 921   NORMALIZED FREE ENERGY PREDICTED BY IDOCK:   -7.41 KCAL/MOL
REMARK 922        TOTAL FREE ENERGY PREDICTED BY IDOCK:   -9.39 KCAL/MOL
REMARK 923 INTER-LIGAND FREE ENERGY PREDICTED BY IDOCK:   -8.92 KCAL/MOL
REMARK 924 INTRA-LIGAND FREE ENERGY PREDICTED BY IDOCK:   -0.47 KCAL/MOL
REMARK 927      BINDING AFFINITY PREDICTED BY RF-SCORE:    0.00 PKD
ROOT
HETATM    1  C   UNL     1      -9.629  11.771  66.328  1.00  0.00    -0.225 C  
HETATM    2  C   UNL     1      -8.659  12.655  67.015  1.00  0.00    -0.181 C  
HETATM    3  C   UNL     1      -9.516  13.802  67.551  1.00  0.00    -0.220 C  
HETATM    4  C   UNL     1      -9.312  15.235  67.098  1.00  0.00    -0.227 C  
HETATM    5  C   UNL     1      -7.832  15.486  66.773  1.00  0.00    -0.162 C  
HETATM    6  C   UNL     1      -7.556  16.947  66.532  1.00  0.00    -0.328 C  
HETATM    7  C   UNL     1      -8.037  17.816  67.702  1.00  0.00    -0.223 C  
HETATM    8  C   UNL     1      -7.521  19.058  67.785  1.00  0.00    -0.271 C  
HETATM    9  C   UNL     1      -8.066  19.799  66.589  1.00  0.00    -0.315 C  
HETATM   10  C   UNL     1      -9.473  19.424  66.154  1.00  0.00    -0.361 C  
HETATM   11  O   UNL     1      -7.402  20.649  66.012  1.00  0.00    -0.130 OA 
HETATM   12  C   UNL     1     -10.167  18.426  66.768  1.00  0.00    -0.410 C  
HETATM   13  C   UNL     1      -9.561  17.684  67.984  1.00  0.00    -0.289 C  
HETATM   14  C   UNL     1      -9.759  16.136  68.290  1.00  0.00    -0.220 C  
HETATM   15  C   UNL     1     -10.084  18.496  69.199  1.00  0.00    -0.171 C  
HETATM   16  C   UNL     1     -11.060  15.629  69.028  1.00  0.00    -0.279 C  
HETATM   17  C   UNL     1     -11.286  14.017  69.088  1.00  0.00    -0.308 C  
HETATM   18  O   UNL     1     -12.195  16.330  68.527  1.00  0.00    -0.129 OA 
HETATM   19  C   UNL     1     -11.039  13.402  67.655  1.00  0.00    -0.288 C  
HETATM   20  H   UNL     1     -12.978  16.024  68.971  1.00  0.00     0.000 HD 
HETATM   21  C   UNL     1     -12.266  14.059  66.915  1.00  0.00    -0.415 C  
HETATM   22  C   UNL     1     -10.938  11.864  67.120  1.00  0.00    -0.269 C  
HETATM   23  N   UNL     1     -11.900  11.656  65.961  1.00  0.00    -0.304 NA 
HETATM   24  O   UNL     1      -9.925  12.369  65.071  1.00  0.00    -0.265 OA 
HETATM   25  C   UNL     1     -11.850  12.969  63.822  1.00  0.00    -0.566 C  
HETATM   26  C   UNL     1     -11.259  12.233  64.979  1.00  0.00    -0.321 C  
ENDROOT
BRANCH  22  27
HETATM   27  C   UNL     1     -11.130  10.800  68.206  1.00  0.00    -0.271 C  
HETATM   28  O   UNL     1     -12.154  10.785  68.898  1.00  0.00    -0.420 OA 
BRANCH  27  29
HETATM   29  C   UNL     1     -10.032   9.764  68.427  1.00  0.00    -0.156 C  
BRANCH  29  30
HETATM   30  O   UNL     1     -10.551   8.429  68.416  1.00  0.00    -0.190 OA 
BRANCH  30  31
HETATM   31  C   UNL     1     -10.403   7.799  67.218  1.00  0.00    -0.301 C  
HETATM   32  C   UNL     1     -11.036   6.437  67.243  1.00  0.00    -0.474 C  
HETATM   33  O   UNL     1      -9.814   8.278  66.249  1.00  0.00    -0.232 OA 
ENDBRANCH  30  31
ENDBRANCH  29  30
ENDBRANCH  27  29
ENDBRANCH  22  27
TORSDOF 4
ENDMDL
MODEL        7
REMARK 921   NORMALIZED FREE ENERGY PREDICTED BY IDOCK:   -7.38 KCAL/MOL
REMARK 922        TOTAL FREE ENERGY PREDICTED BY IDOCK:   -9.35 KCAL/MOL
REMARK 923 INTER-LIGAND FREE ENERGY PREDICTED BY IDOCK:   -8.74 KCAL/MOL
REMARK 924 INTRA-LIGAND FREE ENERGY PREDICTED BY IDOCK:   -0.61 KCAL/MOL
REMARK 927      BINDING AFFINITY PREDICTED BY RF-SCORE:    0.00 PKD
ROOT
HETATM    1  C   UNL     1      -9.063  16.059  68.779  1.00  0.00    -0.222 C  
HETATM    2  C   UNL     1      -8.108  15.010  68.354  1.00  0.00    -0.141 C  
HETATM    3  C   UNL     1      -8.953  14.062  67.502  1.00  0.00    -0.195 C  
HETATM    4  C   UNL     1      -9.167  12.611  67.890  1.00  0.00    -0.201 C  
HETATM    5  C   UNL     1      -7.934  12.068  68.627  1.00  0.00    -0.082 C  
HETATM    6  C   UNL     1      -8.020  10.578  68.832  1.00  0.00    -0.128 C  
HETATM    7  C   UNL     1      -8.266   9.836  67.511  1.00  0.00    -0.114 C  
HETATM    8  C   UNL     1      -7.989   8.518  67.497  1.00  0.00    -0.106 C  
HETATM    9  C   UNL     1      -9.004   7.885  68.416  1.00  0.00    -0.133 C  
HETATM   10  C   UNL     1     -10.382   8.525  68.433  1.00  0.00    -0.241 C  
HETATM   11  O   UNL     1      -8.721   6.913  69.103  1.00  0.00    -0.134 OA 
HETATM   12  C   UNL     1     -10.656   9.648  67.712  1.00  0.00    -0.320 C  
HETATM   13  C   UNL     1      -9.576  10.271  66.793  1.00  0.00    -0.214 C  
HETATM   14  C   UNL     1      -9.380  11.831  66.555  1.00  0.00    -0.217 C  
HETATM   15  C   UNL     1      -9.837   9.594  65.422  1.00  0.00    -0.322 C  
HETATM   16  C   UNL     1     -10.272  12.595  65.499  1.00  0.00    -0.281 C  
HETATM   17  C   UNL     1     -10.167  14.221  65.492  1.00  0.00    -0.379 C  
HETATM   18  O   UNL     1     -11.615  12.126  65.582  1.00  0.00    -0.364 OA 
HETATM   19  C   UNL     1     -10.268  14.757  66.973  1.00  0.00    -0.253 C  
HETATM   20  H   UNL     1     -12.151  12.586  64.947  1.00  0.00     0.000 HD 
HETATM   21  C   UNL     1     -11.762  14.346  67.258  1.00  0.00    -0.429 C  
HETATM   22  C   UNL     1     -10.056  16.237  67.625  1.00  0.00    -0.260 C  
HETATM   23  N   UNL     1     -11.274  16.617  68.451  1.00  0.00    -0.316 NA 
HETATM   24  O   UNL     1      -9.839  15.516  69.841  1.00  0.00    -0.286 OA 
HETATM   25  C   UNL     1     -12.132  15.293  70.405  1.00  0.00    -0.388 C  
HETATM   26  C   UNL     1     -11.086  15.912  69.536  1.00  0.00    -0.315 C  
ENDROOT
BRANCH  22  27
HETATM   27  C   UNL     1      -9.702  17.332  66.612  1.00  0.00    -0.288 C  
HETATM   28  O   UNL     1      -8.804  17.154  65.782  1.00  0.00    -0.526 OA 
BRANCH  27  29
HETATM   29  C   UNL     1     -10.470  18.650  66.651  1.00  0.00    -0.413 C  
BRANCH  29  30
HETATM   30  O   UNL     1      -9.635  19.739  67.065  1.00  0.00    -0.328 OA 
BRANCH  30  31
HETATM   31  C   UNL     1      -9.253  19.664  68.370  1.00  0.00    -0.339 C  
HETATM   32  C   UNL     1      -7.756  19.632  68.491  1.00  0.00    -0.369 C  
HETATM   33  O   UNL     1     -10.033  19.612  69.320  1.00  0.00    -0.436 OA 
ENDBRANCH  30  31
ENDBRANCH  29  30
ENDBRANCH  27  29
ENDBRANCH  22  27
TORSDOF 4
ENDMDL
MODEL        8
REMARK 921   NORMALIZED FREE ENERGY PREDICTED BY IDOCK:   -7.31 KCAL/MOL
REMARK 922        TOTAL FREE ENERGY PREDICTED BY IDOCK:   -9.27 KCAL/MOL
REMARK 923 INTER-LIGAND FREE ENERGY PREDICTED BY IDOCK:   -8.73 KCAL/MOL
REMARK 924 INTRA-LIGAND FREE ENERGY PREDICTED BY IDOCK:   -0.54 KCAL/MOL
REMARK 927      BINDING AFFINITY PREDICTED BY RF-SCORE:    0.00 PKD
ROOT
HETATM    1  C   UNL     1      -8.812  16.823  68.231  1.00  0.00    -0.228 C  
HETATM    2  C   UNL     1      -7.997  15.852  67.466  1.00  0.00    -0.166 C  
HETATM    3  C   UNL     1      -9.030  14.950  66.790  1.00  0.00    -0.295 C  
HETATM    4  C   UNL     1      -9.111  13.464  67.082  1.00  0.00    -0.235 C  
HETATM    5  C   UNL     1      -7.716  12.906  67.402  1.00  0.00    -0.160 C  
HETATM    6  C   UNL     1      -7.723  11.402  67.481  1.00  0.00    -0.125 C  
HETATM    7  C   UNL     1      -8.312  10.769  66.213  1.00  0.00    -0.160 C  
HETATM    8  C   UNL     1      -8.031   9.469  66.000  1.00  0.00    -0.107 C  
HETATM    9  C   UNL     1      -8.747   8.719  67.096  1.00  0.00    -0.120 C  
HETATM   10  C   UNL     1     -10.076   9.302  67.547  1.00  0.00    -0.273 C  
HETATM   11  O   UNL     1      -8.273   7.703  67.585  1.00  0.00    -0.119 OA 
HETATM   12  C   UNL     1     -10.551  10.472  67.038  1.00  0.00    -0.310 C  
HETATM   13  C   UNL     1      -9.774  11.214  65.923  1.00  0.00    -0.268 C  
HETATM   14  C   UNL     1      -9.671  12.795  65.789  1.00  0.00    -0.167 C  
HETATM   15  C   UNL     1     -10.392  10.650  64.616  1.00  0.00    -0.353 C  
HETATM   16  C   UNL     1     -10.829  13.614  65.091  1.00  0.00    -0.334 C  
HETATM   17  C   UNL     1     -10.751  15.236  65.210  1.00  0.00    -0.433 C  
HETATM   18  O   UNL     1     -12.091  13.088  65.492  1.00  0.00    -0.400 OA 
HETATM   19  C   UNL     1     -10.449  15.637  66.706  1.00  0.00    -0.297 C  
HETATM   20  H   UNL     1     -12.787  13.580  65.072  1.00  0.00     0.000 HD 
HETATM   21  C   UNL     1     -11.803  15.145  67.347  1.00  0.00    -0.086 C  
HETATM   22  C   UNL     1     -10.086  17.061  67.412  1.00  0.00    -0.291 C  
HETATM   23  N   UNL     1     -11.036  17.321  68.571  1.00  0.00    -0.233 NA 
HETATM   24  O   UNL     1      -9.260  16.159  69.408  1.00  0.00    -0.248 OA 
HETATM   25  C   UNL     1     -11.308  15.800  70.550  1.00  0.00    -0.400 C  
HETATM   26  C   UNL     1     -10.549  16.532  69.493  1.00  0.00    -0.321 C  
ENDROOT
BRANCH  22  27
HETATM   27  C   UNL     1     -10.038  18.253  66.449  1.00  0.00    -0.396 C  
HETATM   28  O   UNL     1     -10.686  18.239  65.398  1.00  0.00    -0.610 OA 
BRANCH  27  29
HETATM   29  C   UNL     1      -9.169  19.456  66.806  1.00  0.00    -0.333 C  
BRANCH  29  30
HETATM   30  O   UNL     1      -8.230  19.759  65.766  1.00  0.00    -0.389 OA 
BRANCH  30  31
HETATM   31  C   UNL     1      -7.062  19.069  65.874  1.00  0.00    -0.263 C  
HETATM   32  C   UNL     1      -6.391  19.346  67.189  1.00  0.00    -0.195 C  
HETATM   33  O   UNL     1      -6.608  18.331  65.000  1.00  0.00    -0.413 OA 
ENDBRANCH  30  31
ENDBRANCH  29  30
ENDBRANCH  27  29
ENDBRANCH  22  27
TORSDOF 4
ENDMDL
MODEL        9
REMARK 921   NORMALIZED FREE ENERGY PREDICTED BY IDOCK:   -7.30 KCAL/MOL
REMARK 922        TOTAL FREE ENERGY PREDICTED BY IDOCK:   -9.25 KCAL/MOL
REMARK 923 INTER-LIGAND FREE ENERGY PREDICTED BY IDOCK:   -8.81 KCAL/MOL
REMARK 924 INTRA-LIGAND FREE ENERGY PREDICTED BY IDOCK:   -0.45 KCAL/MOL
REMARK 927      BINDING AFFINITY PREDICTED BY RF-SCORE:    0.00 PKD
ROOT
HETATM    1  C   UNL     1      -8.956  16.419  68.511  1.00  0.00    -0.224 C  
HETATM    2  C   UNL     1      -8.030  15.378  68.010  1.00  0.00    -0.134 C  
HETATM    3  C   UNL     1      -8.935  14.415  67.240  1.00  0.00    -0.221 C  
HETATM    4  C   UNL     1      -9.097  12.965  67.653  1.00  0.00    -0.194 C  
HETATM    5  C   UNL     1      -7.798  12.440  68.282  1.00  0.00    -0.150 C  
HETATM    6  C   UNL     1      -7.848  10.951  68.503  1.00  0.00    -0.126 C  
HETATM    7  C   UNL     1      -8.200  10.198  67.213  1.00  0.00    -0.117 C  
HETATM    8  C   UNL     1      -7.909   8.883  67.182  1.00  0.00    -0.096 C  
HETATM    9  C   UNL     1      -8.832   8.244  68.190  1.00  0.00    -0.139 C  
HETATM   10  C   UNL     1     -10.211   8.869  68.324  1.00  0.00    -0.239 C  
HETATM   11  O   UNL     1      -8.478   7.280  68.854  1.00  0.00    -0.125 OA 
HETATM   12  C   UNL     1     -10.560   9.984  67.624  1.00  0.00    -0.323 C  
HETATM   13  C   UNL     1      -9.573  10.613  66.610  1.00  0.00    -0.209 C  
HETATM   14  C   UNL     1      -9.417  12.174  66.347  1.00  0.00    -0.238 C  
HETATM   15  C   UNL     1      -9.945   9.924  65.271  1.00  0.00    -0.320 C  
HETATM   16  C   UNL     1     -10.407  12.920  65.369  1.00  0.00    -0.296 C  
HETATM   17  C   UNL     1     -10.322  14.547  65.344  1.00  0.00    -0.405 C  
HETATM   18  O   UNL     1     -11.732  12.437  65.573  1.00  0.00    -0.375 OA 
HETATM   19  C   UNL     1     -10.299  15.091  66.825  1.00  0.00    -0.270 C  
HETATM   20  H   UNL     1     -12.327  12.886  64.984  1.00  0.00     0.000 HD 
HETATM   21  C   UNL     1     -11.758  14.666  67.243  1.00  0.00    -0.406 C  
HETATM   22  C   UNL     1     -10.048  16.578  67.447  1.00  0.00    -0.279 C  
HETATM   23  N   UNL     1     -11.194  16.950  68.376  1.00  0.00    -0.221 NA 
HETATM   24  O   UNL     1      -9.629  15.874  69.640  1.00  0.00    -0.259 OA 
HETATM   25  C   UNL     1     -11.861  15.629  70.404  1.00  0.00    -0.395 C  
HETATM   26  C   UNL     1     -10.903  16.255  69.444  1.00  0.00    -0.331 C  
ENDROOT
BRANCH  22  27
HETATM   27  C   UNL     1      -9.798  17.670  66.401  1.00  0.00    -0.309 C  
HETATM   28  O   UNL     1     -10.601  17.855  65.480  1.00  0.00    -0.638 OA 
BRANCH  27  29
HETATM   29  C   UNL     1      -8.535  18.520  66.509  1.00  0.00    -0.277 C  
BRANCH  29  30
HETATM   30  O   UNL     1      -8.775  19.740  67.221  1.00  0.00    -0.299 OA 
BRANCH  30  31
HETATM   31  C   UNL     1      -7.644  20.306  67.724  1.00  0.00    -0.275 C  
HETATM   32  C   UNL     1      -7.127  19.524  68.898  1.00  0.00    -0.394 C  
HETATM   33  O   UNL     1      -7.125  21.331  67.285  1.00  0.00    -0.522 OA 
ENDBRANCH  30  31
ENDBRANCH  29  30
ENDBRANCH  27  29
ENDBRANCH  22  27
TORSDOF 4
ENDMDL
MODEL       10
REMARK 921   NORMALIZED FREE ENERGY PREDICTED BY IDOCK:   -6.90 KCAL/MOL
REMARK 922        TOTAL FREE ENERGY PREDICTED BY IDOCK:   -8.77 KCAL/MOL
REMARK 923 INTER-LIGAND FREE ENERGY PREDICTED BY IDOCK:   -8.46 KCAL/MOL
REMARK 924 INTRA-LIGAND FREE ENERGY PREDICTED BY IDOCK:   -0.30 KCAL/MOL
REMARK 927      BINDING AFFINITY PREDICTED BY RF-SCORE:    0.00 PKD
ROOT
HETATM    1  C   UNL     1      -8.992  14.974  67.704  1.00  0.00    -0.178 C  
HETATM    2  C   UNL     1      -8.222  13.721  67.535  1.00  0.00    -0.194 C  
HETATM    3  C   UNL     1      -9.256  12.616  67.750  1.00  0.00    -0.195 C  
HETATM    4  C   UNL     1      -9.136  11.615  68.883  1.00  0.00     0.060 C  
HETATM    5  C   UNL     1      -7.659  11.338  69.196  1.00  0.00    -0.070 C  
HETATM    6  C   UNL     1      -7.500  10.192  70.162  1.00  0.00    -0.146 C  
HETATM    7  C   UNL     1      -8.224   8.931  69.669  1.00  0.00    -0.114 C  
HETATM    8  C   UNL     1      -7.853   7.763  70.229  1.00  0.00    -0.091 C  
HETATM    9  C   UNL     1      -8.298   7.849  71.668  1.00  0.00    -0.116 C  
HETATM   10  C   UNL     1      -9.585   8.613  71.925  1.00  0.00    -0.377 C  
HETATM   11  O   UNL     1      -7.649   7.329  72.566  1.00  0.00    -0.082 OA 
HETATM   12  C   UNL     1     -10.255   9.243  70.920  1.00  0.00    -0.371 C  
HETATM   13  C   UNL     1      -9.751   9.138  69.459  1.00  0.00    -0.176 C  
HETATM   14  C   UNL     1      -9.833  10.311  68.387  1.00  0.00    -0.168 C  
HETATM   15  C   UNL     1     -10.517   7.909  68.902  1.00  0.00    -0.205 C  
HETATM   16  C   UNL     1     -11.167  10.560  67.578  1.00  0.00    -0.224 C  
HETATM   17  C   UNL     1     -11.235  11.919  66.683  1.00  0.00    -0.384 C  
HETATM   18  O   UNL     1     -12.285  10.413  68.448  1.00  0.00    -0.686 OA 
HETATM   19  C   UNL     1     -10.731  13.140  67.547  1.00  0.00    -0.248 C  
HETATM   20  H   UNL     1     -13.087  10.563  67.962  1.00  0.00     0.000 HD 
HETATM   21  C   UNL     1     -11.903  13.167  68.600  1.00  0.00    -0.363 C  
HETATM   22  C   UNL     1     -10.402  14.693  67.171  1.00  0.00    -0.265 C  
HETATM   23  N   UNL     1     -11.168  15.622  68.099  1.00  0.00    -0.335 NA 
HETATM   24  O   UNL     1      -9.170  15.172  69.102  1.00  0.00    -0.206 OA 
HETATM   25  C   UNL     1     -10.953  15.623  70.600  1.00  0.00    -0.364 C  
HETATM   26  C   UNL     1     -10.457  15.546  69.193  1.00  0.00    -0.232 C  
ENDROOT
BRANCH  22  27
HETATM   27  C   UNL     1     -10.635  15.053  65.699  1.00  0.00    -0.346 C  
HETATM   28  O   UNL     1     -10.517  14.197  64.816  1.00  0.00    -0.420 OA 
BRANCH  27  29
HETATM   29  C   UNL     1     -11.005  16.489  65.340  1.00  0.00    -0.131 C  
BRANCH  29  30
HETATM   30  O   UNL     1      -9.938  17.401  65.628  1.00  0.00    -0.559 OA 
BRANCH  30  31
HETATM   31  C   UNL     1     -10.368  18.638  66.002  1.00  0.00    -0.399 C  
HETATM   32  C   UNL     1     -10.084  18.891  67.455  1.00  0.00    -0.420 C  
HETATM   33  O   UNL     1     -10.929  19.435  65.251  1.00  0.00    -0.457 OA 
ENDBRANCH  30  31
ENDBRANCH  29  30
ENDBRANCH  27  29
ENDBRANCH  22  27
TORSDOF 4
ENDMDL
MODEL       11
REMARK 921   NORMALIZED FREE ENERGY PREDICTED BY IDOCK:   -6.89 KCAL/MOL
REMARK 922        TOTAL FREE ENERGY PREDICTED BY IDOCK:   -8.75 KCAL/MOL
REMARK 923 INTER-LIGAND FREE ENERGY PREDICTED BY IDOCK:   -7.85 KCAL/MOL
REMARK 924 INTRA-LIGAND FREE ENERGY PREDICTED BY IDOCK:   -0.91 KCAL/MOL
REMARK 927      BINDING AFFINITY PREDICTED BY RF-SCORE:    0.00 PKD
ROOT
HETATM    1  C   UNL     1     -10.150   8.362  71.596  1.00  0.00    -0.239 C  
HETATM    2  C   UNL     1     -11.245   9.203  71.060  1.00  0.00    -0.380 C  
HETATM    3  C   UNL     1     -10.890   9.380  69.584  1.00  0.00    -0.245 C  
HETATM    4  C   UNL     1     -10.603  10.743  68.985  1.00  0.00    -0.250 C  
HETATM    5  C   UNL     1     -11.430  11.824  69.697  1.00  0.00    -0.341 C  
HETATM    6  C   UNL     1     -11.338  13.151  68.991  1.00  0.00    -0.332 C  
HETATM    7  C   UNL     1     -11.714  13.032  67.507  1.00  0.00    -0.421 C  
HETATM    8  C   UNL     1     -12.035  14.175  66.871  1.00  0.00    -0.479 C  
HETATM    9  C   UNL     1     -10.758  14.976  66.817  1.00  0.00    -0.308 C  
HETATM   10  C   UNL     1      -9.474  14.178  66.662  1.00  0.00    -0.303 C  
HETATM   11  O   UNL     1     -10.770  16.197  66.894  1.00  0.00    -0.314 OA 
HETATM   12  C   UNL     1      -9.478  12.816  66.647  1.00  0.00    -0.249 C  
HETATM   13  C   UNL     1     -10.814  12.036  66.720  1.00  0.00    -0.307 C  
HETATM   14  C   UNL     1     -11.016  10.656  67.483  1.00  0.00    -0.371 C  
HETATM   15  C   UNL     1     -11.195  11.834  65.230  1.00  0.00    -0.315 C  
HETATM   16  C   UNL     1     -10.622   9.294  66.786  1.00  0.00    -0.137 C  
HETATM   17  C   UNL     1     -10.640   7.961  67.722  1.00  0.00    -0.244 C  
HETATM   18  O   UNL     1      -9.395   9.459  66.079  1.00  0.00    -0.183 OA 
HETATM   19  C   UNL     1      -9.893   8.265  69.079  1.00  0.00    -0.176 C  
HETATM   20  H   UNL     1      -9.159   8.640  65.660  1.00  0.00     0.000 HD 
HETATM   21  C   UNL     1      -8.441   8.457  68.496  1.00  0.00    -0.132 C  
HETATM   22  C   UNL     1      -9.735   7.416  70.462  1.00  0.00    -0.175 C  
HETATM   23  N   UNL     1      -8.264   7.287  70.824  1.00  0.00    -0.111 NA 
HETATM   24  O   UNL     1      -9.024   9.210  71.787  1.00  0.00    -0.345 OA 
HETATM   25  C   UNL     1      -6.722   9.231  71.213  1.00  0.00    -0.047 C  
HETATM   26  C   UNL     1      -8.006   8.474  71.309  1.00  0.00    -0.132 C  
ENDROOT
BRANCH  22  27
HETATM   27  C   UNL     1     -10.432   6.051  70.453  1.00  0.00    -0.246 C  
HETATM   28  O   UNL     1     -11.657   5.970  70.587  1.00  0.00    -0.261 OA 
BRANCH  27  29
HETATM   29  C   UNL     1      -9.587   4.792  70.285  1.00  0.00    -0.199 C  
BRANCH  29  30
HETATM   30  O   UNL     1      -9.863   4.128  69.046  1.00  0.00    -0.154 OA 
BRANCH  30  31
HETATM   31  C   UNL     1      -9.057   4.529  68.024  1.00  0.00    -0.123 C  
HETATM   32  C   UNL     1      -9.727   4.320  66.696  1.00  0.00    -0.239 C  
HETATM   33  O   UNL     1      -7.924   4.985  68.171  1.00  0.00    -0.086 OA 
ENDBRANCH  30  31
ENDBRANCH  29  30
ENDBRANCH  27  29
ENDBRANCH  22  27
TORSDOF 4
ENDMDL
MODEL       12
REMARK 921   NORMALIZED FREE ENERGY PREDICTED BY IDOCK:   -6.80 KCAL/MOL
REMARK 922        TOTAL FREE ENERGY PREDICTED BY IDOCK:   -8.64 KCAL/MOL
REMARK 923 INTER-LIGAND FREE ENERGY PREDICTED BY IDOCK:   -7.98 KCAL/MOL
REMARK 924 INTRA-LIGAND FREE ENERGY PREDICTED BY IDOCK:   -0.66 KCAL/MOL
REMARK 927      BINDING AFFINITY PREDICTED BY RF-SCORE:    0.00 PKD
ROOT
HETATM    1  C   UNL     1     -10.144   8.288  71.426  1.00  0.00    -0.200 C  
HETATM    2  C   UNL     1     -11.245   9.118  70.887  1.00  0.00    -0.359 C  
HETATM    3  C   UNL     1     -10.841   9.375  69.435  1.00  0.00    -0.208 C  
HETATM    4  C   UNL     1     -10.577  10.774  68.911  1.00  0.00    -0.246 C  
HETATM    5  C   UNL     1     -11.466  11.792  69.639  1.00  0.00    -0.341 C  
HETATM    6  C   UNL     1     -11.391  13.154  68.998  1.00  0.00    -0.332 C  
HETATM    7  C   UNL     1     -11.707  13.093  67.497  1.00  0.00    -0.414 C  
HETATM    8  C   UNL     1     -12.042  14.253  66.901  1.00  0.00    -0.440 C  
HETATM    9  C   UNL     1     -10.790  15.096  66.933  1.00  0.00    -0.317 C  
HETATM   10  C   UNL     1      -9.476  14.347  66.793  1.00  0.00    -0.280 C  
HETATM   11  O   UNL     1     -10.846  16.311  67.066  1.00  0.00    -0.283 OA 
HETATM   12  C   UNL     1      -9.434  12.988  66.716  1.00  0.00    -0.250 C  
HETATM   13  C   UNL     1     -10.745  12.164  66.701  1.00  0.00    -0.281 C  
HETATM   14  C   UNL     1     -10.929  10.743  67.392  1.00  0.00    -0.361 C  
HETATM   15  C   UNL     1     -11.062  12.019  65.189  1.00  0.00    -0.369 C  
HETATM   16  C   UNL     1     -10.464   9.429  66.649  1.00  0.00    -0.168 C  
HETATM   17  C   UNL     1     -10.474   8.054  67.522  1.00  0.00    -0.331 C  
HETATM   18  O   UNL     1      -9.218   9.665  66.000  1.00  0.00    -0.158 OA 
HETATM   19  C   UNL     1      -9.788   8.317  68.919  1.00  0.00    -0.183 C  
HETATM   20  H   UNL     1      -8.939   8.874  65.553  1.00  0.00     0.000 HD 
HETATM   21  C   UNL     1      -8.323   8.581  68.404  1.00  0.00    -0.124 C  
HETATM   22  C   UNL     1      -9.655   7.410  70.268  1.00  0.00    -0.165 C  
HETATM   23  N   UNL     1      -8.195   7.310  70.682  1.00  0.00    -0.115 NA 
HETATM   24  O   UNL     1      -9.055   9.161  71.700  1.00  0.00    -0.334 OA 
HETATM   25  C   UNL     1      -6.735   9.281  71.219  1.00  0.00    -0.047 C  
HETATM   26  C   UNL     1      -7.996   8.480  71.229  1.00  0.00    -0.132 C  
ENDROOT
BRANCH  22  27
HETATM   27  C   UNL     1     -10.305   6.025  70.169  1.00  0.00    -0.224 C  
HETATM   28  O   UNL     1     -11.481   5.907  69.807  1.00  0.00    -0.307 OA 
BRANCH  27  29
HETATM   29  C   UNL     1      -9.481   4.794  70.534  1.00  0.00    -0.172 C  
BRANCH  29  30
HETATM   30  O   UNL     1     -10.056   4.076  71.633  1.00  0.00    -0.178 OA 
BRANCH  30  31
HETATM   31  C   UNL     1      -9.979   4.744  72.817  1.00  0.00    -0.163 C  
HETATM   32  C   UNL     1     -11.340   4.910  73.430  1.00  0.00    -0.379 C  
HETATM   33  O   UNL     1      -8.935   5.169  73.309  1.00  0.00    -0.121 OA 
ENDBRANCH  30  31
ENDBRANCH  29  30
ENDBRANCH  27  29
ENDBRANCH  22  27
TORSDOF 4
ENDMDL
MODEL       13
REMARK 921   NORMALIZED FREE ENERGY PREDICTED BY IDOCK:   -6.79 KCAL/MOL
REMARK 922        TOTAL FREE ENERGY PREDICTED BY IDOCK:   -8.63 KCAL/MOL
REMARK 923 INTER-LIGAND FREE ENERGY PREDICTED BY IDOCK:   -8.53 KCAL/MOL
REMARK 924 INTRA-LIGAND FREE ENERGY PREDICTED BY IDOCK:   -0.10 KCAL/MOL
REMARK 927      BINDING AFFINITY PREDICTED BY RF-SCORE:    0.00 PKD
ROOT
HETATM    1  C   UNL     1     -10.071   8.634  66.846  1.00  0.00    -0.285 C  
HETATM    2  C   UNL     1     -10.835   7.588  67.563  1.00  0.00    -0.232 C  
HETATM    3  C   UNL     1     -10.509   7.833  69.037  1.00  0.00    -0.215 C  
HETATM    4  C   UNL     1      -9.801   6.795  69.885  1.00  0.00    -0.174 C  
HETATM    5  C   UNL     1     -10.177   5.380  69.420  1.00  0.00    -0.334 C  
HETATM    6  C   UNL     1      -9.668   4.328  70.372  1.00  0.00    -0.280 C  
HETATM    7  C   UNL     1     -10.129   4.595  71.811  1.00  0.00    -0.261 C  
HETATM    8  C   UNL     1     -10.070   3.557  72.667  1.00  0.00    -0.234 C  
HETATM    9  C   UNL     1      -8.599   3.271  72.848  1.00  0.00    -0.081 C  
HETATM   10  C   UNL     1      -7.674   4.475  72.811  1.00  0.00    -0.087 C  
HETATM   11  O   UNL     1      -8.190   2.130  73.013  1.00  0.00    -0.056 OA 
HETATM   12  C   UNL     1      -8.144   5.728  72.557  1.00  0.00    -0.103 C  
HETATM   13  C   UNL     1      -9.661   5.971  72.365  1.00  0.00    -0.162 C  
HETATM   14  C   UNL     1     -10.287   7.024  71.350  1.00  0.00    -0.211 C  
HETATM   15  C   UNL     1     -10.155   6.315  73.795  1.00  0.00    -0.261 C  
HETATM   16  C   UNL     1     -10.414   8.545  71.755  1.00  0.00    -0.300 C  
HETATM   17  C   UNL     1     -10.844   9.583  70.576  1.00  0.00    -0.352 C  
HETATM   18  O   UNL     1      -9.238   8.952  72.451  1.00  0.00    -0.362 OA 
HETATM   19  C   UNL     1      -9.976   9.298  69.288  1.00  0.00    -0.180 C  
HETATM   20  H   UNL     1      -9.315   9.867  72.694  1.00  0.00     0.000 HD 
HETATM   21  C   UNL     1      -8.575   9.734  69.861  1.00  0.00    -0.236 C  
HETATM   22  C   UNL     1     -10.055   9.865  67.761  1.00  0.00    -0.180 C  
HETATM   23  N   UNL     1      -8.702  10.419  67.345  1.00  0.00    -0.125 NA 
HETATM   24  O   UNL     1      -8.715   8.205  66.798  1.00  0.00    -0.126 OA 
HETATM   25  C   UNL     1      -6.573   9.088  67.310  1.00  0.00    -0.061 C  
HETATM   26  C   UNL     1      -8.033   9.324  67.097  1.00  0.00    -0.106 C  
ENDROOT
BRANCH  22  27
HETATM   27  C   UNL     1     -11.176  10.882  67.518  1.00  0.00    -0.293 C  
HETATM   28  O   UNL     1     -12.126  10.971  68.303  1.00  0.00    -0.604 OA 
BRANCH  27  29
HETATM   29  C   UNL     1     -11.106  11.778  66.284  1.00  0.00    -0.311 C  
BRANCH  29  30
HETATM   30  O   UNL     1     -12.396  12.285  65.923  1.00  0.00    -0.618 OA 
BRANCH  30  31
HETATM   31  C   UNL     1     -12.384  13.040  64.790  1.00  0.00    -0.436 C  
HETATM   32  C   UNL     1     -11.812  12.269  63.635  1.00  0.00    -0.610 C  
HETATM   33  O   UNL     1     -12.775  14.205  64.727  1.00  0.00    -0.650 OA 
ENDBRANCH  30  31
ENDBRANCH  29  30
ENDBRANCH  27  29
ENDBRANCH  22  27
TORSDOF 4
ENDMDL
MODEL       14
REMARK 921   NORMALIZED FREE ENERGY PREDICTED BY IDOCK:   -6.76 KCAL/MOL
REMARK 922        TOTAL FREE ENERGY PREDICTED BY IDOCK:   -8.59 KCAL/MOL
REMARK 923 INTER-LIGAND FREE ENERGY PREDICTED BY IDOCK:   -7.99 KCAL/MOL
REMARK 924 INTRA-LIGAND FREE ENERGY PREDICTED BY IDOCK:   -0.60 KCAL/MOL
REMARK 927      BINDING AFFINITY PREDICTED BY RF-SCORE:    0.00 PKD
ROOT
HETATM    1  C   UNL     1      -8.244  10.524  66.451  1.00  0.00    -0.140 C  
HETATM    2  C   UNL     1      -7.700  11.591  67.321  1.00  0.00    -0.150 C  
HETATM    3  C   UNL     1      -8.914  12.461  67.646  1.00  0.00    -0.183 C  
HETATM    4  C   UNL     1      -8.992  13.918  67.232  1.00  0.00    -0.225 C  
HETATM    5  C   UNL     1      -7.591  14.548  67.231  1.00  0.00    -0.150 C  
HETATM    6  C   UNL     1      -7.652  16.041  67.039  1.00  0.00    -0.265 C  
HETATM    7  C   UNL     1      -8.575  16.708  68.068  1.00  0.00    -0.193 C  
HETATM    8  C   UNL     1      -8.424  18.034  68.246  1.00  0.00    -0.293 C  
HETATM    9  C   UNL     1      -8.874  18.667  66.952  1.00  0.00    -0.287 C  
HETATM   10  C   UNL     1     -10.013  17.970  66.228  1.00  0.00    -0.338 C  
HETATM   11  O   UNL     1      -8.342  19.681  66.522  1.00  0.00    -0.299 OA 
HETATM   12  C   UNL     1     -10.544  16.803  66.689  1.00  0.00    -0.198 C  
HETATM   13  C   UNL     1     -10.039  16.184  68.016  1.00  0.00    -0.242 C  
HETATM   14  C   UNL     1      -9.896  14.624  68.290  1.00  0.00    -0.222 C  
HETATM   15  C   UNL     1     -10.997  16.783  69.080  1.00  0.00    -0.239 C  
HETATM   16  C   UNL     1     -11.150  13.773  68.735  1.00  0.00    -0.266 C  
HETATM   17  C   UNL     1     -10.964  12.155  68.762  1.00  0.00    -0.274 C  
HETATM   18  O   UNL     1     -12.294  14.188  67.992  1.00  0.00    -0.560 OA 
HETATM   19  C   UNL     1     -10.272  11.687  67.424  1.00  0.00    -0.226 C  
HETATM   20  H   UNL     1     -13.048  13.676  68.260  1.00  0.00     0.000 HD 
HETATM   21  C   UNL     1     -11.440  12.046  66.429  1.00  0.00    -0.417 C  
HETATM   22  C   UNL     1      -9.670  10.249  66.941  1.00  0.00    -0.186 C  
HETATM   23  N   UNL     1     -10.280   9.857  65.604  1.00  0.00    -0.232 NA 
HETATM   24  O   UNL     1      -8.410  11.083  65.153  1.00  0.00    -0.064 OA 
HETATM   25  C   UNL     1     -10.115  11.234  63.511  1.00  0.00    -0.443 C  
HETATM   26  C   UNL     1      -9.614  10.620  64.777  1.00  0.00    -0.280 C  
ENDROOT
BRANCH  22  27
HETATM   27  C   UNL     1      -9.810   9.124  67.972  1.00  0.00    -0.168 C  
HETATM   28  O   UNL     1     -10.768   8.345  67.928  1.00  0.00    -0.182 OA 
BRANCH  27  29
HETATM   29  C   UNL     1      -8.750   8.984  69.061  1.00  0.00    -0.138 C  
BRANCH  29  30
HETATM   30  O   UNL     1      -9.067   9.773  70.214  1.00  0.00    -0.237 OA 
BRANCH  30  31
HETATM   31  C   UNL     1      -9.641   9.056  71.220  1.00  0.00    -0.291 C  
HETATM   32  C   UNL     1     -11.097   9.398  71.360  1.00  0.00    -0.450 C  
HETATM   33  O   UNL     1      -9.042   8.249  71.929  1.00  0.00    -0.155 OA 
ENDBRANCH  30  31
ENDBRANCH  29  30
ENDBRANCH  27  29
ENDBRANCH  22  27
TORSDOF 4
ENDMDL
MODEL       15
REMARK 921   NORMALIZED FREE ENERGY PREDICTED BY IDOCK:   -6.76 KCAL/MOL
REMARK 922        TOTAL FREE ENERGY PREDICTED BY IDOCK:   -8.59 KCAL/MOL
REMARK 923 INTER-LIGAND FREE ENERGY PREDICTED BY IDOCK:   -8.24 KCAL/MOL
REMARK 924 INTRA-LIGAND FREE ENERGY PREDICTED BY IDOCK:   -0.35 KCAL/MOL
REMARK 927      BINDING AFFINITY PREDICTED BY RF-SCORE:    0.00 PKD
ROOT
HETATM    1  C   UNL     1     -11.848  13.368  66.918  1.00  0.00    -0.403 C  
HETATM    2  C   UNL     1     -11.121  14.239  65.966  1.00  0.00    -0.319 C  
HETATM    3  C   UNL     1      -9.757  14.452  66.624  1.00  0.00    -0.289 C  
HETATM    4  C   UNL     1      -9.274  15.828  67.041  1.00  0.00    -0.233 C  
HETATM    5  C   UNL     1      -9.829  16.899  66.090  1.00  0.00    -0.318 C  
HETATM    6  C   UNL     1      -9.198  18.244  66.338  1.00  0.00    -0.272 C  
HETATM    7  C   UNL     1      -7.666  18.172  66.281  1.00  0.00    -0.290 C  
HETATM    8  C   UNL     1      -7.012  19.336  66.109  1.00  0.00    -0.261 C  
HETATM    9  C   UNL     1      -7.251  20.122  67.375  1.00  0.00    -0.276 C  
HETATM   10  C   UNL     1      -7.345  19.311  68.656  1.00  0.00    -0.373 C  
HETATM   11  O   UNL     1      -7.360  21.340  67.356  1.00  0.00    -0.484 OA 
HETATM   12  C   UNL     1      -7.288  17.950  68.646  1.00  0.00    -0.271 C  
HETATM   13  C   UNL     1      -7.056  17.187  67.319  1.00  0.00    -0.193 C  
HETATM   14  C   UNL     1      -7.717  15.788  66.952  1.00  0.00    -0.254 C  
HETATM   15  C   UNL     1      -5.513  17.031  67.258  1.00  0.00    -0.174 C  
HETATM   16  C   UNL     1      -7.077  14.441  67.474  1.00  0.00    -0.175 C  
HETATM   17  C   UNL     1      -7.948  13.083  67.250  1.00  0.00    -0.143 C  
HETATM   18  O   UNL     1      -6.649  14.610  68.822  1.00  0.00    -0.084 OA 
HETATM   19  C   UNL     1      -9.439  13.339  67.698  1.00  0.00    -0.211 C  
HETATM   20  H   UNL     1      -6.264  13.800  69.136  1.00  0.00     0.000 HD 
HETATM   21  C   UNL     1      -9.180  13.527  69.241  1.00  0.00     0.707 C  
HETATM   22  C   UNL     1     -10.799  12.450  67.555  1.00  0.00    -0.236 C  
HETATM   23  N   UNL     1     -11.458  12.291  68.917  1.00  0.00    -0.280 NA 
HETATM   24  O   UNL     1     -12.297  14.196  67.985  1.00  0.00    -0.233 OA 
HETATM   25  C   UNL     1     -12.219  14.202  70.356  1.00  0.00    -0.427 C  
HETATM   26  C   UNL     1     -12.021  13.460  69.075  1.00  0.00    -0.315 C  
ENDROOT
BRANCH  22  27
HETATM   27  C   UNL     1     -10.602  11.094  66.866  1.00  0.00    -0.258 C  
HETATM   28  O   UNL     1     -11.073  10.064  67.360  1.00  0.00    -0.257 OA 
BRANCH  27  29
HETATM   29  C   UNL     1      -9.808  11.036  65.565  1.00  0.00    -0.243 C  
BRANCH  29  30
HETATM   30  O   UNL     1     -10.639  10.688  64.451  1.00  0.00    -0.308 OA 
BRANCH  30  31
HETATM   31  C   UNL     1     -10.889  11.733  63.614  1.00  0.00    -0.440 C  
HETATM   32  C   UNL     1     -12.365  11.911  63.401  1.00  0.00    -0.577 C  
HETATM   33  O   UNL     1     -10.019  12.427  63.089  1.00  0.00    -0.350 OA 
ENDBRANCH  30  31
ENDBRANCH  29  30
ENDBRANCH  27  29
ENDBRANCH  22  27
TORSDOF 4
ENDMDL
MODEL       16
REMARK 921   NORMALIZED FREE ENERGY PREDICTED BY IDOCK:   -6.61 KCAL/MOL
REMARK 922        TOTAL FREE ENERGY PREDICTED BY IDOCK:   -8.41 KCAL/MOL
REMARK 923 INTER-LIGAND FREE ENERGY PREDICTED BY IDOCK:   -7.92 KCAL/MOL
REMARK 924 INTRA-LIGAND FREE ENERGY PREDICTED BY IDOCK:   -0.49 KCAL/MOL
REMARK 927      BINDING AFFINITY PREDICTED BY RF-SCORE:    0.00 PKD
ROOT
HETATM    1  C   UNL     1     -12.256  13.451  68.255  1.00  0.00    -0.085 C  
HETATM    2  C   UNL     1     -11.761  12.184  68.838  1.00  0.00    -0.381 C  
HETATM    3  C   UNL     1     -10.319  12.083  68.339  1.00  0.00    -0.220 C  
HETATM    4  C   UNL     1      -9.855  10.946  67.449  1.00  0.00    -0.199 C  
HETATM    5  C   UNL     1     -10.632   9.662  67.777  1.00  0.00    -0.320 C  
HETATM    6  C   UNL     1     -10.051   8.465  67.070  1.00  0.00    -0.354 C  
HETATM    7  C   UNL     1      -8.550   8.311  67.355  1.00  0.00    -0.125 C  
HETATM    8  C   UNL     1      -8.008   7.104  67.105  1.00  0.00    -0.110 C  
HETATM    9  C   UNL     1      -8.070   6.939  65.607  1.00  0.00    -0.129 C  
HETATM   10  C   UNL     1      -7.890   8.205  64.787  1.00  0.00    -0.137 C  
HETATM   11  O   UNL     1      -8.256   5.843  65.095  1.00  0.00    -0.131 OA 
HETATM   12  C   UNL     1      -7.753   9.425  65.378  1.00  0.00    -0.103 C  
HETATM   13  C   UNL     1      -7.709   9.546  66.921  1.00  0.00    -0.098 C  
HETATM   14  C   UNL     1      -8.338  10.747  67.753  1.00  0.00    -0.113 C  
HETATM   15  C   UNL     1      -6.194   9.464  67.246  1.00  0.00    -0.057 C  
HETATM   16  C   UNL     1      -7.536  12.095  67.938  1.00  0.00    -0.117 C  
HETATM   17  C   UNL     1      -8.348  13.344  68.596  1.00  0.00    -0.010 C  
HETATM   18  O   UNL     1      -6.890  12.436  66.714  1.00  0.00    -0.365 OA 
HETATM   19  C   UNL     1      -9.751  13.486  67.888  1.00  0.00    -0.225 C  
HETATM   20  H   UNL     1      -6.408  13.247  66.826  1.00  0.00     0.000 HD 
HETATM   21  C   UNL     1      -9.239  13.910  66.459  1.00  0.00    -0.220 C  
HETATM   22  C   UNL     1     -11.058  14.407  68.211  1.00  0.00    -0.259 C  
HETATM   23  N   UNL     1     -11.458  15.189  66.970  1.00  0.00    -0.283 NA 
HETATM   24  O   UNL     1     -12.562  13.194  66.890  1.00  0.00    -0.198 OA 
HETATM   25  C   UNL     1     -12.073  14.143  64.771  1.00  0.00    -0.454 C  
HETATM   26  C   UNL     1     -12.056  14.268  66.260  1.00  0.00    -0.413 C  
ENDROOT
BRANCH  22  27
HETATM   27  C   UNL     1     -10.902  15.327  69.427  1.00  0.00    -0.262 C  
HETATM   28  O   UNL     1      -9.828  15.895  69.652  1.00  0.00    -0.268 OA 
BRANCH  27  29
HETATM   29  C   UNL     1     -12.092  15.525  70.361  1.00  0.00    -0.392 C  
BRANCH  29  30
HETATM   30  O   UNL     1     -12.028  14.651  71.495  1.00  0.00    -0.343 OA 
BRANCH  30  31
HETATM   31  C   UNL     1     -13.225  14.084  71.811  1.00  0.00    -0.375 C  
HETATM   32  C   UNL     1     -14.308  15.122  71.887  1.00  0.00    -0.693 C  
HETATM   33  O   UNL     1     -13.392  12.884  72.023  1.00  0.00    -0.479 OA 
ENDBRANCH  30  31
ENDBRANCH  29  30
ENDBRANCH  27  29
ENDBRANCH  22  27
TORSDOF 4
ENDMDL
MODEL       17
REMARK 921   NORMALIZED FREE ENERGY PREDICTED BY IDOCK:   -6.61 KCAL/MOL
REMARK 922        TOTAL FREE ENERGY PREDICTED BY IDOCK:   -8.40 KCAL/MOL
REMARK 923 INTER-LIGAND FREE ENERGY PREDICTED BY IDOCK:   -8.11 KCAL/MOL
REMARK 924 INTRA-LIGAND FREE ENERGY PREDICTED BY IDOCK:   -0.29 KCAL/MOL
REMARK 927      BINDING AFFINITY PREDICTED BY RF-SCORE:    0.00 PKD
ROOT
HETATM    1  C   UNL     1     -10.738   8.487  69.594  1.00  0.00    -0.197 C  
HETATM    2  C   UNL     1     -12.003   9.242  69.743  1.00  0.00     0.501 C  
HETATM    3  C   UNL     1     -11.645  10.660  69.298  1.00  0.00    -0.346 C  
HETATM    4  C   UNL     1     -11.739  11.845  70.240  1.00  0.00    -0.293 C  
HETATM    5  C   UNL     1     -12.878  11.635  71.249  1.00  0.00    -0.430 C  
HETATM    6  C   UNL     1     -13.142  12.879  72.056  1.00  0.00    -0.483 C  
HETATM    7  C   UNL     1     -13.395  14.097  71.156  1.00  0.00    -0.330 C  
HETATM    8  C   UNL     1     -14.004  15.154  71.727  1.00  0.00    -0.627 C  
HETATM    9  C   UNL     1     -13.014  15.695  72.728  1.00  0.00    -0.480 C  
HETATM   10  C   UNL     1     -11.548  15.586  72.345  1.00  0.00    -0.543 C  
HETATM   11  O   UNL     1     -13.384  16.189  73.785  1.00  0.00    -0.640 OA 
HETATM   12  C   UNL     1     -11.155  14.971  71.195  1.00  0.00    -0.201 C  
HETATM   13  C   UNL     1     -12.208  14.418  70.204  1.00  0.00    -0.401 C  
HETATM   14  C   UNL     1     -12.036  13.089  69.348  1.00  0.00    -0.338 C  
HETATM   15  C   UNL     1     -12.442  15.603  69.229  1.00  0.00     0.085 C  
HETATM   16  C   UNL     1     -11.230  13.114  67.989  1.00  0.00    -0.277 C  
HETATM   17  C   UNL     1     -10.905  11.672  67.306  1.00  0.00    -0.302 C  
HETATM   18  O   UNL     1     -10.072  13.931  68.138  1.00  0.00    -0.235 OA 
HETATM   19  C   UNL     1     -10.344  10.687  68.405  1.00  0.00    -0.197 C  
HETATM   20  H   UNL     1      -9.588  13.946  67.321  1.00  0.00     0.000 HD 
HETATM   21  C   UNL     1      -8.984  11.429  68.697  1.00  0.00    -0.133 C  
HETATM   22  C   UNL     1     -10.012   9.090  68.386  1.00  0.00    -0.180 C  
HETATM   23  N   UNL     1      -8.586   8.853  68.857  1.00  0.00    -0.134 NA 
HETATM   24  O   UNL     1      -9.918   8.818  70.708  1.00  0.00    -0.188 OA 
HETATM   25  C   UNL     1      -7.697   9.556  71.098  1.00  0.00     0.189 C  
HETATM   26  C   UNL     1      -8.709   8.998  70.150  1.00  0.00    -0.173 C  
ENDROOT
BRANCH  22  27
HETATM   27  C   UNL     1     -10.281   8.402  67.043  1.00  0.00    -0.307 C  
HETATM   28  O   UNL     1     -10.070   8.995  65.979  1.00  0.00    -0.278 OA 
BRANCH  27  29
HETATM   29  C   UNL     1     -10.821   6.975  67.039  1.00  0.00    -0.343 C  
BRANCH  29  30
HETATM   30  O   UNL     1      -9.773   6.009  67.182  1.00  0.00    -0.120 OA 
BRANCH  30  31
HETATM   31  C   UNL     1     -10.119   4.765  66.752  1.00  0.00    -0.229 C  
HETATM   32  C   UNL     1      -9.487   3.704  67.606  1.00  0.00    -0.234 C  
HETATM   33  O   UNL     1     -10.841   4.541  65.781  1.00  0.00    -0.247 OA 
ENDBRANCH  30  31
ENDBRANCH  29  30
ENDBRANCH  27  29
ENDBRANCH  22  27
TORSDOF 4
ENDMDL
MODEL       18
REMARK 921   NORMALIZED FREE ENERGY PREDICTED BY IDOCK:   -6.55 KCAL/MOL
REMARK 922        TOTAL FREE ENERGY PREDICTED BY IDOCK:   -8.33 KCAL/MOL
REMARK 923 INTER-LIGAND FREE ENERGY PREDICTED BY IDOCK:   -7.82 KCAL/MOL
REMARK 924 INTRA-LIGAND FREE ENERGY PREDICTED BY IDOCK:   -0.51 KCAL/MOL
REMARK 927      BINDING AFFINITY PREDICTED BY RF-SCORE:    0.00 PKD
ROOT
HETATM    1  C   UNL     1      -9.234   9.498  68.092  1.00  0.00    -0.129 C  
HETATM    2  C   UNL     1     -10.603  10.054  68.184  1.00  0.00    -0.268 C  
HETATM    3  C   UNL     1     -10.391  11.568  68.156  1.00  0.00    -0.211 C  
HETATM    4  C   UNL     1     -10.794  12.456  69.318  1.00  0.00    -0.073 C  
HETATM    5  C   UNL     1     -12.028  11.879  70.027  1.00  0.00    -0.409 C  
HETATM    6  C   UNL     1     -12.587  12.841  71.043  1.00  0.00    -0.362 C  
HETATM    7  C   UNL     1     -12.877  14.215  70.424  1.00  0.00    -0.256 C  
HETATM    8  C   UNL     1     -13.710  15.023  71.107  1.00  0.00    -0.484 C  
HETATM    9  C   UNL     1     -12.969  15.388  72.370  1.00  0.00    -0.402 C  
HETATM   10  C   UNL     1     -11.462  15.534  72.241  1.00  0.00    -0.496 C  
HETATM   11  O   UNL     1     -13.560  15.555  73.428  1.00  0.00    -0.388 OA 
HETATM   12  C   UNL     1     -10.817  15.277  71.070  1.00  0.00    -0.183 C  
HETATM   13  C   UNL     1     -11.620  14.891  69.803  1.00  0.00    -0.339 C  
HETATM   14  C   UNL     1     -11.132  13.850  68.704  1.00  0.00    -0.290 C  
HETATM   15  C   UNL     1     -11.875  16.255  69.108  1.00  0.00    -0.070 C  
HETATM   16  C   UNL     1     -10.145  14.305  67.557  1.00  0.00    -0.236 C  
HETATM   17  C   UNL     1      -9.516  13.127  66.624  1.00  0.00    -0.260 C  
HETATM   18  O   UNL     1      -9.153  15.172  68.100  1.00  0.00    -0.171 OA 
HETATM   19  C   UNL     1      -8.989  11.957  67.544  1.00  0.00    -0.171 C  
HETATM   20  H   UNL     1      -8.559  15.445  67.410  1.00  0.00     0.000 HD 
HETATM   21  C   UNL     1      -7.810  12.736  68.242  1.00  0.00    -0.141 C  
HETATM   22  C   UNL     1      -8.431  10.462  67.211  1.00  0.00    -0.122 C  
HETATM   23  N   UNL     1      -7.072  10.260  67.862  1.00  0.00    -0.083 NA 
HETATM   24  O   UNL     1      -8.645   9.615  69.382  1.00  0.00    -0.134 OA 
HETATM   25  C   UNL     1      -6.637  10.453  70.327  1.00  0.00    -0.141 C  
HETATM   26  C   UNL     1      -7.405  10.056  69.109  1.00  0.00    -0.087 C  
ENDROOT
BRANCH  22  27
HETATM   27  C   UNL     1      -8.394  10.116  65.718  1.00  0.00    -0.145 C  
HETATM   28  O   UNL     1      -7.374  10.320  65.050  1.00  0.00    -0.140 OA 
BRANCH  27  29
HETATM   29  C   UNL     1      -9.640   9.523  65.065  1.00  0.00    -0.148 C  
BRANCH  29  30
HETATM   30  O   UNL     1     -10.650  10.516  64.852  1.00  0.00    -0.247 OA 
BRANCH  30  31
HETATM   31  C   UNL     1     -10.500  11.200  63.684  1.00  0.00    -0.376 C  
HETATM   32  C   UNL     1     -11.372  12.423  63.660  1.00  0.00    -0.556 C  
HETATM   33  O   UNL     1      -9.761  10.851  62.764  1.00  0.00    -0.301 OA 
ENDBRANCH  30  31
ENDBRANCH  29  30
ENDBRANCH  27  29
ENDBRANCH  22  27
TORSDOF 4
ENDMDL
MODEL       19
REMARK 921   NORMALIZED FREE ENERGY PREDICTED BY IDOCK:   -6.52 KCAL/MOL
REMARK 922        TOTAL FREE ENERGY PREDICTED BY IDOCK:   -8.29 KCAL/MOL
REMARK 923 INTER-LIGAND FREE ENERGY PREDICTED BY IDOCK:   -7.47 KCAL/MOL
REMARK 924 INTRA-LIGAND FREE ENERGY PREDICTED BY IDOCK:   -0.82 KCAL/MOL
REMARK 927      BINDING AFFINITY PREDICTED BY RF-SCORE:    0.00 PKD
ROOT
HETATM    1  C   UNL     1      -6.968   9.098  68.360  1.00  0.00    -0.068 C  
HETATM    2  C   UNL     1      -7.031  10.551  68.634  1.00  0.00    -0.067 C  
HETATM    3  C   UNL     1      -8.528  10.859  68.668  1.00  0.00    -0.152 C  
HETATM    4  C   UNL     1      -9.174  11.811  67.680  1.00  0.00    -0.180 C  
HETATM    5  C   UNL     1      -8.185  12.916  67.280  1.00  0.00    -0.176 C  
HETATM    6  C   UNL     1      -8.856  13.998  66.474  1.00  0.00    -0.048 C  
HETATM    7  C   UNL     1     -10.083  14.568  67.200  1.00  0.00    -0.252 C  
HETATM    8  C   UNL     1     -10.532  15.766  66.779  1.00  0.00    -0.305 C  
HETATM    9  C   UNL     1     -11.064  15.527  65.387  1.00  0.00    -0.298 C  
HETATM   10  C   UNL     1     -11.709  14.175  65.140  1.00  0.00    -0.361 C  
HETATM   11  O   UNL     1     -10.973  16.383  64.517  1.00  0.00    -0.750 OA 
HETATM   12  C   UNL     1     -11.739  13.211  66.103  1.00  0.00    -0.428 C  
HETATM   13  C   UNL     1     -11.168  13.497  67.513  1.00  0.00    -0.307 C  
HETATM   14  C   UNL     1     -10.403  12.432  68.413  1.00  0.00    -0.236 C  
HETATM   15  C   UNL     1     -12.400  14.013  68.303  1.00  0.00    -0.012 C  
HETATM   16  C   UNL     1     -11.215  11.402  69.294  1.00  0.00    -0.277 C  
HETATM   17  C   UNL     1     -10.361  10.205  69.993  1.00  0.00    -0.301 C  
HETATM   18  O   UNL     1     -12.337  10.926  68.556  1.00  0.00    -0.807 OA 
HETATM   19  C   UNL     1      -9.392   9.563  68.926  1.00  0.00    -0.149 C  
HETATM   20  H   UNL     1     -12.825  10.306  69.086  1.00  0.00     0.000 HD 
HETATM   21  C   UNL     1     -10.485   8.925  67.987  1.00  0.00    -0.263 C  
HETATM   22  C   UNL     1      -8.185   8.472  69.050  1.00  0.00    -0.116 C  
HETATM   23  N   UNL     1      -8.418   7.331  68.072  1.00  0.00    -0.123 NA 
HETATM   24  O   UNL     1      -7.213   8.922  66.969  1.00  0.00    -0.078 OA 
HETATM   25  C   UNL     1      -8.628   7.613  65.586  1.00  0.00    -0.142 C  
HETATM   26  C   UNL     1      -8.055   7.875  66.941  1.00  0.00    -0.115 C  
ENDROOT
BRANCH  22  27
HETATM   27  C   UNL     1      -7.943   7.952  70.471  1.00  0.00    -0.097 C  
HETATM   28  O   UNL     1      -7.016   8.398  71.155  1.00  0.00    -0.052 OA 
BRANCH  27  29
HETATM   29  C   UNL     1      -8.860   6.865  71.026  1.00  0.00    -0.140 C  
BRANCH  29  30
HETATM   30  O   UNL     1      -9.562   7.308  72.194  1.00  0.00    -0.140 OA 
BRANCH  30  31
HETATM   31  C   UNL     1     -10.912   7.368  72.025  1.00  0.00    -0.236 C  
HETATM   32  C   UNL     1     -11.339   6.580  70.820  1.00  0.00    -0.399 C  
HETATM   33  O   UNL     1     -11.677   7.998  72.754  1.00  0.00    -0.396 OA 
ENDBRANCH  30  31
ENDBRANCH  29  30
ENDBRANCH  27  29
ENDBRANCH  22  27
TORSDOF 4
ENDMDL
MODEL       20
REMARK 921   NORMALIZED FREE ENERGY PREDICTED BY IDOCK:   -6.45 KCAL/MOL
REMARK 922        TOTAL FREE ENERGY PREDICTED BY IDOCK:   -8.21 KCAL/MOL
REMARK 923 INTER-LIGAND FREE ENERGY PREDICTED BY IDOCK:   -7.44 KCAL/MOL
REMARK 924 INTRA-LIGAND FREE ENERGY PREDICTED BY IDOCK:   -0.78 KCAL/MOL
REMARK 927      BINDING AFFINITY PREDICTED BY RF-SCORE:    0.00 PKD
ROOT
HETATM    1  C   UNL     1     -11.788  13.578  66.611  1.00  0.00    -0.407 C  
HETATM    2  C   UNL     1     -10.992  14.437  65.705  1.00  0.00    -0.314 C  
HETATM    3  C   UNL     1      -9.649  14.589  66.420  1.00  0.00    -0.324 C  
HETATM    4  C   UNL     1      -9.134  15.940  66.880  1.00  0.00    -0.255 C  
HETATM    5  C   UNL     1      -9.611  17.045  65.926  1.00  0.00    -0.143 C  
HETATM    6  C   UNL     1      -8.942  18.362  66.222  1.00  0.00    -0.205 C  
HETATM    7  C   UNL     1      -7.413  18.234  66.225  1.00  0.00    -0.295 C  
HETATM    8  C   UNL     1      -6.710  19.376  66.099  1.00  0.00    -0.235 C  
HETATM    9  C   UNL     1      -6.971  20.150  67.368  1.00  0.00    -0.252 C  
HETATM   10  C   UNL     1      -7.146  19.323  68.631  1.00  0.00    -0.357 C  
HETATM   11  O   UNL     1      -7.036  21.371  67.366  1.00  0.00    -0.556 OA 
HETATM   12  C   UNL     1      -7.139  17.961  68.599  1.00  0.00    -0.266 C  
HETATM   13  C   UNL     1      -6.881  17.211  67.270  1.00  0.00    -0.194 C  
HETATM   14  C   UNL     1      -7.577  15.843  66.852  1.00  0.00    -0.255 C  
HETATM   15  C   UNL     1      -5.343  17.000  67.268  1.00  0.00    -0.171 C  
HETATM   16  C   UNL     1      -7.007  14.466  67.376  1.00  0.00    -0.064 C  
HETATM   17  C   UNL     1      -7.917  13.145  67.094  1.00  0.00    -0.083 C  
HETATM   18  O   UNL     1      -6.628  14.597  68.743  1.00  0.00    -0.084 OA 
HETATM   19  C   UNL     1      -9.415  13.448  67.486  1.00  0.00    -0.219 C  
HETATM   20  H   UNL     1      -6.286  13.769  69.058  1.00  0.00     0.000 HD 
HETATM   21  C   UNL     1      -9.213  13.602  69.041  1.00  0.00     0.300 C  
HETATM   22  C   UNL     1     -10.799  12.612  67.274  1.00  0.00    -0.248 C  
HETATM   23  N   UNL     1     -11.518  12.456  68.605  1.00  0.00    -0.278 NA 
HETATM   24  O   UNL     1     -12.250  14.405  67.674  1.00  0.00    -0.328 OA 
HETATM   25  C   UNL     1     -12.267  14.371  70.046  1.00  0.00    -0.408 C  
HETATM   26  C   UNL     1     -12.044  13.642  68.761  1.00  0.00    -0.297 C  
ENDROOT
BRANCH  22  27
HETATM   27  C   UNL     1     -10.624  11.261  66.570  1.00  0.00    -0.266 C  
HETATM   28  O   UNL     1     -10.429  11.208  65.351  1.00  0.00    -0.264 OA 
BRANCH  27  29
HETATM   29  C   UNL     1     -10.705   9.982  67.397  1.00  0.00    -0.274 C  
BRANCH  29  30
HETATM   30  O   UNL     1      -9.478   9.719  68.090  1.00  0.00    -0.135 OA 
BRANCH  30  31
HETATM   31  C   UNL     1      -9.625   9.644  69.442  1.00  0.00    -0.191 C  
HETATM   32  C   UNL     1      -8.327   9.931  70.141  1.00  0.00    -0.156 C  
HETATM   33  O   UNL     1     -10.678   9.361  70.013  1.00  0.00    -0.215 OA 
ENDBRANCH  30  31
ENDBRANCH  29  30
ENDBRANCH  27  29
ENDBRANCH  22  27
TORSDOF 4
ENDMDL
MODEL       21
REMARK 921   NORMALIZED FREE ENERGY PREDICTED BY IDOCK:   -6.38 KCAL/MOL
REMARK 922        TOTAL FREE ENERGY PREDICTED BY IDOCK:   -8.12 KCAL/MOL
REMARK 923 INTER-LIGAND FREE ENERGY PREDICTED BY IDOCK:   -7.81 KCAL/MOL
REMARK 924 INTRA-LIGAND FREE ENERGY PREDICTED BY IDOCK:   -0.32 KCAL/MOL
REMARK 927      BINDING AFFINITY PREDICTED BY RF-SCORE:    0.00 PKD
ROOT
HETATM    1  C   UNL     1      -8.395  10.425  66.695  1.00  0.00    -0.127 C  
HETATM    2  C   UNL     1      -7.821  11.463  67.580  1.00  0.00    -0.126 C  
HETATM    3  C   UNL     1      -8.989  12.415  67.842  1.00  0.00    -0.184 C  
HETATM    4  C   UNL     1      -8.950  13.870  67.412  1.00  0.00    -0.211 C  
HETATM    5  C   UNL     1      -7.511  14.405  67.472  1.00  0.00    -0.206 C  
HETATM    6  C   UNL     1      -7.464  15.896  67.265  1.00  0.00    -0.244 C  
HETATM    7  C   UNL     1      -8.386  16.635  68.245  1.00  0.00    -0.198 C  
HETATM    8  C   UNL     1      -8.154  17.950  68.419  1.00  0.00    -0.302 C  
HETATM    9  C   UNL     1      -8.501  18.596  67.101  1.00  0.00    -0.265 C  
HETATM   10  C   UNL     1      -9.650  17.969  66.330  1.00  0.00    -0.301 C  
HETATM   11  O   UNL     1      -7.884  19.569  66.688  1.00  0.00    -0.257 OA 
HETATM   12  C   UNL     1     -10.278  16.845  66.775  1.00  0.00    -0.306 C  
HETATM   13  C   UNL     1      -9.878  16.209  68.129  1.00  0.00    -0.227 C  
HETATM   14  C   UNL     1      -9.852  14.646  68.421  1.00  0.00    -0.220 C  
HETATM   15  C   UNL     1     -10.841  16.882  69.142  1.00  0.00    -0.237 C  
HETATM   16  C   UNL     1     -11.180  13.885  68.814  1.00  0.00    -0.272 C  
HETATM   17  C   UNL     1     -11.104  12.259  68.863  1.00  0.00    -0.291 C  
HETATM   18  O   UNL     1     -12.257  14.367  68.016  1.00  0.00    -0.584 OA 
HETATM   19  C   UNL     1     -10.383  11.730  67.562  1.00  0.00    -0.217 C  
HETATM   20  H   UNL     1     -13.056  13.909  68.252  1.00  0.00     0.000 HD 
HETATM   21  C   UNL     1     -11.478  12.156  66.512  1.00  0.00    -0.430 C  
HETATM   22  C   UNL     1      -9.858  10.251  67.119  1.00  0.00    -0.185 C  
HETATM   23  N   UNL     1     -10.430   9.886  65.758  1.00  0.00    -0.078 NA 
HETATM   24  O   UNL     1      -8.464  10.980  65.386  1.00  0.00    -0.138 OA 
HETATM   25  C   UNL     1     -10.078  11.226  63.665  1.00  0.00    -0.432 C  
HETATM   26  C   UNL     1      -9.678  10.593  64.957  1.00  0.00    -0.279 C  
ENDROOT
BRANCH  22  27
HETATM   27  C   UNL     1     -10.120   9.149  68.151  1.00  0.00    -0.189 C  
HETATM   28  O   UNL     1      -9.942   9.360  69.356  1.00  0.00    -0.170 OA 
BRANCH  27  29
HETATM   29  C   UNL     1     -10.595   7.782  67.668  1.00  0.00    -0.213 C  
BRANCH  29  30
HETATM   30  O   UNL     1     -11.141   7.000  68.737  1.00  0.00    -0.144 OA 
BRANCH  30  31
HETATM   31  C   UNL     1     -10.605   5.752  68.825  1.00  0.00    -0.251 C  
HETATM   32  C   UNL     1     -10.193   5.246  67.472  1.00  0.00    -0.229 C  
HETATM   33  O   UNL     1     -10.491   5.116  69.873  1.00  0.00    -0.295 OA 
ENDBRANCH  30  31
ENDBRANCH  29  30
ENDBRANCH  27  29
ENDBRANCH  22  27
TORSDOF 4
ENDMDL
MODEL       22
REMARK 921   NORMALIZED FREE ENERGY PREDICTED BY IDOCK:   -6.37 KCAL/MOL
REMARK 922        TOTAL FREE ENERGY PREDICTED BY IDOCK:   -8.10 KCAL/MOL
REMARK 923 INTER-LIGAND FREE ENERGY PREDICTED BY IDOCK:   -7.85 KCAL/MOL
REMARK 924 INTRA-LIGAND FREE ENERGY PREDICTED BY IDOCK:   -0.25 KCAL/MOL
REMARK 927      BINDING AFFINITY PREDICTED BY RF-SCORE:    0.00 PKD
ROOT
HETATM    1  C   UNL     1      -8.434  16.638  66.536  1.00  0.00    -0.292 C  
HETATM    2  C   UNL     1      -9.222  15.546  65.919  1.00  0.00    -0.305 C  
HETATM    3  C   UNL     1      -9.942  14.894  67.100  1.00  0.00    -0.231 C  
HETATM    4  C   UNL     1      -9.702  13.447  67.485  1.00  0.00    -0.224 C  
HETATM    5  C   UNL     1      -9.384  12.609  66.239  1.00  0.00    -0.162 C  
HETATM    6  C   UNL     1      -9.357  11.135  66.551  1.00  0.00    -0.199 C  
HETATM    7  C   UNL     1     -10.654  10.675  67.231  1.00  0.00    -0.313 C  
HETATM    8  C   UNL     1     -10.909   9.352  67.215  1.00  0.00    -0.165 C  
HETATM    9  C   UNL     1      -9.849   8.730  68.089  1.00  0.00    -0.168 C  
HETATM   10  C   UNL     1      -9.396   9.555  69.281  1.00  0.00    -0.171 C  
HETATM   11  O   UNL     1      -9.390   7.623  67.841  1.00  0.00    -0.139 OA 
HETATM   12  C   UNL     1      -9.870  10.813  69.500  1.00  0.00    -0.049 C  
HETATM   13  C   UNL     1     -10.948  11.416  68.566  1.00  0.00    -0.267 C  
HETATM   14  C   UNL     1     -11.026  12.947  68.143  1.00  0.00    -0.273 C  
HETATM   15  C   UNL     1     -12.282  11.030  69.260  1.00  0.00    -0.280 C  
HETATM   16  C   UNL     1     -11.710  14.005  69.097  1.00  0.00    -0.333 C  
HETATM   17  C   UNL     1     -11.534  15.573  68.695  1.00  0.00    -0.367 C  
HETATM   18  O   UNL     1     -11.344  13.734  70.448  1.00  0.00    -0.499 OA 
HETATM   19  C   UNL     1     -10.020  15.857  68.348  1.00  0.00    -0.222 C  
HETATM   20  H   UNL     1     -11.756  14.370  71.021  1.00  0.00     0.000 HD 
HETATM   21  C   UNL     1      -9.415  15.631  69.786  1.00  0.00    -0.154 C  
HETATM   22  C   UNL     1      -9.261  17.156  67.719  1.00  0.00    -0.241 C  
HETATM   23  N   UNL     1      -8.106  17.566  68.619  1.00  0.00    -0.273 NA 
HETATM   24  O   UNL     1      -7.287  16.043  67.132  1.00  0.00    -0.182 OA 
HETATM   25  C   UNL     1      -6.185  16.070  69.233  1.00  0.00    -0.151 C  
HETATM   26  C   UNL     1      -7.206  16.666  68.320  1.00  0.00    -0.169 C  
ENDROOT
BRANCH  22  27
HETATM   27  C   UNL     1     -10.181  18.343  67.411  1.00  0.00    -0.372 C  
HETATM   28  O   UNL     1     -11.401  18.181  67.302  1.00  0.00     0.170 OA 
BRANCH  27  29
HETATM   29  C   UNL     1      -9.565  19.728  67.233  1.00  0.00    -0.359 C  
BRANCH  29  30
HETATM   30  O   UNL     1      -8.995  19.891  65.928  1.00  0.00    -0.339 OA 
BRANCH  30  31
HETATM   31  C   UNL     1      -7.634  19.933  65.933  1.00  0.00    -0.321 C  
HETATM   32  C   UNL     1      -7.123  20.717  67.107  1.00  0.00    -0.385 C  
HETATM   33  O   UNL     1      -6.920  19.411  65.077  1.00  0.00    -0.416 OA 
ENDBRANCH  30  31
ENDBRANCH  29  30
ENDBRANCH  27  29
ENDBRANCH  22  27
TORSDOF 4
ENDMDL
MODEL       23
REMARK 921   NORMALIZED FREE ENERGY PREDICTED BY IDOCK:   -6.34 KCAL/MOL
REMARK 922        TOTAL FREE ENERGY PREDICTED BY IDOCK:   -8.07 KCAL/MOL
REMARK 923 INTER-LIGAND FREE ENERGY PREDICTED BY IDOCK:   -7.63 KCAL/MOL
REMARK 924 INTRA-LIGAND FREE ENERGY PREDICTED BY IDOCK:   -0.45 KCAL/MOL
REMARK 927      BINDING AFFINITY PREDICTED BY RF-SCORE:    0.00 PKD
ROOT
HETATM    1  C   UNL     1     -12.200  13.836  67.294  1.00  0.00    -0.278 C  
HETATM    2  C   UNL     1     -11.689  12.957  68.370  1.00  0.00    -0.382 C  
HETATM    3  C   UNL     1     -10.379  12.404  67.809  1.00  0.00    -0.222 C  
HETATM    4  C   UNL     1     -10.171  10.921  67.570  1.00  0.00    -0.224 C  
HETATM    5  C   UNL     1     -10.956  10.100  68.604  1.00  0.00    -0.273 C  
HETATM    6  C   UNL     1     -10.602   8.637  68.536  1.00  0.00    -0.162 C  
HETATM    7  C   UNL     1      -9.088   8.413  68.661  1.00  0.00    -0.140 C  
HETATM    8  C   UNL     1      -8.686   7.170  68.993  1.00  0.00    -0.132 C  
HETATM    9  C   UNL     1      -9.044   6.304  67.810  1.00  0.00    -0.114 C  
HETATM   10  C   UNL     1      -8.938   6.962  66.444  1.00  0.00    -0.172 C  
HETATM   11  O   UNL     1      -9.397   5.142  67.956  1.00  0.00    -0.113 OA 
HETATM   12  C   UNL     1      -8.610   8.277  66.308  1.00  0.00    -0.152 C  
HETATM   13  C   UNL     1      -8.264   9.129  67.553  1.00  0.00    -0.108 C  
HETATM   14  C   UNL     1      -8.641  10.664  67.732  1.00  0.00    -0.123 C  
HETATM   15  C   UNL     1      -6.724   8.985  67.673  1.00  0.00    -0.065 C  
HETATM   16  C   UNL     1      -7.729  11.788  67.098  1.00  0.00    -0.162 C  
HETATM   17  C   UNL     1      -8.315  13.308  67.128  1.00  0.00    -0.143 C  
HETATM   18  O   UNL     1      -7.307  11.382  65.799  1.00  0.00    -0.355 OA 
HETATM   19  C   UNL     1      -9.815  13.299  66.637  1.00  0.00    -0.276 C  
HETATM   20  H   UNL     1      -6.759  12.058  65.419  1.00  0.00     0.000 HD 
HETATM   21  C   UNL     1      -9.557  12.884  65.139  1.00  0.00     0.147 C  
HETATM   22  C   UNL     1     -10.971  14.449  66.613  1.00  0.00    -0.318 C  
HETATM   23  N   UNL     1     -11.547  14.574  65.211  1.00  0.00    -0.349 NA 
HETATM   24  O   UNL     1     -12.778  12.994  66.303  1.00  0.00    -0.281 OA 
HETATM   25  C   UNL     1     -12.638  12.694  63.954  1.00  0.00    -0.432 C  
HETATM   26  C   UNL     1     -12.329  13.528  65.154  1.00  0.00    -0.449 C  
ENDROOT
BRANCH  22  27
HETATM   27  C   UNL     1     -10.525  15.811  67.158  1.00  0.00    -0.309 C  
HETATM   28  O   UNL     1     -10.412  15.994  68.375  1.00  0.00    -0.245 OA 
BRANCH  27  29
HETATM   29  C   UNL     1     -10.231  16.940  66.175  1.00  0.00    -0.341 C  
BRANCH  29  30
HETATM   30  O   UNL     1      -9.179  17.792  66.644  1.00  0.00    -0.255 OA 
BRANCH  30  31
HETATM   31  C   UNL     1      -9.329  19.093  66.274  1.00  0.00    -0.315 C  
HETATM   32  C   UNL     1     -10.775  19.499  66.306  1.00  0.00    -0.530 C  
HETATM   33  O   UNL     1      -8.403  19.832  65.940  1.00  0.00    -0.354 OA 
ENDBRANCH  30  31
ENDBRANCH  29  30
ENDBRANCH  27  29
ENDBRANCH  22  27
TORSDOF 4
ENDMDL
MODEL       24
REMARK 921   NORMALIZED FREE ENERGY PREDICTED BY IDOCK:   -6.31 KCAL/MOL
REMARK 922        TOTAL FREE ENERGY PREDICTED BY IDOCK:   -8.03 KCAL/MOL
REMARK 923 INTER-LIGAND FREE ENERGY PREDICTED BY IDOCK:   -7.90 KCAL/MOL
REMARK 924 INTRA-LIGAND FREE ENERGY PREDICTED BY IDOCK:   -0.13 KCAL/MOL
REMARK 927      BINDING AFFINITY PREDICTED BY RF-SCORE:    0.00 PKD
ROOT
HETATM    1  C   UNL     1      -9.209  16.024  68.510  1.00  0.00    -0.206 C  
HETATM    2  C   UNL     1      -8.270  14.971  68.063  1.00  0.00    -0.138 C  
HETATM    3  C   UNL     1      -9.180  13.846  67.570  1.00  0.00    -0.205 C  
HETATM    4  C   UNL     1      -9.184  12.474  68.217  1.00  0.00    -0.186 C  
HETATM    5  C   UNL     1      -7.785  12.134  68.752  1.00  0.00    -0.034 C  
HETATM    6  C   UNL     1      -7.696  10.699  69.203  1.00  0.00    -0.138 C  
HETATM    7  C   UNL     1      -8.134   9.728  68.098  1.00  0.00    -0.108 C  
HETATM    8  C   UNL     1      -7.749   8.445  68.233  1.00  0.00    -0.106 C  
HETATM    9  C   UNL     1      -8.500   7.925  69.434  1.00  0.00    -0.133 C  
HETATM   10  C   UNL     1      -9.898   8.483  69.641  1.00  0.00    -0.183 C  
HETATM   11  O   UNL     1      -8.000   7.103  70.189  1.00  0.00    -0.109 OA 
HETATM   12  C   UNL     1     -10.409   9.449  68.828  1.00  0.00    -0.230 C  
HETATM   13  C   UNL     1      -9.594   9.961  67.615  1.00  0.00    -0.172 C  
HETATM   14  C   UNL     1      -9.589  11.466  67.098  1.00  0.00    -0.193 C  
HETATM   15  C   UNL     1     -10.063   9.045  66.453  1.00  0.00    -0.351 C  
HETATM   16  C   UNL     1     -10.738  11.987  66.147  1.00  0.00    -0.275 C  
HETATM   17  C   UNL     1     -10.781  13.590  65.863  1.00  0.00    -0.279 C  
HETATM   18  O   UNL     1     -11.990  11.467  66.587  1.00  0.00    -0.428 OA 
HETATM   19  C   UNL     1     -10.631  14.367  67.229  1.00  0.00    -0.279 C  
HETATM   20  H   UNL     1     -12.681  11.781  66.015  1.00  0.00     0.000 HD 
HETATM   21  C   UNL     1     -11.996  13.931  67.885  1.00  0.00    -0.393 C  
HETATM   22  C   UNL     1     -10.425  15.946  67.579  1.00  0.00    -0.298 C  
HETATM   23  N   UNL     1     -11.482  16.397  68.575  1.00  0.00    -0.298 NA 
HETATM   24  O   UNL     1      -9.706  15.631  69.784  1.00  0.00    -0.284 OA 
HETATM   25  C   UNL     1     -11.812  15.385  70.849  1.00  0.00    -0.400 C  
HETATM   26  C   UNL     1     -11.020  15.901  69.692  1.00  0.00    -0.319 C  
ENDROOT
BRANCH  22  27
HETATM   27  C   UNL     1     -10.379  16.868  66.355  1.00  0.00    -0.300 C  
HETATM   28  O   UNL     1     -10.783  16.474  65.256  1.00  0.00    -0.531 OA 
BRANCH  27  29
HETATM   29  C   UNL     1      -9.818  18.278  66.512  1.00  0.00    -0.361 C  
BRANCH  29  30
HETATM   30  O   UNL     1      -8.404  18.315  66.284  1.00  0.00    -0.371 OA 
BRANCH  30  31
HETATM   31  C   UNL     1      -7.789  19.382  66.865  1.00  0.00    -0.259 C  
HETATM   32  C   UNL     1      -8.661  20.603  66.809  1.00  0.00    -0.142 C  
HETATM   33  O   UNL     1      -6.661  19.352  67.356  1.00  0.00    -0.193 OA 
ENDBRANCH  30  31
ENDBRANCH  29  30
ENDBRANCH  27  29
ENDBRANCH  22  27
TORSDOF 4
ENDMDL
MODEL       25
REMARK 921   NORMALIZED FREE ENERGY PREDICTED BY IDOCK:   -6.29 KCAL/MOL
REMARK 922        TOTAL FREE ENERGY PREDICTED BY IDOCK:   -8.01 KCAL/MOL
REMARK 923 INTER-LIGAND FREE ENERGY PREDICTED BY IDOCK:   -7.56 KCAL/MOL
REMARK 924 INTRA-LIGAND FREE ENERGY PREDICTED BY IDOCK:   -0.45 KCAL/MOL
REMARK 927      BINDING AFFINITY PREDICTED BY RF-SCORE:    0.00 PKD
ROOT
HETATM    1  C   UNL     1     -11.408  12.049  66.304  1.00  0.00    -0.357 C  
HETATM    2  C   UNL     1     -10.954  13.181  65.465  1.00  0.00    -0.296 C  
HETATM    3  C   UNL     1      -9.790  13.784  66.251  1.00  0.00    -0.314 C  
HETATM    4  C   UNL     1      -9.828  15.207  66.775  1.00  0.00    -0.251 C  
HETATM    5  C   UNL     1     -10.645  16.101  65.831  1.00  0.00    -0.322 C  
HETATM    6  C   UNL     1     -10.523  17.557  66.200  1.00  0.00    -0.288 C  
HETATM    7  C   UNL     1      -9.056  18.002  66.276  1.00  0.00    -0.197 C  
HETATM    8  C   UNL     1      -8.822  19.327  66.220  1.00  0.00    -0.341 C  
HETATM    9  C   UNL     1      -9.396  19.890  67.496  1.00  0.00    -0.353 C  
HETATM   10  C   UNL     1      -9.298  19.000  68.723  1.00  0.00    -0.405 C  
HETATM   11  O   UNL     1      -9.908  21.001  67.526  1.00  0.00    -0.369 OA 
HETATM   12  C   UNL     1      -8.786  17.740  68.652  1.00  0.00    -0.263 C  
HETATM   13  C   UNL     1      -8.221  17.200  67.316  1.00  0.00    -0.206 C  
HETATM   14  C   UNL     1      -8.346  15.693  66.823  1.00  0.00    -0.313 C  
HETATM   15  C   UNL     1      -6.715  17.570  67.385  1.00  0.00    -0.181 C  
HETATM   16  C   UNL     1      -7.326  14.599  67.334  1.00  0.00    -0.168 C  
HETATM   17  C   UNL     1      -7.671  13.050  66.968  1.00  0.00     0.052 C  
HETATM   18  O   UNL     1      -7.072  14.798  68.722  1.00  0.00    -0.102 OA 
HETATM   19  C   UNL     1      -9.189  12.762  67.293  1.00  0.00    -0.203 C  
HETATM   20  H   UNL     1      -6.459  14.140  69.029  1.00  0.00     0.000 HD 
HETATM   21  C   UNL     1      -9.114  12.908  68.861  1.00  0.00     0.319 C  
HETATM   22  C   UNL     1     -10.157  11.485  66.987  1.00  0.00    -0.210 C  
HETATM   23  N   UNL     1     -10.814  11.014  68.275  1.00  0.00    -0.198 NA 
HETATM   24  O   UNL     1     -12.181  12.598  67.366  1.00  0.00    -0.406 OA 
HETATM   25  C   UNL     1     -12.270  12.450  69.732  1.00  0.00    -0.198 C  
HETATM   26  C   UNL     1     -11.747  11.915  68.439  1.00  0.00    -0.326 C  
ENDROOT
BRANCH  22  27
HETATM   27  C   UNL     1      -9.469  10.328  66.254  1.00  0.00    -0.177 C  
HETATM   28  O   UNL     1      -9.059  10.472  65.097  1.00  0.00    -0.177 OA 
BRANCH  27  29
HETATM   29  C   UNL     1      -9.307   8.991  66.971  1.00  0.00    -0.150 C  
BRANCH  29  30
HETATM   30  O   UNL     1     -10.354   8.075  66.630  1.00  0.00    -0.297 OA 
BRANCH  30  31
HETATM   31  C   UNL     1     -10.558   7.111  67.569  1.00  0.00    -0.278 C  
HETATM   32  C   UNL     1     -10.783   5.772  66.926  1.00  0.00    -0.381 C  
HETATM   33  O   UNL     1     -10.572   7.314  68.783  1.00  0.00    -0.204 OA 
ENDBRANCH  30  31
ENDBRANCH  29  30
ENDBRANCH  27  29
ENDBRANCH  22  27
TORSDOF 4
ENDMDL
MODEL       26
REMARK 921   NORMALIZED FREE ENERGY PREDICTED BY IDOCK:   -6.18 KCAL/MOL
REMARK 922        TOTAL FREE ENERGY PREDICTED BY IDOCK:   -7.88 KCAL/MOL
REMARK 923 INTER-LIGAND FREE ENERGY PREDICTED BY IDOCK:   -7.41 KCAL/MOL
REMARK 924 INTRA-LIGAND FREE ENERGY PREDICTED BY IDOCK:   -0.47 KCAL/MOL
REMARK 927      BINDING AFFINITY PREDICTED BY RF-SCORE:    0.00 PKD
ROOT
HETATM    1  C   UNL     1     -10.015   8.782  70.638  1.00  0.00    -0.198 C  
HETATM    2  C   UNL     1     -11.109   9.668  70.179  1.00  0.00    -0.314 C  
HETATM    3  C   UNL     1     -10.665  10.116  68.786  1.00  0.00    -0.247 C  
HETATM    4  C   UNL     1     -10.401  11.573  68.458  1.00  0.00    -0.224 C  
HETATM    5  C   UNL     1     -11.323  12.481  69.285  1.00  0.00    -0.307 C  
HETATM    6  C   UNL     1     -11.245  13.915  68.831  1.00  0.00    -0.304 C  
HETATM    7  C   UNL     1     -11.514  14.049  67.325  1.00  0.00    -0.372 C  
HETATM    8  C   UNL     1     -11.845  15.276  66.877  1.00  0.00     0.102 C  
HETATM    9  C   UNL     1     -10.605  16.116  67.058  1.00  0.00    -0.292 C  
HETATM   10  C   UNL     1      -9.278  15.402  66.862  1.00  0.00    -0.254 C  
HETATM   11  O   UNL     1     -10.678  17.303  67.347  1.00  0.00    -0.329 OA 
HETATM   12  C   UNL     1      -9.219  14.065  66.609  1.00  0.00    -0.262 C  
HETATM   13  C   UNL     1     -10.519  13.240  66.445  1.00  0.00    -0.286 C  
HETATM   14  C   UNL     1     -10.708  11.740  66.938  1.00  0.00    -0.288 C  
HETATM   15  C   UNL     1     -10.789  13.293  64.918  1.00  0.00    -0.358 C  
HETATM   16  C   UNL     1     -10.206  10.538  66.044  1.00  0.00    -0.245 C  
HETATM   17  C   UNL     1     -10.225   9.060  66.728  1.00  0.00    -0.341 C  
HETATM   18  O   UNL     1      -8.944  10.867  65.470  1.00  0.00    -0.191 OA 
HETATM   19  C   UNL     1      -9.585   9.143  68.169  1.00  0.00    -0.160 C  
HETATM   20  H   UNL     1      -8.642  10.144  64.933  1.00  0.00     0.000 HD 
HETATM   21  C   UNL     1      -8.108   9.483  67.738  1.00  0.00    -0.106 C  
HETATM   22  C   UNL     1      -9.482   8.067  69.391  1.00  0.00    -0.159 C  
HETATM   23  N   UNL     1      -8.034   7.925  69.833  1.00  0.00    -0.107 NA 
HETATM   24  O   UNL     1      -8.944   9.620  71.058  1.00  0.00    -0.197 OA 
HETATM   25  C   UNL     1      -6.613   9.819  70.668  1.00  0.00    -0.113 C  
HETATM   26  C   UNL     1      -7.864   9.015  70.535  1.00  0.00    -0.130 C  
ENDROOT
BRANCH  22  27
HETATM   27  C   UNL     1     -10.113   6.703  69.091  1.00  0.00    -0.169 C  
HETATM   28  O   UNL     1      -9.597   5.938  68.269  1.00  0.00    -0.117 OA 
BRANCH  27  29
HETATM   29  C   UNL     1     -11.395   6.307  69.817  1.00  0.00    -0.436 C  
BRANCH  29  30
HETATM   30  O   UNL     1     -11.120   5.586  71.024  1.00  0.00    -0.184 OA 
BRANCH  30  31
HETATM   31  C   UNL     1     -11.749   6.099  72.118  1.00  0.00    -0.309 C  
HETATM   32  C   UNL     1     -12.958   6.896  71.719  1.00  0.00    -0.326 C  
HETATM   33  O   UNL     1     -11.366   5.944  73.277  1.00  0.00    -0.183 OA 
ENDBRANCH  30  31
ENDBRANCH  29  30
ENDBRANCH  27  29
ENDBRANCH  22  27
TORSDOF 4
ENDMDL
MODEL       27
REMARK 921   NORMALIZED FREE ENERGY PREDICTED BY IDOCK:   -6.14 KCAL/MOL
REMARK 922        TOTAL FREE ENERGY PREDICTED BY IDOCK:   -7.82 KCAL/MOL
REMARK 923 INTER-LIGAND FREE ENERGY PREDICTED BY IDOCK:   -7.07 KCAL/MOL
REMARK 924 INTRA-LIGAND FREE ENERGY PREDICTED BY IDOCK:   -0.75 KCAL/MOL
REMARK 927      BINDING AFFINITY PREDICTED BY RF-SCORE:    0.00 PKD
ROOT
HETATM    1  C   UNL     1      -9.472  11.043  65.618  1.00  0.00    -0.217 C  
HETATM    2  C   UNL     1     -10.134   9.730  65.793  1.00  0.00    -0.308 C  
HETATM    3  C   UNL     1     -10.395   9.642  67.297  1.00  0.00    -0.310 C  
HETATM    4  C   UNL     1      -9.769   8.562  68.157  1.00  0.00    -0.175 C  
HETATM    5  C   UNL     1      -9.588   7.270  67.345  1.00  0.00    -0.176 C  
HETATM    6  C   UNL     1      -9.175   6.116  68.221  1.00  0.00    -0.114 C  
HETATM    7  C   UNL     1     -10.143   5.919  69.395  1.00  0.00    -0.260 C  
HETATM    8  C   UNL     1     -10.107   4.723  70.014  1.00  0.00    -0.308 C  
HETATM    9  C   UNL     1      -8.761   4.663  70.693  1.00  0.00    -0.099 C  
HETATM   10  C   UNL     1      -8.221   5.980  71.224  1.00  0.00    -0.123 C  
HETATM   11  O   UNL     1      -8.151   3.608  70.802  1.00  0.00    -0.056 OA 
HETATM   12  C   UNL     1      -8.886   7.153  71.032  1.00  0.00    -0.145 C  
HETATM   13  C   UNL     1     -10.259   7.167  70.316  1.00  0.00    -0.207 C  
HETATM   14  C   UNL     1     -10.759   8.317  69.338  1.00  0.00    -0.160 C  
HETATM   15  C   UNL     1     -11.274   7.039  71.483  1.00  0.00    -0.279 C  
HETATM   16  C   UNL     1     -11.402   9.637  69.922  1.00  0.00    -0.159 C  
HETATM   17  C   UNL     1     -11.665  10.850  68.868  1.00  0.00    -0.376 C  
HETATM   18  O   UNL     1     -10.674  10.051  71.075  1.00  0.00    -0.323 OA 
HETATM   19  C   UNL     1     -10.375  11.063  67.984  1.00  0.00    -0.209 C  
HETATM   20  H   UNL     1     -11.062  10.845  71.426  1.00  0.00     0.000 HD 
HETATM   21  C   UNL     1      -9.409  11.576  69.118  1.00  0.00     0.210 C  
HETATM   22  C   UNL     1     -10.082  11.980  66.667  1.00  0.00    -0.198 C  
HETATM   23  N   UNL     1      -8.859  12.852  66.907  1.00  0.00    -0.209 NA 
HETATM   24  O   UNL     1      -8.116  10.886  66.021  1.00  0.00    -0.159 OA 
HETATM   25  C   UNL     1      -6.575  11.970  67.461  1.00  0.00    -0.123 C  
HETATM   26  C   UNL     1      -7.887  11.992  66.749  1.00  0.00    -0.036 C  
ENDROOT
BRANCH  22  27
HETATM   27  C   UNL     1     -11.279  12.812  66.193  1.00  0.00    -0.298 C  
HETATM   28  O   UNL     1     -12.288  12.260  65.741  1.00  0.00    -0.622 OA 
BRANCH  27  29
HETATM   29  C   UNL     1     -11.202  14.333  66.279  1.00  0.00    -0.337 C  
BRANCH  29  30
HETATM   30  O   UNL     1     -12.128  14.859  67.238  1.00  0.00    -0.246 OA 
BRANCH  30  31
HETATM   31  C   UNL     1     -11.528  15.518  68.267  1.00  0.00    -0.353 C  
HETATM   32  C   UNL     1     -11.433  14.644  69.484  1.00  0.00    -0.334 C  
HETATM   33  O   UNL     1     -11.133  16.682  68.210  1.00  0.00    -0.361 OA 
ENDBRANCH  30  31
ENDBRANCH  29  30
ENDBRANCH  27  29
ENDBRANCH  22  27
TORSDOF 4
ENDMDL
MODEL       28
REMARK 921   NORMALIZED FREE ENERGY PREDICTED BY IDOCK:   -6.12 KCAL/MOL
REMARK 922        TOTAL FREE ENERGY PREDICTED BY IDOCK:   -7.80 KCAL/MOL
REMARK 923 INTER-LIGAND FREE ENERGY PREDICTED BY IDOCK:   -7.29 KCAL/MOL
REMARK 924 INTRA-LIGAND FREE ENERGY PREDICTED BY IDOCK:   -0.51 KCAL/MOL
REMARK 927      BINDING AFFINITY PREDICTED BY RF-SCORE:    0.00 PKD
ROOT
HETATM    1  C   UNL     1      -9.931   8.899  67.341  1.00  0.00    -0.209 C  
HETATM    2  C   UNL     1     -10.768   7.857  67.977  1.00  0.00    -0.119 C  
HETATM    3  C   UNL     1     -10.441   7.974  69.466  1.00  0.00    -0.226 C  
HETATM    4  C   UNL     1      -9.809   6.834  70.241  1.00  0.00    -0.185 C  
HETATM    5  C   UNL     1     -10.271   5.484  69.674  1.00  0.00    -0.336 C  
HETATM    6  C   UNL     1      -9.841   4.336  70.550  1.00  0.00    -0.269 C  
HETATM    7  C   UNL     1     -10.297   4.529  72.003  1.00  0.00    -0.216 C  
HETATM    8  C   UNL     1     -10.313   3.431  72.783  1.00  0.00    -0.240 C  
HETATM    9  C   UNL     1      -8.866   3.038  72.950  1.00  0.00    -0.083 C  
HETATM   10  C   UNL     1      -7.865   4.179  73.004  1.00  0.00    -0.085 C  
HETATM   11  O   UNL     1      -8.533   1.864  73.035  1.00  0.00    -0.060 OA 
HETATM   12  C   UNL     1      -8.250   5.475  72.838  1.00  0.00    -0.109 C  
HETATM   13  C   UNL     1      -9.746   5.829  72.656  1.00  0.00    -0.168 C  
HETATM   14  C   UNL     1     -10.294   6.989  71.716  1.00  0.00    -0.216 C  
HETATM   15  C   UNL     1     -10.231   6.101  74.104  1.00  0.00    -0.320 C  
HETATM   16  C   UNL     1     -10.327   8.483  72.229  1.00  0.00    -0.332 C  
HETATM   17  C   UNL     1     -10.677   9.628  71.124  1.00  0.00    -0.365 C  
HETATM   18  O   UNL     1      -9.134   8.762  72.957  1.00  0.00    -0.279 OA 
HETATM   19  C   UNL     1      -9.818   9.380  69.824  1.00  0.00    -0.218 C  
HETATM   20  H   UNL     1      -9.154   9.660  73.266  1.00  0.00     0.000 HD 
HETATM   21  C   UNL     1      -8.396   9.682  70.434  1.00  0.00    -0.188 C  
HETATM   22  C   UNL     1      -9.845  10.058  68.341  1.00  0.00    -0.154 C  
HETATM   23  N   UNL     1      -8.455  10.552  67.972  1.00  0.00    -0.118 NA 
HETATM   24  O   UNL     1      -8.605   8.387  67.269  1.00  0.00    -0.122 OA 
HETATM   25  C   UNL     1      -6.416   9.091  67.853  1.00  0.00    -0.057 C  
HETATM   26  C   UNL     1      -7.856   9.435  67.651  1.00  0.00    -0.095 C  
ENDROOT
BRANCH  22  27
HETATM   27  C   UNL     1     -10.896  11.160  68.166  1.00  0.00    -0.219 C  
HETATM   28  O   UNL     1     -12.094  10.876  68.058  1.00  0.00    -0.563 OA 
BRANCH  27  29
HETATM   29  C   UNL     1     -10.439  12.615  68.117  1.00  0.00    -0.231 C  
BRANCH  29  30
HETATM   30  O   UNL     1     -10.596  13.178  66.809  1.00  0.00    -0.261 OA 
BRANCH  30  31
HETATM   31  C   UNL     1     -11.543  14.154  66.749  1.00  0.00    -0.391 C  
HETATM   32  C   UNL     1     -12.612  13.806  65.753  1.00  0.00    -0.525 C  
HETATM   33  O   UNL     1     -11.515  15.191  67.410  1.00  0.00    -0.332 OA 
ENDBRANCH  30  31
ENDBRANCH  29  30
ENDBRANCH  27  29
ENDBRANCH  22  27
TORSDOF 4
ENDMDL
MODEL       29
REMARK 921   NORMALIZED FREE ENERGY PREDICTED BY IDOCK:   -6.12 KCAL/MOL
REMARK 922        TOTAL FREE ENERGY PREDICTED BY IDOCK:   -7.79 KCAL/MOL
REMARK 923 INTER-LIGAND FREE ENERGY PREDICTED BY IDOCK:   -7.34 KCAL/MOL
REMARK 924 INTRA-LIGAND FREE ENERGY PREDICTED BY IDOCK:   -0.45 KCAL/MOL
REMARK 927      BINDING AFFINITY PREDICTED BY RF-SCORE:    0.00 PKD
ROOT
HETATM    1  C   UNL     1      -8.930  13.839  66.393  1.00  0.00     0.021 C  
HETATM    2  C   UNL     1      -8.751  14.010  67.853  1.00  0.00    -0.184 C  
HETATM    3  C   UNL     1      -9.929  13.252  68.464  1.00  0.00    -0.189 C  
HETATM    4  C   UNL     1     -10.984  13.949  69.301  1.00  0.00    -0.222 C  
HETATM    5  C   UNL     1     -10.364  15.125  70.069  1.00  0.00    -0.180 C  
HETATM    6  C   UNL     1     -11.326  15.702  71.075  1.00  0.00    -0.426 C  
HETATM    7  C   UNL     1     -11.869  14.626  72.024  1.00  0.00    -0.234 C  
HETATM    8  C   UNL     1     -12.421  15.056  73.175  1.00  0.00    -0.545 C  
HETATM    9  C   UNL     1     -13.676  15.789  72.767  1.00  0.00    -0.560 C  
HETATM   10  C   UNL     1     -14.408  15.236  71.556  1.00  0.00    -0.633 C  
HETATM   11  O   UNL     1     -14.069  16.769  73.385  1.00  0.00     0.180 OA 
HETATM   12  C   UNL     1     -13.916  14.186  70.842  1.00  0.00     0.231 C  
HETATM   13  C   UNL     1     -12.616  13.475  71.291  1.00  0.00    -0.427 C  
HETATM   14  C   UNL     1     -11.522  12.880  70.302  1.00  0.00     0.120 C  
HETATM   15  C   UNL     1     -13.129  12.329  72.203  1.00  0.00    -0.406 C  
HETATM   16  C   UNL     1     -11.715  11.445  69.669  1.00  0.00    -0.345 C  
HETATM   17  C   UNL     1     -10.672  11.018  68.493  1.00  0.00    -0.236 C  
HETATM   18  O   UNL     1     -13.079  11.272  69.291  1.00  0.00     0.206 OA 
HETATM   19  C   UNL     1     -10.541  12.201  67.456  1.00  0.00    -0.240 C  
HETATM   20  H   UNL     1     -13.194  10.409  68.911  1.00  0.00     0.000 HD 
HETATM   21  C   UNL     1     -12.006  12.154  66.877  1.00  0.00    -0.164 C  
HETATM   22  C   UNL     1      -9.544  12.449  66.190  1.00  0.00    -0.233 C  
HETATM   23  N   UNL     1     -10.358  12.758  64.944  1.00  0.00    -0.308 NA 
HETATM   24  O   UNL     1      -9.949  14.745  65.986  1.00  0.00    -0.279 OA 
HETATM   25  C   UNL     1     -11.966  14.676  64.739  1.00  0.00    -0.439 C  
HETATM   26  C   UNL     1     -10.698  14.003  65.153  1.00  0.00    -0.382 C  
ENDROOT
BRANCH  22  27
HETATM   27  C   UNL     1      -8.542  11.316  65.939  1.00  0.00    -0.096 C  
HETATM   28  O   UNL     1      -7.426  11.334  66.468  1.00  0.00    -0.144 OA 
BRANCH  27  29
HETATM   29  C   UNL     1      -8.943  10.168  65.016  1.00  0.00    -0.195 C  
BRANCH  29  30
HETATM   30  O   UNL     1      -9.981   9.364  65.589  1.00  0.00    -0.304 OA 
BRANCH  30  31
HETATM   31  C   UNL     1      -9.525   8.450  66.490  1.00  0.00    -0.220 C  
HETATM   32  C   UNL     1     -10.653   7.620  67.032  1.00  0.00    -0.406 C  
HETATM   33  O   UNL     1      -8.348   8.334  66.827  1.00  0.00    -0.104 OA 
ENDBRANCH  30  31
ENDBRANCH  29  30
ENDBRANCH  27  29
ENDBRANCH  22  27
TORSDOF 4
ENDMDL
MODEL       30
REMARK 921   NORMALIZED FREE ENERGY PREDICTED BY IDOCK:   -6.05 KCAL/MOL
REMARK 922        TOTAL FREE ENERGY PREDICTED BY IDOCK:   -7.71 KCAL/MOL
REMARK 923 INTER-LIGAND FREE ENERGY PREDICTED BY IDOCK:   -7.28 KCAL/MOL
REMARK 924 INTRA-LIGAND FREE ENERGY PREDICTED BY IDOCK:   -0.43 KCAL/MOL
REMARK 927      BINDING AFFINITY PREDICTED BY RF-SCORE:    0.00 PKD
ROOT
HETATM    1  C   UNL     1     -10.333   8.734  69.286  1.00  0.00    -0.214 C  
HETATM    2  C   UNL     1     -11.640   9.397  69.491  1.00  0.00     0.237 C  
HETATM    3  C   UNL     1     -11.399  10.840  69.044  1.00  0.00    -0.349 C  
HETATM    4  C   UNL     1     -11.538  12.009  70.000  1.00  0.00    -0.275 C  
HETATM    5  C   UNL     1     -12.619  11.715  71.050  1.00  0.00    -0.431 C  
HETATM    6  C   UNL     1     -12.937  12.933  71.878  1.00  0.00    -0.405 C  
HETATM    7  C   UNL     1     -13.310  14.135  70.999  1.00  0.00    -0.288 C  
HETATM    8  C   UNL     1     -13.968  15.144  71.601  1.00  0.00    -0.618 C  
HETATM    9  C   UNL     1     -12.979  15.746  72.569  1.00  0.00    -0.470 C  
HETATM   10  C   UNL     1     -11.526  15.743  72.128  1.00  0.00    -0.444 C  
HETATM   11  O   UNL     1     -13.341  16.207  73.643  1.00  0.00    -0.651 OA 
HETATM   12  C   UNL     1     -11.136  15.163  70.958  1.00  0.00    -0.283 C  
HETATM   13  C   UNL     1     -12.186  14.544  70.004  1.00  0.00    -0.396 C  
HETATM   14  C   UNL     1     -11.955  13.235  69.130  1.00  0.00    -0.343 C  
HETATM   15  C   UNL     1     -12.539  15.715  69.049  1.00  0.00     0.422 C  
HETATM   16  C   UNL     1     -11.207  13.324  67.742  1.00  0.00    -0.280 C  
HETATM   17  C   UNL     1     -10.809  11.913  67.034  1.00  0.00    -0.303 C  
HETATM   18  O   UNL     1     -10.104  14.220  67.853  1.00  0.00    -0.227 OA 
HETATM   19  C   UNL     1     -10.139  10.963  68.102  1.00  0.00    -0.190 C  
HETATM   20  H   UNL     1      -9.654  14.273  67.018  1.00  0.00     0.000 HD 
HETATM   21  C   UNL     1      -8.824  11.796  68.348  1.00  0.00    -0.161 C  
HETATM   22  C   UNL     1      -9.698   9.393  68.056  1.00  0.00    -0.145 C  
HETATM   23  N   UNL     1      -8.242   9.253  68.470  1.00  0.00    -0.113 NA 
HETATM   24  O   UNL     1      -9.494   9.114  70.371  1.00  0.00    -0.190 OA 
HETATM   25  C   UNL     1      -7.317  10.003  70.681  1.00  0.00     0.107 C  
HETATM   26  C   UNL     1      -8.323   9.381  69.768  1.00  0.00    -0.157 C  
ENDROOT
BRANCH  22  27
HETATM   27  C   UNL     1      -9.970   8.696  66.719  1.00  0.00    -0.273 C  
HETATM   28  O   UNL     1     -10.768   7.755  66.651  1.00  0.00    -0.231 OA 
BRANCH  27  29
HETATM   29  C   UNL     1      -9.232   9.175  65.472  1.00  0.00    -0.224 C  
BRANCH  29  30
HETATM   30  O   UNL     1      -8.415   8.142  64.909  1.00  0.00    -0.151 OA 
BRANCH  30  31
HETATM   31  C   UNL     1      -7.179   8.572  64.532  1.00  0.00    -0.086 C  
HETATM   32  C   UNL     1      -6.277   7.413  64.221  1.00  0.00    -0.041 C  
HETATM   33  O   UNL     1      -6.843   9.754  64.472  1.00  0.00    -0.106 OA 
ENDBRANCH  30  31
ENDBRANCH  29  30
ENDBRANCH  27  29
ENDBRANCH  22  27
TORSDOF 4
ENDMDL
MODEL       31
REMARK 921   NORMALIZED FREE ENERGY PREDICTED BY IDOCK:   -6.03 KCAL/MOL
REMARK 922        TOTAL FREE ENERGY PREDICTED BY IDOCK:   -7.68 KCAL/MOL
REMARK 923 INTER-LIGAND FREE ENERGY PREDICTED BY IDOCK:   -7.15 KCAL/MOL
REMARK 924 INTRA-LIGAND FREE ENERGY PREDICTED BY IDOCK:   -0.53 KCAL/MOL
REMARK 927      BINDING AFFINITY PREDICTED BY RF-SCORE:    0.00 PKD
ROOT
HETATM    1  C   UNL     1     -11.040  12.225  66.026  1.00  0.00    -0.309 C  
HETATM    2  C   UNL     1     -10.531  13.378  65.250  1.00  0.00    -0.334 C  
HETATM    3  C   UNL     1      -9.470  13.999  66.159  1.00  0.00    -0.210 C  
HETATM    4  C   UNL     1      -9.598  15.413  66.693  1.00  0.00    -0.276 C  
HETATM    5  C   UNL     1     -10.336  16.300  65.679  1.00  0.00    -0.385 C  
HETATM    6  C   UNL     1     -10.290  17.754  66.074  1.00  0.00    -0.304 C  
HETATM    7  C   UNL     1      -8.850  18.233  66.307  1.00  0.00    -0.197 C  
HETATM    8  C   UNL     1      -8.646  19.564  66.289  1.00  0.00    -0.382 C  
HETATM    9  C   UNL     1      -9.363  20.096  67.506  1.00  0.00    -0.382 C  
HETATM   10  C   UNL     1      -9.369  19.192  68.727  1.00  0.00    -0.423 C  
HETATM   11  O   UNL     1      -9.904  21.193  67.495  1.00  0.00    -0.306 OA 
HETATM   12  C   UNL     1      -8.820  17.945  68.695  1.00  0.00    -0.267 C  
HETATM   13  C   UNL     1      -8.107  17.437  67.418  1.00  0.00    -0.213 C  
HETATM   14  C   UNL     1      -8.142  15.934  66.899  1.00  0.00    -0.285 C  
HETATM   15  C   UNL     1      -6.626  17.843  67.647  1.00  0.00    -0.191 C  
HETATM   16  C   UNL     1      -7.153  14.859  67.500  1.00  0.00    -0.189 C  
HETATM   17  C   UNL     1      -7.418  13.307  67.083  1.00  0.00     0.043 C  
HETATM   18  O   UNL     1      -7.048  15.045  68.909  1.00  0.00    -0.104 OA 
HETATM   19  C   UNL     1      -8.954  12.978  67.247  1.00  0.00    -0.212 C  
HETATM   20  H   UNL     1      -6.453  14.398  69.270  1.00  0.00     0.000 HD 
HETATM   21  C   UNL     1      -9.044  13.105  68.815  1.00  0.00     0.153 C  
HETATM   22  C   UNL     1      -9.852  11.682  66.829  1.00  0.00    -0.200 C  
HETATM   23  N   UNL     1     -10.625  11.178  68.036  1.00  0.00    -0.187 NA 
HETATM   24  O   UNL     1     -11.932  12.740  67.008  1.00  0.00    -0.386 OA 
HETATM   25  C   UNL     1     -12.260  12.558  69.351  1.00  0.00    -0.117 C  
HETATM   26  C   UNL     1     -11.593  12.053  68.113  1.00  0.00    -0.340 C  
ENDROOT
BRANCH  22  27
HETATM   27  C   UNL     1      -9.063  10.552  66.157  1.00  0.00    -0.162 C  
HETATM   28  O   UNL     1      -8.157   9.970  66.764  1.00  0.00    -0.116 OA 
BRANCH  27  29
HETATM   29  C   UNL     1      -9.406  10.163  64.722  1.00  0.00    -0.268 C  
BRANCH  29  30
HETATM   30  O   UNL     1      -8.545  10.810  63.776  1.00  0.00    -0.137 OA 
BRANCH  30  31
HETATM   31  C   UNL     1      -7.621   9.976  63.225  1.00  0.00    -0.140 C  
HETATM   32  C   UNL     1      -8.283   8.799  62.566  1.00  0.00    -0.192 C  
HETATM   33  O   UNL     1      -6.405  10.154  63.276  1.00  0.00    -0.130 OA 
ENDBRANCH  30  31
ENDBRANCH  29  30
ENDBRANCH  27  29
ENDBRANCH  22  27
TORSDOF 4
ENDMDL
MODEL       32
REMARK 921   NORMALIZED FREE ENERGY PREDICTED BY IDOCK:   -6.02 KCAL/MOL
REMARK 922        TOTAL FREE ENERGY PREDICTED BY IDOCK:   -7.67 KCAL/MOL
REMARK 923 INTER-LIGAND FREE ENERGY PREDICTED BY IDOCK:   -6.85 KCAL/MOL
REMARK 924 INTRA-LIGAND FREE ENERGY PREDICTED BY IDOCK:   -0.82 KCAL/MOL
REMARK 927      BINDING AFFINITY PREDICTED BY RF-SCORE:    0.00 PKD
ROOT
HETATM    1  C   UNL     1      -8.144   6.782  67.548  1.00  0.00    -0.115 C  
HETATM    2  C   UNL     1      -7.836   7.785  66.504  1.00  0.00    -0.101 C  
HETATM    3  C   UNL     1      -8.294   9.110  67.115  1.00  0.00    -0.117 C  
HETATM    4  C   UNL     1      -9.394   9.945  66.487  1.00  0.00    -0.206 C  
HETATM    5  C   UNL     1      -9.382   9.781  64.960  1.00  0.00    -0.325 C  
HETATM    6  C   UNL     1     -10.313  10.758  64.289  1.00  0.00    -0.401 C  
HETATM    7  C   UNL     1     -10.016  12.204  64.709  1.00  0.00    -0.224 C  
HETATM    8  C   UNL     1     -10.504  13.176  63.915  1.00  0.00    -0.125 C  
HETATM    9  C   UNL     1     -12.004  13.099  64.063  1.00  0.00    -0.460 C  
HETATM   10  C   UNL     1     -12.521  12.698  65.434  1.00  0.00    -0.421 C  
HETATM   11  O   UNL     1     -12.749  13.348  63.124  1.00  0.00    -0.663 OA 
HETATM   12  C   UNL     1     -11.673  12.359  66.445  1.00  0.00    -0.453 C  
HETATM   13  C   UNL     1     -10.140  12.440  66.241  1.00  0.00    -0.257 C  
HETATM   14  C   UNL     1      -9.089  11.426  66.870  1.00  0.00    -0.178 C  
HETATM   15  C   UNL     1      -9.788  13.873  66.723  1.00  0.00    -0.274 C  
HETATM   16  C   UNL     1      -8.585  11.617  68.355  1.00  0.00    -0.156 C  
HETATM   17  C   UNL     1      -7.699  10.406  68.988  1.00  0.00    -0.116 C  
HETATM   18  O   UNL     1      -9.682  11.994  69.184  1.00  0.00    -0.399 OA 
HETATM   19  C   UNL     1      -8.408   9.028  68.687  1.00  0.00    -0.123 C  
HETATM   20  H   UNL     1      -9.379  12.108  70.077  1.00  0.00     0.000 HD 
HETATM   21  C   UNL     1      -9.690   9.236  69.578  1.00  0.00    -0.179 C  
HETATM   22  C   UNL     1      -7.937   7.480  68.897  1.00  0.00    -0.126 C  
HETATM   23  N   UNL     1      -8.991   6.723  69.690  1.00  0.00    -0.143 NA 
HETATM   24  O   UNL     1      -9.543   6.528  67.485  1.00  0.00    -0.123 OA 
HETATM   25  C   UNL     1     -11.385   6.461  68.979  1.00  0.00    -0.332 C  
HETATM   26  C   UNL     1      -9.906   6.513  68.780  1.00  0.00    -0.140 C  
ENDROOT
BRANCH  22  27
HETATM   27  C   UNL     1      -6.545   7.318  69.518  1.00  0.00    -0.040 C  
HETATM   28  O   UNL     1      -5.550   7.794  68.962  1.00  0.00    -0.025 OA 
BRANCH  27  29
HETATM   29  C   UNL     1      -6.406   6.549  70.829  1.00  0.00    -0.044 C  
BRANCH  29  30
HETATM   30  O   UNL     1      -5.856   7.368  71.868  1.00  0.00    -0.037 OA 
BRANCH  30  31
HETATM   31  C   UNL     1      -6.690   8.366  72.271  1.00  0.00    -0.089 C  
HETATM   32  C   UNL     1      -7.900   7.809  72.966  1.00  0.00    -0.156 C  
HETATM   33  O   UNL     1      -6.486   9.564  72.076  1.00  0.00    -0.300 OA 
ENDBRANCH  30  31
ENDBRANCH  29  30
ENDBRANCH  27  29
ENDBRANCH  22  27
TORSDOF 4
ENDMDL
MODEL       33
REMARK 921   NORMALIZED FREE ENERGY PREDICTED BY IDOCK:   -5.95 KCAL/MOL
REMARK 922        TOTAL FREE ENERGY PREDICTED BY IDOCK:   -7.59 KCAL/MOL
REMARK 923 INTER-LIGAND FREE ENERGY PREDICTED BY IDOCK:   -7.15 KCAL/MOL
REMARK 924 INTRA-LIGAND FREE ENERGY PREDICTED BY IDOCK:   -0.45 KCAL/MOL
REMARK 927      BINDING AFFINITY PREDICTED BY RF-SCORE:    0.00 PKD
ROOT
HETATM    1  C   UNL     1      -9.421   8.379  66.101  1.00  0.00    -0.194 C  
HETATM    2  C   UNL     1     -10.518   7.946  66.997  1.00  0.00    -0.419 C  
HETATM    3  C   UNL     1     -10.001   8.267  68.399  1.00  0.00    -0.211 C  
HETATM    4  C   UNL     1      -9.777   7.185  69.438  1.00  0.00    -0.160 C  
HETATM    5  C   UNL     1     -10.790   6.046  69.249  1.00  0.00    -0.428 C  
HETATM    6  C   UNL     1     -10.741   5.063  70.390  1.00  0.00    -0.010 C  
HETATM    7  C   UNL     1     -10.915   5.759  71.747  1.00  0.00    -0.317 C  
HETATM    8  C   UNL     1     -11.266   4.978  72.787  1.00  0.00    -0.295 C  
HETATM    9  C   UNL     1     -10.077   4.083  73.034  1.00  0.00    -0.152 C  
HETATM   10  C   UNL     1      -8.712   4.698  72.777  1.00  0.00    -0.114 C  
HETATM   11  O   UNL     1     -10.219   2.931  73.419  1.00  0.00    -0.109 OA 
HETATM   12  C   UNL     1      -8.579   5.960  72.283  1.00  0.00    -0.124 C  
HETATM   13  C   UNL     1      -9.830   6.837  72.031  1.00  0.00    -0.166 C  
HETATM   14  C   UNL     1      -9.988   7.864  70.827  1.00  0.00    -0.192 C  
HETATM   15  C   UNL     1     -10.000   7.614  73.364  1.00  0.00    -0.373 C  
HETATM   16  C   UNL     1      -9.378   9.317  70.932  1.00  0.00    -0.245 C  
HETATM   17  C   UNL     1      -9.381  10.212  69.571  1.00  0.00    -0.230 C  
HETATM   18  O   UNL     1      -8.095   9.251  71.549  1.00  0.00    -0.330 OA 
HETATM   19  C   UNL     1      -8.843   9.339  68.371  1.00  0.00    -0.129 C  
HETATM   20  H   UNL     1      -7.728  10.125  71.612  1.00  0.00     0.000 HD 
HETATM   21  C   UNL     1      -7.356   9.173  68.865  1.00  0.00    -0.074 C  
HETATM   22  C   UNL     1      -8.776   9.602  66.763  1.00  0.00    -0.134 C  
HETATM   23  N   UNL     1      -7.356   9.388  66.263  1.00  0.00    -0.095 NA 
HETATM   24  O   UNL     1      -8.417   7.372  66.151  1.00  0.00    -0.130 OA 
HETATM   25  C   UNL     1      -6.075   7.242  66.506  1.00  0.00    -0.039 C  
HETATM   26  C   UNL     1      -7.280   8.083  66.237  1.00  0.00    -0.071 C  
ENDROOT
BRANCH  22  27
HETATM   27  C   UNL     1      -9.328  10.961  66.318  1.00  0.00    -0.179 C  
HETATM   28  O   UNL     1      -8.741  12.007  66.616  1.00  0.00    -0.194 OA 
BRANCH  27  29
HETATM   29  C   UNL     1     -10.620  11.004  65.507  1.00  0.00    -0.200 C  
BRANCH  29  30
HETATM   30  O   UNL     1     -11.684  11.629  66.236  1.00  0.00    -0.443 OA 
BRANCH  30  31
HETATM   31  C   UNL     1     -12.207  12.717  65.607  1.00  0.00    -0.411 C  
HETATM   32  C   UNL     1     -12.504  12.414  64.166  1.00  0.00    -0.534 C  
HETATM   33  O   UNL     1     -12.394  13.808  66.144  1.00  0.00    -0.445 OA 
ENDBRANCH  30  31
ENDBRANCH  29  30
ENDBRANCH  27  29
ENDBRANCH  22  27
TORSDOF 4
ENDMDL
MODEL       34
REMARK 921   NORMALIZED FREE ENERGY PREDICTED BY IDOCK:   -5.95 KCAL/MOL
REMARK 922        TOTAL FREE ENERGY PREDICTED BY IDOCK:   -7.59 KCAL/MOL
REMARK 923 INTER-LIGAND FREE ENERGY PREDICTED BY IDOCK:   -7.04 KCAL/MOL
REMARK 924 INTRA-LIGAND FREE ENERGY PREDICTED BY IDOCK:   -0.55 KCAL/MOL
REMARK 927      BINDING AFFINITY PREDICTED BY RF-SCORE:    0.00 PKD
ROOT
HETATM    1  C   UNL     1      -8.265   6.331  70.958  1.00  0.00    -0.123 C  
HETATM    2  C   UNL     1      -7.956   7.775  71.066  1.00  0.00    -0.090 C  
HETATM    3  C   UNL     1      -9.313   8.459  70.898  1.00  0.00    -0.201 C  
HETATM    4  C   UNL     1      -9.598   9.405  69.747  1.00  0.00    -0.216 C  
HETATM    5  C   UNL     1      -8.320  10.154  69.344  1.00  0.00    -0.174 C  
HETATM    6  C   UNL     1      -8.608  11.256  68.357  1.00  0.00    -0.155 C  
HETATM    7  C   UNL     1      -9.690  12.213  68.875  1.00  0.00     0.102 C  
HETATM    8  C   UNL     1      -9.766  13.419  68.280  1.00  0.00    -0.226 C  
HETATM    9  C   UNL     1     -10.228  13.143  66.871  1.00  0.00    -0.245 C  
HETATM   10  C   UNL     1     -11.192  11.981  66.700  1.00  0.00    -0.380 C  
HETATM   11  O   UNL     1      -9.841  13.822  65.930  1.00  0.00    -0.298 OA 
HETATM   12  C   UNL     1     -11.557  11.195  67.751  1.00  0.00    -0.303 C  
HETATM   13  C   UNL     1     -11.044  11.510  69.178  1.00  0.00    -0.316 C  
HETATM   14  C   UNL     1     -10.669  10.413  70.267  1.00  0.00    -0.249 C  
HETATM   15  C   UNL     1     -12.152  12.425  69.764  1.00  0.00    -0.292 C  
HETATM   16  C   UNL     1     -11.796   9.754  71.156  1.00  0.00    -0.382 C  
HETATM   17  C   UNL     1     -11.354   8.481  72.071  1.00  0.00    -0.425 C  
HETATM   18  O   UNL     1     -12.942   9.488  70.352  1.00  0.00    -0.457 OA 
HETATM   19  C   UNL     1     -10.511   7.475  71.194  1.00  0.00    -0.216 C  
HETATM   20  H   UNL     1     -13.619   9.091  70.887  1.00  0.00     0.000 HD 
HETATM   21  C   UNL     1     -11.657   7.020  70.213  1.00  0.00    -0.309 C  
HETATM   22  C   UNL     1      -9.657   6.137  71.570  1.00  0.00    -0.155 C  
HETATM   23  N   UNL     1     -10.109   4.974  70.700  1.00  0.00    -0.234 NA 
HETATM   24  O   UNL     1      -8.436   6.041  69.575  1.00  0.00    -0.116 OA 
HETATM   25  C   UNL     1     -10.036   4.967  68.191  1.00  0.00    -0.190 C  
HETATM   26  C   UNL     1      -9.524   5.251  69.565  1.00  0.00    -0.138 C  
ENDROOT
BRANCH  22  27
HETATM   27  C   UNL     1      -9.679   5.766  73.057  1.00  0.00    -0.155 C  
HETATM   28  O   UNL     1      -8.754   6.105  73.803  1.00  0.00    -0.123 OA 
BRANCH  27  29
HETATM   29  C   UNL     1     -10.856   4.962  73.601  1.00  0.00    -0.309 C  
BRANCH  29  30
HETATM   30  O   UNL     1     -10.424   3.762  74.253  1.00  0.00    -0.183 OA 
BRANCH  30  31
HETATM   31  C   UNL     1     -10.816   2.626  73.612  1.00  0.00    -0.195 C  
HETATM   32  C   UNL     1      -9.647   1.946  72.959  1.00  0.00    -0.118 C  
HETATM   33  O   UNL     1     -11.976   2.221  73.563  1.00  0.00    -0.169 OA 
ENDBRANCH  30  31
ENDBRANCH  29  30
ENDBRANCH  27  29
ENDBRANCH  22  27
TORSDOF 4
ENDMDL
MODEL       35
REMARK 921   NORMALIZED FREE ENERGY PREDICTED BY IDOCK:   -5.93 KCAL/MOL
REMARK 922        TOTAL FREE ENERGY PREDICTED BY IDOCK:   -7.57 KCAL/MOL
REMARK 923 INTER-LIGAND FREE ENERGY PREDICTED BY IDOCK:   -7.25 KCAL/MOL
REMARK 924 INTRA-LIGAND FREE ENERGY PREDICTED BY IDOCK:   -0.31 KCAL/MOL
REMARK 927      BINDING AFFINITY PREDICTED BY RF-SCORE:    0.00 PKD
ROOT
HETATM    1  C   UNL     1      -9.343  10.860  66.015  1.00  0.00    -0.190 C  
HETATM    2  C   UNL     1     -10.010   9.544  65.887  1.00  0.00    -0.342 C  
HETATM    3  C   UNL     1     -10.009   8.986  67.310  1.00  0.00    -0.275 C  
HETATM    4  C   UNL     1      -9.281   7.705  67.669  1.00  0.00    -0.144 C  
HETATM    5  C   UNL     1      -9.289   6.736  66.478  1.00  0.00    -0.197 C  
HETATM    6  C   UNL     1      -8.770   5.375  66.865  1.00  0.00    -0.112 C  
HETATM    7  C   UNL     1      -9.526   4.801  68.071  1.00  0.00    -0.182 C  
HETATM    8  C   UNL     1      -9.425   3.473  68.272  1.00  0.00    -0.210 C  
HETATM    9  C   UNL     1      -7.985   3.233  68.651  1.00  0.00    -0.057 C  
HETATM   10  C   UNL     1      -7.315   4.330  69.462  1.00  0.00    -0.050 C  
HETATM   11  O   UNL     1      -7.402   2.211  68.318  1.00  0.00    -0.046 OA 
HETATM   12  C   UNL     1      -7.962   5.491  69.763  1.00  0.00    -0.090 C  
HETATM   13  C   UNL     1      -9.437   5.697  69.339  1.00  0.00    -0.169 C  
HETATM   14  C   UNL     1     -10.058   7.084  68.871  1.00  0.00    -0.174 C  
HETATM   15  C   UNL     1     -10.238   5.190  70.568  1.00  0.00    -0.330 C  
HETATM   16  C   UNL     1     -10.545   8.142  69.938  1.00  0.00    -0.239 C  
HETATM   17  C   UNL     1     -10.944   9.617  69.376  1.00  0.00    -0.215 C  
HETATM   18  O   UNL     1      -9.614   8.192  71.016  1.00  0.00    -0.155 OA 
HETATM   19  C   UNL     1      -9.820  10.122  68.390  1.00  0.00    -0.164 C  
HETATM   20  H   UNL     1      -9.907   8.828  71.658  1.00  0.00     0.000 HD 
HETATM   21  C   UNL     1      -8.655  10.278  69.439  1.00  0.00    -0.167 C  
HETATM   22  C   UNL     1      -9.728  11.410  67.393  1.00  0.00    -0.181 C  
HETATM   23  N   UNL     1      -8.453  12.190  67.673  1.00  0.00    -0.153 NA 
HETATM   24  O   UNL     1      -7.944  10.614  66.105  1.00  0.00    -0.141 OA 
HETATM   25  C   UNL     1      -6.139  11.229  67.516  1.00  0.00    -0.059 C  
HETATM   26  C   UNL     1      -7.554  11.443  67.088  1.00  0.00    -0.145 C  
ENDROOT
BRANCH  22  27
HETATM   27  C   UNL     1     -10.960  12.322  67.419  1.00  0.00    -0.253 C  
HETATM   28  O   UNL     1     -11.744  12.295  68.374  1.00  0.00    -0.304 OA 
BRANCH  27  29
HETATM   29  C   UNL     1     -11.210  13.259  66.241  1.00  0.00    -0.299 C  
BRANCH  29  30
HETATM   30  O   UNL     1     -12.366  12.871  65.489  1.00  0.00    -0.460 OA 
BRANCH  30  31
HETATM   31  C   UNL     1     -12.270  13.157  64.161  1.00  0.00    -0.398 C  
HETATM   32  C   UNL     1     -11.662  12.009  63.406  1.00  0.00    -0.519 C  
HETATM   33  O   UNL     1     -12.620  14.221  63.651  1.00  0.00    -0.831 OA 
ENDBRANCH  30  31
ENDBRANCH  29  30
ENDBRANCH  27  29
ENDBRANCH  22  27
TORSDOF 4
ENDMDL
MODEL       36
REMARK 921   NORMALIZED FREE ENERGY PREDICTED BY IDOCK:   -5.84 KCAL/MOL
REMARK 922        TOTAL FREE ENERGY PREDICTED BY IDOCK:   -7.45 KCAL/MOL
REMARK 923 INTER-LIGAND FREE ENERGY PREDICTED BY IDOCK:   -6.83 KCAL/MOL
REMARK 924 INTRA-LIGAND FREE ENERGY PREDICTED BY IDOCK:   -0.62 KCAL/MOL
REMARK 927      BINDING AFFINITY PREDICTED BY RF-SCORE:    0.00 PKD
ROOT
HETATM    1  C   UNL     1      -7.442   9.264  66.406  1.00  0.00    -0.093 C  
HETATM    2  C   UNL     1      -7.400  10.251  67.509  1.00  0.00    -0.089 C  
HETATM    3  C   UNL     1      -8.722  11.008  67.383  1.00  0.00    -0.132 C  
HETATM    4  C   UNL     1      -8.770  12.497  67.098  1.00  0.00    -0.200 C  
HETATM    5  C   UNL     1      -7.555  13.199  67.723  1.00  0.00    -0.155 C  
HETATM    6  C   UNL     1      -7.681  14.698  67.651  1.00  0.00    -0.194 C  
HETATM    7  C   UNL     1      -8.999  15.188  68.266  1.00  0.00    -0.175 C  
HETATM    8  C   UNL     1      -9.063  16.490  68.602  1.00  0.00    -0.239 C  
HETATM    9  C   UNL     1      -9.017  17.245  67.296  1.00  0.00    -0.227 C  
HETATM   10  C   UNL     1      -9.696  16.576  66.114  1.00  0.00    -0.344 C  
HETATM   11  O   UNL     1      -8.460  18.331  67.209  1.00  0.00    -0.244 OA 
HETATM   12  C   UNL     1     -10.250  15.335  66.216  1.00  0.00    -0.300 C  
HETATM   13  C   UNL     1     -10.261  14.594  67.576  1.00  0.00    -0.225 C  
HETATM   14  C   UNL     1     -10.086  13.022  67.751  1.00  0.00    -0.229 C  
HETATM   15  C   UNL     1     -11.618  15.010  68.202  1.00  0.00    -0.360 C  
HETATM   16  C   UNL     1     -11.324  12.057  67.570  1.00  0.00    -0.319 C  
HETATM   17  C   UNL     1     -11.006  10.460  67.534  1.00  0.00    -0.358 C  
HETATM   18  O   UNL     1     -12.109  12.493  66.463  1.00  0.00    -0.572 OA 
HETATM   19  C   UNL     1      -9.793  10.191  66.560  1.00  0.00    -0.268 C  
HETATM   20  H   UNL     1     -12.853  11.912  66.355  1.00  0.00     0.000 HD 
HETATM   21  C   UNL     1     -10.495  10.600  65.210  1.00  0.00    -0.264 C  
HETATM   22  C   UNL     1      -8.911   8.856  66.245  1.00  0.00    -0.170 C  
HETATM   23  N   UNL     1      -8.893   8.591  64.748  1.00  0.00    -0.023 NA 
HETATM   24  O   UNL     1      -7.129   9.963  65.206  1.00  0.00    -0.116 OA 
HETATM   25  C   UNL     1      -8.040  10.212  63.030  1.00  0.00    -0.152 C  
HETATM   26  C   UNL     1      -8.030   9.481  64.333  1.00  0.00    -0.135 C  
ENDROOT
BRANCH  22  27
HETATM   27  C   UNL     1      -9.340   7.611  67.029  1.00  0.00    -0.157 C  
HETATM   28  O   UNL     1     -10.240   6.879  66.604  1.00  0.00    -0.204 OA 
BRANCH  27  29
HETATM   29  C   UNL     1      -8.645   7.294  68.350  1.00  0.00    -0.124 C  
BRANCH  29  30
HETATM   30  O   UNL     1      -9.565   7.298  69.448  1.00  0.00    -0.154 OA 
BRANCH  30  31
HETATM   31  C   UNL     1      -9.049   7.841  70.586  1.00  0.00    -0.153 C  
HETATM   32  C   UNL     1      -9.821   9.062  70.998  1.00  0.00    -0.352 C  
HETATM   33  O   UNL     1      -8.070   7.397  71.186  1.00  0.00    -0.099 OA 
ENDBRANCH  30  31
ENDBRANCH  29  30
ENDBRANCH  27  29
ENDBRANCH  22  27
TORSDOF 4
ENDMDL
MODEL       37
REMARK 921   NORMALIZED FREE ENERGY PREDICTED BY IDOCK:   -5.83 KCAL/MOL
REMARK 922        TOTAL FREE ENERGY PREDICTED BY IDOCK:   -7.44 KCAL/MOL
REMARK 923 INTER-LIGAND FREE ENERGY PREDICTED BY IDOCK:   -6.58 KCAL/MOL
REMARK 924 INTRA-LIGAND FREE ENERGY PREDICTED BY IDOCK:   -0.86 KCAL/MOL
REMARK 927      BINDING AFFINITY PREDICTED BY RF-SCORE:    0.00 PKD
ROOT
HETATM    1  C   UNL     1     -11.306   5.976  70.765  1.00  0.00    -0.225 C  
HETATM    2  C   UNL     1     -10.693   6.075  69.421  1.00  0.00    -0.403 C  
HETATM    3  C   UNL     1      -9.752   7.276  69.529  1.00  0.00    -0.158 C  
HETATM    4  C   UNL     1      -9.936   8.518  68.679  1.00  0.00    -0.197 C  
HETATM    5  C   UNL     1     -10.532   8.146  67.313  1.00  0.00    -0.379 C  
HETATM    6  C   UNL     1     -10.525   9.318  66.365  1.00  0.00    -0.157 C  
HETATM    7  C   UNL     1      -9.123   9.928  66.227  1.00  0.00    -0.187 C  
HETATM    8  C   UNL     1      -8.907  10.711  65.153  1.00  0.00    -0.207 C  
HETATM    9  C   UNL     1      -9.770  11.930  65.366  1.00  0.00    -0.207 C  
HETATM   10  C   UNL     1      -9.940  12.386  66.806  1.00  0.00    -0.234 C  
HETATM   11  O   UNL     1     -10.296  12.509  64.426  1.00  0.00    -0.326 OA 
HETATM   12  C   UNL     1      -9.401  11.687  67.844  1.00  0.00    -0.174 C  
HETATM   13  C   UNL     1      -8.534  10.432  67.576  1.00  0.00    -0.115 C  
HETATM   14  C   UNL     1      -8.514   9.133  68.493  1.00  0.00    -0.128 C  
HETATM   15  C   UNL     1      -7.092  11.001  67.499  1.00  0.00    -0.091 C  
HETATM   16  C   UNL     1      -7.619   9.088  69.794  1.00  0.00    -0.075 C  
HETATM   17  C   UNL     1      -7.841   7.820  70.791  1.00  0.00    -0.099 C  
HETATM   18  O   UNL     1      -7.694  10.343  70.466  1.00  0.00    -0.423 OA 
HETATM   19  C   UNL     1      -9.387   7.607  71.028  1.00  0.00    -0.156 C  
HETATM   20  H   UNL     1      -7.155  10.315  71.248  1.00  0.00     0.000 HD 
HETATM   21  C   UNL     1      -9.677   8.936  71.825  1.00  0.00    -0.365 C  
HETATM   22  C   UNL     1     -10.235   6.424  71.766  1.00  0.00    -0.197 C  
HETATM   23  N   UNL     1     -11.161   7.026  72.811  1.00  0.00    -0.282 NA 
HETATM   24  O   UNL     1     -12.312   6.980  70.842  1.00  0.00    -0.369 OA 
HETATM   25  C   UNL     1     -12.940   8.728  72.318  1.00  0.00    -0.462 C  
HETATM   26  C   UNL     1     -12.124   7.503  72.066  1.00  0.00    -0.291 C  
ENDROOT
BRANCH  22  27
HETATM   27  C   UNL     1      -9.375   5.302  72.359  1.00  0.00    -0.140 C  
HETATM   28  O   UNL     1      -8.590   5.533  73.285  1.00  0.00    -0.117 OA 
BRANCH  27  29
HETATM   29  C   UNL     1      -9.496   3.895  71.781  1.00  0.00    -0.144 C  
BRANCH  29  30
HETATM   30  O   UNL     1      -8.263   3.451  71.201  1.00  0.00    -0.064 OA 
BRANCH  30  31
HETATM   31  C   UNL     1      -8.319   3.314  69.848  1.00  0.00    -0.051 C  
HETATM   32  C   UNL     1      -7.389   4.280  69.171  1.00  0.00    -0.055 C  
HETATM   33  O   UNL     1      -9.047   2.516  69.259  1.00  0.00    -0.100 OA 
ENDBRANCH  30  31
ENDBRANCH  29  30
ENDBRANCH  27  29
ENDBRANCH  22  27
TORSDOF 4
ENDMDL
MODEL       38
REMARK 921   NORMALIZED FREE ENERGY PREDICTED BY IDOCK:   -5.82 KCAL/MOL
REMARK 922        TOTAL FREE ENERGY PREDICTED BY IDOCK:   -7.43 KCAL/MOL
REMARK 923 INTER-LIGAND FREE ENERGY PREDICTED BY IDOCK:   -6.80 KCAL/MOL
REMARK 924 INTRA-LIGAND FREE ENERGY PREDICTED BY IDOCK:   -0.62 KCAL/MOL
REMARK 927      BINDING AFFINITY PREDICTED BY RF-SCORE:    0.00 PKD
ROOT
HETATM    1  C   UNL     1      -8.833   9.289  70.277  1.00  0.00    -0.224 C  
HETATM    2  C   UNL     1     -10.155   9.731  69.779  1.00  0.00    -0.268 C  
HETATM    3  C   UNL     1      -9.977   9.800  68.262  1.00  0.00    -0.175 C  
HETATM    4  C   UNL     1     -10.126  11.101  67.495  1.00  0.00    -0.210 C  
HETATM    5  C   UNL     1     -11.164  12.005  68.176  1.00  0.00    -0.316 C  
HETATM    6  C   UNL     1     -11.498  13.205  67.328  1.00  0.00    -0.375 C  
HETATM    7  C   UNL     1     -11.938  12.797  65.915  1.00  0.00    -0.506 C  
HETATM    8  C   UNL     1     -12.612  13.719  65.202  1.00  0.00    -0.471 C  
HETATM    9  C   UNL     1     -11.615  14.817  64.924  1.00  0.00    -0.401 C  
HETATM   10  C   UNL     1     -10.176  14.376  64.715  1.00  0.00    -0.259 C  
HETATM   11  O   UNL     1     -11.959  15.990  64.873  1.00  0.00     0.167 OA 
HETATM   12  C   UNL     1      -9.803  13.073  64.844  1.00  0.00    -0.048 C  
HETATM   13  C   UNL     1     -10.860  11.982  65.144  1.00  0.00    -0.347 C  
HETATM   14  C   UNL     1     -10.612  10.710  66.065  1.00  0.00    -0.195 C  
HETATM   15  C   UNL     1     -11.282  11.492  63.733  1.00  0.00    -0.456 C  
HETATM   16  C   UNL     1      -9.910   9.423  65.476  1.00  0.00    -0.161 C  
HETATM   17  C   UNL     1      -9.486   8.268  66.544  1.00  0.00    -0.284 C  
HETATM   18  O   UNL     1      -8.835   9.815  64.626  1.00  0.00    -0.181 OA 
HETATM   19  C   UNL     1      -8.751   8.936  67.771  1.00  0.00    -0.125 C  
HETATM   20  H   UNL     1      -8.413   9.041  64.272  1.00  0.00     0.000 HD 
HETATM   21  C   UNL     1      -7.458   9.429  67.017  1.00  0.00    -0.091 C  
HETATM   22  C   UNL     1      -8.259   8.348  69.211  1.00  0.00    -0.116 C  
HETATM   23  N   UNL     1      -6.787   8.664  69.422  1.00  0.00    -0.048 NA 
HETATM   24  O   UNL     1      -7.975  10.424  70.254  1.00  0.00    -0.063 OA 
HETATM   25  C   UNL     1      -5.820  10.982  69.433  1.00  0.00    -0.046 C  
HETATM   26  C   UNL     1      -6.833   9.929  69.748  1.00  0.00    -0.084 C  
ENDROOT
BRANCH  22  27
HETATM   27  C   UNL     1      -8.548   6.858  69.421  1.00  0.00    -0.133 C  
HETATM   28  O   UNL     1      -8.028   6.007  68.692  1.00  0.00    -0.101 OA 
BRANCH  27  29
HETATM   29  C   UNL     1      -9.497   6.440  70.541  1.00  0.00    -0.162 C  
BRANCH  29  30
HETATM   30  O   UNL     1     -10.857   6.385  70.092  1.00  0.00    -0.243 OA 
BRANCH  30  31
HETATM   31  C   UNL     1     -11.751   6.836  71.014  1.00  0.00    -0.355 C  
HETATM   32  C   UNL     1     -11.144   6.856  72.388  1.00  0.00    -0.296 C  
HETATM   33  O   UNL     1     -12.908   7.167  70.756  1.00  0.00    -0.230 OA 
ENDBRANCH  30  31
ENDBRANCH  29  30
ENDBRANCH  27  29
ENDBRANCH  22  27
TORSDOF 4
ENDMDL
MODEL       39
REMARK 921   NORMALIZED FREE ENERGY PREDICTED BY IDOCK:   -5.81 KCAL/MOL
REMARK 922        TOTAL FREE ENERGY PREDICTED BY IDOCK:   -7.41 KCAL/MOL
REMARK 923 INTER-LIGAND FREE ENERGY PREDICTED BY IDOCK:   -6.96 KCAL/MOL
REMARK 924 INTRA-LIGAND FREE ENERGY PREDICTED BY IDOCK:   -0.45 KCAL/MOL
REMARK 927      BINDING AFFINITY PREDICTED BY RF-SCORE:    0.00 PKD
ROOT
HETATM    1  C   UNL     1     -11.919   6.426  71.624  1.00  0.00    -0.291 C  
HETATM    2  C   UNL     1     -11.079   5.988  70.486  1.00  0.00    -0.385 C  
HETATM    3  C   UNL     1     -10.104   7.146  70.275  1.00  0.00    -0.195 C  
HETATM    4  C   UNL     1     -10.068   7.939  68.982  1.00  0.00    -0.204 C  
HETATM    5  C   UNL     1     -10.440   7.039  67.794  1.00  0.00    -0.282 C  
HETATM    6  C   UNL     1     -10.204   7.730  66.477  1.00  0.00    -0.195 C  
HETATM    7  C   UNL     1      -8.767   8.258  66.363  1.00  0.00    -0.162 C  
HETATM    8  C   UNL     1      -8.326   8.547  65.123  1.00  0.00    -0.178 C  
HETATM    9  C   UNL     1      -9.142   9.734  64.674  1.00  0.00    -0.245 C  
HETATM   10  C   UNL     1      -9.531  10.727  65.756  1.00  0.00    -0.244 C  
HETATM   11  O   UNL     1      -9.465   9.876  63.502  1.00  0.00    -0.266 OA 
HETATM   12  C   UNL     1      -9.219  10.514  67.065  1.00  0.00    -0.167 C  
HETATM   13  C   UNL     1      -8.391   9.273  67.481  1.00  0.00    -0.119 C  
HETATM   14  C   UNL     1      -8.603   8.452  68.827  1.00  0.00    -0.135 C  
HETATM   15  C   UNL     1      -6.928   9.788  67.445  1.00  0.00    -0.084 C  
HETATM   16  C   UNL     1      -7.949   8.950  70.176  1.00  0.00    -0.111 C  
HETATM   17  C   UNL     1      -8.411   8.186  71.538  1.00  0.00    -0.160 C  
HETATM   18  O   UNL     1      -8.068  10.367  70.267  1.00  0.00    -0.397 OA 
HETATM   19  C   UNL     1      -9.985   8.059  71.557  1.00  0.00    -0.225 C  
HETATM   20  H   UNL     1      -7.674  10.666  71.078  1.00  0.00     0.000 HD 
HETATM   21  C   UNL     1     -10.331   9.590  71.692  1.00  0.00     0.021 C  
HETATM   22  C   UNL     1     -11.012   7.258  72.539  1.00  0.00    -0.282 C  
HETATM   23  N   UNL     1     -12.068   8.212  73.072  1.00  0.00    -0.135 NA 
HETATM   24  O   UNL     1     -12.865   7.358  71.112  1.00  0.00    -0.326 OA 
HETATM   25  C   UNL     1     -13.636   9.541  71.629  1.00  0.00    -0.426 C  
HETATM   26  C   UNL     1     -12.860   8.332  72.039  1.00  0.00    -0.340 C  
ENDROOT
BRANCH  22  27
HETATM   27  C   UNL     1     -10.332   6.484  73.674  1.00  0.00    -0.304 C  
HETATM   28  O   UNL     1      -9.548   7.052  74.441  1.00  0.00    -0.251 OA 
BRANCH  27  29
HETATM   29  C   UNL     1     -10.631   4.996  73.837  1.00  0.00    -0.289 C  
BRANCH  29  30
HETATM   30  O   UNL     1      -9.700   4.185  73.111  1.00  0.00    -0.122 OA 
BRANCH  30  31
HETATM   31  C   UNL     1      -9.747   2.868  73.453  1.00  0.00    -0.101 C  
HETATM   32  C   UNL     1     -11.161   2.428  73.708  1.00  0.00    -0.299 C  
HETATM   33  O   UNL     1      -8.761   2.140  73.554  1.00  0.00    -0.065 OA 
ENDBRANCH  30  31
ENDBRANCH  29  30
ENDBRANCH  27  29
ENDBRANCH  22  27
TORSDOF 4
ENDMDL
MODEL       40
REMARK 921   NORMALIZED FREE ENERGY PREDICTED BY IDOCK:   -5.78 KCAL/MOL
REMARK 922        TOTAL FREE ENERGY PREDICTED BY IDOCK:   -7.38 KCAL/MOL
REMARK 923 INTER-LIGAND FREE ENERGY PREDICTED BY IDOCK:   -7.07 KCAL/MOL
REMARK 924 INTRA-LIGAND FREE ENERGY PREDICTED BY IDOCK:   -0.32 KCAL/MOL
REMARK 927      BINDING AFFINITY PREDICTED BY RF-SCORE:    0.00 PKD
ROOT
HETATM    1  C   UNL     1     -11.760  12.923  66.759  1.00  0.00    -0.383 C  
HETATM    2  C   UNL     1     -11.350  11.988  67.830  1.00  0.00    -0.369 C  
HETATM    3  C   UNL     1     -10.089  11.320  67.279  1.00  0.00    -0.214 C  
HETATM    4  C   UNL     1     -10.019   9.827  67.024  1.00  0.00    -0.259 C  
HETATM    5  C   UNL     1     -10.892   9.071  68.037  1.00  0.00    -0.102 C  
HETATM    6  C   UNL     1     -10.676   7.582  67.955  1.00  0.00    -0.200 C  
HETATM    7  C   UNL     1      -9.193   7.215  68.097  1.00  0.00    -0.131 C  
HETATM    8  C   UNL     1      -8.914   5.937  68.418  1.00  0.00    -0.112 C  
HETATM    9  C   UNL     1      -9.335   5.122  67.219  1.00  0.00    -0.122 C  
HETATM   10  C   UNL     1      -9.148   5.782  65.863  1.00  0.00    -0.148 C  
HETATM   11  O   UNL     1      -9.798   3.997  67.347  1.00  0.00    -0.177 OA 
HETATM   12  C   UNL     1      -8.696   7.062  65.749  1.00  0.00    -0.116 C  
HETATM   13  C   UNL     1      -8.289   7.864  67.009  1.00  0.00    -0.117 C  
HETATM   14  C   UNL     1      -8.522   9.425  67.202  1.00  0.00    -0.128 C  
HETATM   15  C   UNL     1      -6.771   7.573  67.147  1.00  0.00    -0.067 C  
HETATM   16  C   UNL     1      -7.500  10.465  66.595  1.00  0.00    -0.114 C  
HETATM   17  C   UNL     1      -7.940  12.033  66.637  1.00  0.00     0.013 C  
HETATM   18  O   UNL     1      -7.099  10.036  65.296  1.00  0.00    -0.123 OA 
HETATM   19  C   UNL     1      -9.427  12.172  66.126  1.00  0.00    -0.231 C  
HETATM   20  H   UNL     1      -6.485  10.662  64.931  1.00  0.00     0.000 HD 
HETATM   21  C   UNL     1      -9.189  11.751  64.626  1.00  0.00     0.201 C  
HETATM   22  C   UNL     1     -10.470  13.426  66.102  1.00  0.00    -0.295 C  
HETATM   23  N   UNL     1     -11.011  13.620  64.694  1.00  0.00    -0.377 NA 
HETATM   24  O   UNL     1     -12.401  12.151  65.750  1.00  0.00    -0.564 OA 
HETATM   25  C   UNL     1     -12.257  11.867  63.399  1.00  0.00    -0.561 C  
HETATM   26  C   UNL     1     -11.888  12.654  64.614  1.00  0.00    -0.380 C  
ENDROOT
BRANCH  22  27
HETATM   27  C   UNL     1      -9.905  14.732  66.670  1.00  0.00    -0.259 C  
HETATM   28  O   UNL     1      -9.634  15.678  65.923  1.00  0.00    -0.318 OA 
BRANCH  27  29
HETATM   29  C   UNL     1      -9.672  14.844  68.174  1.00  0.00    -0.214 C  
BRANCH  29  30
HETATM   30  O   UNL     1      -9.286  16.171  68.555  1.00  0.00    -0.196 OA 
BRANCH  30  31
HETATM   31  C   UNL     1     -10.307  16.903  69.080  1.00  0.00    -0.333 C  
HETATM   32  C   UNL     1     -11.312  16.016  69.759  1.00  0.00    -0.331 C  
HETATM   33  O   UNL     1     -10.401  18.127  68.994  1.00  0.00    -0.337 OA 
ENDBRANCH  30  31
ENDBRANCH  29  30
ENDBRANCH  27  29
ENDBRANCH  22  27
TORSDOF 4
ENDMDL
MODEL       41
REMARK 921   NORMALIZED FREE ENERGY PREDICTED BY IDOCK:   -5.78 KCAL/MOL
REMARK 922        TOTAL FREE ENERGY PREDICTED BY IDOCK:   -7.38 KCAL/MOL
REMARK 923 INTER-LIGAND FREE ENERGY PREDICTED BY IDOCK:   -6.71 KCAL/MOL
REMARK 924 INTRA-LIGAND FREE ENERGY PREDICTED BY IDOCK:   -0.67 KCAL/MOL
REMARK 927      BINDING AFFINITY PREDICTED BY RF-SCORE:    0.00 PKD
ROOT
HETATM    1  C   UNL     1      -9.750   8.450  66.688  1.00  0.00    -0.251 C  
HETATM    2  C   UNL     1     -10.664   7.571  67.453  1.00  0.00    -0.331 C  
HETATM    3  C   UNL     1     -10.343   7.882  68.915  1.00  0.00    -0.225 C  
HETATM    4  C   UNL     1      -9.800   6.827  69.859  1.00  0.00    -0.174 C  
HETATM    5  C   UNL     1     -10.351   5.443  69.485  1.00  0.00    -0.350 C  
HETATM    6  C   UNL     1     -10.010   4.408  70.526  1.00  0.00    -0.256 C  
HETATM    7  C   UNL     1     -10.465   4.842  71.926  1.00  0.00    -0.233 C  
HETATM    8  C   UNL     1     -10.565   3.873  72.857  1.00  0.00    -0.233 C  
HETATM    9  C   UNL     1      -9.151   3.410  73.107  1.00  0.00    -0.097 C  
HETATM   10  C   UNL     1      -8.072   4.476  73.014  1.00  0.00    -0.096 C  
HETATM   11  O   UNL     1      -8.902   2.241  73.367  1.00  0.00    -0.069 OA 
HETATM   12  C   UNL     1      -8.364   5.757  72.655  1.00  0.00    -0.116 C  
HETATM   13  C   UNL     1      -9.830   6.183  72.395  1.00  0.00    -0.179 C  
HETATM   14  C   UNL     1     -10.286   7.228  71.286  1.00  0.00    -0.198 C  
HETATM   15  C   UNL     1     -10.307   6.696  73.779  1.00  0.00    -0.373 C  
HETATM   16  C   UNL     1     -10.218   8.779  71.577  1.00  0.00    -0.300 C  
HETATM   17  C   UNL     1     -10.477   9.772  70.312  1.00  0.00    -0.345 C  
HETATM   18  O   UNL     1      -9.015   9.079  72.280  1.00  0.00    -0.360 OA 
HETATM   19  C   UNL     1      -9.625   9.279  69.078  1.00  0.00    -0.159 C  
HETATM   20  H   UNL     1      -8.974  10.012  72.454  1.00  0.00     0.000 HD 
HETATM   21  C   UNL     1      -8.192   9.569  69.664  1.00  0.00    -0.143 C  
HETATM   22  C   UNL     1      -9.592   9.734  67.512  1.00  0.00    -0.150 C  
HETATM   23  N   UNL     1      -8.167  10.072  67.102  1.00  0.00    -0.117 NA 
HETATM   24  O   UNL     1      -8.463   7.844  66.717  1.00  0.00    -0.123 OA 
HETATM   25  C   UNL     1      -6.235   8.473  67.234  1.00  0.00    -0.056 C  
HETATM   26  C   UNL     1      -7.645   8.883  66.957  1.00  0.00    -0.094 C  
ENDROOT
BRANCH  22  27
HETATM   27  C   UNL     1     -10.560  10.868  67.159  1.00  0.00    -0.255 C  
HETATM   28  O   UNL     1     -11.747  10.812  67.501  1.00  0.00    -0.510 OA 
BRANCH  27  29
HETATM   29  C   UNL     1     -10.040  12.066  66.369  1.00  0.00    -0.218 C  
BRANCH  29  30
HETATM   30  O   UNL     1     -10.375  13.306  67.003  1.00  0.00    -0.244 OA 
BRANCH  30  31
HETATM   31  C   UNL     1      -9.664  13.544  68.140  1.00  0.00    -0.233 C  
HETATM   32  C   UNL     1     -10.577  13.869  69.287  1.00  0.00    -0.062 C  
HETATM   33  O   UNL     1      -8.436  13.512  68.212  1.00  0.00    -0.162 OA 
ENDBRANCH  30  31
ENDBRANCH  29  30
ENDBRANCH  27  29
ENDBRANCH  22  27
TORSDOF 4
ENDMDL
MODEL       42
REMARK 921   NORMALIZED FREE ENERGY PREDICTED BY IDOCK:   -5.77 KCAL/MOL
REMARK 922        TOTAL FREE ENERGY PREDICTED BY IDOCK:   -7.37 KCAL/MOL
REMARK 923 INTER-LIGAND FREE ENERGY PREDICTED BY IDOCK:   -6.67 KCAL/MOL
REMARK 924 INTRA-LIGAND FREE ENERGY PREDICTED BY IDOCK:   -0.70 KCAL/MOL
REMARK 927      BINDING AFFINITY PREDICTED BY RF-SCORE:    0.00 PKD
ROOT
HETATM    1  C   UNL     1      -7.573  11.243  66.224  1.00  0.00    -0.032 C  
HETATM    2  C   UNL     1      -7.429   9.819  66.602  1.00  0.00    -0.095 C  
HETATM    3  C   UNL     1      -8.630   9.552  67.510  1.00  0.00    -0.126 C  
HETATM    4  C   UNL     1      -8.464   9.144  68.961  1.00  0.00    -0.132 C  
HETATM    5  C   UNL     1      -7.184   8.314  69.139  1.00  0.00    -0.072 C  
HETATM    6  C   UNL     1      -7.099   7.709  70.516  1.00  0.00    -0.051 C  
HETATM    7  C   UNL     1      -8.356   6.897  70.857  1.00  0.00    -0.130 C  
HETATM    8  C   UNL     1      -8.250   6.015  71.869  1.00  0.00    -0.115 C  
HETATM    9  C   UNL     1      -8.060   6.851  73.111  1.00  0.00    -0.105 C  
HETATM   10  C   UNL     1      -8.789   8.184  73.137  1.00  0.00    -0.325 C  
HETATM   11  O   UNL     1      -7.357   6.466  74.035  1.00  0.00    -0.086 OA 
HETATM   12  C   UNL     1      -9.510   8.624  72.069  1.00  0.00    -0.370 C  
HETATM   13  C   UNL     1      -9.665   7.736  70.810  1.00  0.00    -0.175 C  
HETATM   14  C   UNL     1      -9.714   8.282  69.317  1.00  0.00    -0.177 C  
HETATM   15  C   UNL     1     -10.971   6.944  71.086  1.00  0.00    -0.284 C  
HETATM   16  C   UNL     1     -11.067   8.830  68.712  1.00  0.00     0.261 C  
HETATM   17  C   UNL     1     -10.972   9.582  67.271  1.00  0.00    -0.062 C  
HETATM   18  O   UNL     1     -11.750   9.602  69.697  1.00  0.00    -0.450 OA 
HETATM   19  C   UNL     1      -9.778  10.615  67.299  1.00  0.00    -0.195 C  
HETATM   20  H   UNL     1     -12.564   9.931  69.333  1.00  0.00     0.000 HD 
HETATM   21  C   UNL     1     -10.375  11.619  68.357  1.00  0.00    -0.215 C  
HETATM   22  C   UNL     1      -9.078  11.520  66.136  1.00  0.00    -0.209 C  
HETATM   23  N   UNL     1      -9.050  12.979  66.563  1.00  0.00    -0.179 NA 
HETATM   24  O   UNL     1      -7.130  12.019  67.333  1.00  0.00    -0.114 OA 
HETATM   25  C   UNL     1      -7.930  13.826  68.644  1.00  0.00    -0.095 C  
HETATM   26  C   UNL     1      -8.061  12.984  67.417  1.00  0.00    -0.180 C  
ENDROOT
BRANCH  22  27
HETATM   27  C   UNL     1      -9.699  11.355  64.744  1.00  0.00    -0.244 C  
HETATM   28  O   UNL     1      -9.589  10.290  64.128  1.00  0.00    -0.289 OA 
BRANCH  27  29
HETATM   29  C   UNL     1     -10.448  12.532  64.125  1.00  0.00    -0.403 C  
BRANCH  29  30
HETATM   30  O   UNL     1     -11.837  12.521  64.475  1.00  0.00    -0.346 OA 
BRANCH  30  31
HETATM   31  C   UNL     1     -12.347  13.761  64.710  1.00  0.00    -0.386 C  
HETATM   32  C   UNL     1     -12.530  13.998  66.182  1.00  0.00    -0.467 C  
HETATM   33  O   UNL     1     -12.635  14.573  63.831  1.00  0.00    -0.827 OA 
ENDBRANCH  30  31
ENDBRANCH  29  30
ENDBRANCH  27  29
ENDBRANCH  22  27
TORSDOF 4
ENDMDL
MODEL       43
REMARK 921   NORMALIZED FREE ENERGY PREDICTED BY IDOCK:   -5.76 KCAL/MOL
REMARK 922        TOTAL FREE ENERGY PREDICTED BY IDOCK:   -7.35 KCAL/MOL
REMARK 923 INTER-LIGAND FREE ENERGY PREDICTED BY IDOCK:   -6.85 KCAL/MOL
REMARK 924 INTRA-LIGAND FREE ENERGY PREDICTED BY IDOCK:   -0.50 KCAL/MOL
REMARK 927      BINDING AFFINITY PREDICTED BY RF-SCORE:    0.00 PKD
ROOT
HETATM    1  C   UNL     1      -9.476  11.117  65.876  1.00  0.00    -0.215 C  
HETATM    2  C   UNL     1     -10.128   9.798  65.712  1.00  0.00    -0.308 C  
HETATM    3  C   UNL     1     -10.135   9.209  67.124  1.00  0.00    -0.301 C  
HETATM    4  C   UNL     1      -9.397   7.929  67.463  1.00  0.00    -0.166 C  
HETATM    5  C   UNL     1      -9.382   6.985  66.251  1.00  0.00    -0.146 C  
HETATM    6  C   UNL     1      -8.852   5.622  66.614  1.00  0.00    -0.119 C  
HETATM    7  C   UNL     1      -9.614   5.014  67.800  1.00  0.00    -0.178 C  
HETATM    8  C   UNL     1      -9.501   3.683  67.974  1.00  0.00    -0.218 C  
HETATM    9  C   UNL     1      -8.062   3.451  68.363  1.00  0.00    -0.069 C  
HETATM   10  C   UNL     1      -7.413   4.538  69.204  1.00  0.00    -0.056 C  
HETATM   11  O   UNL     1      -7.464   2.442  68.014  1.00  0.00    -0.054 OA 
HETATM   12  C   UNL     1      -8.075   5.684  69.522  1.00  0.00    -0.103 C  
HETATM   13  C   UNL     1      -9.548   5.884  69.088  1.00  0.00    -0.166 C  
HETATM   14  C   UNL     1     -10.180   7.274  68.642  1.00  0.00    -0.191 C  
HETATM   15  C   UNL     1     -10.356   5.342  70.297  1.00  0.00    -0.357 C  
HETATM   16  C   UNL     1     -10.689   8.303  69.727  1.00  0.00    -0.221 C  
HETATM   17  C   UNL     1     -11.099   9.786  69.192  1.00  0.00    -0.158 C  
HETATM   18  O   UNL     1      -9.770   8.340  70.816  1.00  0.00    -0.167 OA 
HETATM   19  C   UNL     1      -9.970  10.324  68.229  1.00  0.00    -0.166 C  
HETATM   20  H   UNL     1     -10.077   8.959  71.468  1.00  0.00     0.000 HD 
HETATM   21  C   UNL     1      -8.817  10.469  69.294  1.00  0.00    -0.135 C  
HETATM   22  C   UNL     1      -9.882  11.634  67.261  1.00  0.00    -0.187 C  
HETATM   23  N   UNL     1      -8.618  12.421  67.570  1.00  0.00    -0.167 NA 
HETATM   24  O   UNL     1      -8.076  10.884  65.975  1.00  0.00    -0.159 OA 
HETATM   25  C   UNL     1      -6.292  11.488  67.418  1.00  0.00    -0.091 C  
HETATM   26  C   UNL     1      -7.705  11.697  66.979  1.00  0.00    -0.159 C  
ENDROOT
BRANCH  22  27
HETATM   27  C   UNL     1     -11.124  12.532  67.293  1.00  0.00    -0.274 C  
HETATM   28  O   UNL     1     -12.066  12.330  66.520  1.00  0.00    -0.616 OA 
BRANCH  27  29
HETATM   29  C   UNL     1     -11.174  13.688  68.288  1.00  0.00    -0.273 C  
BRANCH  29  30
HETATM   30  O   UNL     1     -12.010  13.385  69.412  1.00  0.00    -0.307 OA 
BRANCH  30  31
HETATM   31  C   UNL     1     -12.184  14.437  70.257  1.00  0.00    -0.334 C  
HETATM   32  C   UNL     1     -12.765  13.986  71.567  1.00  0.00    -0.443 C  
HETATM   33  O   UNL     1     -11.916  15.605  69.978  1.00  0.00    -0.346 OA 
ENDBRANCH  30  31
ENDBRANCH  29  30
ENDBRANCH  27  29
ENDBRANCH  22  27
TORSDOF 4
ENDMDL
MODEL       44
REMARK 921   NORMALIZED FREE ENERGY PREDICTED BY IDOCK:   -5.70 KCAL/MOL
REMARK 922        TOTAL FREE ENERGY PREDICTED BY IDOCK:   -7.28 KCAL/MOL
REMARK 923 INTER-LIGAND FREE ENERGY PREDICTED BY IDOCK:   -6.55 KCAL/MOL
REMARK 924 INTRA-LIGAND FREE ENERGY PREDICTED BY IDOCK:   -0.74 KCAL/MOL
REMARK 927      BINDING AFFINITY PREDICTED BY RF-SCORE:    0.00 PKD
ROOT
HETATM    1  C   UNL     1      -8.802  13.907  66.637  1.00  0.00    -0.081 C  
HETATM    2  C   UNL     1      -9.430  12.587  66.402  1.00  0.00    -0.233 C  
HETATM    3  C   UNL     1     -10.235  12.327  67.675  1.00  0.00    -0.208 C  
HETATM    4  C   UNL     1      -9.939  11.150  68.586  1.00  0.00    -0.210 C  
HETATM    5  C   UNL     1      -9.416   9.961  67.767  1.00  0.00    -0.158 C  
HETATM    6  C   UNL     1      -9.319   8.710  68.602  1.00  0.00    -0.142 C  
HETATM    7  C   UNL     1     -10.650   8.385  69.292  1.00  0.00    -0.193 C  
HETATM    8  C   UNL     1     -10.805   7.125  69.744  1.00  0.00    -0.261 C  
HETATM    9  C   UNL     1      -9.813   6.979  70.871  1.00  0.00    -0.185 C  
HETATM   10  C   UNL     1      -9.565   8.222  71.709  1.00  0.00    -0.274 C  
HETATM   11  O   UNL     1      -9.249   5.915  71.088  1.00  0.00    -0.148 OA 
HETATM   12  C   UNL     1     -10.152   9.414  71.408  1.00  0.00    -0.263 C  
HETATM   13  C   UNL     1     -11.153   9.518  70.232  1.00  0.00    -0.317 C  
HETATM   14  C   UNL     1     -11.291  10.777  69.269  1.00  0.00    -0.352 C  
HETATM   15  C   UNL     1     -12.527   9.262  70.905  1.00  0.00    -0.189 C  
HETATM   16  C   UNL     1     -12.157  12.024  69.705  1.00  0.00    -0.248 C  
HETATM   17  C   UNL     1     -12.049  13.353  68.770  1.00  0.00    -0.281 C  
HETATM   18  O   UNL     1     -11.935  12.298  71.086  1.00  0.00    -0.262 OA 
HETATM   19  C   UNL     1     -10.530  13.658  68.470  1.00  0.00    -0.249 C  
HETATM   20  H   UNL     1     -12.456  13.048  71.348  1.00  0.00     0.000 HD 
HETATM   21  C   UNL     1     -10.084  14.032  69.935  1.00  0.00     0.879 C  
HETATM   22  C   UNL     1      -9.797  14.720  67.472  1.00  0.00    -0.218 C  
HETATM   23  N   UNL     1      -8.790  15.551  68.250  1.00  0.00    -0.176 NA 
HETATM   24  O   UNL     1      -7.693  13.696  67.504  1.00  0.00    -0.159 OA 
HETATM   25  C   UNL     1      -6.851  14.598  69.530  1.00  0.00    -0.165 C  
HETATM   26  C   UNL     1      -7.798  14.710  68.380  1.00  0.00    -0.131 C  
ENDROOT
BRANCH  22  27
HETATM   27  C   UNL     1     -10.758  15.608  66.673  1.00  0.00    -0.296 C  
HETATM   28  O   UNL     1     -11.138  16.692  67.129  1.00  0.00    -0.097 OA 
BRANCH  27  29
HETATM   29  C   UNL     1     -11.247  15.128  65.310  1.00  0.00    -0.358 C  
BRANCH  29  30
HETATM   30  O   UNL     1     -12.470  14.389  65.414  1.00  0.00    -0.407 OA 
BRANCH  30  31
HETATM   31  C   UNL     1     -12.523  13.310  64.585  1.00  0.00    -0.349 C  
HETATM   32  C   UNL     1     -11.721  13.548  63.338  1.00  0.00    -0.091 C  
HETATM   33  O   UNL     1     -13.159  12.283  64.821  1.00  0.00    -0.724 OA 
ENDBRANCH  30  31
ENDBRANCH  29  30
ENDBRANCH  27  29
ENDBRANCH  22  27
TORSDOF 4
ENDMDL
MODEL       45
REMARK 921   NORMALIZED FREE ENERGY PREDICTED BY IDOCK:   -5.70 KCAL/MOL
REMARK 922        TOTAL FREE ENERGY PREDICTED BY IDOCK:   -7.28 KCAL/MOL
REMARK 923 INTER-LIGAND FREE ENERGY PREDICTED BY IDOCK:   -6.44 KCAL/MOL
REMARK 924 INTRA-LIGAND FREE ENERGY PREDICTED BY IDOCK:   -0.84 KCAL/MOL
REMARK 927      BINDING AFFINITY PREDICTED BY RF-SCORE:    0.00 PKD
ROOT
HETATM    1  C   UNL     1      -9.530   6.983  68.566  1.00  0.00    -0.134 C  
HETATM    2  C   UNL     1     -10.703   7.753  68.094  1.00  0.00    -0.112 C  
HETATM    3  C   UNL     1     -10.123   8.717  67.058  1.00  0.00    -0.342 C  
HETATM    4  C   UNL     1     -10.190  10.222  67.236  1.00  0.00    -0.267 C  
HETATM    5  C   UNL     1     -11.464  10.612  68.000  1.00  0.00    -0.289 C  
HETATM    6  C   UNL     1     -11.675  12.104  68.004  1.00  0.00    -0.409 C  
HETATM    7  C   UNL     1     -11.664  12.683  66.583  1.00  0.00    -0.464 C  
HETATM    8  C   UNL     1     -12.208  13.905  66.424  1.00  0.00    -0.487 C  
HETATM    9  C   UNL     1     -11.293  14.850  67.163  1.00  0.00    -0.343 C  
HETATM   10  C   UNL     1      -9.814  14.501  67.144  1.00  0.00    -0.245 C  
HETATM   11  O   UNL     1     -11.730  15.835  67.741  1.00  0.00    -0.183 OA 
HETATM   12  C   UNL     1      -9.357  13.362  66.553  1.00  0.00    -0.225 C  
HETATM   13  C   UNL     1     -10.337  12.415  65.817  1.00  0.00    -0.289 C  
HETATM   14  C   UNL     1     -10.220  10.829  65.799  1.00  0.00    -0.319 C  
HETATM   15  C   UNL     1     -10.301  12.927  64.353  1.00  0.00    -0.393 C  
HETATM   16  C   UNL     1      -9.253  10.112  64.777  1.00  0.00    -0.242 C  
HETATM   17  C   UNL     1      -9.021   8.514  64.988  1.00  0.00    -0.004 C  
HETATM   18  O   UNL     1      -8.033  10.842  64.684  1.00  0.00    -0.362 OA 
HETATM   19  C   UNL     1      -8.726   8.225  66.511  1.00  0.00    -0.157 C  
HETATM   20  H   UNL     1      -7.451  10.410  64.069  1.00  0.00     0.000 HD 
HETATM   21  C   UNL     1      -7.334   8.958  66.612  1.00  0.00    -0.085 C  
HETATM   22  C   UNL     1      -8.590   6.841  67.363  1.00  0.00    -0.120 C  
HETATM   23  N   UNL     1      -7.274   6.829  68.125  1.00  0.00    -0.089 NA 
HETATM   24  O   UNL     1      -8.822   7.815  69.479  1.00  0.00    -0.138 OA 
HETATM   25  C   UNL     1      -6.595   8.562  69.811  1.00  0.00    -0.039 C  
HETATM   26  C   UNL     1      -7.540   7.631  69.122  1.00  0.00    -0.100 C  
ENDROOT
BRANCH  22  27
HETATM   27  C   UNL     1      -8.769   5.564  66.534  1.00  0.00    -0.119 C  
HETATM   28  O   UNL     1      -9.898   5.166  66.227  1.00  0.00    -0.162 OA 
BRANCH  27  29
HETATM   29  C   UNL     1      -7.530   4.787  66.099  1.00  0.00    -0.086 C  
BRANCH  29  30
HETATM   30  O   UNL     1      -7.533   4.527  64.690  1.00  0.00    -0.070 OA 
BRANCH  30  31
HETATM   31  C   UNL     1      -7.067   5.568  63.946  1.00  0.00    -0.049 C  
HETATM   32  C   UNL     1      -7.863   5.725  62.682  1.00  0.00    -0.089 C  
HETATM   33  O   UNL     1      -6.110   6.274  64.262  1.00  0.00    -0.028 OA 
ENDBRANCH  30  31
ENDBRANCH  29  30
ENDBRANCH  27  29
ENDBRANCH  22  27
TORSDOF 4
ENDMDL
MODEL       46
REMARK 921   NORMALIZED FREE ENERGY PREDICTED BY IDOCK:   -5.69 KCAL/MOL
REMARK 922        TOTAL FREE ENERGY PREDICTED BY IDOCK:   -7.28 KCAL/MOL
REMARK 923 INTER-LIGAND FREE ENERGY PREDICTED BY IDOCK:   -6.57 KCAL/MOL
REMARK 924 INTRA-LIGAND FREE ENERGY PREDICTED BY IDOCK:   -0.70 KCAL/MOL
REMARK 927      BINDING AFFINITY PREDICTED BY RF-SCORE:    0.00 PKD
ROOT
HETATM    1  C   UNL     1      -8.924  13.675  66.440  1.00  0.00     0.033 C  
HETATM    2  C   UNL     1      -8.751  13.819  67.903  1.00  0.00    -0.183 C  
HETATM    3  C   UNL     1      -9.943  13.067  68.495  1.00  0.00    -0.174 C  
HETATM    4  C   UNL     1     -10.993  13.765  69.338  1.00  0.00    -0.142 C  
HETATM    5  C   UNL     1     -10.360  14.919  70.130  1.00  0.00     0.040 C  
HETATM    6  C   UNL     1     -11.319  15.493  71.140  1.00  0.00    -0.442 C  
HETATM    7  C   UNL     1     -11.882  14.408  72.068  1.00  0.00     0.026 C  
HETATM    8  C   UNL     1     -12.435  14.828  73.223  1.00  0.00    -0.503 C  
HETATM    9  C   UNL     1     -13.677  15.584  72.821  1.00  0.00    -0.553 C  
HETATM   10  C   UNL     1     -14.411  15.063  71.597  1.00  0.00    -0.680 C  
HETATM   11  O   UNL     1     -14.060  16.559  73.453  1.00  0.00    -0.237 OA 
HETATM   12  C   UNL     1     -13.929  14.018  70.868  1.00  0.00     0.307 C  
HETATM   13  C   UNL     1     -12.642  13.281  71.311  1.00  0.00    -0.398 C  
HETATM   14  C   UNL     1     -11.551  12.687  70.318  1.00  0.00    -0.050 C  
HETATM   15  C   UNL     1     -13.176  12.128  72.201  1.00  0.00    -0.438 C  
HETATM   16  C   UNL     1     -11.761  11.266  69.660  1.00  0.00    -0.350 C  
HETATM   17  C   UNL     1     -10.718  10.844  68.483  1.00  0.00    -0.239 C  
HETATM   18  O   UNL     1     -13.124  11.118  69.273  1.00  0.00     0.023 OA 
HETATM   19  C   UNL     1     -10.564  12.043  67.467  1.00  0.00    -0.250 C  
HETATM   20  H   UNL     1     -13.250  10.264  68.877  1.00  0.00     0.000 HD 
HETATM   21  C   UNL     1     -12.026  12.026  66.879  1.00  0.00    -0.091 C  
HETATM   22  C   UNL     1      -9.556  12.298  66.210  1.00  0.00    -0.242 C  
HETATM   23  N   UNL     1     -10.359  12.639  64.965  1.00  0.00    -0.295 NA 
HETATM   24  O   UNL     1      -9.928  14.602  66.043  1.00  0.00    -0.284 OA 
HETATM   25  C   UNL     1     -11.939  14.582  64.784  1.00  0.00    -0.449 C  
HETATM   26  C   UNL     1     -10.683  13.884  65.193  1.00  0.00    -0.362 C  
ENDROOT
BRANCH  22  27
HETATM   27  C   UNL     1      -8.570  11.155  65.945  1.00  0.00    -0.135 C  
HETATM   28  O   UNL     1      -8.944  10.118  65.386  1.00  0.00    -0.158 OA 
BRANCH  27  29
HETATM   29  C   UNL     1      -7.119  11.312  66.391  1.00  0.00    -0.053 C  
BRANCH  29  30
HETATM   30  O   UNL     1      -6.793  10.420  67.463  1.00  0.00    -0.074 OA 
BRANCH  30  31
HETATM   31  C   UNL     1      -6.636  11.047  68.662  1.00  0.00    -0.058 C  
HETATM   32  C   UNL     1      -5.299  11.729  68.741  1.00  0.00    -0.049 C  
HETATM   33  O   UNL     1      -7.471  11.041  69.565  1.00  0.00    -0.114 OA 
ENDBRANCH  30  31
ENDBRANCH  29  30
ENDBRANCH  27  29
ENDBRANCH  22  27
TORSDOF 4
ENDMDL
MODEL       47
REMARK 921   NORMALIZED FREE ENERGY PREDICTED BY IDOCK:   -5.69 KCAL/MOL
REMARK 922        TOTAL FREE ENERGY PREDICTED BY IDOCK:   -7.26 KCAL/MOL
REMARK 923 INTER-LIGAND FREE ENERGY PREDICTED BY IDOCK:   -6.46 KCAL/MOL
REMARK 924 INTRA-LIGAND FREE ENERGY PREDICTED BY IDOCK:   -0.80 KCAL/MOL
REMARK 927      BINDING AFFINITY PREDICTED BY RF-SCORE:    0.00 PKD
ROOT
HETATM    1  C   UNL     1      -8.143   6.530  69.627  1.00  0.00    -0.125 C  
HETATM    2  C   UNL     1      -7.766   7.959  69.714  1.00  0.00    -0.099 C  
HETATM    3  C   UNL     1      -9.090   8.678  69.972  1.00  0.00    -0.157 C  
HETATM    4  C   UNL     1      -9.655   9.694  68.997  1.00  0.00    -0.168 C  
HETATM    5  C   UNL     1      -8.516  10.440  68.286  1.00  0.00    -0.123 C  
HETATM    6  C   UNL     1      -9.033  11.601  67.477  1.00  0.00    -0.165 C  
HETATM    7  C   UNL     1      -9.890  12.549  68.327  1.00  0.00    -0.227 C  
HETATM    8  C   UNL     1     -10.088  13.788  67.838  1.00  0.00    -0.246 C  
HETATM    9  C   UNL     1     -10.939  13.602  66.606  1.00  0.00    -0.292 C  
HETATM   10  C   UNL     1     -11.952  12.471  66.659  1.00  0.00    -0.351 C  
HETATM   11  O   UNL     1     -10.810  14.326  65.629  1.00  0.00    -0.292 OA 
HETATM   12  C   UNL     1     -12.032  11.634  67.730  1.00  0.00    -0.119 C  
HETATM   13  C   UNL     1     -11.128  11.856  68.966  1.00  0.00    -0.300 C  
HETATM   14  C   UNL     1     -10.499  10.692  69.849  1.00  0.00    -0.136 C  
HETATM   15  C   UNL     1     -11.991  12.758  69.887  1.00  0.00    -0.368 C  
HETATM   16  C   UNL     1     -11.351  10.005  70.988  1.00  0.00    -0.357 C  
HETATM   17  C   UNL     1     -10.714   8.674  71.676  1.00  0.00    -0.374 C  
HETATM   18  O   UNL     1     -12.686   9.808  70.530  1.00  0.00    -0.515 OA 
HETATM   19  C   UNL     1     -10.189   7.703  70.547  1.00  0.00    -0.201 C  
HETATM   20  H   UNL     1     -13.199   9.395  71.215  1.00  0.00     0.000 HD 
HETATM   21  C   UNL     1     -11.581   7.328  69.910  1.00  0.00    -0.021 C  
HETATM   22  C   UNL     1      -9.312   6.329  70.598  1.00  0.00    -0.162 C  
HETATM   23  N   UNL     1     -10.031   5.227  69.837  1.00  0.00    -0.216 NA 
HETATM   24  O   UNL     1      -8.708   6.323  68.337  1.00  0.00    -0.117 OA 
HETATM   25  C   UNL     1     -10.670   5.362  67.412  1.00  0.00    -0.161 C  
HETATM   26  C   UNL     1      -9.781   5.557  68.597  1.00  0.00    -0.142 C  
ENDROOT
BRANCH  22  27
HETATM   27  C   UNL     1      -8.925   5.874  72.010  1.00  0.00    -0.137 C  
HETATM   28  O   UNL     1      -9.785   5.456  72.794  1.00  0.00    -0.148 OA 
BRANCH  27  29
HETATM   29  C   UNL     1      -7.463   5.954  72.438  1.00  0.00    -0.099 C  
BRANCH  29  30
HETATM   30  O   UNL     1      -7.312   6.629  73.693  1.00  0.00    -0.084 OA 
BRANCH  30  31
HETATM   31  C   UNL     1      -7.385   7.985  73.591  1.00  0.00    -0.145 C  
HETATM   32  C   UNL     1      -6.146   8.544  72.952  1.00  0.00    -0.087 C  
HETATM   33  O   UNL     1      -8.334   8.662  73.986  1.00  0.00    -0.325 OA 
ENDBRANCH  30  31
ENDBRANCH  29  30
ENDBRANCH  27  29
ENDBRANCH  22  27
TORSDOF 4
ENDMDL
MODEL       48
REMARK 921   NORMALIZED FREE ENERGY PREDICTED BY IDOCK:   -5.67 KCAL/MOL
REMARK 922        TOTAL FREE ENERGY PREDICTED BY IDOCK:   -7.24 KCAL/MOL
REMARK 923 INTER-LIGAND FREE ENERGY PREDICTED BY IDOCK:   -6.49 KCAL/MOL
REMARK 924 INTRA-LIGAND FREE ENERGY PREDICTED BY IDOCK:   -0.76 KCAL/MOL
REMARK 927      BINDING AFFINITY PREDICTED BY RF-SCORE:    0.00 PKD
ROOT
HETATM    1  C   UNL     1     -11.330   6.122  70.610  1.00  0.00    -0.298 C  
HETATM    2  C   UNL     1     -10.728   6.265  69.266  1.00  0.00    -0.367 C  
HETATM    3  C   UNL     1      -9.802   7.475  69.399  1.00  0.00    -0.166 C  
HETATM    4  C   UNL     1     -10.009   8.737  68.584  1.00  0.00    -0.197 C  
HETATM    5  C   UNL     1     -10.609   8.394  67.212  1.00  0.00    -0.328 C  
HETATM    6  C   UNL     1     -10.624   9.590  66.296  1.00  0.00    -0.018 C  
HETATM    7  C   UNL     1      -9.231  10.223  66.166  1.00  0.00    -0.192 C  
HETATM    8  C   UNL     1      -9.034  11.037  65.112  1.00  0.00    -0.159 C  
HETATM    9  C   UNL     1      -9.911  12.238  65.363  1.00  0.00    -0.244 C  
HETATM   10  C   UNL     1     -10.077  12.653  66.815  1.00  0.00    -0.243 C  
HETATM   11  O   UNL     1     -10.452  12.834  64.441  1.00  0.00    -0.346 OA 
HETATM   12  C   UNL     1      -9.523  11.934  67.831  1.00  0.00    -0.194 C  
HETATM   13  C   UNL     1      -8.640  10.699  67.524  1.00  0.00    -0.122 C  
HETATM   14  C   UNL     1      -8.597   9.376  68.406  1.00  0.00    -0.124 C  
HETATM   15  C   UNL     1      -7.207  11.289  67.453  1.00  0.00    -0.110 C  
HETATM   16  C   UNL     1      -7.692   9.309  69.699  1.00  0.00    -0.087 C  
HETATM   17  C   UNL     1      -7.891   8.012  70.664  1.00  0.00    -0.091 C  
HETATM   18  O   UNL     1      -7.780  10.544  70.405  1.00  0.00    -0.425 OA 
HETATM   19  C   UNL     1      -9.432   7.772  70.905  1.00  0.00    -0.165 C  
HETATM   20  H   UNL     1      -7.236  10.503  71.183  1.00  0.00     0.000 HD 
HETATM   21  C   UNL     1      -9.734   9.074  71.739  1.00  0.00    -0.311 C  
HETATM   22  C   UNL     1     -10.258   6.558  71.616  1.00  0.00    -0.193 C  
HETATM   23  N   UNL     1     -11.185   7.119  72.682  1.00  0.00    -0.291 NA 
HETATM   24  O   UNL     1     -12.350   7.109  70.721  1.00  0.00    -0.314 OA 
HETATM   25  C   UNL     1     -12.990   8.809  72.246  1.00  0.00    -0.462 C  
HETATM   26  C   UNL     1     -12.160   7.602  71.957  1.00  0.00    -0.299 C  
ENDROOT
BRANCH  22  27
HETATM   27  C   UNL     1      -9.380   5.432  72.173  1.00  0.00    -0.143 C  
HETATM   28  O   UNL     1      -9.110   4.444  71.482  1.00  0.00    -0.123 OA 
BRANCH  27  29
HETATM   29  C   UNL     1      -8.850   5.547  73.600  1.00  0.00    -0.125 C  
BRANCH  29  30
HETATM   30  O   UNL     1      -7.418   5.599  73.632  1.00  0.00    -0.090 OA 
BRANCH  30  31
HETATM   31  C   UNL     1      -6.929   6.796  74.056  1.00  0.00    -0.078 C  
HETATM   32  C   UNL     1      -5.431   6.836  73.942  1.00  0.00    -0.046 C  
HETATM   33  O   UNL     1      -7.621   7.716  74.490  1.00  0.00    -0.136 OA 
ENDBRANCH  30  31
ENDBRANCH  29  30
ENDBRANCH  27  29
ENDBRANCH  22  27
TORSDOF 4
ENDMDL
MODEL       49
REMARK 921   NORMALIZED FREE ENERGY PREDICTED BY IDOCK:   -5.63 KCAL/MOL
REMARK 922        TOTAL FREE ENERGY PREDICTED BY IDOCK:   -7.19 KCAL/MOL
REMARK 923 INTER-LIGAND FREE ENERGY PREDICTED BY IDOCK:   -6.61 KCAL/MOL
REMARK 924 INTRA-LIGAND FREE ENERGY PREDICTED BY IDOCK:   -0.58 KCAL/MOL
REMARK 927      BINDING AFFINITY PREDICTED BY RF-SCORE:    0.00 PKD
ROOT
HETATM    1  C   UNL     1      -8.513  15.109  66.686  1.00  0.00    -0.195 C  
HETATM    2  C   UNL     1      -9.196  13.855  66.297  1.00  0.00    -0.114 C  
HETATM    3  C   UNL     1     -10.066  13.514  67.507  1.00  0.00    -0.234 C  
HETATM    4  C   UNL     1      -9.867  12.239  68.304  1.00  0.00    -0.217 C  
HETATM    5  C   UNL     1      -9.371  11.110  67.389  1.00  0.00    -0.172 C  
HETATM    6  C   UNL     1      -9.371   9.780  68.097  1.00  0.00    -0.136 C  
HETATM    7  C   UNL     1     -10.745   9.460  68.702  1.00  0.00    -0.196 C  
HETATM    8  C   UNL     1     -10.981   8.172  69.019  1.00  0.00     0.093 C  
HETATM    9  C   UNL     1     -10.046   7.862  70.161  1.00  0.00    -0.194 C  
HETATM   10  C   UNL     1      -9.771   9.001  71.128  1.00  0.00    -0.369 C  
HETATM   11  O   UNL     1      -9.545   6.753  70.289  1.00  0.00    -0.165 OA 
HETATM   12  C   UNL     1     -10.284  10.247  70.928  1.00  0.00     0.662 C  
HETATM   13  C   UNL     1     -11.229  10.520  69.732  1.00  0.00    -0.361 C  
HETATM   14  C   UNL     1     -11.263  11.874  68.897  1.00  0.00    -0.310 C  
HETATM   15  C   UNL     1     -12.641  10.274  70.325  1.00  0.00    -0.212 C  
HETATM   16  C   UNL     1     -12.084  13.116  69.425  1.00  0.00    -0.231 C  
HETATM   17  C   UNL     1     -11.870  14.523  68.632  1.00  0.00    -0.355 C  
HETATM   18  O   UNL     1     -11.905  13.240  70.833  1.00  0.00    -0.481 OA 
HETATM   19  C   UNL     1     -10.326  14.775  68.421  1.00  0.00    -0.233 C  
HETATM   20  H   UNL     1     -12.399  13.988  71.150  1.00  0.00     0.000 HD 
HETATM   21  C   UNL     1      -9.923  14.977  69.931  1.00  0.00    -0.026 C  
HETATM   22  C   UNL     1      -9.501  15.888  67.562  1.00  0.00    -0.219 C  
HETATM   23  N   UNL     1      -8.486  16.583  68.456  1.00  0.00    -0.215 NA 
HETATM   24  O   UNL     1      -7.453  14.754  67.567  1.00  0.00    -0.170 OA 
HETATM   25  C   UNL     1      -6.653  15.404  69.703  1.00  0.00    -0.178 C  
HETATM   26  C   UNL     1      -7.544  15.680  68.536  1.00  0.00    -0.132 C  
ENDROOT
BRANCH  22  27
HETATM   27  C   UNL     1     -10.382  16.902  66.822  1.00  0.00    -0.298 C  
HETATM   28  O   UNL     1     -10.774  16.673  65.673  1.00  0.00    -0.317 OA 
BRANCH  27  29
HETATM   29  C   UNL     1     -10.759  18.203  67.524  1.00  0.00    -0.345 C  
BRANCH  29  30
HETATM   30  O   UNL     1     -10.512  19.345  66.694  1.00  0.00    -0.404 OA 
BRANCH  30  31
HETATM   31  C   UNL     1      -9.195  19.678  66.609  1.00  0.00    -0.364 C  
HETATM   32  C   UNL     1      -8.642  20.036  67.959  1.00  0.00    -0.264 C  
HETATM   33  O   UNL     1      -8.550  19.700  65.562  1.00  0.00    -0.260 OA 
ENDBRANCH  30  31
ENDBRANCH  29  30
ENDBRANCH  27  29
ENDBRANCH  22  27
TORSDOF 4
ENDMDL
MODEL       50
REMARK 921   NORMALIZED FREE ENERGY PREDICTED BY IDOCK:   -5.56 KCAL/MOL
REMARK 922        TOTAL FREE ENERGY PREDICTED BY IDOCK:   -7.11 KCAL/MOL
REMARK 923 INTER-LIGAND FREE ENERGY PREDICTED BY IDOCK:   -7.30 KCAL/MOL
REMARK 924 INTRA-LIGAND FREE ENERGY PREDICTED BY IDOCK:    0.19 KCAL/MOL
REMARK 927      BINDING AFFINITY PREDICTED BY RF-SCORE:    0.00 PKD
ROOT
HETATM    1  C   UNL     1     -11.552  14.990  66.575  1.00  0.00    -0.184 C  
HETATM    2  C   UNL     1     -11.826  13.621  66.083  1.00  0.00    -0.424 C  
HETATM    3  C   UNL     1     -10.736  12.767  66.732  1.00  0.00    -0.278 C  
HETATM    4  C   UNL     1      -9.708  12.016  65.907  1.00  0.00    -0.256 C  
HETATM    5  C   UNL     1     -10.319  11.572  64.570  1.00  0.00    -0.354 C  
HETATM    6  C   UNL     1      -9.401  10.639  63.822  1.00  0.00    -0.304 C  
HETATM    7  C   UNL     1      -8.986   9.440  64.685  1.00  0.00    -0.233 C  
HETATM    8  C   UNL     1      -8.495   8.368  64.033  1.00  0.00    -0.003 C  
HETATM    9  C   UNL     1      -7.177   8.820  63.454  1.00  0.00    -0.094 C  
HETATM   10  C   UNL     1      -6.390   9.820  64.284  1.00  0.00    -0.117 C  
HETATM   11  O   UNL     1      -6.778   8.397  62.378  1.00  0.00    -0.094 OA 
HETATM   12  C   UNL     1      -6.885  10.330  65.446  1.00  0.00    -0.140 C  
HETATM   13  C   UNL     1      -8.250   9.845  65.994  1.00  0.00    -0.119 C  
HETATM   14  C   UNL     1      -9.301  10.769  66.751  1.00  0.00    -0.182 C  
HETATM   15  C   UNL     1      -7.865   8.670  66.931  1.00  0.00    -0.091 C  
HETATM   16  C   UNL     1      -9.139  11.061  68.295  1.00  0.00    -0.158 C  
HETATM   17  C   UNL     1     -10.117  12.198  68.930  1.00  0.00    -0.012 C  
HETATM   18  O   UNL     1      -7.764  11.280  68.596  1.00  0.00    -0.121 OA 
HETATM   19  C   UNL     1     -10.110  13.472  67.998  1.00  0.00    -0.244 C  
HETATM   20  H   UNL     1      -7.667  11.456  69.525  1.00  0.00     0.000 HD 
HETATM   21  C   UNL     1      -8.612  13.907  68.224  1.00  0.00    -0.177 C  
HETATM   22  C   UNL     1     -11.000  14.839  67.997  1.00  0.00    -0.271 C  
HETATM   23  N   UNL     1     -10.084  16.052  67.997  1.00  0.00    -0.236 NA 
HETATM   24  O   UNL     1     -10.460  15.498  65.817  1.00  0.00    -0.315 OA 
HETATM   25  C   UNL     1      -8.366  16.533  66.230  1.00  0.00    -0.364 C  
HETATM   26  C   UNL     1      -9.694  16.088  66.750  1.00  0.00    -0.239 C  
ENDROOT
BRANCH  22  27
HETATM   27  C   UNL     1     -12.040  14.921  69.121  1.00  0.00    -0.231 C  
HETATM   28  O   UNL     1     -12.744  15.928  69.253  1.00  0.00     0.143 OA 
BRANCH  27  29
HETATM   29  C   UNL     1     -12.184  13.744  70.081  1.00  0.00    -0.356 C  
BRANCH  29  30
HETATM   30  O   UNL     1     -11.937  14.132  71.438  1.00  0.00    -0.304 OA 
BRANCH  30  31
HETATM   31  C   UNL     1     -13.057  14.140  72.212  1.00  0.00    -0.423 C  
HETATM   32  C   UNL     1     -13.003  15.248  73.225  1.00  0.00    -0.645 C  
HETATM   33  O   UNL     1     -13.981  13.335  72.106  1.00  0.00    -0.471 OA 
ENDBRANCH  30  31
ENDBRANCH  29  30
ENDBRANCH  27  29
ENDBRANCH  22  27
TORSDOF 4
ENDMDL
MODEL       51
REMARK 921   NORMALIZED FREE ENERGY PREDICTED BY IDOCK:   -5.54 KCAL/MOL
REMARK 922        TOTAL FREE ENERGY PREDICTED BY IDOCK:   -7.08 KCAL/MOL
REMARK 923 INTER-LIGAND FREE ENERGY PREDICTED BY IDOCK:   -6.69 KCAL/MOL
REMARK 924 INTRA-LIGAND FREE ENERGY PREDICTED BY IDOCK:   -0.39 KCAL/MOL
REMARK 927      BINDING AFFINITY PREDICTED BY RF-SCORE:    0.00 PKD
ROOT
HETATM    1  C   UNL     1     -10.117   7.758  71.785  1.00  0.00    -0.179 C  
HETATM    2  C   UNL     1     -11.206   8.486  71.095  1.00  0.00    -0.317 C  
HETATM    3  C   UNL     1     -10.624   8.809  69.718  1.00  0.00    -0.227 C  
HETATM    4  C   UNL     1     -10.428  10.236  69.244  1.00  0.00    -0.250 C  
HETATM    5  C   UNL     1     -11.511  11.149  69.838  1.00  0.00    -0.386 C  
HETATM    6  C   UNL     1     -11.481  12.523  69.221  1.00  0.00    -0.353 C  
HETATM    7  C   UNL     1     -11.569  12.458  67.690  1.00  0.00    -0.421 C  
HETATM    8  C   UNL     1     -11.929  13.591  67.057  1.00  0.00    -0.440 C  
HETATM    9  C   UNL     1     -10.787  14.553  67.274  1.00  0.00    -0.297 C  
HETATM   10  C   UNL     1      -9.397  13.939  67.323  1.00  0.00    -0.231 C  
HETATM   11  O   UNL     1     -10.982  15.753  67.402  1.00  0.00    -0.320 OA 
HETATM   12  C   UNL     1      -9.209  12.593  67.248  1.00  0.00    -0.195 C  
HETATM   13  C   UNL     1     -10.415  11.644  67.039  1.00  0.00    -0.258 C  
HETATM   14  C   UNL     1     -10.553  10.199  67.689  1.00  0.00    -0.316 C  
HETATM   15  C   UNL     1     -10.494  11.497  65.496  1.00  0.00    -0.327 C  
HETATM   16  C   UNL     1      -9.857   8.951  67.017  1.00  0.00    -0.214 C  
HETATM   17  C   UNL     1      -9.854   7.566  67.873  1.00  0.00    -0.185 C  
HETATM   18  O   UNL     1      -8.560   9.322  66.556  1.00  0.00    -0.127 OA 
HETATM   19  C   UNL     1      -9.408   7.870  69.357  1.00  0.00    -0.152 C  
HETATM   20  H   UNL     1      -8.141   8.571  66.152  1.00  0.00     0.000 HD 
HETATM   21  C   UNL     1      -7.917   8.286  69.061  1.00  0.00    -0.112 C  
HETATM   22  C   UNL     1      -9.380   6.955  70.707  1.00  0.00    -0.161 C  
HETATM   23  N   UNL     1      -7.993   6.992  71.328  1.00  0.00    -0.103 NA 
HETATM   24  O   UNL     1      -9.171   8.730  72.218  1.00  0.00    -0.340 OA 
HETATM   25  C   UNL     1      -6.830   9.087  72.079  1.00  0.00     0.084 C  
HETATM   26  C   UNL     1      -7.993   8.165  71.903  1.00  0.00    -0.121 C  
ENDROOT
BRANCH  22  27
HETATM   27  C   UNL     1      -9.867   5.515  70.508  1.00  0.00    -0.193 C  
HETATM   28  O   UNL     1     -11.030   5.287  70.158  1.00  0.00    -0.170 OA 
BRANCH  27  29
HETATM   29  C   UNL     1      -8.895   4.366  70.760  1.00  0.00    -0.097 C  
BRANCH  29  30
HETATM   30  O   UNL     1      -9.408   3.438  71.724  1.00  0.00    -0.112 OA 
BRANCH  30  31
HETATM   31  C   UNL     1      -8.484   2.533  72.151  1.00  0.00    -0.065 C  
HETATM   32  C   UNL     1      -9.119   1.483  73.016  1.00  0.00    -0.069 C  
HETATM   33  O   UNL     1      -7.286   2.582  71.876  1.00  0.00    -0.037 OA 
ENDBRANCH  30  31
ENDBRANCH  29  30
ENDBRANCH  27  29
ENDBRANCH  22  27
TORSDOF 4
ENDMDL
MODEL       52
REMARK 921   NORMALIZED FREE ENERGY PREDICTED BY IDOCK:   -5.52 KCAL/MOL
REMARK 922        TOTAL FREE ENERGY PREDICTED BY IDOCK:   -7.06 KCAL/MOL
REMARK 923 INTER-LIGAND FREE ENERGY PREDICTED BY IDOCK:   -6.44 KCAL/MOL
REMARK 924 INTRA-LIGAND FREE ENERGY PREDICTED BY IDOCK:   -0.62 KCAL/MOL
REMARK 927      BINDING AFFINITY PREDICTED BY RF-SCORE:    0.00 PKD
ROOT
HETATM    1  C   UNL     1     -11.310  11.379  66.367  1.00  0.00    -0.096 C  
HETATM    2  C   UNL     1     -10.631  12.440  65.589  1.00  0.00    -0.297 C  
HETATM    3  C   UNL     1      -9.391  12.774  66.419  1.00  0.00    -0.196 C  
HETATM    4  C   UNL     1      -9.169  14.153  67.010  1.00  0.00    -0.249 C  
HETATM    5  C   UNL     1      -9.781  15.228  66.100  1.00  0.00    -0.343 C  
HETATM    6  C   UNL     1      -9.392  16.616  66.539  1.00  0.00    -0.290 C  
HETATM    7  C   UNL     1      -7.869  16.768  66.657  1.00  0.00    -0.307 C  
HETATM    8  C   UNL     1      -7.387  18.026  66.667  1.00  0.00    -0.254 C  
HETATM    9  C   UNL     1      -7.872  18.631  67.961  1.00  0.00    -0.271 C  
HETATM   10  C   UNL     1      -7.972  17.685  69.145  1.00  0.00     0.030 C  
HETATM   11  O   UNL     1      -8.164  19.816  68.038  1.00  0.00    -0.304 OA 
HETATM   12  C   UNL     1      -7.707  16.354  69.020  1.00  0.00    -0.235 C  
HETATM   13  C   UNL     1      -7.225  15.776  67.667  1.00  0.00    -0.189 C  
HETATM   14  C   UNL     1      -7.624  14.344  67.101  1.00  0.00    -0.021 C  
HETATM   15  C   UNL     1      -5.679  15.849  67.775  1.00  0.00    -0.164 C  
HETATM   16  C   UNL     1      -6.842  13.054  67.573  1.00  0.00    -0.151 C  
HETATM   17  C   UNL     1      -7.467  11.618  67.128  1.00  0.00    -0.146 C  
HETATM   18  O   UNL     1      -6.586  13.139  68.972  1.00  0.00    -0.096 OA 
HETATM   19  C   UNL     1      -9.019  11.610  67.419  1.00  0.00    -0.166 C  
HETATM   20  H   UNL     1      -6.116  12.363  69.255  1.00  0.00     0.000 HD 
HETATM   21  C   UNL     1      -8.952  11.669  68.992  1.00  0.00     0.195 C  
HETATM   22  C   UNL     1     -10.204  10.557  67.039  1.00  0.00    -0.226 C  
HETATM   23  N   UNL     1     -10.967  10.163  68.293  1.00  0.00    -0.255 NA 
HETATM   24  O   UNL     1     -11.988  12.017  67.443  1.00  0.00    -0.583 OA 
HETATM   25  C   UNL     1     -12.156  11.784  69.798  1.00  0.00    -0.338 C  
HETATM   26  C   UNL     1     -11.716  11.217  68.488  1.00  0.00    -0.298 C  
ENDROOT
BRANCH  22  27
HETATM   27  C   UNL     1      -9.733   9.324  66.260  1.00  0.00    -0.271 C  
HETATM   28  O   UNL     1      -9.531   9.388  65.042  1.00  0.00    -0.247 OA 
BRANCH  27  29
HETATM   29  C   UNL     1      -9.525   8.011  67.009  1.00  0.00    -0.174 C  
BRANCH  29  30
HETATM   30  O   UNL     1      -8.361   8.054  67.844  1.00  0.00    -0.127 OA 
BRANCH  30  31
HETATM   31  C   UNL     1      -8.284   7.017  68.722  1.00  0.00    -0.122 C  
HETATM   32  C   UNL     1      -8.703   7.445  70.099  1.00  0.00    -0.143 C  
HETATM   33  O   UNL     1      -7.906   5.883  68.428  1.00  0.00    -0.102 OA 
ENDBRANCH  30  31
ENDBRANCH  29  30
ENDBRANCH  27  29
ENDBRANCH  22  27
TORSDOF 4
ENDMDL
MODEL       53
REMARK 921   NORMALIZED FREE ENERGY PREDICTED BY IDOCK:   -5.45 KCAL/MOL
REMARK 922        TOTAL FREE ENERGY PREDICTED BY IDOCK:   -6.97 KCAL/MOL
REMARK 923 INTER-LIGAND FREE ENERGY PREDICTED BY IDOCK:   -6.36 KCAL/MOL
REMARK 924 INTRA-LIGAND FREE ENERGY PREDICTED BY IDOCK:   -0.61 KCAL/MOL
REMARK 927      BINDING AFFINITY PREDICTED BY RF-SCORE:    0.00 PKD
ROOT
HETATM    1  C   UNL     1      -8.641   6.562  66.428  1.00  0.00    -0.136 C  
HETATM    2  C   UNL     1      -8.472   7.678  65.469  1.00  0.00    -0.132 C  
HETATM    3  C   UNL     1      -8.449   8.926  66.351  1.00  0.00    -0.123 C  
HETATM    4  C   UNL     1      -9.499  10.014  66.230  1.00  0.00    -0.241 C  
HETATM    5  C   UNL     1      -9.986  10.125  64.778  1.00  0.00    -0.334 C  
HETATM    6  C   UNL     1     -10.863  11.333  64.576  1.00  0.00    -0.354 C  
HETATM    7  C   UNL     1     -10.171  12.621  65.043  1.00  0.00    -0.294 C  
HETATM    8  C   UNL     1     -10.674  13.781  64.579  1.00  0.00    -0.405 C  
HETATM    9  C   UNL     1     -12.041  13.904  65.206  1.00  0.00    -0.410 C  
HETATM   10  C   UNL     1     -12.184  13.347  66.613  1.00  0.00    -0.391 C  
HETATM   11  O   UNL     1     -12.972  14.424  64.605  1.00  0.00    -0.592 OA 
HETATM   12  C   UNL     1     -11.153  12.711  67.236  1.00  0.00    -0.320 C  
HETATM   13  C   UNL     1      -9.772  12.597  66.546  1.00  0.00    -0.256 C  
HETATM   14  C   UNL     1      -8.803  11.341  66.663  1.00  0.00    -0.175 C  
HETATM   15  C   UNL     1      -9.012  13.852  67.051  1.00  0.00    -0.251 C  
HETATM   16  C   UNL     1      -7.843  11.188  67.909  1.00  0.00    -0.111 C  
HETATM   17  C   UNL     1      -7.065   9.765  68.061  1.00  0.00    -0.079 C  
HETATM   18  O   UNL     1      -8.536  11.571  69.093  1.00  0.00    -0.372 OA 
HETATM   19  C   UNL     1      -8.091   8.584  67.850  1.00  0.00    -0.115 C  
HETATM   20  H   UNL     1      -7.958  11.479  69.842  1.00  0.00     0.000 HD 
HETATM   21  C   UNL     1      -8.972   8.821  69.135  1.00  0.00    -0.137 C  
HETATM   22  C   UNL     1      -7.897   6.971  67.705  1.00  0.00    -0.113 C  
HETATM   23  N   UNL     1      -8.787   6.251  68.706  1.00  0.00    -0.123 NA 
HETATM   24  O   UNL     1     -10.013   6.536  66.804  1.00  0.00    -0.162 OA 
HETATM   25  C   UNL     1     -11.285   6.482  68.806  1.00  0.00    -0.319 C  
HETATM   26  C   UNL     1      -9.958   6.346  68.134  1.00  0.00    -0.136 C  
ENDROOT
BRANCH  22  27
HETATM   27  C   UNL     1      -6.444   6.494  67.804  1.00  0.00    -0.052 C  
HETATM   28  O   UNL     1      -5.707   6.905  68.707  1.00  0.00    -0.017 OA 
BRANCH  27  29
HETATM   29  C   UNL     1      -5.917   5.511  66.763  1.00  0.00    -0.019 C  
BRANCH  29  30
HETATM   30  O   UNL     1      -5.880   4.171  67.270  1.00  0.00    -0.021 OA 
BRANCH  30  31
HETATM   31  C   UNL     1      -6.971   3.432  66.928  1.00  0.00    -0.054 C  
HETATM   32  C   UNL     1      -6.990   3.149  65.453  1.00  0.00    -0.049 C  
HETATM   33  O   UNL     1      -7.835   3.060  67.722  1.00  0.00    -0.066 OA 
ENDBRANCH  30  31
ENDBRANCH  29  30
ENDBRANCH  27  29
ENDBRANCH  22  27
TORSDOF 4
ENDMDL
MODEL       54
REMARK 921   NORMALIZED FREE ENERGY PREDICTED BY IDOCK:   -5.42 KCAL/MOL
REMARK 922        TOTAL FREE ENERGY PREDICTED BY IDOCK:   -6.93 KCAL/MOL
REMARK 923 INTER-LIGAND FREE ENERGY PREDICTED BY IDOCK:   -6.63 KCAL/MOL
REMARK 924 INTRA-LIGAND FREE ENERGY PREDICTED BY IDOCK:   -0.30 KCAL/MOL
REMARK 927      BINDING AFFINITY PREDICTED BY RF-SCORE:    0.00 PKD
ROOT
HETATM    1  C   UNL     1     -10.022  13.902  66.239  1.00  0.00    -0.306 C  
HETATM    2  C   UNL     1     -10.319  12.841  65.249  1.00  0.00    -0.313 C  
HETATM    3  C   UNL     1     -10.091  11.540  66.018  1.00  0.00    -0.270 C  
HETATM    4  C   UNL     1      -9.028  10.540  65.606  1.00  0.00    -0.200 C  
HETATM    5  C   UNL     1      -8.841  10.558  64.082  1.00  0.00    -0.205 C  
HETATM    6  C   UNL     1      -7.957   9.431  63.616  1.00  0.00    -0.142 C  
HETATM    7  C   UNL     1      -8.465   8.069  64.111  1.00  0.00     0.111 C  
HETATM    8  C   UNL     1      -8.002   6.981  63.467  1.00  0.00    -0.070 C  
HETATM    9  C   UNL     1      -6.531   6.915  63.798  1.00  0.00    -0.043 C  
HETATM   10  C   UNL     1      -6.137   7.388  65.187  1.00  0.00    -0.038 C  
HETATM   11  O   UNL     1      -5.715   6.502  62.986  1.00  0.00    -0.029 OA 
HETATM   12  C   UNL     1      -7.053   7.908  66.051  1.00  0.00    -0.062 C  
HETATM   13  C   UNL     1      -8.551   7.968  65.660  1.00  0.00    -0.167 C  
HETATM   14  C   UNL     1      -9.545   9.141  66.065  1.00  0.00    -0.342 C  
HETATM   15  C   UNL     1      -9.119   6.632  66.208  1.00  0.00    -0.168 C  
HETATM   16  C   UNL     1     -10.239   9.145  67.485  1.00  0.00    -0.245 C  
HETATM   17  C   UNL     1     -11.048  10.496  67.899  1.00  0.00    -0.367 C  
HETATM   18  O   UNL     1      -9.298   8.736  68.474  1.00  0.00    -0.141 OA 
HETATM   19  C   UNL     1     -10.155  11.758  67.580  1.00  0.00    -0.206 C  
HETATM   20  H   UNL     1      -9.716   8.739  69.328  1.00  0.00     0.000 HD 
HETATM   21  C   UNL     1      -9.019  11.502  68.642  1.00  0.00    -0.115 C  
HETATM   22  C   UNL     1     -10.465  13.360  67.602  1.00  0.00    -0.241 C  
HETATM   23  N   UNL     1      -9.433  14.074  68.459  1.00  0.00    -0.210 NA 
HETATM   24  O   UNL     1      -8.606  14.002  66.335  1.00  0.00     0.058 OA 
HETATM   25  C   UNL     1      -6.957  14.017  68.041  1.00  0.00    -0.147 C  
HETATM   26  C   UNL     1      -8.399  14.100  67.659  1.00  0.00    -0.182 C  
ENDROOT
BRANCH  22  27
HETATM   27  C   UNL     1     -11.893  13.724  68.025  1.00  0.00    -0.373 C  
HETATM   28  O   UNL     1     -12.765  13.939  67.176  1.00  0.00    -0.008 OA 
BRANCH  27  29
HETATM   29  C   UNL     1     -12.219  13.828  69.512  1.00  0.00    -0.293 C  
BRANCH  29  30
HETATM   30  O   UNL     1     -11.882  15.116  70.041  1.00  0.00    -0.282 OA 
BRANCH  30  31
HETATM   31  C   UNL     1     -12.717  15.531  71.033  1.00  0.00    -0.467 C  
HETATM   32  C   UNL     1     -11.941  16.004  72.229  1.00  0.00    -0.633 C  
HETATM   33  O   UNL     1     -13.946  15.505  70.964  1.00  0.00    -0.535 OA 
ENDBRANCH  30  31
ENDBRANCH  29  30
ENDBRANCH  27  29
ENDBRANCH  22  27
TORSDOF 4
ENDMDL
MODEL       55
REMARK 921   NORMALIZED FREE ENERGY PREDICTED BY IDOCK:   -5.40 KCAL/MOL
REMARK 922        TOTAL FREE ENERGY PREDICTED BY IDOCK:   -6.91 KCAL/MOL
REMARK 923 INTER-LIGAND FREE ENERGY PREDICTED BY IDOCK:   -6.31 KCAL/MOL
REMARK 924 INTRA-LIGAND FREE ENERGY PREDICTED BY IDOCK:   -0.60 KCAL/MOL
REMARK 927      BINDING AFFINITY PREDICTED BY RF-SCORE:    0.00 PKD
ROOT
HETATM    1  C   UNL     1     -10.398   9.268  67.085  1.00  0.00    -0.260 C  
HETATM    2  C   UNL     1     -10.220  10.357  66.098  1.00  0.00    -0.288 C  
HETATM    3  C   UNL     1      -9.148  11.252  66.722  1.00  0.00    -0.181 C  
HETATM    4  C   UNL     1      -9.426  12.695  67.097  1.00  0.00    -0.214 C  
HETATM    5  C   UNL     1     -10.454  13.307  66.134  1.00  0.00    -0.296 C  
HETATM    6  C   UNL     1     -10.591  14.794  66.339  1.00  0.00    -0.300 C  
HETATM    7  C   UNL     1      -9.234  15.506  66.251  1.00  0.00    -0.364 C  
HETATM    8  C   UNL     1      -9.262  16.836  66.038  1.00  0.00    -0.236 C  
HETATM    9  C   UNL     1      -9.857  17.430  67.291  1.00  0.00    -0.278 C  
HETATM   10  C   UNL     1      -9.517  16.722  68.592  1.00  0.00    -0.255 C  
HETATM   11  O   UNL     1     -10.569  18.423  67.247  1.00  0.00    -0.406 OA 
HETATM   12  C   UNL     1      -8.779  15.578  68.611  1.00  0.00    -0.188 C  
HETATM   13  C   UNL     1      -8.201  14.998  67.297  1.00  0.00    -0.236 C  
HETATM   14  C   UNL     1      -8.064  13.447  66.975  1.00  0.00    -0.018 C  
HETATM   15  C   UNL     1      -6.793  15.644  67.206  1.00  0.00    -0.197 C  
HETATM   16  C   UNL     1      -6.826  12.626  67.513  1.00  0.00    -0.151 C  
HETATM   17  C   UNL     1      -6.889  11.008  67.338  1.00  0.00    -0.082 C  
HETATM   18  O   UNL     1      -6.532  13.030  68.848  1.00  0.00    -0.082 OA 
HETATM   19  C   UNL     1      -8.301  10.487  67.813  1.00  0.00    -0.111 C  
HETATM   20  H   UNL     1      -5.787  12.536  69.171  1.00  0.00     0.000 HD 
HETATM   21  C   UNL     1      -8.162  10.826  69.345  1.00  0.00    -0.035 C  
HETATM   22  C   UNL     1      -9.023   9.027  67.720  1.00  0.00    -0.127 C  
HETATM   23  N   UNL     1      -9.500   8.597  69.098  1.00  0.00    -0.157 NA 
HETATM   24  O   UNL     1     -11.197   9.785  68.142  1.00  0.00    -0.163 OA 
HETATM   25  C   UNL     1     -11.115   9.902  70.510  1.00  0.00    -0.398 C  
HETATM   26  C   UNL     1     -10.577   9.324  69.242  1.00  0.00    -0.222 C  
ENDROOT
BRANCH  22  27
HETATM   27  C   UNL     1      -8.171   7.938  67.057  1.00  0.00    -0.117 C  
HETATM   28  O   UNL     1      -7.689   8.114  65.933  1.00  0.00    -0.086 OA 
BRANCH  27  29
HETATM   29  C   UNL     1      -7.936   6.628  67.803  1.00  0.00    -0.112 C  
BRANCH  29  30
HETATM   30  O   UNL     1      -8.709   5.556  67.250  1.00  0.00    -0.110 OA 
BRANCH  30  31
HETATM   31  C   UNL     1      -9.934   5.415  67.828  1.00  0.00    -0.161 C  
HETATM   32  C   UNL     1      -9.808   4.927  69.243  1.00  0.00    -0.272 C  
HETATM   33  O   UNL     1     -11.001   5.643  67.260  1.00  0.00    -0.209 OA 
ENDBRANCH  30  31
ENDBRANCH  29  30
ENDBRANCH  27  29
ENDBRANCH  22  27
TORSDOF 4
ENDMDL
MODEL       56
REMARK 921   NORMALIZED FREE ENERGY PREDICTED BY IDOCK:   -5.40 KCAL/MOL
REMARK 922        TOTAL FREE ENERGY PREDICTED BY IDOCK:   -6.91 KCAL/MOL
REMARK 923 INTER-LIGAND FREE ENERGY PREDICTED BY IDOCK:   -6.83 KCAL/MOL
REMARK 924 INTRA-LIGAND FREE ENERGY PREDICTED BY IDOCK:   -0.08 KCAL/MOL
REMARK 927      BINDING AFFINITY PREDICTED BY RF-SCORE:    0.00 PKD
ROOT
HETATM    1  C   UNL     1      -7.314   9.399  65.866  1.00  0.00    -0.095 C  
HETATM    2  C   UNL     1      -7.426  10.278  67.052  1.00  0.00    -0.093 C  
HETATM    3  C   UNL     1      -8.789  10.952  66.888  1.00  0.00    -0.145 C  
HETATM    4  C   UNL     1      -8.928  12.454  66.732  1.00  0.00    -0.205 C  
HETATM    5  C   UNL     1      -7.818  13.176  67.511  1.00  0.00    -0.173 C  
HETATM    6  C   UNL     1      -8.050  14.664  67.560  1.00  0.00    -0.200 C  
HETATM    7  C   UNL     1      -9.443  15.002  68.110  1.00  0.00    -0.196 C  
HETATM    8  C   UNL     1      -9.628  16.260  68.553  1.00  0.00    -0.222 C  
HETATM    9  C   UNL     1      -9.544  17.135  67.326  1.00  0.00    -0.245 C  
HETATM   10  C   UNL     1     -10.084  16.534  66.040  1.00  0.00    -0.368 C  
HETATM   11  O   UNL     1      -9.066  18.260  67.379  1.00  0.00    -0.251 OA 
HETATM   12  C   UNL     1     -10.549  15.255  65.989  1.00  0.00    -0.327 C  
HETATM   13  C   UNL     1     -10.602  14.390  67.272  1.00  0.00    -0.279 C  
HETATM   14  C   UNL     1     -10.323  12.825  67.322  1.00  0.00    -0.235 C  
HETATM   15  C   UNL     1     -12.029  14.653  67.824  1.00  0.00    -0.302 C  
HETATM   16  C   UNL     1     -11.469  11.799  66.961  1.00  0.00    -0.298 C  
HETATM   17  C   UNL     1     -11.030  10.238  66.809  1.00  0.00    -0.082 C  
HETATM   18  O   UNL     1     -12.202  12.281  65.837  1.00  0.00    -0.634 OA 
HETATM   19  C   UNL     1      -9.733  10.144  65.915  1.00  0.00    -0.292 C  
HETATM   20  H   UNL     1     -12.890  11.663  65.620  1.00  0.00     0.000 HD 
HETATM   21  C   UNL     1     -10.364  10.628  64.554  1.00  0.00    -0.352 C  
HETATM   22  C   UNL     1      -8.732   8.908  65.554  1.00  0.00    -0.183 C  
HETATM   23  N   UNL     1      -8.585   8.785  64.046  1.00  0.00    -0.114 NA 
HETATM   24  O   UNL     1      -6.968  10.225  64.761  1.00  0.00    -0.138 OA 
HETATM   25  C   UNL     1      -7.734  10.613  62.550  1.00  0.00    -0.159 C  
HETATM   26  C   UNL     1      -7.764   9.767  63.780  1.00  0.00    -0.135 C  
ENDROOT
BRANCH  22  27
HETATM   27  C   UNL     1      -9.122   7.568  66.190  1.00  0.00    -0.137 C  
HETATM   28  O   UNL     1     -10.058   7.503  66.994  1.00  0.00    -0.210 OA 
BRANCH  27  29
HETATM   29  C   UNL     1      -8.330   6.317  65.821  1.00  0.00    -0.145 C  
BRANCH  29  30
HETATM   30  O   UNL     1      -9.142   5.138  65.882  1.00  0.00    -0.145 OA 
BRANCH  30  31
HETATM   31  C   UNL     1      -9.051   4.359  64.769  1.00  0.00    -0.152 C  
HETATM   32  C   UNL     1     -10.374   3.727  64.445  1.00  0.00    -0.235 C  
HETATM   33  O   UNL     1      -8.017   4.184  64.126  1.00  0.00    -0.086 OA 
ENDBRANCH  30  31
ENDBRANCH  29  30
ENDBRANCH  27  29
ENDBRANCH  22  27
TORSDOF 4
ENDMDL
MODEL       57
REMARK 921   NORMALIZED FREE ENERGY PREDICTED BY IDOCK:   -5.38 KCAL/MOL
REMARK 922        TOTAL FREE ENERGY PREDICTED BY IDOCK:   -6.89 KCAL/MOL
REMARK 923 INTER-LIGAND FREE ENERGY PREDICTED BY IDOCK:   -6.52 KCAL/MOL
REMARK 924 INTRA-LIGAND FREE ENERGY PREDICTED BY IDOCK:   -0.37 KCAL/MOL
REMARK 927      BINDING AFFINITY PREDICTED BY RF-SCORE:    0.00 PKD
ROOT
HETATM    1  C   UNL     1      -9.594   7.616  68.885  1.00  0.00    -0.150 C  
HETATM    2  C   UNL     1     -10.808   8.462  68.845  1.00  0.00     0.002 C  
HETATM    3  C   UNL     1     -10.384   9.684  68.030  1.00  0.00    -0.262 C  
HETATM    4  C   UNL     1     -10.379  11.081  68.621  1.00  0.00    -0.209 C  
HETATM    5  C   UNL     1     -11.496  11.221  69.666  1.00  0.00    -0.380 C  
HETATM    6  C   UNL     1     -11.663  12.650  70.113  1.00  0.00    -0.247 C  
HETATM    7  C   UNL     1     -11.874  13.597  68.923  1.00  0.00    -0.402 C  
HETATM    8  C   UNL     1     -12.404  14.804  69.198  1.00  0.00    -0.114 C  
HETATM    9  C   UNL     1     -11.353  15.529  70.003  1.00  0.00    -0.321 C  
HETATM   10  C   UNL     1      -9.908  15.229  69.640  1.00  0.00    -0.224 C  
HETATM   11  O   UNL     1     -11.661  16.309  70.893  1.00  0.00    -0.401 OA 
HETATM   12  C   UNL     1      -9.587  14.305  68.693  1.00  0.00    -0.192 C  
HETATM   13  C   UNL     1     -10.701  13.576  67.902  1.00  0.00    -0.258 C  
HETATM   14  C   UNL     1     -10.633  12.058  67.432  1.00  0.00    -0.253 C  
HETATM   15  C   UNL     1     -10.897  14.470  66.648  1.00  0.00    -0.311 C  
HETATM   16  C   UNL     1      -9.870  11.668  66.104  1.00  0.00    -0.223 C  
HETATM   17  C   UNL     1      -9.649  10.078  65.828  1.00  0.00    -0.291 C  
HETATM   18  O   UNL     1      -8.663  12.420  66.011  1.00  0.00    -0.407 OA 
HETATM   19  C   UNL     1      -9.111   9.389  67.143  1.00  0.00    -0.148 C  
HETATM   20  H   UNL     1      -8.205  12.185  65.213  1.00  0.00     0.000 HD 
HETATM   21  C   UNL     1      -7.703  10.094  67.205  1.00  0.00    -0.092 C  
HETATM   22  C   UNL     1      -8.873   7.828  67.549  1.00  0.00    -0.124 C  
HETATM   23  N   UNL     1      -7.449   7.634  68.045  1.00  0.00    -0.102 NA 
HETATM   24  O   UNL     1      -8.721   8.180  69.858  1.00  0.00    -0.135 OA 
HETATM   25  C   UNL     1      -6.450   8.852  70.001  1.00  0.00    -0.042 C  
HETATM   26  C   UNL     1      -7.522   8.127  69.254  1.00  0.00    -0.089 C  
ENDROOT
BRANCH  22  27
HETATM   27  C   UNL     1      -9.222   6.824  66.444  1.00  0.00    -0.153 C  
HETATM   28  O   UNL     1      -8.574   6.796  65.392  1.00  0.00    -0.132 OA 
BRANCH  27  29
HETATM   29  C   UNL     1     -10.390   5.865  66.659  1.00  0.00    -0.226 C  
BRANCH  29  30
HETATM   30  O   UNL     1      -9.952   4.603  67.177  1.00  0.00    -0.194 OA 
BRANCH  30  31
HETATM   31  C   UNL     1      -9.426   3.781  66.227  1.00  0.00    -0.179 C  
HETATM   32  C   UNL     1      -8.184   3.103  66.730  1.00  0.00    -0.089 C  
HETATM   33  O   UNL     1      -9.898   3.628  65.101  1.00  0.00    -0.171 OA 
ENDBRANCH  30  31
ENDBRANCH  29  30
ENDBRANCH  27  29
ENDBRANCH  22  27
TORSDOF 4
ENDMDL
MODEL       58
REMARK 921   NORMALIZED FREE ENERGY PREDICTED BY IDOCK:   -5.32 KCAL/MOL
REMARK 922        TOTAL FREE ENERGY PREDICTED BY IDOCK:   -6.81 KCAL/MOL
REMARK 923 INTER-LIGAND FREE ENERGY PREDICTED BY IDOCK:   -6.47 KCAL/MOL
REMARK 924 INTRA-LIGAND FREE ENERGY PREDICTED BY IDOCK:   -0.33 KCAL/MOL
REMARK 927      BINDING AFFINITY PREDICTED BY RF-SCORE:    0.00 PKD
ROOT
HETATM    1  C   UNL     1      -7.658   9.278  67.865  1.00  0.00    -0.084 C  
HETATM    2  C   UNL     1      -7.574  10.507  68.686  1.00  0.00    -0.099 C  
HETATM    3  C   UNL     1      -8.856  11.269  68.349  1.00  0.00    -0.159 C  
HETATM    4  C   UNL     1      -8.828  12.639  67.699  1.00  0.00    -0.184 C  
HETATM    5  C   UNL     1      -7.585  13.418  68.151  1.00  0.00    -0.138 C  
HETATM    6  C   UNL     1      -7.635  14.855  67.702  1.00  0.00    -0.201 C  
HETATM    7  C   UNL     1      -8.932  15.544  68.150  1.00  0.00    -0.179 C  
HETATM    8  C   UNL     1      -8.933  16.891  68.148  1.00  0.00    -0.227 C  
HETATM    9  C   UNL     1      -8.840  17.290  66.696  1.00  0.00    -0.255 C  
HETATM   10  C   UNL     1      -9.545  16.378  65.706  1.00  0.00    -0.227 C  
HETATM   11  O   UNL     1      -8.230  18.292  66.349  1.00  0.00    -0.263 OA 
HETATM   12  C   UNL     1     -10.159  15.230  66.105  1.00  0.00    -0.315 C  
HETATM   13  C   UNL     1     -10.216  14.855  67.607  1.00  0.00    -0.236 C  
HETATM   14  C   UNL     1     -10.121  13.372  68.173  1.00  0.00    -0.244 C  
HETATM   15  C   UNL     1     -11.555  15.478  68.083  1.00  0.00    -0.313 C  
HETATM   16  C   UNL     1     -11.404  12.451  68.217  1.00  0.00    -0.284 C  
HETATM   17  C   UNL     1     -11.166  10.883  68.588  1.00  0.00    -0.326 C  
HETATM   18  O   UNL     1     -12.159  12.630  67.022  1.00  0.00    -0.480 OA 
HETATM   19  C   UNL     1      -9.961  10.322  67.737  1.00  0.00    -0.203 C  
HETATM   20  H   UNL     1     -12.930  12.076  67.049  1.00  0.00     0.000 HD 
HETATM   21  C   UNL     1     -10.633  10.410  66.314  1.00  0.00    -0.180 C  
HETATM   22  C   UNL     1      -9.144   8.911  67.783  1.00  0.00    -0.134 C  
HETATM   23  N   UNL     1      -9.129   8.277  66.401  1.00  0.00    -0.171 NA 
HETATM   24  O   UNL     1      -7.302   9.637  66.534  1.00  0.00    -0.089 OA 
HETATM   25  C   UNL     1      -8.185   9.373  64.348  1.00  0.00    -0.147 C  
HETATM   26  C   UNL     1      -8.220   8.994  65.792  1.00  0.00    -0.120 C  
ENDROOT
BRANCH  22  27
HETATM   27  C   UNL     1      -9.640   7.924  68.846  1.00  0.00    -0.155 C  
HETATM   28  O   UNL     1      -9.935   8.317  69.980  1.00  0.00    -0.184 OA 
BRANCH  27  29
HETATM   29  C   UNL     1      -9.754   6.446  68.486  1.00  0.00    -0.132 C  
BRANCH  29  30
HETATM   30  O   UNL     1     -10.381   5.692  69.530  1.00  0.00    -0.222 OA 
BRANCH  30  31
HETATM   31  C   UNL     1      -9.543   4.809  70.140  1.00  0.00    -0.195 C  
HETATM   32  C   UNL     1      -9.982   4.537  71.551  1.00  0.00    -0.259 C  
HETATM   33  O   UNL     1      -8.549   4.314  69.610  1.00  0.00    -0.070 OA 
ENDBRANCH  30  31
ENDBRANCH  29  30
ENDBRANCH  27  29
ENDBRANCH  22  27
TORSDOF 4
ENDMDL
MODEL       59
REMARK 921   NORMALIZED FREE ENERGY PREDICTED BY IDOCK:   -5.29 KCAL/MOL
REMARK 922        TOTAL FREE ENERGY PREDICTED BY IDOCK:   -6.78 KCAL/MOL
REMARK 923 INTER-LIGAND FREE ENERGY PREDICTED BY IDOCK:   -6.11 KCAL/MOL
REMARK 924 INTRA-LIGAND FREE ENERGY PREDICTED BY IDOCK:   -0.67 KCAL/MOL
REMARK 927      BINDING AFFINITY PREDICTED BY RF-SCORE:    0.00 PKD
ROOT
HETATM    1  C   UNL     1      -8.297   6.337  71.239  1.00  0.00    -0.123 C  
HETATM    2  C   UNL     1      -7.535   7.506  70.743  1.00  0.00    -0.076 C  
HETATM    3  C   UNL     1      -8.437   8.106  69.664  1.00  0.00    -0.126 C  
HETATM    4  C   UNL     1      -8.002   8.194  68.213  1.00  0.00    -0.123 C  
HETATM    5  C   UNL     1      -6.482   8.392  68.123  1.00  0.00    -0.056 C  
HETATM    6  C   UNL     1      -6.044   8.701  66.715  1.00  0.00    -0.058 C  
HETATM    7  C   UNL     1      -6.809   9.897  66.132  1.00  0.00    -0.097 C  
HETATM    8  C   UNL     1      -6.262  10.500  65.060  1.00  0.00    -0.064 C  
HETATM    9  C   UNL     1      -6.348   9.489  63.944  1.00  0.00    -0.099 C  
HETATM   10  C   UNL     1      -7.568   8.583  63.956  1.00  0.00    -0.124 C  
HETATM   11  O   UNL     1      -5.479   9.413  63.086  1.00  0.00    -0.077 OA 
HETATM   12  C   UNL     1      -8.488   8.638  64.959  1.00  0.00    -0.192 C  
HETATM   13  C   UNL     1      -8.349   9.684  66.091  1.00  0.00    -0.122 C  
HETATM   14  C   UNL     1      -8.740   9.430  67.612  1.00  0.00    -0.116 C  
HETATM   15  C   UNL     1      -9.172  10.892  65.568  1.00  0.00    -0.232 C  
HETATM   16  C   UNL     1     -10.239   9.578  68.086  1.00  0.00    -0.193 C  
HETATM   17  C   UNL     1     -10.582   9.072  69.595  1.00  0.00    -0.230 C  
HETATM   18  O   UNL     1     -11.106   9.020  67.102  1.00  0.00    -0.306 OA 
HETATM   19  C   UNL     1      -9.939   7.649  69.828  1.00  0.00    -0.184 C  
HETATM   20  H   UNL     1     -12.008   9.109  67.388  1.00  0.00     0.000 HD 
HETATM   21  C   UNL     1     -10.821   6.835  68.807  1.00  0.00    -0.280 C  
HETATM   22  C   UNL     1      -9.779   6.718  71.157  1.00  0.00    -0.174 C  
HETATM   23  N   UNL     1     -10.338   5.330  70.885  1.00  0.00    -0.237 NA 
HETATM   24  O   UNL     1      -8.139   5.296  70.282  1.00  0.00    -0.088 OA 
HETATM   25  C   UNL     1      -9.524   3.805  69.064  1.00  0.00    -0.233 C  
HETATM   26  C   UNL     1      -9.381   4.795  70.173  1.00  0.00    -0.155 C  
ENDROOT
BRANCH  22  27
HETATM   27  C   UNL     1     -10.378   7.323  72.432  1.00  0.00    -0.208 C  
HETATM   28  O   UNL     1      -9.644   7.741  73.334  1.00  0.00    -0.263 OA 
BRANCH  27  29
HETATM   29  C   UNL     1     -11.895   7.391  72.576  1.00  0.00    -0.185 C  
BRANCH  29  30
HETATM   30  O   UNL     1     -12.337   8.709  72.922  1.00  0.00    -0.265 OA 
BRANCH  30  31
HETATM   31  C   UNL     1     -13.297   9.196  72.088  1.00  0.00    -0.463 C  
HETATM   32  C   UNL     1     -14.303   8.134  71.747  1.00  0.00    -0.582 C  
HETATM   33  O   UNL     1     -13.325  10.349  71.658  1.00  0.00    -0.376 OA 
ENDBRANCH  30  31
ENDBRANCH  29  30
ENDBRANCH  27  29
ENDBRANCH  22  27
TORSDOF 4
ENDMDL
MODEL       60
REMARK 921   NORMALIZED FREE ENERGY PREDICTED BY IDOCK:   -5.28 KCAL/MOL
REMARK 922        TOTAL FREE ENERGY PREDICTED BY IDOCK:   -6.77 KCAL/MOL
REMARK 923 INTER-LIGAND FREE ENERGY PREDICTED BY IDOCK:   -6.42 KCAL/MOL
REMARK 924 INTRA-LIGAND FREE ENERGY PREDICTED BY IDOCK:   -0.35 KCAL/MOL
REMARK 927      BINDING AFFINITY PREDICTED BY RF-SCORE:    0.00 PKD
ROOT
HETATM    1  C   UNL     1      -9.381   8.691  71.269  1.00  0.00    -0.224 C  
HETATM    2  C   UNL     1      -8.261   8.514  70.317  1.00  0.00    -0.115 C  
HETATM    3  C   UNL     1      -8.885   7.757  69.145  1.00  0.00    -0.138 C  
HETATM    4  C   UNL     1      -8.416   6.372  68.743  1.00  0.00    -0.121 C  
HETATM    5  C   UNL     1      -6.916   6.213  69.032  1.00  0.00    -0.068 C  
HETATM    6  C   UNL     1      -6.369   4.936  68.448  1.00  0.00    -0.036 C  
HETATM    7  C   UNL     1      -6.676   4.822  66.948  1.00  0.00    -0.051 C  
HETATM    8  C   UNL     1      -5.935   3.943  66.245  1.00  0.00    -0.027 C  
HETATM    9  C   UNL     1      -6.332   2.582  66.760  1.00  0.00    -0.024 C  
HETATM   10  C   UNL     1      -7.785   2.422  67.174  1.00  0.00    -0.066 C  
HETATM   11  O   UNL     1      -5.521   1.669  66.835  1.00  0.00    -0.015 OA 
HETATM   12  C   UNL     1      -8.655   3.470  67.148  1.00  0.00    -0.117 C  
HETATM   13  C   UNL     1      -8.197   4.853  66.624  1.00  0.00    -0.107 C  
HETATM   14  C   UNL     1      -8.682   6.249  67.211  1.00  0.00    -0.105 C  
HETATM   15  C   UNL     1      -8.555   4.804  65.115  1.00  0.00    -0.140 C  
HETATM   16  C   UNL     1     -10.055   6.877  66.744  1.00  0.00    -0.194 C  
HETATM   17  C   UNL     1     -10.580   8.181  67.567  1.00  0.00    -0.291 C  
HETATM   18  O   UNL     1     -11.038   5.850  66.645  1.00  0.00    -0.635 OA 
HETATM   19  C   UNL     1     -10.457   7.905  69.116  1.00  0.00    -0.218 C  
HETATM   20  H   UNL     1     -11.863   6.228  66.364  1.00  0.00     0.000 HD 
HETATM   21  C   UNL     1     -11.539   6.764  69.227  1.00  0.00    -0.084 C  
HETATM   22  C   UNL     1     -10.648   8.862  70.423  1.00  0.00    -0.217 C  
HETATM   23  N   UNL     1     -11.635   8.226  71.390  1.00  0.00    -0.271 NA 
HETATM   24  O   UNL     1      -9.562   7.449  71.940  1.00  0.00    -0.151 OA 
HETATM   25  C   UNL     1     -11.342   5.958  72.428  1.00  0.00    -0.358 C  
HETATM   26  C   UNL     1     -10.898   7.301  71.948  1.00  0.00    -0.226 C  
ENDROOT
BRANCH  22  27
HETATM   27  C   UNL     1     -11.036  10.309  70.099  1.00  0.00    -0.314 C  
HETATM   28  O   UNL     1     -10.349  10.986  69.326  1.00  0.00    -0.214 OA 
BRANCH  27  29
HETATM   29  C   UNL     1     -12.278  10.906  70.754  1.00  0.00    -0.383 C  
BRANCH  29  30
HETATM   30  O   UNL     1     -12.399  12.308  70.485  1.00  0.00    -0.329 OA 
BRANCH  30  31
HETATM   31  C   UNL     1     -13.037  12.996  71.471  1.00  0.00    -0.310 C  
HETATM   32  C   UNL     1     -13.107  14.461  71.146  1.00  0.00    -0.419 C  
HETATM   33  O   UNL     1     -13.482  12.487  72.498  1.00  0.00    -0.452 OA 
ENDBRANCH  30  31
ENDBRANCH  29  30
ENDBRANCH  27  29
ENDBRANCH  22  27
TORSDOF 4
ENDMDL
MODEL       61
REMARK 921   NORMALIZED FREE ENERGY PREDICTED BY IDOCK:   -5.24 KCAL/MOL
REMARK 922        TOTAL FREE ENERGY PREDICTED BY IDOCK:   -6.72 KCAL/MOL
REMARK 923 INTER-LIGAND FREE ENERGY PREDICTED BY IDOCK:   -6.20 KCAL/MOL
REMARK 924 INTRA-LIGAND FREE ENERGY PREDICTED BY IDOCK:   -0.52 KCAL/MOL
REMARK 927      BINDING AFFINITY PREDICTED BY RF-SCORE:    0.00 PKD
ROOT
HETATM    1  C   UNL     1      -8.873   8.785  69.756  1.00  0.00    -0.142 C  
HETATM    2  C   UNL     1     -10.150   8.971  69.030  1.00  0.00    -0.204 C  
HETATM    3  C   UNL     1      -9.720   9.336  67.609  1.00  0.00    -0.195 C  
HETATM    4  C   UNL     1     -10.073  10.672  66.983  1.00  0.00    -0.255 C  
HETATM    5  C   UNL     1     -11.426  11.169  67.514  1.00  0.00    -0.296 C  
HETATM    6  C   UNL     1     -11.911  12.377  66.756  1.00  0.00    -0.385 C  
HETATM    7  C   UNL     1     -11.953  12.119  65.243  1.00  0.00    -0.313 C  
HETATM    8  C   UNL     1     -12.708  12.958  64.508  1.00  0.00    -0.359 C  
HETATM    9  C   UNL     1     -12.015  14.295  64.587  1.00  0.00    -0.455 C  
HETATM   10  C   UNL     1     -10.498  14.259  64.655  1.00  0.00    -0.325 C  
HETATM   11  O   UNL     1     -12.650  15.341  64.595  1.00  0.00    -0.154 OA 
HETATM   12  C   UNL     1      -9.814  13.083  64.714  1.00  0.00    -0.036 C  
HETATM   13  C   UNL     1     -10.570  11.734  64.644  1.00  0.00    -0.359 C  
HETATM   14  C   UNL     1     -10.160  10.423  65.445  1.00  0.00    -0.354 C  
HETATM   15  C   UNL     1     -10.574  11.401  63.128  1.00  0.00    -0.278 C  
HETATM   16  C   UNL     1      -9.037   9.463  64.884  1.00  0.00    -0.202 C  
HETATM   17  C   UNL     1      -8.520   8.283  65.880  1.00  0.00    -0.151 C  
HETATM   18  O   UNL     1      -7.971  10.242  64.346  1.00  0.00    -0.160 OA 
HETATM   19  C   UNL     1      -8.235   8.891  67.308  1.00  0.00    -0.104 C  
HETATM   20  H   UNL     1      -7.296   9.665  64.009  1.00  0.00     0.000 HD 
HETATM   21  C   UNL     1      -7.009   9.803  66.923  1.00  0.00    -0.088 C  
HETATM   22  C   UNL     1      -7.877   8.206  68.745  1.00  0.00    -0.113 C  
HETATM   23  N   UNL     1      -6.613   8.830  69.314  1.00  0.00    -0.049 NA 
HETATM   24  O   UNL     1      -8.369  10.082  70.056  1.00  0.00    -0.188 OA 
HETATM   25  C   UNL     1      -6.334  11.276  69.805  1.00  0.00    -0.137 C  
HETATM   26  C   UNL     1      -7.061   9.972  69.764  1.00  0.00    -0.119 C  
ENDROOT
BRANCH  22  27
HETATM   27  C   UNL     1      -7.783   6.677  68.713  1.00  0.00    -0.109 C  
HETATM   28  O   UNL     1      -6.948   6.113  67.998  1.00  0.00    -0.071 OA 
BRANCH  27  29
HETATM   29  C   UNL     1      -8.743   5.859  69.572  1.00  0.00    -0.116 C  
BRANCH  29  30
HETATM   30  O   UNL     1      -8.053   5.133  70.597  1.00  0.00    -0.101 OA 
BRANCH  30  31
HETATM   31  C   UNL     1      -8.196   5.678  71.837  1.00  0.00    -0.119 C  
HETATM   32  C   UNL     1      -9.561   5.394  72.396  1.00  0.00    -0.172 C  
HETATM   33  O   UNL     1      -7.326   6.330  72.414  1.00  0.00    -0.089 OA 
ENDBRANCH  30  31
ENDBRANCH  29  30
ENDBRANCH  27  29
ENDBRANCH  22  27
TORSDOF 4
ENDMDL
MODEL       62
REMARK 921   NORMALIZED FREE ENERGY PREDICTED BY IDOCK:   -5.23 KCAL/MOL
REMARK 922        TOTAL FREE ENERGY PREDICTED BY IDOCK:   -6.70 KCAL/MOL
REMARK 923 INTER-LIGAND FREE ENERGY PREDICTED BY IDOCK:   -5.89 KCAL/MOL
REMARK 924 INTRA-LIGAND FREE ENERGY PREDICTED BY IDOCK:   -0.81 KCAL/MOL
REMARK 927      BINDING AFFINITY PREDICTED BY RF-SCORE:    0.00 PKD
ROOT
HETATM    1  C   UNL     1      -8.221  11.468  67.031  1.00  0.00    -0.167 C  
HETATM    2  C   UNL     1      -7.552  10.457  67.881  1.00  0.00    -0.088 C  
HETATM    3  C   UNL     1      -8.540   9.291  67.922  1.00  0.00    -0.120 C  
HETATM    4  C   UNL     1      -9.173   8.821  69.218  1.00  0.00    -0.149 C  
HETATM    5  C   UNL     1      -8.204   9.031  70.391  1.00  0.00    -0.163 C  
HETATM    6  C   UNL     1      -8.707   8.378  71.652  1.00  0.00    -0.240 C  
HETATM    7  C   UNL     1      -9.024   6.892  71.435  1.00  0.00    -0.141 C  
HETATM    8  C   UNL     1      -9.113   6.125  72.538  1.00  0.00    -0.138 C  
HETATM    9  C   UNL     1     -10.340   6.613  73.268  1.00  0.00    -0.253 C  
HETATM   10  C   UNL     1     -11.489   7.092  72.397  1.00  0.00    -0.300 C  
HETATM   11  O   UNL     1     -10.393   6.617  74.490  1.00  0.00    -0.328 OA 
HETATM   12  C   UNL     1     -11.384   7.143  71.041  1.00  0.00    -0.310 C  
HETATM   13  C   UNL     1     -10.098   6.644  70.337  1.00  0.00    -0.205 C  
HETATM   14  C   UNL     1      -9.467   7.301  69.032  1.00  0.00    -0.147 C  
HETATM   15  C   UNL     1     -10.407   5.154  70.036  1.00  0.00    -0.347 C  
HETATM   16  C   UNL     1     -10.021   6.922  67.602  1.00  0.00    -0.144 C  
HETATM   17  C   UNL     1      -9.480   7.813  66.350  1.00  0.00    -0.245 C  
HETATM   18  O   UNL     1     -11.442   6.837  67.649  1.00  0.00    -0.650 OA 
HETATM   19  C   UNL     1      -9.566   9.344  66.723  1.00  0.00    -0.234 C  
HETATM   20  H   UNL     1     -11.775   6.609  66.789  1.00  0.00     0.000 HD 
HETATM   21  C   UNL     1     -11.135   9.470  66.795  1.00  0.00     0.355 C  
HETATM   22  C   UNL     1      -9.021  10.690  65.980  1.00  0.00    -0.172 C  
HETATM   23  N   UNL     1     -10.161  11.682  65.807  1.00  0.00    -0.231 NA 
HETATM   24  O   UNL     1      -9.208  12.105  67.835  1.00  0.00    -0.175 OA 
HETATM   25  C   UNL     1     -11.517  12.628  67.696  1.00  0.00    -0.390 C  
HETATM   26  C   UNL     1     -10.269  12.172  67.013  1.00  0.00    -0.207 C  
ENDROOT
BRANCH  22  27
HETATM   27  C   UNL     1      -8.295  10.434  64.654  1.00  0.00    -0.155 C  
HETATM   28  O   UNL     1      -8.922  10.404  63.590  1.00  0.00    -0.192 OA 
BRANCH  27  29
HETATM   29  C   UNL     1      -6.786  10.207  64.670  1.00  0.00    -0.117 C  
BRANCH  29  30
HETATM   30  O   UNL     1      -6.397   9.162  63.771  1.00  0.00    -0.087 OA 
BRANCH  30  31
HETATM   31  C   UNL     1      -6.508   7.916  64.307  1.00  0.00    -0.057 C  
HETATM   32  C   UNL     1      -5.765   7.821  65.609  1.00  0.00    -0.037 C  
HETATM   33  O   UNL     1      -7.122   6.986  63.784  1.00  0.00    -0.054 OA 
ENDBRANCH  30  31
ENDBRANCH  29  30
ENDBRANCH  27  29
ENDBRANCH  22  27
TORSDOF 4
ENDMDL
MODEL       63
REMARK 921   NORMALIZED FREE ENERGY PREDICTED BY IDOCK:   -5.21 KCAL/MOL
REMARK 922        TOTAL FREE ENERGY PREDICTED BY IDOCK:   -6.68 KCAL/MOL
REMARK 923 INTER-LIGAND FREE ENERGY PREDICTED BY IDOCK:   -6.24 KCAL/MOL
REMARK 924 INTRA-LIGAND FREE ENERGY PREDICTED BY IDOCK:   -0.44 KCAL/MOL
REMARK 927      BINDING AFFINITY PREDICTED BY RF-SCORE:    0.00 PKD
ROOT
HETATM    1  C   UNL     1     -11.261  12.556  67.950  1.00  0.00    -0.264 C  
HETATM    2  C   UNL     1     -11.274  11.875  69.264  1.00  0.00    -0.304 C  
HETATM    3  C   UNL     1      -9.942  11.125  69.308  1.00  0.00    -0.034 C  
HETATM    4  C   UNL     1      -9.877   9.613  69.402  1.00  0.00    -0.203 C  
HETATM    5  C   UNL     1     -11.072   9.076  70.203  1.00  0.00    -0.228 C  
HETATM    6  C   UNL     1     -10.926   7.606  70.503  1.00  0.00    -0.259 C  
HETATM    7  C   UNL     1      -9.592   7.300  71.198  1.00  0.00    -0.160 C  
HETATM    8  C   UNL     1      -9.506   6.123  71.847  1.00  0.00    -0.160 C  
HETATM    9  C   UNL     1      -9.558   5.066  70.771  1.00  0.00    -0.180 C  
HETATM   10  C   UNL     1      -8.904   5.427  69.448  1.00  0.00    -0.117 C  
HETATM   11  O   UNL     1     -10.100   3.987  70.966  1.00  0.00    -0.151 OA 
HETATM   12  C   UNL     1      -8.368   6.660  69.229  1.00  0.00    -0.124 C  
HETATM   13  C   UNL     1      -8.349   7.717  70.361  1.00  0.00    -0.124 C  
HETATM   14  C   UNL     1      -8.544   9.280  70.142  1.00  0.00    -0.215 C  
HETATM   15  C   UNL     1      -6.978   7.484  71.048  1.00  0.00    -0.054 C  
HETATM   16  C   UNL     1      -7.323  10.183  69.707  1.00  0.00    -0.158 C  
HETATM   17  C   UNL     1      -7.664  11.717  69.280  1.00  0.00     0.217 C  
HETATM   18  O   UNL     1      -6.547   9.494  68.730  1.00  0.00    -0.051 OA 
HETATM   19  C   UNL     1      -8.894  11.722  68.290  1.00  0.00    -0.172 C  
HETATM   20  H   UNL     1      -5.813  10.038  68.469  1.00  0.00     0.000 HD 
HETATM   21  C   UNL     1      -8.205  10.998  67.072  1.00  0.00    -0.138 C  
HETATM   22  C   UNL     1      -9.800  12.927  67.667  1.00  0.00    -0.211 C  
HETATM   23  N   UNL     1      -9.843  12.811  66.152  1.00  0.00    -0.266 NA 
HETATM   24  O   UNL     1     -11.580  11.578  66.967  1.00  0.00    -0.510 OA 
HETATM   25  C   UNL     1     -10.695  10.805  64.906  1.00  0.00    -0.167 C  
HETATM   26  C   UNL     1     -10.698  11.837  65.986  1.00  0.00    -0.279 C  
ENDROOT
BRANCH  22  27
HETATM   27  C   UNL     1      -9.379  14.333  68.110  1.00  0.00    -0.206 C  
HETATM   28  O   UNL     1      -8.252  14.766  67.842  1.00  0.00    -0.135 OA 
BRANCH  27  29
HETATM   29  C   UNL     1     -10.368  15.188  68.896  1.00  0.00    -0.243 C  
BRANCH  29  30
HETATM   30  O   UNL     1     -11.166  16.007  68.032  1.00  0.00    -0.344 OA 
BRANCH  30  31
HETATM   31  C   UNL     1     -10.668  17.263  67.865  1.00  0.00    -0.351 C  
HETATM   32  C   UNL     1     -10.511  17.590  66.407  1.00  0.00    -0.277 C  
HETATM   33  O   UNL     1     -10.371  18.022  68.787  1.00  0.00    -0.368 OA 
ENDBRANCH  30  31
ENDBRANCH  29  30
ENDBRANCH  27  29
ENDBRANCH  22  27
TORSDOF 4
ENDMDL
MODEL       64
REMARK 921   NORMALIZED FREE ENERGY PREDICTED BY IDOCK:   -5.18 KCAL/MOL
REMARK 922        TOTAL FREE ENERGY PREDICTED BY IDOCK:   -6.64 KCAL/MOL
REMARK 923 INTER-LIGAND FREE ENERGY PREDICTED BY IDOCK:   -5.92 KCAL/MOL
REMARK 924 INTRA-LIGAND FREE ENERGY PREDICTED BY IDOCK:   -0.72 KCAL/MOL
REMARK 927      BINDING AFFINITY PREDICTED BY RF-SCORE:    0.00 PKD
ROOT
HETATM    1  C   UNL     1     -10.770   6.333  69.387  1.00  0.00    -0.303 C  
HETATM    2  C   UNL     1     -10.431   7.000  68.110  1.00  0.00    -0.242 C  
HETATM    3  C   UNL     1      -9.590   8.206  68.531  1.00  0.00    -0.153 C  
HETATM    4  C   UNL     1     -10.034   9.629  68.254  1.00  0.00    -0.178 C  
HETATM    5  C   UNL     1     -10.842   9.691  66.949  1.00  0.00    -0.106 C  
HETATM    6  C   UNL     1     -11.111  11.113  66.529  1.00  0.00    -0.233 C  
HETATM    7  C   UNL     1      -9.817  11.932  66.436  1.00  0.00    -0.234 C  
HETATM    8  C   UNL     1      -9.873  13.073  65.722  1.00  0.00    -0.217 C  
HETATM    9  C   UNL     1     -10.779  13.991  66.504  1.00  0.00    -0.281 C  
HETATM   10  C   UNL     1     -10.714  13.866  68.017  1.00  0.00    -0.255 C  
HETATM   11  O   UNL     1     -11.519  14.785  65.940  1.00  0.00    -0.351 OA 
HETATM   12  C   UNL     1      -9.933  12.928  68.622  1.00  0.00    -0.099 C  
HETATM   13  C   UNL     1      -9.030  11.997  67.776  1.00  0.00    -0.176 C  
HETATM   14  C   UNL     1      -8.729  10.473  68.116  1.00  0.00    -0.130 C  
HETATM   15  C   UNL     1      -7.681  12.762  67.717  1.00  0.00    -0.152 C  
HETATM   16  C   UNL     1      -7.605  10.095  69.160  1.00  0.00    -0.103 C  
HETATM   17  C   UNL     1      -7.529   8.535  69.620  1.00  0.00    -0.075 C  
HETATM   18  O   UNL     1      -7.658  10.997  70.263  1.00  0.00    -0.304 OA 
HETATM   19  C   UNL     1      -8.980   8.024  69.976  1.00  0.00    -0.144 C  
HETATM   20  H   UNL     1      -6.982  10.769  70.890  1.00  0.00     0.000 HD 
HETATM   21  C   UNL     1      -9.225   8.917  71.251  1.00  0.00    -0.328 C  
HETATM   22  C   UNL     1      -9.572   6.543  70.319  1.00  0.00    -0.161 C  
HETATM   23  N   UNL     1     -10.333   6.583  71.635  1.00  0.00    -0.205 NA 
HETATM   24  O   UNL     1     -11.825   7.080  69.983  1.00  0.00    -0.194 OA 
HETATM   25  C   UNL     1     -12.309   8.065  72.086  1.00  0.00    -0.358 C  
HETATM   26  C   UNL     1     -11.455   7.148  71.274  1.00  0.00    -0.282 C  
ENDROOT
BRANCH  22  27
HETATM   27  C   UNL     1      -8.525   5.423  70.311  1.00  0.00    -0.119 C  
HETATM   28  O   UNL     1      -7.827   5.208  71.308  1.00  0.00    -0.100 OA 
BRANCH  27  29
HETATM   29  C   UNL     1      -8.351   4.584  69.049  1.00  0.00    -0.079 C  
BRANCH  29  30
HETATM   30  O   UNL     1      -7.336   5.119  68.191  1.00  0.00    -0.072 OA 
BRANCH  30  31
HETATM   31  C   UNL     1      -7.726   5.224  66.891  1.00  0.00    -0.096 C  
HETATM   32  C   UNL     1      -8.615   4.079  66.500  1.00  0.00    -0.110 C  
HETATM   33  O   UNL     1      -7.380   6.130  66.133  1.00  0.00    -0.077 OA 
ENDBRANCH  30  31
ENDBRANCH  29  30
ENDBRANCH  27  29
ENDBRANCH  22  27
TORSDOF 4
ENDMDL
MODEL       65
REMARK 921   NORMALIZED FREE ENERGY PREDICTED BY IDOCK:   -5.16 KCAL/MOL
REMARK 922        TOTAL FREE ENERGY PREDICTED BY IDOCK:   -6.61 KCAL/MOL
REMARK 923 INTER-LIGAND FREE ENERGY PREDICTED BY IDOCK:   -5.79 KCAL/MOL
REMARK 924 INTRA-LIGAND FREE ENERGY PREDICTED BY IDOCK:   -0.83 KCAL/MOL
REMARK 927      BINDING AFFINITY PREDICTED BY RF-SCORE:    0.00 PKD
ROOT
HETATM    1  C   UNL     1      -5.622  16.185  67.544  1.00  0.00    -0.136 C  
HETATM    2  C   UNL     1      -6.816  16.618  66.783  1.00  0.00    -0.252 C  
HETATM    3  C   UNL     1      -7.993  16.127  67.627  1.00  0.00    -0.162 C  
HETATM    4  C   UNL     1      -8.990  15.112  67.100  1.00  0.00    -0.231 C  
HETATM    5  C   UNL     1      -9.165  15.275  65.583  1.00  0.00     0.005 C  
HETATM    6  C   UNL     1     -10.303  14.437  65.061  1.00  0.00    -0.449 C  
HETATM    7  C   UNL     1     -11.609  14.719  65.819  1.00  0.00    -0.290 C  
HETATM    8  C   UNL     1     -12.751  14.333  65.218  1.00  0.00    -0.358 C  
HETATM    9  C   UNL     1     -12.706  12.824  65.203  1.00  0.00    -0.329 C  
HETATM   10  C   UNL     1     -12.035  12.164  66.396  1.00  0.00    -0.201 C  
HETATM   11  O   UNL     1     -13.185  12.184  64.278  1.00  0.00    -0.768 OA 
HETATM   12  C   UNL     1     -11.448  12.898  67.382  1.00  0.00    -0.388 C  
HETATM   13  C   UNL     1     -11.508  14.445  67.346  1.00  0.00    -0.377 C  
HETATM   14  C   UNL     1     -10.337  15.407  67.830  1.00  0.00    -0.253 C  
HETATM   15  C   UNL     1     -12.784  14.774  68.165  1.00  0.00     0.975 C  
HETATM   16  C   UNL     1     -10.176  15.761  69.361  1.00  0.00    -0.262 C  
HETATM   17  C   UNL     1      -8.820  16.555  69.789  1.00  0.00     0.699 C  
HETATM   18  O   UNL     1     -10.407  14.594  70.145  1.00  0.00    -0.444 OA 
HETATM   19  C   UNL     1      -7.572  15.853  69.124  1.00  0.00    -0.213 C  
HETATM   20  H   UNL     1     -10.311  14.808  71.066  1.00  0.00     0.000 HD 
HETATM   21  C   UNL     1      -7.634  14.491  69.914  1.00  0.00     0.251 C  
HETATM   22  C   UNL     1      -5.998  16.269  69.028  1.00  0.00    -0.134 C  
HETATM   23  N   UNL     1      -5.130  15.125  69.529  1.00  0.00    -0.089 NA 
HETATM   24  O   UNL     1      -5.446  14.795  67.295  1.00  0.00    -0.297 OA 
HETATM   25  C   UNL     1      -5.131  12.811  68.556  1.00  0.00    -0.061 C  
HETATM   26  C   UNL     1      -5.163  14.304  68.513  1.00  0.00    -0.099 C  
ENDROOT
BRANCH  22  27
HETATM   27  C   UNL     1      -5.645  17.587  69.725  1.00  0.00    -0.227 C  
HETATM   28  O   UNL     1      -5.291  17.598  70.908  1.00  0.00    -0.260 OA 
BRANCH  27  29
HETATM   29  C   UNL     1      -5.748  18.890  68.937  1.00  0.00    -0.206 C  
BRANCH  29  30
HETATM   30  O   UNL     1      -7.017  19.527  69.127  1.00  0.00    -0.336 OA 
BRANCH  30  31
HETATM   31  C   UNL     1      -7.471  20.174  68.018  1.00  0.00    -0.261 C  
HETATM   32  C   UNL     1      -8.960  20.032  67.883  1.00  0.00    -0.356 C  
HETATM   33  O   UNL     1      -6.752  20.780  67.224  1.00  0.00    -0.278 OA 
ENDBRANCH  30  31
ENDBRANCH  29  30
ENDBRANCH  27  29
ENDBRANCH  22  27
TORSDOF 4
ENDMDL
MODEL       66
REMARK 921   NORMALIZED FREE ENERGY PREDICTED BY IDOCK:   -5.15 KCAL/MOL
REMARK 922        TOTAL FREE ENERGY PREDICTED BY IDOCK:   -6.60 KCAL/MOL
REMARK 923 INTER-LIGAND FREE ENERGY PREDICTED BY IDOCK:   -6.09 KCAL/MOL
REMARK 924 INTRA-LIGAND FREE ENERGY PREDICTED BY IDOCK:   -0.52 KCAL/MOL
REMARK 927      BINDING AFFINITY PREDICTED BY RF-SCORE:    0.00 PKD
ROOT
HETATM    1  C   UNL     1     -11.242  16.357  68.085  1.00  0.00    -0.273 C  
HETATM    2  C   UNL     1     -11.258  15.171  68.971  1.00  0.00    -0.282 C  
HETATM    3  C   UNL     1     -10.029  14.368  68.542  1.00  0.00    -0.237 C  
HETATM    4  C   UNL     1     -10.145  12.969  67.968  1.00  0.00    -0.235 C  
HETATM    5  C   UNL     1     -11.347  12.238  68.584  1.00  0.00    -0.339 C  
HETATM    6  C   UNL     1     -11.365  10.780  68.206  1.00  0.00    -0.376 C  
HETATM    7  C   UNL     1     -10.039  10.088  68.551  1.00  0.00    -0.187 C  
HETATM    8  C   UNL     1     -10.059   8.742  68.616  1.00  0.00    -0.207 C  
HETATM    9  C   UNL     1     -10.308   8.276  67.203  1.00  0.00    -0.317 C  
HETATM   10  C   UNL     1      -9.696   9.125  66.102  1.00  0.00    -0.357 C  
HETATM   11  O   UNL     1     -10.965   7.270  66.973  1.00  0.00    -0.358 OA 
HETATM   12  C   UNL     1      -9.026  10.278  66.378  1.00  0.00    -0.166 C  
HETATM   13  C   UNL     1      -8.808  10.724  67.844  1.00  0.00    -0.132 C  
HETATM   14  C   UNL     1      -8.821  12.234  68.343  1.00  0.00    -0.137 C  
HETATM   15  C   UNL     1      -7.436  10.098  68.211  1.00  0.00    -0.082 C  
HETATM   16  C   UNL     1      -7.527  13.130  68.208  1.00  0.00    -0.129 C  
HETATM   17  C   UNL     1      -7.702  14.719  68.523  1.00  0.00    -0.120 C  
HETATM   18  O   UNL     1      -6.903  12.878  66.952  1.00  0.00    -0.414 OA 
HETATM   19  C   UNL     1      -8.980  15.262  67.772  1.00  0.00    -0.177 C  
HETATM   20  H   UNL     1      -6.125  13.418  66.871  1.00  0.00     0.000 HD 
HETATM   21  C   UNL     1      -8.461  15.092  66.294  1.00  0.00     0.196 C  
HETATM   22  C   UNL     1      -9.767  16.690  67.832  1.00  0.00    -0.244 C  
HETATM   23  N   UNL     1      -9.916  17.256  66.429  1.00  0.00    -0.299 NA 
HETATM   24  O   UNL     1     -11.739  15.941  66.818  1.00  0.00     0.296 OA 
HETATM   25  C   UNL     1     -11.084  16.082  64.542  1.00  0.00    -0.269 C  
HETATM   26  C   UNL     1     -10.894  16.530  65.954  1.00  0.00    -0.095 C  
ENDROOT
BRANCH  22  27
HETATM   27  C   UNL     1      -9.148  17.717  68.787  1.00  0.00    -0.206 C  
HETATM   28  O   UNL     1      -9.675  17.957  69.879  1.00  0.00     0.590 OA 
BRANCH  27  29
HETATM   29  C   UNL     1      -7.875  18.445  68.366  1.00  0.00    -0.306 C  
BRANCH  29  30
HETATM   30  O   UNL     1      -6.887  18.430  69.403  1.00  0.00    -0.237 OA 
BRANCH  30  31
HETATM   31  C   UNL     1      -6.450  19.671  69.754  1.00  0.00    -0.320 C  
HETATM   32  C   UNL     1      -5.820  20.370  68.584  1.00  0.00    -0.337 C  
HETATM   33  O   UNL     1      -6.544  20.147  70.884  1.00  0.00    -0.329 OA 
ENDBRANCH  30  31
ENDBRANCH  29  30
ENDBRANCH  27  29
ENDBRANCH  22  27
TORSDOF 4
ENDMDL
MODEL       67
REMARK 921   NORMALIZED FREE ENERGY PREDICTED BY IDOCK:   -5.06 KCAL/MOL
REMARK 922        TOTAL FREE ENERGY PREDICTED BY IDOCK:   -6.49 KCAL/MOL
REMARK 923 INTER-LIGAND FREE ENERGY PREDICTED BY IDOCK:   -6.08 KCAL/MOL
REMARK 924 INTRA-LIGAND FREE ENERGY PREDICTED BY IDOCK:   -0.40 KCAL/MOL
REMARK 927      BINDING AFFINITY PREDICTED BY RF-SCORE:    0.00 PKD
ROOT
HETATM    1  C   UNL     1     -10.451  11.224  67.580  1.00  0.00    -0.201 C  
HETATM    2  C   UNL     1     -10.817  11.120  69.010  1.00  0.00    -0.276 C  
HETATM    3  C   UNL     1      -9.662  10.337  69.635  1.00  0.00    -0.216 C  
HETATM    4  C   UNL     1      -9.871   8.984  70.288  1.00  0.00    -0.227 C  
HETATM    5  C   UNL     1     -11.265   8.910  70.927  1.00  0.00    -0.334 C  
HETATM    6  C   UNL     1     -11.426   7.672  71.770  1.00  0.00    -0.302 C  
HETATM    7  C   UNL     1     -10.312   7.551  72.819  1.00  0.00    -0.331 C  
HETATM    8  C   UNL     1     -10.544   6.722  73.855  1.00  0.00    -0.269 C  
HETATM    9  C   UNL     1     -10.578   5.336  73.260  1.00  0.00    -0.245 C  
HETATM   10  C   UNL     1      -9.643   5.089  72.088  1.00  0.00    -0.191 C  
HETATM   11  O   UNL     1     -11.320   4.471  73.705  1.00  0.00    -0.292 OA 
HETATM   12  C   UNL     1      -8.876   6.085  71.565  1.00  0.00    -0.139 C  
HETATM   13  C   UNL     1      -8.885   7.496  72.202  1.00  0.00    -0.153 C  
HETATM   14  C   UNL     1      -8.771   8.858  71.387  1.00  0.00    -0.262 C  
HETATM   15  C   UNL     1      -7.721   7.438  73.226  1.00  0.00    -0.116 C  
HETATM   16  C   UNL     1      -7.356   9.408  70.949  1.00  0.00    -0.075 C  
HETATM   17  C   UNL     1      -7.350  10.673  69.922  1.00  0.00    -0.074 C  
HETATM   18  O   UNL     1      -6.543   8.327  70.502  1.00  0.00    -0.036 OA 
HETATM   19  C   UNL     1      -8.361  10.393  68.743  1.00  0.00    -0.134 C  
HETATM   20  H   UNL     1      -5.692   8.658  70.238  1.00  0.00     0.000 HD 
HETATM   21  C   UNL     1      -7.594   9.191  68.071  1.00  0.00    -0.085 C  
HETATM   22  C   UNL     1      -8.922  11.328  67.529  1.00  0.00    -0.140 C  
HETATM   23  N   UNL     1      -8.707  10.628  66.196  1.00  0.00    -0.164 NA 
HETATM   24  O   UNL     1     -10.746   9.969  66.978  1.00  0.00    -0.234 OA 
HETATM   25  C   UNL     1      -9.645   8.374  65.610  1.00  0.00     0.118 C  
HETATM   26  C   UNL     1      -9.670   9.744  66.205  1.00  0.00    -0.246 C  
ENDROOT
BRANCH  22  27
HETATM   27  C   UNL     1      -8.357  12.752  67.512  1.00  0.00    -0.179 C  
HETATM   28  O   UNL     1      -7.137  12.946  67.545  1.00  0.00    -0.137 OA 
BRANCH  27  29
HETATM   29  C   UNL     1      -9.325  13.931  67.462  1.00  0.00    -0.217 C  
BRANCH  29  30
HETATM   30  O   UNL     1      -8.957  14.879  66.453  1.00  0.00    -0.270 OA 
BRANCH  30  31
HETATM   31  C   UNL     1      -8.671  16.115  66.949  1.00  0.00    -0.223 C  
HETATM   32  C   UNL     1      -9.679  17.127  66.484  1.00  0.00    -0.299 C  
HETATM   33  O   UNL     1      -7.706  16.369  67.668  1.00  0.00    -0.137 OA 
ENDBRANCH  30  31
ENDBRANCH  29  30
ENDBRANCH  27  29
ENDBRANCH  22  27
TORSDOF 4
ENDMDL
MODEL       68
REMARK 921   NORMALIZED FREE ENERGY PREDICTED BY IDOCK:   -4.94 KCAL/MOL
REMARK 922        TOTAL FREE ENERGY PREDICTED BY IDOCK:   -6.35 KCAL/MOL
REMARK 923 INTER-LIGAND FREE ENERGY PREDICTED BY IDOCK:   -5.74 KCAL/MOL
REMARK 924 INTRA-LIGAND FREE ENERGY PREDICTED BY IDOCK:   -0.60 KCAL/MOL
REMARK 927      BINDING AFFINITY PREDICTED BY RF-SCORE:    0.00 PKD
ROOT
HETATM    1  C   UNL     1      -9.126   9.768  70.200  1.00  0.00    -0.197 C  
HETATM    2  C   UNL     1      -8.089   9.275  69.265  1.00  0.00    -0.106 C  
HETATM    3  C   UNL     1      -8.772   8.124  68.526  1.00  0.00    -0.134 C  
HETATM    4  C   UNL     1      -8.261   6.699  68.613  1.00  0.00    -0.119 C  
HETATM    5  C   UNL     1      -6.734   6.690  68.778  1.00  0.00    -0.057 C  
HETATM    6  C   UNL     1      -6.168   5.299  68.648  1.00  0.00    -0.030 C  
HETATM    7  C   UNL     1      -6.603   4.630  67.337  1.00  0.00    -0.047 C  
HETATM    8  C   UNL     1      -5.879   3.569  66.930  1.00  0.00    -0.023 C  
HETATM    9  C   UNL     1      -6.147   2.488  67.948  1.00  0.00    -0.024 C  
HETATM   10  C   UNL     1      -7.544   2.462  68.545  1.00  0.00    -0.050 C  
HETATM   11  O   UNL     1      -5.280   1.685  68.265  1.00  0.00    -0.011 OA 
HETATM   12  C   UNL     1      -8.472   3.407  68.229  1.00  0.00    -0.104 C  
HETATM   13  C   UNL     1      -8.147   4.507  67.188  1.00  0.00    -0.102 C  
HETATM   14  C   UNL     1      -8.658   6.011  67.270  1.00  0.00    -0.106 C  
HETATM   15  C   UNL     1      -8.638   3.894  65.850  1.00  0.00    -0.111 C  
HETATM   16  C   UNL     1     -10.103   6.391  66.755  1.00  0.00    -0.179 C  
HETATM   17  C   UNL     1     -10.626   7.896  67.094  1.00  0.00    -0.383 C  
HETATM   18  O   UNL     1     -11.028   5.380  67.145  1.00  0.00    -0.341 OA 
HETATM   19  C   UNL     1     -10.346   8.217  68.614  1.00  0.00    -0.224 C  
HETATM   20  H   UNL     1     -11.897   5.610  66.835  1.00  0.00     0.000 HD 
HETATM   21  C   UNL     1     -11.344   7.177  69.250  1.00  0.00     0.041 C  
HETATM   22  C   UNL     1     -10.473   9.586  69.491  1.00  0.00    -0.220 C  
HETATM   23  N   UNL     1     -11.328   9.334  70.723  1.00  0.00    -0.271 NA 
HETATM   24  O   UNL     1      -9.171   8.861  71.295  1.00  0.00    -0.219 OA 
HETATM   25  C   UNL     1     -10.807   7.620  72.482  1.00  0.00    -0.367 C  
HETATM   26  C   UNL     1     -10.489   8.698  71.499  1.00  0.00    -0.274 C  
ENDROOT
BRANCH  22  27
HETATM   27  C   UNL     1     -10.973  10.802  68.702  1.00  0.00    -0.239 C  
HETATM   28  O   UNL     1     -12.160  10.892  68.371  1.00  0.00    -0.559 OA 
BRANCH  27  29
HETATM   29  C   UNL     1      -9.980  11.896  68.322  1.00  0.00    -0.202 C  
BRANCH  29  30
HETATM   30  O   UNL     1      -9.471  11.714  66.995  1.00  0.00    -0.178 OA 
BRANCH  30  31
HETATM   31  C   UNL     1     -10.034  12.549  66.079  1.00  0.00    -0.257 C  
HETATM   32  C   UNL     1     -10.877  11.784  65.099  1.00  0.00    -0.351 C  
HETATM   33  O   UNL     1      -9.860  13.767  66.049  1.00  0.00    -0.297 OA 
ENDBRANCH  30  31
ENDBRANCH  29  30
ENDBRANCH  27  29
ENDBRANCH  22  27
TORSDOF 4
ENDMDL
MODEL       69
REMARK 921   NORMALIZED FREE ENERGY PREDICTED BY IDOCK:   -4.88 KCAL/MOL
REMARK 922        TOTAL FREE ENERGY PREDICTED BY IDOCK:   -6.27 KCAL/MOL
REMARK 923 INTER-LIGAND FREE ENERGY PREDICTED BY IDOCK:   -5.83 KCAL/MOL
REMARK 924 INTRA-LIGAND FREE ENERGY PREDICTED BY IDOCK:   -0.45 KCAL/MOL
REMARK 927      BINDING AFFINITY PREDICTED BY RF-SCORE:    0.00 PKD
ROOT
HETATM    1  C   UNL     1      -9.989  13.071  66.209  1.00  0.00    -0.283 C  
HETATM    2  C   UNL     1     -10.585  11.792  65.761  1.00  0.00    -0.312 C  
HETATM    3  C   UNL     1     -10.505  10.892  66.994  1.00  0.00    -0.291 C  
HETATM    4  C   UNL     1      -9.695   9.610  67.001  1.00  0.00    -0.232 C  
HETATM    5  C   UNL     1      -9.688   8.976  65.602  1.00  0.00    -0.178 C  
HETATM    6  C   UNL     1      -9.081   7.597  65.619  1.00  0.00     0.032 C  
HETATM    7  C   UNL     1      -9.763   6.689  66.652  1.00  0.00    -0.210 C  
HETATM    8  C   UNL     1      -9.582   5.363  66.504  1.00  0.00    -0.167 C  
HETATM    9  C   UNL     1      -8.118   5.126  66.784  1.00  0.00    -0.108 C  
HETATM   10  C   UNL     1      -7.485   6.021  67.836  1.00  0.00    -0.085 C  
HETATM   11  O   UNL     1      -7.490   4.260  66.191  1.00  0.00    -0.082 OA 
HETATM   12  C   UNL     1      -8.185   7.024  68.435  1.00  0.00    -0.124 C  
HETATM   13  C   UNL     1      -9.682   7.238  68.105  1.00  0.00    -0.155 C  
HETATM   14  C   UNL     1     -10.396   8.657  68.017  1.00  0.00    -0.277 C  
HETATM   15  C   UNL     1     -10.413   6.387  69.177  1.00  0.00    -0.274 C  
HETATM   16  C   UNL     1     -10.906   9.376  69.328  1.00  0.00    -0.172 C  
HETATM   17  C   UNL     1     -11.405  10.918  69.169  1.00  0.00    -0.350 C  
HETATM   18  O   UNL     1      -9.944   9.209  70.366  1.00  0.00    -0.188 OA 
HETATM   19  C   UNL     1     -10.345  11.726  68.324  1.00  0.00    -0.217 C  
HETATM   20  H   UNL     1     -10.250   9.642  71.155  1.00  0.00     0.000 HD 
HETATM   21  C   UNL     1      -9.156  11.683  69.358  1.00  0.00     0.729 C  
HETATM   22  C   UNL     1     -10.358  13.228  67.688  1.00  0.00    -0.230 C  
HETATM   23  N   UNL     1      -9.121  13.990  68.135  1.00  0.00    -0.186 NA 
HETATM   24  O   UNL     1      -8.576  12.898  66.207  1.00  0.00     0.131 OA 
HETATM   25  C   UNL     1      -6.763  13.246  67.697  1.00  0.00    -0.171 C  
HETATM   26  C   UNL     1      -8.201  13.474  67.363  1.00  0.00    -0.181 C  
ENDROOT
BRANCH  22  27
HETATM   27  C   UNL     1     -11.638  14.025  67.968  1.00  0.00    -0.337 C  
HETATM   28  O   UNL     1     -12.599  13.964  67.193  1.00  0.00    -0.169 OA 
BRANCH  27  29
HETATM   29  C   UNL     1     -11.704  14.903  69.214  1.00  0.00    -0.316 C  
BRANCH  29  30
HETATM   30  O   UNL     1     -12.983  14.822  69.854  1.00  0.00    -0.093 OA 
BRANCH  30  31
HETATM   31  C   UNL     1     -12.954  15.168  71.170  1.00  0.00    -0.421 C  
HETATM   32  C   UNL     1     -11.797  16.081  71.461  1.00  0.00    -0.554 C  
HETATM   33  O   UNL     1     -13.759  14.771  72.012  1.00  0.00    -0.354 OA 
ENDBRANCH  30  31
ENDBRANCH  29  30
ENDBRANCH  27  29
ENDBRANCH  22  27
TORSDOF 4
ENDMDL
MODEL       70
REMARK 921   NORMALIZED FREE ENERGY PREDICTED BY IDOCK:   -4.88 KCAL/MOL
REMARK 922        TOTAL FREE ENERGY PREDICTED BY IDOCK:   -6.27 KCAL/MOL
REMARK 923 INTER-LIGAND FREE ENERGY PREDICTED BY IDOCK:   -5.42 KCAL/MOL
REMARK 924 INTRA-LIGAND FREE ENERGY PREDICTED BY IDOCK:   -0.85 KCAL/MOL
REMARK 927      BINDING AFFINITY PREDICTED BY RF-SCORE:    0.00 PKD
ROOT
HETATM    1  C   UNL     1      -6.283   6.828  68.313  1.00  0.00    -0.030 C  
HETATM    2  C   UNL     1      -6.213   8.265  68.661  1.00  0.00    -0.045 C  
HETATM    3  C   UNL     1      -7.650   8.627  69.040  1.00  0.00    -0.090 C  
HETATM    4  C   UNL     1      -8.449   9.656  68.263  1.00  0.00    -0.118 C  
HETATM    5  C   UNL     1      -7.519  10.744  67.706  1.00  0.00    -0.094 C  
HETATM    6  C   UNL     1      -8.296  11.894  67.120  1.00  0.00    -0.174 C  
HETATM    7  C   UNL     1      -9.305  12.467  68.124  1.00  0.00    -0.210 C  
HETATM    8  C   UNL     1      -9.776  13.703  67.869  1.00  0.00    -0.234 C  
HETATM    9  C   UNL     1     -10.610  13.563  66.619  1.00  0.00    -0.280 C  
HETATM   10  C   UNL     1     -11.360  12.252  66.458  1.00  0.00    -0.403 C  
HETATM   11  O   UNL     1     -10.670  14.462  65.791  1.00  0.00    -0.289 OA 
HETATM   12  C   UNL     1     -11.225  11.238  67.358  1.00  0.00    -0.370 C  
HETATM   13  C   UNL     1     -10.346  11.423  68.619  1.00  0.00    -0.219 C  
HETATM   14  C   UNL     1      -9.456  10.281  69.278  1.00  0.00    -0.230 C  
HETATM   15  C   UNL     1     -11.349  11.939  69.685  1.00  0.00    -0.266 C  
HETATM   16  C   UNL     1     -10.105   9.235  70.268  1.00  0.00    -0.219 C  
HETATM   17  C   UNL     1      -9.178   7.969  70.705  1.00  0.00    -0.156 C  
HETATM   18  O   UNL     1     -11.383   8.843  69.774  1.00  0.00    -0.438 OA 
HETATM   19  C   UNL     1      -8.499   7.351  69.421  1.00  0.00    -0.133 C  
HETATM   20  H   UNL     1     -11.773   8.213  70.369  1.00  0.00     0.000 HD 
HETATM   21  C   UNL     1      -9.800   6.808  68.718  1.00  0.00    -0.143 C  
HETATM   22  C   UNL     1      -7.349   6.211  69.225  1.00  0.00    -0.088 C  
HETATM   23  N   UNL     1      -7.845   5.136  68.271  1.00  0.00    -0.086 NA 
HETATM   24  O   UNL     1      -6.835   6.740  67.004  1.00  0.00    -0.064 OA 
HETATM   25  C   UNL     1      -8.579   5.564  65.908  1.00  0.00    -0.141 C  
HETATM   26  C   UNL     1      -7.712   5.728  67.114  1.00  0.00    -0.101 C  
ENDROOT
BRANCH  22  27
HETATM   27  C   UNL     1      -6.828   5.603  70.532  1.00  0.00    -0.052 C  
HETATM   28  O   UNL     1      -5.920   6.154  71.164  1.00  0.00    -0.028 OA 
BRANCH  27  29
HETATM   29  C   UNL     1      -7.441   4.300  71.037  1.00  0.00    -0.048 C  
BRANCH  29  30
HETATM   30  O   UNL     1      -8.246   4.510  72.204  1.00  0.00    -0.101 OA 
BRANCH  30  31
HETATM   31  C   UNL     1      -9.578   4.595  71.937  1.00  0.00    -0.154 C  
HETATM   32  C   UNL     1     -10.333   5.123  73.123  1.00  0.00    -0.233 C  
HETATM   33  O   UNL     1     -10.095   4.267  70.870  1.00  0.00    -0.185 OA 
ENDBRANCH  30  31
ENDBRANCH  29  30
ENDBRANCH  27  29
ENDBRANCH  22  27
TORSDOF 4
ENDMDL
MODEL       71
REMARK 921   NORMALIZED FREE ENERGY PREDICTED BY IDOCK:   -4.78 KCAL/MOL
REMARK 922        TOTAL FREE ENERGY PREDICTED BY IDOCK:   -6.14 KCAL/MOL
REMARK 923 INTER-LIGAND FREE ENERGY PREDICTED BY IDOCK:   -5.99 KCAL/MOL
REMARK 924 INTRA-LIGAND FREE ENERGY PREDICTED BY IDOCK:   -0.15 KCAL/MOL
REMARK 927      BINDING AFFINITY PREDICTED BY RF-SCORE:    0.00 PKD
ROOT
HETATM    1  C   UNL     1      -9.272  12.694  69.065  1.00  0.00     0.490 C  
HETATM    2  C   UNL     1      -9.714  14.033  69.516  1.00  0.00     0.580 C  
HETATM    3  C   UNL     1     -10.006  14.786  68.217  1.00  0.00    -0.222 C  
HETATM    4  C   UNL     1      -9.238  16.033  67.823  1.00  0.00    -0.205 C  
HETATM    5  C   UNL     1      -8.820  16.820  69.074  1.00  0.00    -0.181 C  
HETATM    6  C   UNL     1      -8.251  18.169  68.718  1.00  0.00    -0.240 C  
HETATM    7  C   UNL     1      -9.211  18.975  67.833  1.00  0.00    -0.345 C  
HETATM    8  C   UNL     1      -8.999  20.303  67.764  1.00  0.00    -0.339 C  
HETATM    9  C   UNL     1      -7.685  20.462  67.040  1.00  0.00    -0.318 C  
HETATM   10  C   UNL     1      -7.387  19.435  65.961  1.00  0.00    -0.306 C  
HETATM   11  O   UNL     1      -6.912  21.369  67.317  1.00  0.00    -0.573 OA 
HETATM   12  C   UNL     1      -8.230  18.393  65.716  1.00  0.00     0.244 C  
HETATM   13  C   UNL     1      -9.562  18.264  66.494  1.00  0.00    -0.320 C  
HETATM   14  C   UNL     1     -10.212  16.887  66.953  1.00  0.00    -0.296 C  
HETATM   15  C   UNL     1     -10.580  19.011  65.593  1.00  0.00    -0.273 C  
HETATM   16  C   UNL     1     -11.084  16.041  65.944  1.00  0.00    -0.002 C  
HETATM   17  C   UNL     1     -11.509  14.543  66.422  1.00  0.00    -0.362 C  
HETATM   18  O   UNL     1     -10.473  16.060  64.656  1.00  0.00    -0.679 OA 
HETATM   19  C   UNL     1     -10.243  13.802  67.006  1.00  0.00    -0.254 C  
HETATM   20  H   UNL     1     -10.998  15.550  64.049  1.00  0.00     0.000 HD 
HETATM   21  C   UNL     1      -9.413  13.692  65.671  1.00  0.00     0.086 C  
HETATM   22  C   UNL     1     -10.062  12.383  67.789  1.00  0.00    -0.203 C  
HETATM   23  N   UNL     1      -9.009  11.538  67.090  1.00  0.00    -0.162 NA 
HETATM   24  O   UNL     1      -7.923  12.822  68.630  1.00  0.00    -0.114 OA 
HETATM   25  C   UNL     1      -6.630  12.252  66.725  1.00  0.00     0.217 C  
HETATM   26  C   UNL     1      -7.904  12.108  67.491  1.00  0.00    -0.162 C  
ENDROOT
BRANCH  22  27
HETATM   27  C   UNL     1     -11.364  11.600  67.993  1.00  0.00    -0.296 C  
HETATM   28  O   UNL     1     -12.387  11.907  67.371  1.00  0.00    -0.297 OA 
BRANCH  27  29
HETATM   29  C   UNL     1     -11.381  10.440  68.984  1.00  0.00    -0.219 C  
BRANCH  29  30
HETATM   30  O   UNL     1     -12.638  10.340  69.664  1.00  0.00    -0.006 OA 
BRANCH  30  31
HETATM   31  C   UNL     1     -12.690  11.061  70.818  1.00  0.00    -0.323 C  
HETATM   32  C   UNL     1     -13.119  10.200  71.971  1.00  0.00    -0.538 C  
HETATM   33  O   UNL     1     -12.434  12.262  70.899  1.00  0.00    -0.371 OA 
ENDBRANCH  30  31
ENDBRANCH  29  30
ENDBRANCH  27  29
ENDBRANCH  22  27
TORSDOF 4
ENDMDL
MODEL       72
REMARK 921   NORMALIZED FREE ENERGY PREDICTED BY IDOCK:   -4.75 KCAL/MOL
REMARK 922        TOTAL FREE ENERGY PREDICTED BY IDOCK:   -6.11 KCAL/MOL
REMARK 923 INTER-LIGAND FREE ENERGY PREDICTED BY IDOCK:   -6.24 KCAL/MOL
REMARK 924 INTRA-LIGAND FREE ENERGY PREDICTED BY IDOCK:    0.12 KCAL/MOL
REMARK 927      BINDING AFFINITY PREDICTED BY RF-SCORE:    0.00 PKD
ROOT
HETATM    1  C   UNL     1      -9.658  15.788  69.958  1.00  0.00     0.122 C  
HETATM    2  C   UNL     1      -8.624  15.152  69.111  1.00  0.00    -0.218 C  
HETATM    3  C   UNL     1      -9.402  14.627  67.904  1.00  0.00    -0.198 C  
HETATM    4  C   UNL     1      -9.468  13.148  67.573  1.00  0.00    -0.212 C  
HETATM    5  C   UNL     1      -8.168  12.449  67.995  1.00  0.00    -0.168 C  
HETATM    6  C   UNL     1      -8.108  11.032  67.487  1.00  0.00    -0.117 C  
HETATM    7  C   UNL     1      -8.325  10.964  65.968  1.00  0.00    -0.165 C  
HETATM    8  C   UNL     1      -7.926   9.835  65.351  1.00  0.00    -0.125 C  
HETATM    9  C   UNL     1      -8.849   8.754  65.856  1.00  0.00    -0.186 C  
HETATM   10  C   UNL     1     -10.279   9.177  66.146  1.00  0.00    -0.189 C  
HETATM   11  O   UNL     1      -8.455   7.608  66.020  1.00  0.00    -0.129 OA 
HETATM   12  C   UNL     1     -10.678  10.474  66.022  1.00  0.00    -0.086 C  
HETATM   13  C   UNL     1      -9.691  11.552  65.512  1.00  0.00    -0.259 C  
HETATM   14  C   UNL     1      -9.649  13.056  66.026  1.00  0.00    -0.175 C  
HETATM   15  C   UNL     1      -9.930  11.563  63.979  1.00  0.00    -0.341 C  
HETATM   16  C   UNL     1     -10.640  14.131  65.429  1.00  0.00    -0.346 C  
HETATM   17  C   UNL     1     -10.687  15.577  66.176  1.00  0.00    -0.315 C  
HETATM   18  O   UNL     1     -11.931  13.549  65.265  1.00  0.00    -0.339 OA 
HETATM   19  C   UNL     1     -10.792  15.356  67.736  1.00  0.00    -0.302 C  
HETATM   20  H   UNL     1     -12.526  14.196  64.905  1.00  0.00     0.000 HD 
HETATM   21  C   UNL     1     -12.232  14.718  67.775  1.00  0.00    -0.011 C  
HETATM   22  C   UNL     1     -10.699  16.381  69.001  1.00  0.00    -0.322 C  
HETATM   23  N   UNL     1     -11.921  16.217  69.890  1.00  0.00    -0.158 NA 
HETATM   24  O   UNL     1     -10.347  14.744  70.636  1.00  0.00     0.213 OA 
HETATM   25  C   UNL     1     -12.591  14.064  70.996  1.00  0.00    -0.437 C  
HETATM   26  C   UNL     1     -11.635  15.113  70.529  1.00  0.00    -0.300 C  
ENDROOT
BRANCH  22  27
HETATM   27  C   UNL     1     -10.480  17.849  68.615  1.00  0.00    -0.262 C  
HETATM   28  O   UNL     1     -10.076  18.665  69.450  1.00  0.00    -0.202 OA 
BRANCH  27  29
HETATM   29  C   UNL     1     -10.779  18.289  67.185  1.00  0.00    -0.305 C  
BRANCH  29  30
HETATM   30  O   UNL     1      -9.592  18.700  66.497  1.00  0.00    -0.315 OA 
BRANCH  30  31
HETATM   31  C   UNL     1      -9.611  20.006  66.115  1.00  0.00    -0.373 C  
HETATM   32  C   UNL     1      -8.277  20.656  66.353  1.00  0.00     0.067 C  
HETATM   33  O   UNL     1     -10.595  20.582  65.653  1.00  0.00    -0.084 OA 
ENDBRANCH  30  31
ENDBRANCH  29  30
ENDBRANCH  27  29
ENDBRANCH  22  27
TORSDOF 4
ENDMDL
MODEL       73
REMARK 921   NORMALIZED FREE ENERGY PREDICTED BY IDOCK:   -4.73 KCAL/MOL
REMARK 922        TOTAL FREE ENERGY PREDICTED BY IDOCK:   -6.08 KCAL/MOL
REMARK 923 INTER-LIGAND FREE ENERGY PREDICTED BY IDOCK:   -5.32 KCAL/MOL
REMARK 924 INTRA-LIGAND FREE ENERGY PREDICTED BY IDOCK:   -0.76 KCAL/MOL
REMARK 927      BINDING AFFINITY PREDICTED BY RF-SCORE:    0.00 PKD
ROOT
HETATM    1  C   UNL     1      -9.964  18.813  68.700  1.00  0.00    -0.394 C  
HETATM    2  C   UNL     1      -9.997  17.619  69.574  1.00  0.00     0.139 C  
HETATM    3  C   UNL     1      -9.085  16.615  68.868  1.00  0.00    -0.238 C  
HETATM    4  C   UNL     1      -9.603  15.286  68.352  1.00  0.00    -0.206 C  
HETATM    5  C   UNL     1     -10.740  14.773  69.248  1.00  0.00    -0.263 C  
HETATM    6  C   UNL     1     -11.129  13.360  68.899  1.00  0.00    -0.307 C  
HETATM    7  C   UNL     1      -9.919  12.417  68.918  1.00  0.00     0.061 C  
HETATM    8  C   UNL     1     -10.181  11.098  68.999  1.00  0.00    -0.194 C  
HETATM    9  C   UNL     1     -10.847  10.741  67.693  1.00  0.00    -0.279 C  
HETATM   10  C   UNL     1     -10.366  11.500  66.468  1.00  0.00    -0.269 C  
HETATM   11  O   UNL     1     -11.722   9.888  67.638  1.00  0.00     0.229 OA 
HETATM   12  C   UNL     1      -9.439  12.494  66.563  1.00  0.00    -0.240 C  
HETATM   13  C   UNL     1      -8.794  12.834  67.929  1.00  0.00    -0.186 C  
HETATM   14  C   UNL     1      -8.396  14.300  68.401  1.00  0.00    -0.164 C  
HETATM   15  C   UNL     1      -7.522  11.947  67.957  1.00  0.00    -0.107 C  
HETATM   16  C   UNL     1      -7.024  14.939  67.948  1.00  0.00    -0.156 C  
HETATM   17  C   UNL     1      -6.808  16.518  68.281  1.00  0.00    -0.143 C  
HETATM   18  O   UNL     1      -6.780  14.621  66.580  1.00  0.00     0.097 OA 
HETATM   19  C   UNL     1      -8.099  17.322  67.858  1.00  0.00    -0.210 C  
HETATM   20  H   UNL     1      -5.955  15.006  66.308  1.00  0.00     0.000 HD 
HETATM   21  C   UNL     1      -7.993  17.113  66.300  1.00  0.00    -0.339 C  
HETATM   22  C   UNL     1      -8.557  18.870  68.093  1.00  0.00    -0.316 C  
HETATM   23  N   UNL     1      -8.927  19.507  66.763  1.00  0.00    -0.318 NA 
HETATM   24  O   UNL     1     -10.822  18.548  67.595  1.00  0.00    -0.412 OA 
HETATM   25  C   UNL     1     -10.718  18.648  65.227  1.00  0.00     0.493 C  
HETATM   26  C   UNL     1     -10.111  18.998  66.547  1.00  0.00    -0.403 C  
ENDROOT
BRANCH  22  27
HETATM   27  C   UNL     1      -7.542  19.724  68.861  1.00  0.00    -0.250 C  
HETATM   28  O   UNL     1      -7.388  19.576  70.078  1.00  0.00     0.025 OA 
BRANCH  27  29
HETATM   29  C   UNL     1      -6.729  20.767  68.100  1.00  0.00    -0.226 C  
BRANCH  29  30
HETATM   30  O   UNL     1      -5.434  20.272  67.739  1.00  0.00    -0.179 OA 
BRANCH  30  31
HETATM   31  C   UNL     1      -5.352  19.860  66.444  1.00  0.00    -0.164 C  
HETATM   32  C   UNL     1      -5.570  21.006  65.499  1.00  0.00    -0.269 C  
HETATM   33  O   UNL     1      -5.144  18.698  66.096  1.00  0.00    -0.133 OA 
ENDBRANCH  30  31
ENDBRANCH  29  30
ENDBRANCH  27  29
ENDBRANCH  22  27
TORSDOF 4
ENDMDL
MODEL       74
REMARK 921   NORMALIZED FREE ENERGY PREDICTED BY IDOCK:   -4.69 KCAL/MOL
REMARK 922        TOTAL FREE ENERGY PREDICTED BY IDOCK:   -6.04 KCAL/MOL
REMARK 923 INTER-LIGAND FREE ENERGY PREDICTED BY IDOCK:   -5.22 KCAL/MOL
REMARK 924 INTRA-LIGAND FREE ENERGY PREDICTED BY IDOCK:   -0.82 KCAL/MOL
REMARK 927      BINDING AFFINITY PREDICTED BY RF-SCORE:    0.00 PKD
ROOT
HETATM    1  C   UNL     1      -7.830   4.857  70.916  1.00  0.00    -0.083 C  
HETATM    2  C   UNL     1      -7.227   6.190  70.690  1.00  0.00    -0.077 C  
HETATM    3  C   UNL     1      -8.242   6.911  69.802  1.00  0.00    -0.131 C  
HETATM    4  C   UNL     1      -7.894   7.380  68.403  1.00  0.00    -0.122 C  
HETATM    5  C   UNL     1      -6.411   7.772  68.325  1.00  0.00    -0.057 C  
HETATM    6  C   UNL     1      -6.081   8.446  67.019  1.00  0.00    -0.055 C  
HETATM    7  C   UNL     1      -7.002   9.645  66.751  1.00  0.00    -0.085 C  
HETATM    8  C   UNL     1      -6.579  10.539  65.836  1.00  0.00    -0.129 C  
HETATM    9  C   UNL     1      -6.610   9.808  64.517  1.00  0.00    -0.113 C  
HETATM   10  C   UNL     1      -7.721   8.785  64.346  1.00  0.00    -0.123 C  
HETATM   11  O   UNL     1      -5.783  10.035  63.645  1.00  0.00    -0.102 OA 
HETATM   12  C   UNL     1      -8.589   8.499  65.355  1.00  0.00    -0.202 C  
HETATM   13  C   UNL     1      -8.509   9.267  66.697  1.00  0.00    -0.130 C  
HETATM   14  C   UNL     1      -8.792   8.625  68.125  1.00  0.00    -0.142 C  
HETATM   15  C   UNL     1      -9.485  10.455  66.491  1.00  0.00    -0.204 C  
HETATM   16  C   UNL     1     -10.273   8.482  68.656  1.00  0.00    -0.197 C  
HETATM   17  C   UNL     1     -10.482   7.605  70.013  1.00  0.00    -0.229 C  
HETATM   18  O   UNL     1     -11.122   8.065  67.590  1.00  0.00    -0.495 OA 
HETATM   19  C   UNL     1      -9.675   6.254  69.890  1.00  0.00    -0.191 C  
HETATM   20  H   UNL     1     -12.013   7.979  67.910  1.00  0.00     0.000 HD 
HETATM   21  C   UNL     1     -10.513   5.597  68.728  1.00  0.00    -0.289 C  
HETATM   22  C   UNL     1      -9.348   5.067  70.960  1.00  0.00    -0.152 C  
HETATM   23  N   UNL     1      -9.764   3.723  70.385  1.00  0.00    -0.189 NA 
HETATM   24  O   UNL     1      -7.607   4.089  69.739  1.00  0.00    -0.052 OA 
HETATM   25  C   UNL     1      -8.881   2.764  68.239  1.00  0.00    -0.165 C  
HETATM   26  C   UNL     1      -8.791   3.484  69.545  1.00  0.00    -0.090 C  
ENDROOT
BRANCH  22  27
HETATM   27  C   UNL     1      -9.943   5.288  72.356  1.00  0.00    -0.176 C  
HETATM   28  O   UNL     1     -11.167   5.353  72.514  1.00  0.00    -0.262 OA 
BRANCH  27  29
HETATM   29  C   UNL     1      -9.001   5.435  73.546  1.00  0.00    -0.125 C  
BRANCH  29  30
HETATM   30  O   UNL     1      -9.230   6.657  74.258  1.00  0.00    -0.173 OA 
BRANCH  30  31
HETATM   31  C   UNL     1      -8.453   7.689  73.828  1.00  0.00    -0.212 C  
HETATM   32  C   UNL     1      -7.061   7.581  74.383  1.00  0.00    -0.130 C  
HETATM   33  O   UNL     1      -8.845   8.598  73.097  1.00  0.00    -0.343 OA 
ENDBRANCH  30  31
ENDBRANCH  29  30
ENDBRANCH  27  29
ENDBRANCH  22  27
TORSDOF 4
ENDMDL
MODEL       75
REMARK 921   NORMALIZED FREE ENERGY PREDICTED BY IDOCK:   -4.53 KCAL/MOL
REMARK 922        TOTAL FREE ENERGY PREDICTED BY IDOCK:   -5.83 KCAL/MOL
REMARK 923 INTER-LIGAND FREE ENERGY PREDICTED BY IDOCK:   -5.74 KCAL/MOL
REMARK 924 INTRA-LIGAND FREE ENERGY PREDICTED BY IDOCK:   -0.10 KCAL/MOL
REMARK 927      BINDING AFFINITY PREDICTED BY RF-SCORE:    0.00 PKD
ROOT
HETATM    1  C   UNL     1      -9.512   9.573  70.522  1.00  0.00    -0.246 C  
HETATM    2  C   UNL     1      -8.203   8.935  70.252  1.00  0.00    -0.134 C  
HETATM    3  C   UNL     1      -8.567   7.533  69.762  1.00  0.00    -0.140 C  
HETATM    4  C   UNL     1      -8.140   6.286  70.512  1.00  0.00    -0.113 C  
HETATM    5  C   UNL     1      -6.789   6.516  71.205  1.00  0.00    -0.066 C  
HETATM    6  C   UNL     1      -6.230   5.238  71.773  1.00  0.00    -0.030 C  
HETATM    7  C   UNL     1      -6.143   4.134  70.710  1.00  0.00    -0.015 C  
HETATM    8  C   UNL     1      -5.329   3.096  70.982  1.00  0.00    -0.008 C  
HETATM    9  C   UNL     1      -5.972   2.376  72.142  1.00  0.00    -0.009 C  
HETATM   10  C   UNL     1      -7.491   2.374  72.168  1.00  0.00    -0.044 C  
HETATM   11  O   UNL     1      -5.297   1.830  73.004  1.00  0.00     0.000 OA 
HETATM   12  C   UNL     1      -8.222   3.046  71.236  1.00  0.00    -0.076 C  
HETATM   13  C   UNL     1      -7.517   3.783  70.071  1.00  0.00    -0.045 C  
HETATM   14  C   UNL     1      -8.007   5.159  69.441  1.00  0.00    -0.084 C  
HETATM   15  C   UNL     1      -7.471   2.716  68.945  1.00  0.00    -0.047 C  
HETATM   16  C   UNL     1      -9.145   5.174  68.346  1.00  0.00    -0.112 C  
HETATM   17  C   UNL     1      -9.743   6.632  67.934  1.00  0.00    -0.130 C  
HETATM   18  O   UNL     1     -10.159   4.238  68.701  1.00  0.00    -0.031 OA 
HETATM   19  C   UNL     1     -10.056   7.457  69.243  1.00  0.00    -0.186 C  
HETATM   20  H   UNL     1     -10.843   4.248  68.042  1.00  0.00     0.000 HD 
HETATM   21  C   UNL     1     -11.230   6.564  69.796  1.00  0.00    -0.456 C  
HETATM   22  C   UNL     1     -10.492   9.010  69.487  1.00  0.00    -0.219 C  
HETATM   23  N   UNL     1     -11.751   9.065  70.337  1.00  0.00    -0.138 NA 
HETATM   24  O   UNL     1      -9.976   9.068  71.769  1.00  0.00    -0.325 OA 
HETATM   25  C   UNL     1     -11.952   8.087  72.641  1.00  0.00    -0.334 C  
HETATM   26  C   UNL     1     -11.275   8.821  71.529  1.00  0.00    -0.307 C  
ENDROOT
BRANCH  22  27
HETATM   27  C   UNL     1     -10.645   9.836  68.204  1.00  0.00    -0.231 C  
HETATM   28  O   UNL     1     -10.390   9.339  67.102  1.00  0.00    -0.236 OA 
BRANCH  27  29
HETATM   29  C   UNL     1     -11.108  11.286  68.311  1.00  0.00    -0.240 C  
BRANCH  29  30
HETATM   30  O   UNL     1     -11.977  11.646  67.230  1.00  0.00    -0.627 OA 
BRANCH  30  31
HETATM   31  C   UNL     1     -11.424  12.538  66.363  1.00  0.00    -0.365 C  
HETATM   32  C   UNL     1     -12.319  13.729  66.172  1.00  0.00    -0.496 C  
HETATM   33  O   UNL     1     -10.342  12.380  65.799  1.00  0.00    -0.252 OA 
ENDBRANCH  30  31
ENDBRANCH  29  30
ENDBRANCH  27  29
ENDBRANCH  22  27
TORSDOF 4
ENDMDL
MODEL       76
REMARK 921   NORMALIZED FREE ENERGY PREDICTED BY IDOCK:   -4.46 KCAL/MOL
REMARK 922        TOTAL FREE ENERGY PREDICTED BY IDOCK:   -5.75 KCAL/MOL
REMARK 923 INTER-LIGAND FREE ENERGY PREDICTED BY IDOCK:   -4.98 KCAL/MOL
REMARK 924 INTRA-LIGAND FREE ENERGY PREDICTED BY IDOCK:   -0.77 KCAL/MOL
REMARK 927      BINDING AFFINITY PREDICTED BY RF-SCORE:    0.00 PKD
ROOT
HETATM    1  C   UNL     1     -10.265   5.613  72.737  1.00  0.00    -0.185 C  
HETATM    2  C   UNL     1      -9.328   4.760  71.971  1.00  0.00    -0.176 C  
HETATM    3  C   UNL     1      -9.051   5.561  70.698  1.00  0.00    -0.168 C  
HETATM    4  C   UNL     1      -9.420   5.037  69.324  1.00  0.00    -0.197 C  
HETATM    5  C   UNL     1      -9.311   3.505  69.291  1.00  0.00    -0.242 C  
HETATM    6  C   UNL     1      -9.457   2.967  67.891  1.00  0.00    -0.203 C  
HETATM    7  C   UNL     1      -8.466   3.629  66.923  1.00  0.00    -0.105 C  
HETATM    8  C   UNL     1      -8.234   2.986  65.762  1.00  0.00    -0.088 C  
HETATM    9  C   UNL     1      -9.532   3.061  64.997  1.00  0.00    -0.121 C  
HETATM   10  C   UNL     1     -10.350   4.327  65.189  1.00  0.00    -0.215 C  
HETATM   11  O   UNL     1      -9.893   2.148  64.267  1.00  0.00    -0.130 OA 
HETATM   12  C   UNL     1      -9.963   5.301  66.059  1.00  0.00    -0.152 C  
HETATM   13  C   UNL     1      -8.629   5.173  66.834  1.00  0.00    -0.105 C  
HETATM   14  C   UNL     1      -8.399   5.668  68.328  1.00  0.00    -0.102 C  
HETATM   15  C   UNL     1      -7.608   5.896  65.915  1.00  0.00    -0.086 C  
HETATM   16  C   UNL     1      -8.063   7.183  68.624  1.00  0.00    -0.124 C  
HETATM   17  C   UNL     1      -8.078   7.643  70.187  1.00  0.00    -0.118 C  
HETATM   18  O   UNL     1      -8.862   8.019  67.792  1.00  0.00    -0.126 OA 
HETATM   19  C   UNL     1      -9.385   7.093  70.880  1.00  0.00    -0.160 C  
HETATM   20  H   UNL     1      -8.660   8.930  67.971  1.00  0.00     0.000 HD 
HETATM   21  C   UNL     1     -10.439   7.956  70.087  1.00  0.00    -0.231 C  
HETATM   22  C   UNL     1      -9.877   7.065  72.435  1.00  0.00    -0.153 C  
HETATM   23  N   UNL     1     -11.262   7.682  72.550  1.00  0.00    -0.318 NA 
HETATM   24  O   UNL     1     -11.551   5.456  72.149  1.00  0.00    -0.120 OA 
HETATM   25  C   UNL     1     -13.293   6.846  71.334  1.00  0.00    -0.267 C  
HETATM   26  C   UNL     1     -12.019   6.715  72.103  1.00  0.00    -0.280 C  
ENDROOT
BRANCH  22  27
HETATM   27  C   UNL     1      -8.895   7.705  73.424  1.00  0.00    -0.216 C  
HETATM   28  O   UNL     1      -8.649   8.914  73.372  1.00  0.00    -0.223 OA 
BRANCH  27  29
HETATM   29  C   UNL     1      -8.217   6.821  74.468  1.00  0.00    -0.143 C  
BRANCH  29  30
HETATM   30  O   UNL     1      -6.808   7.070  74.540  1.00  0.00    -0.090 OA 
BRANCH  30  31
HETATM   31  C   UNL     1      -6.129   6.669  73.429  1.00  0.00    -0.059 C  
HETATM   32  C   UNL     1      -6.150   5.173  73.296  1.00  0.00    -0.038 C  
HETATM   33  O   UNL     1      -5.561   7.432  72.649  1.00  0.00    -0.037 OA 
ENDBRANCH  30  31
ENDBRANCH  29  30
ENDBRANCH  27  29
ENDBRANCH  22  27
TORSDOF 4
ENDMDL
MODEL       77
REMARK 921   NORMALIZED FREE ENERGY PREDICTED BY IDOCK:   -4.45 KCAL/MOL
REMARK 922        TOTAL FREE ENERGY PREDICTED BY IDOCK:   -5.74 KCAL/MOL
REMARK 923 INTER-LIGAND FREE ENERGY PREDICTED BY IDOCK:   -5.36 KCAL/MOL
REMARK 924 INTRA-LIGAND FREE ENERGY PREDICTED BY IDOCK:   -0.38 KCAL/MOL
REMARK 927      BINDING AFFINITY PREDICTED BY RF-SCORE:    0.00 PKD
ROOT
HETATM    1  C   UNL     1     -10.932   8.031  70.924  1.00  0.00    -0.243 C  
HETATM    2  C   UNL     1     -11.899   9.048  70.453  1.00  0.00    -0.018 C  
HETATM    3  C   UNL     1     -11.096   9.897  69.467  1.00  0.00    -0.255 C  
HETATM    4  C   UNL     1     -10.847  11.375  69.698  1.00  0.00    -0.107 C  
HETATM    5  C   UNL     1     -12.032  12.004  70.445  1.00  0.00    -0.379 C  
HETATM    6  C   UNL     1     -11.921  13.506  70.500  1.00  0.00    -0.344 C  
HETATM    7  C   UNL     1     -11.744  14.113  69.101  1.00  0.00    -0.368 C  
HETATM    8  C   UNL     1     -12.010  15.427  68.973  1.00  0.00    -0.313 C  
HETATM    9  C   UNL     1     -10.939  16.132  69.768  1.00  0.00    -0.349 C  
HETATM   10  C   UNL     1      -9.568  15.476  69.771  1.00  0.00    -0.205 C  
HETATM   11  O   UNL     1     -11.174  17.170  70.371  1.00  0.00     0.321 OA 
HETATM   12  C   UNL     1      -9.345  14.285  69.150  1.00  0.00     0.119 C  
HETATM   13  C   UNL     1     -10.480  13.592  68.357  1.00  0.00    -0.252 C  
HETATM   14  C   UNL     1     -10.703  12.018  68.284  1.00  0.00    -0.252 C  
HETATM   15  C   UNL     1     -10.291  14.128  66.914  1.00  0.00    -0.269 C  
HETATM   16  C   UNL     1      -9.879  11.143  67.259  1.00  0.00    -0.175 C  
HETATM   17  C   UNL     1      -9.999   9.526  67.417  1.00  0.00    -0.241 C  
HETATM   18  O   UNL     1      -8.529  11.598  67.222  1.00  0.00    -0.144 OA 
HETATM   19  C   UNL     1      -9.819   9.135  68.936  1.00  0.00    -0.179 C  
HETATM   20  H   UNL     1      -8.034  11.072  66.606  1.00  0.00     0.000 HD 
HETATM   21  C   UNL     1      -8.307   9.550  69.096  1.00  0.00    -0.125 C  
HETATM   22  C   UNL     1     -10.007   7.728  69.740  1.00  0.00    -0.189 C  
HETATM   23  N   UNL     1      -8.748   7.413  70.531  1.00  0.00    -0.146 NA 
HETATM   24  O   UNL     1     -10.092   8.664  71.883  1.00  0.00    -0.270 OA 
HETATM   25  C   UNL     1      -7.769   8.908  72.295  1.00  0.00     0.162 C  
HETATM   26  C   UNL     1      -8.867   8.222  71.550  1.00  0.00    -0.168 C  
ENDROOT
BRANCH  22  27
HETATM   27  C   UNL     1     -10.427   6.545  68.860  1.00  0.00    -0.215 C  
HETATM   28  O   UNL     1     -11.402   5.850  69.164  1.00  0.00    -0.298 OA 
BRANCH  27  29
HETATM   29  C   UNL     1      -9.616   6.233  67.606  1.00  0.00    -0.114 C  
BRANCH  29  30
HETATM   30  O   UNL     1      -8.215   6.134  67.891  1.00  0.00    -0.115 OA 
BRANCH  30  31
HETATM   31  C   UNL     1      -7.444   5.991  66.777  1.00  0.00    -0.087 C  
HETATM   32  C   UNL     1      -7.433   7.254  65.965  1.00  0.00    -0.080 C  
HETATM   33  O   UNL     1      -6.850   4.958  66.471  1.00  0.00    -0.059 OA 
ENDBRANCH  30  31
ENDBRANCH  29  30
ENDBRANCH  27  29
ENDBRANCH  22  27
TORSDOF 4
ENDMDL
MODEL       78
REMARK 921   NORMALIZED FREE ENERGY PREDICTED BY IDOCK:   -4.44 KCAL/MOL
REMARK 922        TOTAL FREE ENERGY PREDICTED BY IDOCK:   -5.73 KCAL/MOL
REMARK 923 INTER-LIGAND FREE ENERGY PREDICTED BY IDOCK:   -5.36 KCAL/MOL
REMARK 924 INTRA-LIGAND FREE ENERGY PREDICTED BY IDOCK:   -0.36 KCAL/MOL
REMARK 927      BINDING AFFINITY PREDICTED BY RF-SCORE:    0.00 PKD
ROOT
HETATM    1  C   UNL     1      -8.168   8.242  71.641  1.00  0.00    -0.137 C  
HETATM    2  C   UNL     1      -8.507   8.658  70.261  1.00  0.00    -0.133 C  
HETATM    3  C   UNL     1      -8.998   7.372  69.595  1.00  0.00    -0.141 C  
HETATM    4  C   UNL     1      -8.286   6.765  68.401  1.00  0.00    -0.119 C  
HETATM    5  C   UNL     1      -7.654   7.868  67.540  1.00  0.00    -0.105 C  
HETATM    6  C   UNL     1      -7.129   7.323  66.236  1.00  0.00    -0.077 C  
HETATM    7  C   UNL     1      -8.209   6.550  65.468  1.00  0.00    -0.138 C  
HETATM    8  C   UNL     1      -7.990   6.348  64.155  1.00  0.00    -0.096 C  
HETATM    9  C   UNL     1      -6.811   5.409  64.085  1.00  0.00    -0.047 C  
HETATM   10  C   UNL     1      -6.714   4.375  65.195  1.00  0.00    -0.049 C  
HETATM   11  O   UNL     1      -5.989   5.487  63.183  1.00  0.00    -0.017 OA 
HETATM   12  C   UNL     1      -7.602   4.350  66.227  1.00  0.00    -0.086 C  
HETATM   13  C   UNL     1      -8.789   5.344  66.262  1.00  0.00    -0.131 C  
HETATM   14  C   UNL     1      -9.377   6.006  67.584  1.00  0.00    -0.112 C  
HETATM   15  C   UNL     1      -9.930   4.569  65.552  1.00  0.00    -0.230 C  
HETATM   16  C   UNL     1     -10.418   5.219  68.474  1.00  0.00    -0.077 C  
HETATM   17  C   UNL     1     -10.782   5.871  69.922  1.00  0.00    -0.406 C  
HETATM   18  O   UNL     1     -10.028   3.851  68.564  1.00  0.00    -0.017 OA 
HETATM   19  C   UNL     1      -9.449   6.293  70.655  1.00  0.00    -0.182 C  
HETATM   20  H   UNL     1     -10.654   3.378  69.100  1.00  0.00     0.000 HD 
HETATM   21  C   UNL     1      -8.854   4.852  70.883  1.00  0.00    -0.155 C  
HETATM   22  C   UNL     1      -9.164   7.139  72.020  1.00  0.00    -0.134 C  
HETATM   23  N   UNL     1      -8.256   6.342  72.942  1.00  0.00    -0.113 NA 
HETATM   24  O   UNL     1      -6.908   7.583  71.583  1.00  0.00    -0.052 OA 
HETATM   25  C   UNL     1      -5.958   5.540  72.324  1.00  0.00    -0.030 C  
HETATM   26  C   UNL     1      -7.090   6.513  72.376  1.00  0.00    -0.077 C  
ENDROOT
BRANCH  22  27
HETATM   27  C   UNL     1     -10.427   7.612  72.749  1.00  0.00    -0.311 C  
HETATM   28  O   UNL     1     -10.739   7.131  73.843  1.00  0.00    -0.314 OA 
BRANCH  27  29
HETATM   29  C   UNL     1     -11.299   8.681  72.097  1.00  0.00    -0.364 C  
BRANCH  29  30
HETATM   30  O   UNL     1     -12.595   8.753  72.705  1.00  0.00    -0.371 OA 
BRANCH  30  31
HETATM   31  C   UNL     1     -13.617   8.749  71.805  1.00  0.00    -0.410 C  
HETATM   32  C   UNL     1     -14.280   7.402  71.750  1.00  0.00    -0.544 C  
HETATM   33  O   UNL     1     -13.942   9.716  71.117  1.00  0.00    -0.185 OA 
ENDBRANCH  30  31
ENDBRANCH  29  30
ENDBRANCH  27  29
ENDBRANCH  22  27
TORSDOF 4
ENDMDL
MODEL       79
REMARK 921   NORMALIZED FREE ENERGY PREDICTED BY IDOCK:   -4.40 KCAL/MOL
REMARK 922        TOTAL FREE ENERGY PREDICTED BY IDOCK:   -5.67 KCAL/MOL
REMARK 923 INTER-LIGAND FREE ENERGY PREDICTED BY IDOCK:   -5.21 KCAL/MOL
REMARK 924 INTRA-LIGAND FREE ENERGY PREDICTED BY IDOCK:   -0.46 KCAL/MOL
REMARK 927      BINDING AFFINITY PREDICTED BY RF-SCORE:    0.00 PKD
ROOT
HETATM    1  C   UNL     1      -8.399   5.589  71.194  1.00  0.00    -0.125 C  
HETATM    2  C   UNL     1      -7.667   6.860  70.991  1.00  0.00    -0.096 C  
HETATM    3  C   UNL     1      -8.581   7.673  70.072  1.00  0.00    -0.138 C  
HETATM    4  C   UNL     1      -8.144   8.106  68.686  1.00  0.00    -0.124 C  
HETATM    5  C   UNL     1      -6.629   8.358  68.659  1.00  0.00    -0.055 C  
HETATM    6  C   UNL     1      -6.195   8.998  67.365  1.00  0.00    -0.059 C  
HETATM    7  C   UNL     1      -6.990  10.277  67.071  1.00  0.00    -0.089 C  
HETATM    8  C   UNL     1      -6.456  11.127  66.173  1.00  0.00    -0.038 C  
HETATM    9  C   UNL     1      -6.512  10.402  64.851  1.00  0.00    -0.072 C  
HETATM   10  C   UNL     1      -7.707   9.487  64.641  1.00  0.00    -0.120 C  
HETATM   11  O   UNL     1      -5.639  10.550  64.007  1.00  0.00    -0.148 OA 
HETATM   12  C   UNL     1      -8.631   9.284  65.620  1.00  0.00    -0.172 C  
HETATM   13  C   UNL     1      -8.524  10.041  66.966  1.00  0.00    -0.125 C  
HETATM   14  C   UNL     1      -8.912   9.430  68.382  1.00  0.00    -0.128 C  
HETATM   15  C   UNL     1      -9.377  11.316  66.731  1.00  0.00    -0.191 C  
HETATM   16  C   UNL     1     -10.417   9.426  68.864  1.00  0.00    -0.216 C  
HETATM   17  C   UNL     1     -10.751   8.573  70.211  1.00  0.00    -0.242 C  
HETATM   18  O   UNL     1     -11.266   9.090  67.770  1.00  0.00    -0.460 OA 
HETATM   19  C   UNL     1     -10.071   7.152  70.112  1.00  0.00    -0.195 C  
HETATM   20  H   UNL     1     -12.170   9.088  68.060  1.00  0.00     0.000 HD 
HETATM   21  C   UNL     1     -10.927   6.577  68.921  1.00  0.00    -0.376 C  
HETATM   22  C   UNL     1      -9.891   5.941  71.189  1.00  0.00    -0.181 C  
HETATM   23  N   UNL     1     -10.411   4.641  70.596  1.00  0.00    -0.038 NA 
HETATM   24  O   UNL     1      -8.210   4.804  70.022  1.00  0.00    -0.068 OA 
HETATM   25  C   UNL     1      -9.552   3.603  68.478  1.00  0.00    -0.163 C  
HETATM   26  C   UNL     1      -9.438   4.311  69.788  1.00  0.00    -0.190 C  
ENDROOT
BRANCH  22  27
HETATM   27  C   UNL     1     -10.509   6.217  72.564  1.00  0.00    -0.201 C  
HETATM   28  O   UNL     1     -10.408   7.332  73.087  1.00  0.00    -0.244 OA 
BRANCH  27  29
HETATM   29  C   UNL     1     -11.243   5.089  73.284  1.00  0.00    -0.338 C  
BRANCH  29  30
HETATM   30  O   UNL     1     -10.332   4.153  73.872  1.00  0.00    -0.151 OA 
BRANCH  30  31
HETATM   31  C   UNL     1     -10.591   2.859  73.537  1.00  0.00    -0.169 C  
HETATM   32  C   UNL     1      -9.338   2.152  73.108  1.00  0.00    -0.100 C  
HETATM   33  O   UNL     1     -11.709   2.345  73.565  1.00  0.00    -0.201 OA 
ENDBRANCH  30  31
ENDBRANCH  29  30
ENDBRANCH  27  29
ENDBRANCH  22  27
TORSDOF 4
ENDMDL
MODEL       80
REMARK 921   NORMALIZED FREE ENERGY PREDICTED BY IDOCK:   -4.10 KCAL/MOL
REMARK 922        TOTAL FREE ENERGY PREDICTED BY IDOCK:   -5.31 KCAL/MOL
REMARK 923 INTER-LIGAND FREE ENERGY PREDICTED BY IDOCK:   -5.44 KCAL/MOL
REMARK 924 INTRA-LIGAND FREE ENERGY PREDICTED BY IDOCK:    0.13 KCAL/MOL
REMARK 927      BINDING AFFINITY PREDICTED BY RF-SCORE:    0.00 PKD
ROOT
HETATM    1  C   UNL     1     -10.059  14.339  66.413  1.00  0.00    -0.288 C  
HETATM    2  C   UNL     1     -10.706  13.094  65.941  1.00  0.00    -0.287 C  
HETATM    3  C   UNL     1     -10.559  12.129  67.117  1.00  0.00    -0.254 C  
HETATM    4  C   UNL     1      -9.772  10.838  67.001  1.00  0.00    -0.205 C  
HETATM    5  C   UNL     1      -9.870  10.279  65.574  1.00  0.00    -0.347 C  
HETATM    6  C   UNL     1      -9.287   8.893  65.478  1.00  0.00    -0.214 C  
HETATM    7  C   UNL     1      -9.914   7.941  66.506  1.00  0.00    -0.267 C  
HETATM    8  C   UNL     1      -9.765   6.622  66.277  1.00  0.00    -0.057 C  
HETATM    9  C   UNL     1      -8.290   6.351  66.444  1.00  0.00    -0.119 C  
HETATM   10  C   UNL     1      -7.572   7.180  67.495  1.00  0.00    -0.110 C  
HETATM   11  O   UNL     1      -7.718   5.509  65.764  1.00  0.00    -0.085 OA 
HETATM   12  C   UNL     1      -8.213   8.159  68.192  1.00  0.00    -0.129 C  
HETATM   13  C   UNL     1      -9.725   8.410  67.977  1.00  0.00    -0.184 C  
HETATM   14  C   UNL     1     -10.419   9.841  68.012  1.00  0.00    -0.271 C  
HETATM   15  C   UNL     1     -10.396   7.513  69.051  1.00  0.00    -0.217 C  
HETATM   16  C   UNL     1     -10.826  10.496  69.391  1.00  0.00    -0.249 C  
HETATM   17  C   UNL     1     -11.309  12.051  69.347  1.00  0.00    -0.317 C  
HETATM   18  O   UNL     1      -9.799  10.261  70.351  1.00  0.00    -0.367 OA 
HETATM   19  C   UNL     1     -10.295  12.889  68.475  1.00  0.00    -0.239 C  
HETATM   20  H   UNL     1     -10.045  10.655  71.180  1.00  0.00     0.000 HD 
HETATM   21  C   UNL     1      -9.039  12.774  69.421  1.00  0.00     1.269 C  
HETATM   22  C   UNL     1     -10.326  14.423  67.921  1.00  0.00    -0.232 C  
HETATM   23  N   UNL     1      -9.048  15.143  68.321  1.00  0.00    -0.179 NA 
HETATM   24  O   UNL     1      -8.653  14.149  66.307  1.00  0.00     0.160 OA 
HETATM   25  C   UNL     1      -6.738  14.392  67.684  1.00  0.00    -0.188 C  
HETATM   26  C   UNL     1      -8.191  14.656  67.462  1.00  0.00    -0.188 C  
ENDROOT
BRANCH  22  27
HETATM   27  C   UNL     1     -11.569  15.220  68.329  1.00  0.00    -0.341 C  
HETATM   28  O   UNL     1     -12.399  14.738  69.107  1.00  0.00    -0.203 OA 
BRANCH  27  29
HETATM   29  C   UNL     1     -11.773  16.617  67.750  1.00  0.00     0.559 C  
BRANCH  29  30
HETATM   30  O   UNL     1     -10.664  17.478  68.036  1.00  0.00    -0.387 OA 
BRANCH  30  31
HETATM   31  C   UNL     1     -10.476  18.450  67.101  1.00  0.00    -0.404 C  
HETATM   32  C   UNL     1     -10.493  19.813  67.731  1.00  0.00    -0.555 C  
HETATM   33  O   UNL     1     -10.329  18.238  65.898  1.00  0.00    -0.540 OA 
ENDBRANCH  30  31
ENDBRANCH  29  30
ENDBRANCH  27  29
ENDBRANCH  22  27
TORSDOF 4
ENDMDL
MODEL       81
REMARK 921   NORMALIZED FREE ENERGY PREDICTED BY IDOCK:   -3.96 KCAL/MOL
REMARK 922        TOTAL FREE ENERGY PREDICTED BY IDOCK:   -5.13 KCAL/MOL
REMARK 923 INTER-LIGAND FREE ENERGY PREDICTED BY IDOCK:   -4.76 KCAL/MOL
REMARK 924 INTRA-LIGAND FREE ENERGY PREDICTED BY IDOCK:   -0.37 KCAL/MOL
REMARK 927      BINDING AFFINITY PREDICTED BY RF-SCORE:    0.00 PKD
ROOT
HETATM    1  C   UNL     1      -9.607   8.037  70.200  1.00  0.00    -0.175 C  
HETATM    2  C   UNL     1     -10.634   8.916  69.597  1.00  0.00    -0.230 C  
HETATM    3  C   UNL     1      -9.827   9.914  68.765  1.00  0.00    -0.177 C  
HETATM    4  C   UNL     1      -9.847  11.402  69.057  1.00  0.00    -0.056 C  
HETATM    5  C   UNL     1     -11.216  11.818  69.616  1.00  0.00    -0.225 C  
HETATM    6  C   UNL     1     -11.346  13.316  69.711  1.00  0.00    -0.132 C  
HETATM    7  C   UNL     1     -11.049  13.997  68.368  1.00  0.00    -0.275 C  
HETATM    8  C   UNL     1     -11.490  15.261  68.221  1.00  0.00    -0.359 C  
HETATM    9  C   UNL     1     -10.676  16.086  69.188  1.00  0.00    -0.272 C  
HETATM   10  C   UNL     1      -9.239  15.642  69.398  1.00  0.00    -0.279 C  
HETATM   11  O   UNL     1     -11.159  17.052  69.762  1.00  0.00    -0.043 OA 
HETATM   12  C   UNL     1      -8.742  14.523  68.802  1.00  0.00    -0.147 C  
HETATM   13  C   UNL     1      -9.621  13.700  67.827  1.00  0.00    -0.224 C  
HETATM   14  C   UNL     1      -9.585  12.116  67.694  1.00  0.00    -0.190 C  
HETATM   15  C   UNL     1      -9.295  14.317  66.441  1.00  0.00    -0.270 C  
HETATM   16  C   UNL     1      -8.488  11.414  66.800  1.00  0.00    -0.165 C  
HETATM   17  C   UNL     1      -8.382   9.793  66.911  1.00  0.00    -0.120 C  
HETATM   18  O   UNL     1      -7.235  12.067  66.986  1.00  0.00    -0.214 OA 
HETATM   19  C   UNL     1      -8.382   9.373  68.433  1.00  0.00    -0.119 C  
HETATM   20  H   UNL     1      -6.575  11.645  66.448  1.00  0.00     0.000 HD 
HETATM   21  C   UNL     1      -6.995  10.001  68.839  1.00  0.00    -0.062 C  
HETATM   22  C   UNL     1      -8.474   7.922  69.174  1.00  0.00    -0.137 C  
HETATM   23  N   UNL     1      -7.320   7.767  70.150  1.00  0.00    -0.070 NA 
HETATM   24  O   UNL     1      -9.034   8.748  71.291  1.00  0.00    -0.191 OA 
HETATM   25  C   UNL     1      -6.867   9.319  72.072  1.00  0.00     0.285 C  
HETATM   26  C   UNL     1      -7.719   8.507  71.151  1.00  0.00    -0.103 C  
ENDROOT
BRANCH  22  27
HETATM   27  C   UNL     1      -8.567   6.726  68.219  1.00  0.00    -0.124 C  
HETATM   28  O   UNL     1      -7.775   6.610  67.278  1.00  0.00    -0.101 OA 
BRANCH  27  29
HETATM   29  C   UNL     1      -9.659   5.685  68.444  1.00  0.00    -0.126 C  
BRANCH  29  30
HETATM   30  O   UNL     1      -9.110   4.378  68.658  1.00  0.00    -0.109 OA 
BRANCH  30  31
HETATM   31  C   UNL     1      -9.350   3.886  69.904  1.00  0.00    -0.174 C  
HETATM   32  C   UNL     1     -10.410   4.688  70.605  1.00  0.00    -0.119 C  
HETATM   33  O   UNL     1      -8.764   2.923  70.397  1.00  0.00    -0.060 OA 
ENDBRANCH  30  31
ENDBRANCH  29  30
ENDBRANCH  27  29
ENDBRANCH  22  27
TORSDOF 4
ENDMDL
MODEL       82
REMARK 921   NORMALIZED FREE ENERGY PREDICTED BY IDOCK:   -3.87 KCAL/MOL
REMARK 922        TOTAL FREE ENERGY PREDICTED BY IDOCK:   -5.03 KCAL/MOL
REMARK 923 INTER-LIGAND FREE ENERGY PREDICTED BY IDOCK:   -4.80 KCAL/MOL
REMARK 924 INTRA-LIGAND FREE ENERGY PREDICTED BY IDOCK:   -0.22 KCAL/MOL
REMARK 927      BINDING AFFINITY PREDICTED BY RF-SCORE:    0.00 PKD
ROOT
HETATM    1  C   UNL     1     -11.543   9.362  71.986  1.00  0.00    -0.144 C  
HETATM    2  C   UNL     1     -10.179   8.908  72.340  1.00  0.00    -0.064 C  
HETATM    3  C   UNL     1      -9.939   7.703  71.430  1.00  0.00    -0.203 C  
HETATM    4  C   UNL     1      -9.701   6.312  71.985  1.00  0.00    -0.164 C  
HETATM    5  C   UNL     1      -8.974   6.395  73.335  1.00  0.00    -0.131 C  
HETATM    6  C   UNL     1      -8.527   5.037  73.811  1.00  0.00    -0.104 C  
HETATM    7  C   UNL     1      -7.682   4.315  72.752  1.00  0.00    -0.081 C  
HETATM    8  C   UNL     1      -6.923   3.289  73.182  1.00  0.00    -0.040 C  
HETATM    9  C   UNL     1      -7.898   2.217  73.602  1.00  0.00    -0.043 C  
HETATM   10  C   UNL     1      -9.180   2.124  72.791  1.00  0.00    -0.106 C  
HETATM   11  O   UNL     1      -7.658   1.472  74.543  1.00  0.00    -0.028 OA 
HETATM   12  C   UNL     1      -9.458   3.007  71.792  1.00  0.00    -0.209 C  
HETATM   13  C   UNL     1      -8.431   4.100  71.406  1.00  0.00    -0.111 C  
HETATM   14  C   UNL     1      -8.810   5.573  70.941  1.00  0.00    -0.148 C  
HETATM   15  C   UNL     1      -7.597   3.429  70.282  1.00  0.00    -0.044 C  
HETATM   16  C   UNL     1      -9.207   5.858  69.438  1.00  0.00    -0.130 C  
HETATM   17  C   UNL     1      -9.804   7.337  69.108  1.00  0.00    -0.166 C  
HETATM   18  O   UNL     1     -10.037   4.804  68.958  1.00  0.00    -0.175 OA 
HETATM   19  C   UNL     1     -10.903   7.708  70.179  1.00  0.00    -0.255 C  
HETATM   20  H   UNL     1     -10.276   4.976  68.055  1.00  0.00     0.000 HD 
HETATM   21  C   UNL     1     -11.977   6.626  69.780  1.00  0.00     0.005 C  
HETATM   22  C   UNL     1     -11.717   9.087  70.488  1.00  0.00    -0.126 C  
HETATM   23  N   UNL     1     -13.213   8.813  70.496  1.00  0.00     0.638 NA 
HETATM   24  O   UNL     1     -12.459   8.478  72.622  1.00  0.00    -0.370 OA 
HETATM   25  C   UNL     1     -14.346   7.171  72.022  1.00  0.00    -0.398 C  
HETATM   26  C   UNL     1     -13.370   8.244  71.663  1.00  0.00    -0.330 C  
ENDROOT
BRANCH  22  27
HETATM   27  C   UNL     1     -11.367  10.253  69.557  1.00  0.00    -0.241 C  
HETATM   28  O   UNL     1     -10.273  10.294  68.984  1.00  0.00    -0.186 OA 
BRANCH  27  29
HETATM   29  C   UNL     1     -12.387  11.370  69.356  1.00  0.00    -0.118 C  
BRANCH  29  30
HETATM   30  O   UNL     1     -12.021  12.559  70.067  1.00  0.00    -0.332 OA 
BRANCH  30  31
HETATM   31  C   UNL     1     -12.012  13.675  69.289  1.00  0.00    -0.336 C  
HETATM   32  C   UNL     1     -11.775  14.907  70.116  1.00  0.00    -0.340 C  
HETATM   33  O   UNL     1     -12.191  13.676  68.071  1.00  0.00    -0.323 OA 
ENDBRANCH  30  31
ENDBRANCH  29  30
ENDBRANCH  27  29
ENDBRANCH  22  27
TORSDOF 4
ENDMDL
MODEL       83
REMARK 921   NORMALIZED FREE ENERGY PREDICTED BY IDOCK:   -3.66 KCAL/MOL
REMARK 922        TOTAL FREE ENERGY PREDICTED BY IDOCK:   -4.77 KCAL/MOL
REMARK 923 INTER-LIGAND FREE ENERGY PREDICTED BY IDOCK:   -4.02 KCAL/MOL
REMARK 924 INTRA-LIGAND FREE ENERGY PREDICTED BY IDOCK:   -0.75 KCAL/MOL
REMARK 927      BINDING AFFINITY PREDICTED BY RF-SCORE:    0.00 PKD
ROOT
HETATM    1  C   UNL     1      -7.549   9.467  69.407  1.00  0.00    -0.083 C  
HETATM    2  C   UNL     1      -6.491   8.905  68.538  1.00  0.00    -0.055 C  
HETATM    3  C   UNL     1      -7.142   8.834  67.157  1.00  0.00    -0.075 C  
HETATM    4  C   UNL     1      -7.347   7.517  66.433  1.00  0.00    -0.083 C  
HETATM    5  C   UNL     1      -6.223   6.533  66.789  1.00  0.00    -0.040 C  
HETATM    6  C   UNL     1      -6.271   5.299  65.925  1.00  0.00    -0.034 C  
HETATM    7  C   UNL     1      -6.267   5.651  64.431  1.00  0.00    -0.025 C  
HETATM    8  C   UNL     1      -5.929   4.664  63.579  1.00  0.00    -0.018 C  
HETATM    9  C   UNL     1      -7.047   3.655  63.669  1.00  0.00    -0.050 C  
HETATM   10  C   UNL     1      -8.438   4.219  63.904  1.00  0.00    -0.108 C  
HETATM   11  O   UNL     1      -6.831   2.456  63.558  1.00  0.00    -0.030 OA 
HETATM   12  C   UNL     1      -8.646   5.551  64.093  1.00  0.00     0.007 C  
HETATM   13  C   UNL     1      -7.464   6.548  64.005  1.00  0.00    -0.082 C  
HETATM   14  C   UNL     1      -7.307   7.847  64.909  1.00  0.00    -0.073 C  
HETATM   15  C   UNL     1      -7.470   6.983  62.516  1.00  0.00    -0.088 C  
HETATM   16  C   UNL     1      -8.053   9.184  64.520  1.00  0.00    -0.139 C  
HETATM   17  C   UNL     1      -8.025  10.384  65.621  1.00  0.00    -0.153 C  
HETATM   18  O   UNL     1      -9.369   8.879  64.065  1.00  0.00    -0.215 OA 
HETATM   19  C   UNL     1      -8.387   9.798  67.041  1.00  0.00    -0.117 C  
HETATM   20  H   UNL     1      -9.817   9.684  63.831  1.00  0.00     0.000 HD 
HETATM   21  C   UNL     1      -9.887   9.412  66.749  1.00  0.00    -0.280 C  
HETATM   22  C   UNL     1      -8.352  10.442  68.539  1.00  0.00    -0.124 C  
HETATM   23  N   UNL     1      -9.703  10.260  69.212  1.00  0.00    -0.215 NA 
HETATM   24  O   UNL     1      -8.458   8.411  69.698  1.00  0.00    -0.123 OA 
HETATM   25  C   UNL     1     -10.799   8.037  69.614  1.00  0.00    -0.172 C  
HETATM   26  C   UNL     1      -9.659   8.999  69.556  1.00  0.00    -0.165 C  
ENDROOT
BRANCH  22  27
HETATM   27  C   UNL     1      -7.893  11.904  68.591  1.00  0.00    -0.104 C  
HETATM   28  O   UNL     1      -6.708  12.184  68.803  1.00  0.00    -0.076 OA 
BRANCH  27  29
HETATM   29  C   UNL     1      -8.925  13.010  68.387  1.00  0.00    -0.126 C  
BRANCH  29  30
HETATM   30  O   UNL     1      -9.194  13.235  66.998  1.00  0.00    -0.222 OA 
BRANCH  30  31
HETATM   31  C   UNL     1     -10.450  13.701  66.758  1.00  0.00    -0.270 C  
HETATM   32  C   UNL     1     -11.479  12.865  67.462  1.00  0.00    -0.386 C  
HETATM   33  O   UNL     1     -10.707  14.670  66.044  1.00  0.00    -0.296 OA 
ENDBRANCH  30  31
ENDBRANCH  29  30
ENDBRANCH  27  29
ENDBRANCH  22  27
TORSDOF 4
ENDMDL
MODEL       84
REMARK 921   NORMALIZED FREE ENERGY PREDICTED BY IDOCK:   -3.61 KCAL/MOL
REMARK 922        TOTAL FREE ENERGY PREDICTED BY IDOCK:   -4.71 KCAL/MOL
REMARK 923 INTER-LIGAND FREE ENERGY PREDICTED BY IDOCK:   -4.20 KCAL/MOL
REMARK 924 INTRA-LIGAND FREE ENERGY PREDICTED BY IDOCK:   -0.51 KCAL/MOL
REMARK 927      BINDING AFFINITY PREDICTED BY RF-SCORE:    0.00 PKD
ROOT
HETATM    1  C   UNL     1      -9.539   9.821  70.675  1.00  0.00    -0.029 C  
HETATM    2  C   UNL     1      -8.330   9.022  70.974  1.00  0.00    -0.237 C  
HETATM    3  C   UNL     1      -8.605   7.669  70.316  1.00  0.00    -0.143 C  
HETATM    4  C   UNL     1      -8.698   6.388  71.123  1.00  0.00    -0.135 C  
HETATM    5  C   UNL     1      -7.768   6.459  72.344  1.00  0.00    -0.101 C  
HETATM    6  C   UNL     1      -7.668   5.129  73.044  1.00  0.00    -0.097 C  
HETATM    7  C   UNL     1      -7.256   4.009  72.079  1.00  0.00    -0.055 C  
HETATM    8  C   UNL     1      -6.772   2.881  72.633  1.00  0.00    -0.022 C  
HETATM    9  C   UNL     1      -7.936   2.262  73.366  1.00  0.00    -0.050 C  
HETATM   10  C   UNL     1      -9.303   2.449  72.730  1.00  0.00    -0.124 C  
HETATM   11  O   UNL     1      -7.775   1.648  74.412  1.00  0.00    -0.032 OA 
HETATM   12  C   UNL     1      -9.469   3.194  71.602  1.00  0.00    -0.214 C  
HETATM   13  C   UNL     1      -8.244   3.822  70.892  1.00  0.00    -0.078 C  
HETATM   14  C   UNL     1      -8.245   5.240  70.170  1.00  0.00    -0.091 C  
HETATM   15  C   UNL     1      -7.838   2.743  69.853  1.00  0.00    -0.049 C  
HETATM   16  C   UNL     1      -8.780   5.382  68.691  1.00  0.00    -0.097 C  
HETATM   17  C   UNL     1      -8.962   6.897  68.122  1.00  0.00    -0.123 C  
HETATM   18  O   UNL     1      -9.949   4.583  68.530  1.00  0.00    -0.126 OA 
HETATM   19  C   UNL     1      -9.715   7.772  69.198  1.00  0.00    -0.161 C  
HETATM   20  H   UNL     1     -10.271   4.669  67.640  1.00  0.00     0.000 HD 
HETATM   21  C   UNL     1     -11.109   7.039  69.147  1.00  0.00    -0.143 C  
HETATM   22  C   UNL     1     -10.028   9.370  69.294  1.00  0.00    -0.181 C  
HETATM   23  N   UNL     1     -11.516   9.593  69.514  1.00  0.00    -0.037 NA 
HETATM   24  O   UNL     1     -10.557   9.394  71.574  1.00  0.00    -0.341 OA 
HETATM   25  C   UNL     1     -12.816   8.678  71.457  1.00  0.00    -0.351 C  
HETATM   26  C   UNL     1     -11.641   9.307  70.783  1.00  0.00    -0.285 C  
ENDROOT
BRANCH  22  27
HETATM   27  C   UNL     1      -9.508  10.191  68.109  1.00  0.00    -0.142 C  
HETATM   28  O   UNL     1     -10.119  10.203  67.035  1.00  0.00    -0.203 OA 
BRANCH  27  29
HETATM   29  C   UNL     1      -8.216  10.987  68.272  1.00  0.00    -0.130 C  
BRANCH  29  30
HETATM   30  O   UNL     1      -7.110  10.342  67.629  1.00  0.00    -0.083 OA 
BRANCH  30  31
HETATM   31  C   UNL     1      -6.457  11.142  66.742  1.00  0.00    -0.127 C  
HETATM   32  C   UNL     1      -6.660  10.661  65.333  1.00  0.00    -0.026 C  
HETATM   33  O   UNL     1      -5.778  12.119  67.055  1.00  0.00    -0.186 OA 
ENDBRANCH  30  31
ENDBRANCH  29  30
ENDBRANCH  27  29
ENDBRANCH  22  27
TORSDOF 4
ENDMDL
MODEL       85
REMARK 921   NORMALIZED FREE ENERGY PREDICTED BY IDOCK:   -3.58 KCAL/MOL
REMARK 922        TOTAL FREE ENERGY PREDICTED BY IDOCK:   -4.66 KCAL/MOL
REMARK 923 INTER-LIGAND FREE ENERGY PREDICTED BY IDOCK:   -4.17 KCAL/MOL
REMARK 924 INTRA-LIGAND FREE ENERGY PREDICTED BY IDOCK:   -0.49 KCAL/MOL
REMARK 927      BINDING AFFINITY PREDICTED BY RF-SCORE:    0.00 PKD
ROOT
HETATM    1  C   UNL     1      -7.771  18.728  67.890  1.00  0.00    -0.256 C  
HETATM    2  C   UNL     1      -7.157  17.503  67.329  1.00  0.00    -0.190 C  
HETATM    3  C   UNL     1      -8.352  16.656  66.891  1.00  0.00    -0.243 C  
HETATM    4  C   UNL     1      -8.636  15.295  67.498  1.00  0.00    -0.190 C  
HETATM    5  C   UNL     1      -7.323  14.602  67.891  1.00  0.00    -0.164 C  
HETATM    6  C   UNL     1      -7.549  13.168  68.292  1.00  0.00    -0.139 C  
HETATM    7  C   UNL     1      -8.301  12.387  67.206  1.00  0.00    -0.184 C  
HETATM    8  C   UNL     1      -8.231  11.043  67.269  1.00  0.00    -0.125 C  
HETATM    9  C   UNL     1      -8.983  10.661  68.520  1.00  0.00    -0.156 C  
HETATM   10  C   UNL     1     -10.180  11.527  68.872  1.00  0.00    -0.166 C  
HETATM   11  O   UNL     1      -8.637   9.706  69.203  1.00  0.00    -0.130 OA 
HETATM   12  C   UNL     1     -10.506  12.627  68.136  1.00  0.00    -0.239 C  
HETATM   13  C   UNL     1      -9.696  12.987  66.867  1.00  0.00    -0.238 C  
HETATM   14  C   UNL     1      -9.367  14.470  66.394  1.00  0.00    -0.300 C  
HETATM   15  C   UNL     1     -10.469  12.269  65.730  1.00  0.00    -0.287 C  
HETATM   16  C   UNL     1     -10.430  15.298  65.569  1.00  0.00    -0.374 C  
HETATM   17  C   UNL     1     -10.104  16.876  65.334  1.00  0.00     0.043 C  
HETATM   18  O   UNL     1     -11.730  15.074  66.108  1.00  0.00    -0.242 OA 
HETATM   19  C   UNL     1      -9.656  17.526  66.701  1.00  0.00    -0.290 C  
HETATM   20  H   UNL     1     -12.369  15.572  65.612  1.00  0.00     0.000 HD 
HETATM   21  C   UNL     1     -11.026  17.400  67.469  1.00  0.00    -0.089 C  
HETATM   22  C   UNL     1      -9.042  18.991  67.074  1.00  0.00    -0.294 C  
HETATM   23  N   UNL     1      -9.870  19.632  68.176  1.00  0.00    -0.393 NA 
HETATM   24  O   UNL     1      -8.240  18.404  69.193  1.00  0.00    -0.122 OA 
HETATM   25  C   UNL     1     -10.246  18.619  70.442  1.00  0.00     1.644 C  
HETATM   26  C   UNL     1      -9.451  18.986  69.232  1.00  0.00    -0.071 C  
ENDROOT
BRANCH  22  27
HETATM   27  C   UNL     1      -8.876  19.933  65.877  1.00  0.00    -0.130 C  
HETATM   28  O   UNL     1      -9.837  20.200  65.147  1.00  0.00     0.008 OA 
BRANCH  27  29
HETATM   29  C   UNL     1      -7.501  20.531  65.593  1.00  0.00     0.028 C  
BRANCH  29  30
HETATM   30  O   UNL     1      -6.994  20.117  64.319  1.00  0.00    -0.131 OA 
BRANCH  30  31
HETATM   31  C   UNL     1      -5.775  19.515  64.390  1.00  0.00    -0.269 C  
HETATM   32  C   UNL     1      -5.273  19.152  63.021  1.00  0.00    -0.336 C  
HETATM   33  O   UNL     1      -5.173  19.285  65.438  1.00  0.00    -0.147 OA 
ENDBRANCH  30  31
ENDBRANCH  29  30
ENDBRANCH  27  29
ENDBRANCH  22  27
TORSDOF 4
ENDMDL
MODEL       86
REMARK 921   NORMALIZED FREE ENERGY PREDICTED BY IDOCK:   -3.57 KCAL/MOL
REMARK 922        TOTAL FREE ENERGY PREDICTED BY IDOCK:   -4.65 KCAL/MOL
REMARK 923 INTER-LIGAND FREE ENERGY PREDICTED BY IDOCK:   -4.12 KCAL/MOL
REMARK 924 INTRA-LIGAND FREE ENERGY PREDICTED BY IDOCK:   -0.53 KCAL/MOL
REMARK 927      BINDING AFFINITY PREDICTED BY RF-SCORE:    0.00 PKD
ROOT
HETATM    1  C   UNL     1      -7.090   3.813  68.422  1.00  0.00    -0.051 C  
HETATM    2  C   UNL     1      -7.059   5.030  69.264  1.00  0.00    -0.056 C  
HETATM    3  C   UNL     1      -8.226   5.871  68.746  1.00  0.00    -0.103 C  
HETATM    4  C   UNL     1      -8.016   7.240  68.128  1.00  0.00    -0.123 C  
HETATM    5  C   UNL     1      -6.812   7.939  68.776  1.00  0.00    -0.062 C  
HETATM    6  C   UNL     1      -6.706   9.379  68.346  1.00  0.00    -0.058 C  
HETATM    7  C   UNL     1      -8.013  10.144  68.599  1.00  0.00    -0.103 C  
HETATM    8  C   UNL     1      -7.932  11.489  68.617  1.00  0.00    -0.135 C  
HETATM    9  C   UNL     1      -7.594  11.888  67.202  1.00  0.00    -0.154 C  
HETATM   10  C   UNL     1      -8.191  11.026  66.103  1.00  0.00    -0.155 C  
HETATM   11  O   UNL     1      -6.879  12.853  66.968  1.00  0.00    -0.051 OA 
HETATM   12  C   UNL     1      -8.928   9.917  66.387  1.00  0.00    -0.169 C  
HETATM   13  C   UNL     1      -9.238   9.538  67.856  1.00  0.00    -0.134 C  
HETATM   14  C   UNL     1      -9.320   8.049  68.409  1.00  0.00    -0.138 C  
HETATM   15  C   UNL     1     -10.594  10.240  68.131  1.00  0.00    -0.258 C  
HETATM   16  C   UNL     1     -10.648   7.209  68.243  1.00  0.00    -0.188 C  
HETATM   17  C   UNL     1     -10.564   5.628  68.624  1.00  0.00    -0.268 C  
HETATM   18  O   UNL     1     -11.198   7.440  66.949  1.00  0.00    -0.494 OA 
HETATM   19  C   UNL     1      -9.279   4.997  67.958  1.00  0.00    -0.139 C  
HETATM   20  H   UNL     1     -11.996   6.935  66.850  1.00  0.00     0.000 HD 
HETATM   21  C   UNL     1      -9.717   5.134  66.451  1.00  0.00    -0.186 C  
HETATM   22  C   UNL     1      -8.565   3.539  68.108  1.00  0.00    -0.098 C  
HETATM   23  N   UNL     1      -8.375   2.912  66.736  1.00  0.00    -0.090 NA 
HETATM   24  O   UNL     1      -6.513   4.156  67.167  1.00  0.00    -0.039 OA 
HETATM   25  C   UNL     1      -7.063   3.958  64.868  1.00  0.00    -0.066 C  
HETATM   26  C   UNL     1      -7.343   3.574  66.284  1.00  0.00    -0.076 C  
ENDROOT
BRANCH  22  27
HETATM   27  C   UNL     1      -9.276   2.579  69.069  1.00  0.00    -0.143 C  
HETATM   28  O   UNL     1      -9.653   1.467  68.683  1.00  0.00    -0.172 OA 
BRANCH  27  29
HETATM   29  C   UNL     1      -9.522   3.022  70.508  1.00  0.00    -0.151 C  
BRANCH  29  30
HETATM   30  O   UNL     1      -8.707   2.294  71.435  1.00  0.00    -0.061 OA 
BRANCH  30  31
HETATM   31  C   UNL     1      -8.005   3.094  72.284  1.00  0.00    -0.059 C  
HETATM   32  C   UNL     1      -8.721   4.394  72.515  1.00  0.00    -0.116 C  
HETATM   33  O   UNL     1      -6.920   2.796  72.782  1.00  0.00    -0.026 OA 
ENDBRANCH  30  31
ENDBRANCH  29  30
ENDBRANCH  27  29
ENDBRANCH  22  27
TORSDOF 4
ENDMDL
MODEL       87
REMARK 921   NORMALIZED FREE ENERGY PREDICTED BY IDOCK:   -3.50 KCAL/MOL
REMARK 922        TOTAL FREE ENERGY PREDICTED BY IDOCK:   -4.57 KCAL/MOL
REMARK 923 INTER-LIGAND FREE ENERGY PREDICTED BY IDOCK:   -4.26 KCAL/MOL
REMARK 924 INTRA-LIGAND FREE ENERGY PREDICTED BY IDOCK:   -0.31 KCAL/MOL
REMARK 927      BINDING AFFINITY PREDICTED BY RF-SCORE:    0.00 PKD
ROOT
HETATM    1  C   UNL     1      -9.099   5.374  71.698  1.00  0.00    -0.139 C  
HETATM    2  C   UNL     1      -8.389   4.356  70.890  1.00  0.00    -0.096 C  
HETATM    3  C   UNL     1      -8.159   5.043  69.544  1.00  0.00    -0.078 C  
HETATM    4  C   UNL     1      -8.762   4.510  68.258  1.00  0.00    -0.113 C  
HETATM    5  C   UNL     1      -8.873   2.979  68.315  1.00  0.00    -0.165 C  
HETATM    6  C   UNL     1      -9.260   2.399  66.980  1.00  0.00    -0.108 C  
HETATM    7  C   UNL     1      -8.312   2.860  65.864  1.00  0.00    -0.092 C  
HETATM    8  C   UNL     1      -8.314   2.133  64.730  1.00  0.00    -0.088 C  
HETATM    9  C   UNL     1      -9.672   2.359  64.112  1.00  0.00    -0.131 C  
HETATM   10  C   UNL     1     -10.276   3.739  64.311  1.00  0.00    -0.240 C  
HETATM   11  O   UNL     1     -10.243   1.473  63.490  1.00  0.00    -0.126 OA 
HETATM   12  C   UNL     1      -9.654   4.688  65.065  1.00  0.00    -0.113 C  
HETATM   13  C   UNL     1      -8.267   4.405  65.691  1.00  0.00    -0.109 C  
HETATM   14  C   UNL     1      -7.791   4.934  67.113  1.00  0.00    -0.095 C  
HETATM   15  C   UNL     1      -7.274   4.924  64.617  1.00  0.00    -0.062 C  
HETATM   16  C   UNL     1      -7.213   6.396  67.268  1.00  0.00    -0.078 C  
HETATM   17  C   UNL     1      -6.975   6.931  68.788  1.00  0.00    -0.075 C  
HETATM   18  O   UNL     1      -7.983   7.298  66.477  1.00  0.00    -0.109 OA 
HETATM   19  C   UNL     1      -8.252   6.614  69.659  1.00  0.00    -0.127 C  
HETATM   20  H   UNL     1      -7.636   8.177  66.570  1.00  0.00     0.000 HD 
HETATM   21  C   UNL     1      -9.263   7.581  68.934  1.00  0.00    -0.142 C  
HETATM   22  C   UNL     1      -8.551   6.736  71.258  1.00  0.00    -0.125 C  
HETATM   23  N   UNL     1      -9.812   7.554  71.487  1.00  0.00    -0.166 NA 
HETATM   24  O   UNL     1     -10.456   5.377  71.270  1.00  0.00    -0.226 OA 
HETATM   25  C   UNL     1     -12.072   6.964  70.566  1.00  0.00    -0.315 C  
HETATM   26  C   UNL     1     -10.746   6.687  71.193  1.00  0.00    -0.234 C  
ENDROOT
BRANCH  22  27
HETATM   27  C   UNL     1      -7.377   7.273  72.085  1.00  0.00    -0.079 C  
HETATM   28  O   UNL     1      -7.197   6.888  73.245  1.00  0.00    -0.075 OA 
BRANCH  27  29
HETATM   29  C   UNL     1      -6.440   8.300  71.456  1.00  0.00    -0.049 C  
BRANCH  29  30
HETATM   30  O   UNL     1      -7.047   9.595  71.374  1.00  0.00    -0.324 OA 
BRANCH  30  31
HETATM   31  C   UNL     1      -6.243  10.537  70.809  1.00  0.00    -0.008 C  
HETATM   32  C   UNL     1      -6.480  10.631  69.329  1.00  0.00    -0.062 C  
HETATM   33  O   UNL     1      -5.418  11.209  71.428  1.00  0.00    -0.311 OA 
ENDBRANCH  30  31
ENDBRANCH  29  30
ENDBRANCH  27  29
ENDBRANCH  22  27
TORSDOF 4
ENDMDL
MODEL       88
REMARK 921   NORMALIZED FREE ENERGY PREDICTED BY IDOCK:   -3.24 KCAL/MOL
REMARK 922        TOTAL FREE ENERGY PREDICTED BY IDOCK:   -4.25 KCAL/MOL
REMARK 923 INTER-LIGAND FREE ENERGY PREDICTED BY IDOCK:   -4.50 KCAL/MOL
REMARK 924 INTRA-LIGAND FREE ENERGY PREDICTED BY IDOCK:    0.26 KCAL/MOL
REMARK 927      BINDING AFFINITY PREDICTED BY RF-SCORE:    0.00 PKD
ROOT
HETATM    1  C   UNL     1      -9.436   8.247  67.031  1.00  0.00    -0.176 C  
HETATM    2  C   UNL     1     -10.434   8.058  68.108  1.00  0.00    -0.222 C  
HETATM    3  C   UNL     1      -9.607   8.109  69.394  1.00  0.00    -0.167 C  
HETATM    4  C   UNL     1      -9.518   6.925  70.338  1.00  0.00    -0.169 C  
HETATM    5  C   UNL     1     -10.829   6.126  70.315  1.00  0.00    -0.385 C  
HETATM    6  C   UNL     1     -10.860   5.076  71.396  1.00  0.00    -0.010 C  
HETATM    7  C   UNL     1     -10.586   5.680  72.780  1.00  0.00    -0.266 C  
HETATM    8  C   UNL     1     -10.954   4.942  73.845  1.00  0.00    -0.302 C  
HETATM    9  C   UNL     1     -10.044   3.739  73.833  1.00  0.00    -0.133 C  
HETATM   10  C   UNL     1      -8.628   3.977  73.335  1.00  0.00    -0.088 C  
HETATM   11  O   UNL     1     -10.436   2.641  74.204  1.00  0.00    -0.137 OA 
HETATM   12  C   UNL     1      -8.233   5.191  72.861  1.00  0.00    -0.109 C  
HETATM   13  C   UNL     1      -9.208   6.394  72.881  1.00  0.00    -0.140 C  
HETATM   14  C   UNL     1      -9.279   7.520  71.760  1.00  0.00    -0.162 C  
HETATM   15  C   UNL     1      -8.912   7.075  74.243  1.00  0.00    -0.238 C  
HETATM   16  C   UNL     1      -8.273   8.738  71.788  1.00  0.00    -0.079 C  
HETATM   17  C   UNL     1      -8.264   9.708  70.480  1.00  0.00    -0.139 C  
HETATM   18  O   UNL     1      -6.974   8.273  72.143  1.00  0.00    -0.077 OA 
HETATM   19  C   UNL     1      -8.217   8.823  69.173  1.00  0.00    -0.119 C  
HETATM   20  H   UNL     1      -6.369   9.006  72.160  1.00  0.00     0.000 HD 
HETATM   21  C   UNL     1      -6.775   8.217  69.366  1.00  0.00    -0.042 C  
HETATM   22  C   UNL     1      -8.364   9.189  67.591  1.00  0.00    -0.116 C  
HETATM   23  N   UNL     1      -7.175   8.637  66.820  1.00  0.00    -0.078 NA 
HETATM   24  O   UNL     1      -8.766   7.003  66.856  1.00  0.00    -0.117 OA 
HETATM   25  C   UNL     1      -6.533   6.211  66.749  1.00  0.00    -0.046 C  
HETATM   26  C   UNL     1      -7.478   7.368  66.742  1.00  0.00    -0.096 C  
ENDROOT
BRANCH  22  27
HETATM   27  C   UNL     1      -8.578  10.679  67.300  1.00  0.00    -0.126 C  
HETATM   28  O   UNL     1      -8.980  11.052  66.193  1.00  0.00    -0.179 OA 
BRANCH  27  29
HETATM   29  C   UNL     1      -8.277  11.696  68.397  1.00  0.00    -0.155 C  
BRANCH  29  30
HETATM   30  O   UNL     1      -6.869  11.829  68.626  1.00  0.00    -0.069 OA 
BRANCH  30  31
HETATM   31  C   UNL     1      -6.362  13.023  68.213  1.00  0.00    -0.089 C  
HETATM   32  C   UNL     1      -5.580  13.685  69.311  1.00  0.00    -0.081 C  
HETATM   33  O   UNL     1      -6.538  13.502  67.094  1.00  0.00    -0.190 OA 
ENDBRANCH  30  31
ENDBRANCH  29  30
ENDBRANCH  27  29
ENDBRANCH  22  27
TORSDOF 4
ENDMDL
MODEL       89
REMARK 921   NORMALIZED FREE ENERGY PREDICTED BY IDOCK:   -2.85 KCAL/MOL
REMARK 922        TOTAL FREE ENERGY PREDICTED BY IDOCK:   -3.77 KCAL/MOL
REMARK 923 INTER-LIGAND FREE ENERGY PREDICTED BY IDOCK:   -3.27 KCAL/MOL
REMARK 924 INTRA-LIGAND FREE ENERGY PREDICTED BY IDOCK:   -0.50 KCAL/MOL
REMARK 927      BINDING AFFINITY PREDICTED BY RF-SCORE:    0.00 PKD
ROOT
HETATM    1  C   UNL     1      -6.938   3.664  71.040  1.00  0.00    -0.033 C  
HETATM    2  C   UNL     1      -7.181   5.124  71.091  1.00  0.00    -0.068 C  
HETATM    3  C   UNL     1      -7.982   5.413  69.820  1.00  0.00    -0.088 C  
HETATM    4  C   UNL     1      -7.456   6.328  68.731  1.00  0.00    -0.088 C  
HETATM    5  C   UNL     1      -6.582   7.434  69.341  1.00  0.00    -0.037 C  
HETATM    6  C   UNL     1      -6.224   8.485  68.322  1.00  0.00    -0.051 C  
HETATM    7  C   UNL     1      -7.471   9.058  67.634  1.00  0.00    -0.085 C  
HETATM    8  C   UNL     1      -7.324  10.237  67.001  1.00  0.00    -0.092 C  
HETATM    9  C   UNL     1      -6.413   9.954  65.832  1.00  0.00    -0.087 C  
HETATM   10  C   UNL     1      -6.560   8.586  65.187  1.00  0.00    -0.064 C  
HETATM   11  O   UNL     1      -5.608  10.786  65.437  1.00  0.00    -0.137 OA 
HETATM   12  C   UNL     1      -7.414   7.650  65.686  1.00  0.00    -0.079 C  
HETATM   13  C   UNL     1      -8.319   7.982  66.897  1.00  0.00    -0.116 C  
HETATM   14  C   UNL     1      -8.710   6.953  68.045  1.00  0.00    -0.125 C  
HETATM   15  C   UNL     1      -9.624   8.503  66.239  1.00  0.00    -0.306 C  
HETATM   16  C   UNL     1      -9.901   5.937  67.833  1.00  0.00    -0.125 C  
HETATM   17  C   UNL     1     -10.076   4.771  68.957  1.00  0.00    -0.171 C  
HETATM   18  O   UNL     1      -9.859   5.425  66.504  1.00  0.00    -0.151 OA 
HETATM   19  C   UNL     1      -8.671   4.112  69.249  1.00  0.00    -0.124 C  
HETATM   20  H   UNL     1     -10.576   4.814  66.378  1.00  0.00     0.000 HD 
HETATM   21  C   UNL     1      -8.446   3.434  67.844  1.00  0.00    -0.106 C  
HETATM   22  C   UNL     1      -8.170   3.042  70.373  1.00  0.00    -0.048 C  
HETATM   23  N   UNL     1      -7.474   1.871  69.697  1.00  0.00    -0.043 NA 
HETATM   24  O   UNL     1      -5.879   3.447  70.114  1.00  0.00    -0.017 OA 
HETATM   25  C   UNL     1      -5.453   2.081  68.222  1.00  0.00    -0.017 C  
HETATM   26  C   UNL     1      -6.309   2.388  69.407  1.00  0.00    -0.029 C  
ENDROOT
BRANCH  22  27
HETATM   27  C   UNL     1      -9.268   2.564  71.329  1.00  0.00    -0.121 C  
HETATM   28  O   UNL     1      -9.867   1.503  71.121  1.00  0.00    -0.132 OA 
BRANCH  27  29
HETATM   29  C   UNL     1      -9.619   3.425  72.540  1.00  0.00    -0.132 C  
BRANCH  29  30
HETATM   30  O   UNL     1     -11.007   3.778  72.556  1.00  0.00     0.036 OA 
BRANCH  30  31
HETATM   31  C   UNL     1     -11.251   4.996  73.114  1.00  0.00    -0.335 C  
HETATM   32  C   UNL     1     -10.134   5.399  74.035  1.00  0.00    -0.241 C  
HETATM   33  O   UNL     1     -12.260   5.668  72.904  1.00  0.00    -0.062 OA 
ENDBRANCH  30  31
ENDBRANCH  29  30
ENDBRANCH  27  29
ENDBRANCH  22  27
TORSDOF 4
ENDMDL
MODEL       90
REMARK 921   NORMALIZED FREE ENERGY PREDICTED BY IDOCK:   -2.84 KCAL/MOL
REMARK 922        TOTAL FREE ENERGY PREDICTED BY IDOCK:   -3.75 KCAL/MOL
REMARK 923 INTER-LIGAND FREE ENERGY PREDICTED BY IDOCK:   -3.97 KCAL/MOL
REMARK 924 INTRA-LIGAND FREE ENERGY PREDICTED BY IDOCK:    0.22 KCAL/MOL
REMARK 927      BINDING AFFINITY PREDICTED BY RF-SCORE:    0.00 PKD
ROOT
HETATM    1  C   UNL     1      -7.501  18.247  67.016  1.00  0.00    -0.213 C  
HETATM    2  C   UNL     1      -8.660  17.797  66.213  1.00  0.00    -0.217 C  
HETATM    3  C   UNL     1      -9.359  16.773  67.109  1.00  0.00    -0.236 C  
HETATM    4  C   UNL     1      -9.507  15.320  66.702  1.00  0.00    -0.281 C  
HETATM    5  C   UNL     1      -9.642  15.204  65.177  1.00  0.00     0.134 C  
HETATM    6  C   UNL     1     -10.009  13.805  64.755  1.00  0.00    -0.129 C  
HETATM    7  C   UNL     1     -11.268  13.306  65.477  1.00  0.00    -0.307 C  
HETATM    8  C   UNL     1     -11.905  12.255  64.926  1.00  0.00    -0.417 C  
HETATM    9  C   UNL     1     -10.961  11.088  65.083  1.00  0.00    -0.033 C  
HETATM   10  C   UNL     1     -10.110  11.080  66.342  1.00  0.00    -0.275 C  
HETATM   11  O   UNL     1     -10.894  10.207  64.237  1.00  0.00     0.805 OA 
HETATM   12  C   UNL     1     -10.151  12.106  67.237  1.00  0.00    -0.214 C  
HETATM   13  C   UNL     1     -11.126  13.290  67.026  1.00  0.00    -0.304 C  
HETATM   14  C   UNL     1     -10.806  14.804  67.395  1.00  0.00    -0.300 C  
HETATM   15  C   UNL     1     -12.396  12.854  67.804  1.00  0.00     0.209 C  
HETATM   16  C   UNL     1     -10.994  15.321  68.876  1.00  0.00    -0.261 C  
HETATM   17  C   UNL     1     -10.421  16.809  69.209  1.00  0.00    -0.331 C  
HETATM   18  O   UNL     1     -10.529  14.330  69.788  1.00  0.00    -0.439 OA 
HETATM   19  C   UNL     1      -8.960  16.948  68.626  1.00  0.00    -0.266 C  
HETATM   20  H   UNL     1     -10.643  14.642  70.679  1.00  0.00     0.000 HD 
HETATM   21  C   UNL     1      -8.244  15.906  69.566  1.00  0.00    -0.076 C  
HETATM   22  C   UNL     1      -7.950  18.221  68.481  1.00  0.00    -0.308 C  
HETATM   23  N   UNL     1      -6.606  17.888  69.108  1.00  0.00    -0.239 NA 
HETATM   24  O   UNL     1      -6.508  17.231  66.926  1.00  0.00    -0.154 OA 
HETATM   25  C   UNL     1      -5.149  15.968  68.404  1.00  0.00    -0.098 C  
HETATM   26  C   UNL     1      -6.070  17.125  68.192  1.00  0.00    -0.128 C  
ENDROOT
BRANCH  22  27
HETATM   27  C   UNL     1      -8.510  19.541  69.024  1.00  0.00    -0.182 C  
HETATM   28  O   UNL     1      -7.860  20.216  69.829  1.00  0.00     0.233 OA 
BRANCH  27  29
HETATM   29  C   UNL     1      -9.888  20.005  68.560  1.00  0.00    -0.299 C  
BRANCH  29  30
HETATM   30  O   UNL     1      -9.800  20.882  67.430  1.00  0.00    -0.444 OA 
BRANCH  30  31
HETATM   31  C   UNL     1     -10.338  20.358  66.294  1.00  0.00    -0.123 C  
HETATM   32  C   UNL     1     -11.453  19.405  66.617  1.00  0.00     0.614 C  
HETATM   33  O   UNL     1      -9.950  20.620  65.156  1.00  0.00     0.303 OA 
ENDBRANCH  30  31
ENDBRANCH  29  30
ENDBRANCH  27  29
ENDBRANCH  22  27
TORSDOF 4
ENDMDL
MODEL       91
REMARK 921   NORMALIZED FREE ENERGY PREDICTED BY IDOCK:   -2.18 KCAL/MOL
REMARK 922        TOTAL FREE ENERGY PREDICTED BY IDOCK:   -2.94 KCAL/MOL
REMARK 923 INTER-LIGAND FREE ENERGY PREDICTED BY IDOCK:   -2.78 KCAL/MOL
REMARK 924 INTRA-LIGAND FREE ENERGY PREDICTED BY IDOCK:   -0.16 KCAL/MOL
REMARK 927      BINDING AFFINITY PREDICTED BY RF-SCORE:    0.00 PKD
ROOT
HETATM    1  C   UNL     1     -10.068  19.551  68.667  1.00  0.00    -0.442 C  
HETATM    2  C   UNL     1     -10.411  18.210  69.193  1.00  0.00    -0.026 C  
HETATM    3  C   UNL     1      -9.552  17.254  68.364  1.00  0.00    -0.285 C  
HETATM    4  C   UNL     1     -10.167  16.199  67.464  1.00  0.00    -0.267 C  
HETATM    5  C   UNL     1     -11.494  15.701  68.056  1.00  0.00    -0.294 C  
HETATM    6  C   UNL     1     -12.023  14.504  67.309  1.00  0.00    -0.375 C  
HETATM    7  C   UNL     1     -10.979  13.381  67.228  1.00  0.00    -0.286 C  
HETATM    8  C   UNL     1     -11.439  12.149  66.933  1.00  0.00    -0.414 C  
HETATM    9  C   UNL     1     -11.932  12.235  65.510  1.00  0.00    -0.321 C  
HETATM   10  C   UNL     1     -11.157  13.163  64.589  1.00  0.00    -0.366 C  
HETATM   11  O   UNL     1     -12.901  11.591  65.133  1.00  0.00     0.883 OA 
HETATM   12  C   UNL     1     -10.124  13.924  65.046  1.00  0.00    -0.319 C  
HETATM   13  C   UNL     1      -9.663  13.811  66.520  1.00  0.00    -0.301 C  
HETATM   14  C   UNL     1      -9.138  15.028  67.399  1.00  0.00    -0.194 C  
HETATM   15  C   UNL     1      -8.552  12.728  66.469  1.00  0.00     0.078 C  
HETATM   16  C   UNL     1      -7.634  15.499  67.293  1.00  0.00    -0.218 C  
HETATM   17  C   UNL     1      -7.248  16.891  68.046  1.00  0.00    -0.168 C  
HETATM   18  O   UNL     1      -7.223  15.475  65.929  1.00  0.00     1.050 OA 
HETATM   19  C   UNL     1      -8.326  17.990  67.696  1.00  0.00    -0.238 C  
HETATM   20  H   UNL     1      -6.318  15.758  65.865  1.00  0.00     0.000 HD 
HETATM   21  C   UNL     1      -8.004  18.138  66.160  1.00  0.00    -0.222 C  
HETATM   22  C   UNL     1      -8.589  19.495  68.267  1.00  0.00    -0.340 C  
HETATM   23  N   UNL     1      -8.645  20.483  67.113  1.00  0.00    -0.315 NA 
HETATM   24  O   UNL     1     -10.767  19.711  67.438  1.00  0.00    -0.463 OA 
HETATM   25  C   UNL     1     -10.273  20.346  65.206  1.00  0.00     0.344 C  
HETATM   26  C   UNL     1      -9.840  20.260  66.633  1.00  0.00    -0.426 C  
ENDROOT
BRANCH  22  27
HETATM   27  C   UNL     1      -7.596  19.948  69.344  1.00  0.00     0.024 C  
HETATM   28  O   UNL     1      -7.999  20.450  70.399  1.00  0.00     0.811 OA 
BRANCH  27  29
HETATM   29  C   UNL     1      -6.101  19.779  69.089  1.00  0.00    -0.282 C  
BRANCH  29  30
HETATM   30  O   UNL     1      -5.342  19.874  70.300  1.00  0.00    -0.207 OA 
BRANCH  30  31
HETATM   31  C   UNL     1      -5.449  18.774  71.096  1.00  0.00    -0.193 C  
HETATM   32  C   UNL     1      -5.628  19.165  72.535  1.00  0.00     1.245 C  
HETATM   33  O   UNL     1      -5.389  17.614  70.689  1.00  0.00    -0.257 OA 
ENDBRANCH  30  31
ENDBRANCH  29  30
ENDBRANCH  27  29
ENDBRANCH  22  27
TORSDOF 4
ENDMDL
MODEL       92
REMARK 921   NORMALIZED FREE ENERGY PREDICTED BY IDOCK:   -1.78 KCAL/MOL
REMARK 922        TOTAL FREE ENERGY PREDICTED BY IDOCK:   -2.45 KCAL/MOL
REMARK 923 INTER-LIGAND FREE ENERGY PREDICTED BY IDOCK:   -3.42 KCAL/MOL
REMARK 924 INTRA-LIGAND FREE ENERGY PREDICTED BY IDOCK:    0.97 KCAL/MOL
REMARK 927      BINDING AFFINITY PREDICTED BY RF-SCORE:    0.00 PKD
ROOT
HETATM    1  C   UNL     1      -7.589  10.344  67.884  1.00  0.00    -0.088 C  
HETATM    2  C   UNL     1      -6.878  11.368  68.683  1.00  0.00    -0.078 C  
HETATM    3  C   UNL     1      -7.845  12.552  68.714  1.00  0.00     0.031 C  
HETATM    4  C   UNL     1      -7.485  13.897  68.113  1.00  0.00    -0.126 C  
HETATM    5  C   UNL     1      -5.976  14.151  68.239  1.00  0.00    -0.119 C  
HETATM    6  C   UNL     1      -5.615  15.562  67.854  1.00  0.00    -0.151 C  
HETATM    7  C   UNL     1      -6.433  16.593  68.645  1.00  0.00    -0.155 C  
HETATM    8  C   UNL     1      -5.953  17.851  68.675  1.00  0.00    -0.187 C  
HETATM    9  C   UNL     1      -6.073  18.360  67.260  1.00  0.00    -0.161 C  
HETATM   10  C   UNL     1      -7.271  17.862  66.470  1.00  0.00    -0.273 C  
HETATM   11  O   UNL     1      -5.247  19.130  66.789  1.00  0.00    -0.158 OA 
HETATM   12  C   UNL     1      -8.141  16.952  66.990  1.00  0.00    -0.228 C  
HETATM   13  C   UNL     1      -7.969  16.447  68.444  1.00  0.00    -0.178 C  
HETATM   14  C   UNL     1      -8.277  14.965  68.930  1.00  0.00    -0.171 C  
HETATM   15  C   UNL     1      -8.842  17.427  69.272  1.00  0.00     0.212 C  
HETATM   16  C   UNL     1      -9.754  14.534  69.289  1.00  0.00     0.017 C  
HETATM   17  C   UNL     1     -10.011  12.947  69.546  1.00  0.00     1.038 C  
HETATM   18  O   UNL     1     -10.657  15.096  68.340  1.00  0.00    -0.230 OA 
HETATM   19  C   UNL     1      -9.327  12.113  68.393  1.00  0.00    -0.170 C  
HETATM   20  H   UNL     1     -11.546  14.837  68.557  1.00  0.00     0.000 HD 
HETATM   21  C   UNL     1     -10.241  12.588  67.201  1.00  0.00    -0.225 C  
HETATM   22  C   UNL     1      -9.082  10.514  68.188  1.00  0.00    -0.141 C  
HETATM   23  N   UNL     1      -9.624  10.077  66.837  1.00  0.00    -0.169 NA 
HETATM   24  O   UNL     1      -7.457  10.713  66.516  1.00  0.00    -0.120 OA 
HETATM   25  C   UNL     1      -8.870  11.019  64.635  1.00  0.00    -0.022 C  
HETATM   26  C   UNL     1      -8.693  10.509  66.027  1.00  0.00    -0.164 C  
ENDROOT
BRANCH  22  27
HETATM   27  C   UNL     1      -9.629   9.637  69.321  1.00  0.00    -0.185 C  
HETATM   28  O   UNL     1      -9.029   9.556  70.399  1.00  0.00    -0.237 OA 
BRANCH  27  29
HETATM   29  C   UNL     1     -10.921   8.858  69.094  1.00  0.00     0.024 C  
BRANCH  29  30
HETATM   30  O   UNL     1     -10.840   7.529  69.625  1.00  0.00    -0.243 OA 
BRANCH  30  31
HETATM   31  C   UNL     1     -10.825   7.489  70.986  1.00  0.00    -0.235 C  
HETATM   32  C   UNL     1     -12.216   7.353  71.536  1.00  0.00    -0.368 C  
HETATM   33  O   UNL     1      -9.807   7.571  71.672  1.00  0.00    -0.162 OA 
ENDBRANCH  30  31
ENDBRANCH  29  30
ENDBRANCH  27  29
ENDBRANCH  22  27
TORSDOF 4
ENDMDL
MODEL       93
REMARK 921   NORMALIZED FREE ENERGY PREDICTED BY IDOCK:   -1.14 KCAL/MOL
REMARK 922        TOTAL FREE ENERGY PREDICTED BY IDOCK:   -1.66 KCAL/MOL
REMARK 923 INTER-LIGAND FREE ENERGY PREDICTED BY IDOCK:   -1.25 KCAL/MOL
REMARK 924 INTRA-LIGAND FREE ENERGY PREDICTED BY IDOCK:   -0.41 KCAL/MOL
REMARK 927      BINDING AFFINITY PREDICTED BY RF-SCORE:    0.00 PKD
ROOT
HETATM    1  C   UNL     1     -10.115   4.049  68.097  1.00  0.00     0.270 C  
HETATM    2  C   UNL     1     -10.271   5.465  68.501  1.00  0.00    -0.237 C  
HETATM    3  C   UNL     1      -8.879   6.065  68.299  1.00  0.00    -0.111 C  
HETATM    4  C   UNL     1      -8.078   6.638  69.452  1.00  0.00    -0.119 C  
HETATM    5  C   UNL     1      -9.017   7.246  70.504  1.00  0.00    -0.154 C  
HETATM    6  C   UNL     1      -8.255   8.015  71.552  1.00  0.00    -0.135 C  
HETATM    7  C   UNL     1      -7.340   9.076  70.924  1.00  0.00    -0.119 C  
HETATM    8  C   UNL     1      -6.908  10.060  71.737  1.00  0.00     1.171 C  
HETATM    9  C   UNL     1      -5.989   9.387  72.727  1.00  0.00     0.225 C  
HETATM   10  C   UNL     1      -5.174   8.220  72.196  1.00  0.00    -0.036 C  
HETATM   11  O   UNL     1      -5.916   9.769  73.887  1.00  0.00    -0.303 OA 
HETATM   12  C   UNL     1      -5.322   7.768  70.920  1.00  0.00    -0.026 C  
HETATM   13  C   UNL     1      -6.288   8.482  69.944  1.00  0.00    -0.034 C  
HETATM   14  C   UNL     1      -7.168   7.748  68.841  1.00  0.00    -0.081 C  
HETATM   15  C   UNL     1      -5.381   9.522  69.235  1.00  0.00    -0.036 C  
HETATM   16  C   UNL     1      -6.539   7.366  67.443  1.00  0.00    -0.061 C  
HETATM   17  C   UNL     1      -7.435   6.413  66.473  1.00  0.00    -0.086 C  
HETATM   18  O   UNL     1      -5.215   6.874  67.635  1.00  0.00    -0.011 OA 
HETATM   19  C   UNL     1      -8.002   5.201  67.311  1.00  0.00    -0.100 C  
HETATM   20  H   UNL     1      -4.837   6.645  66.794  1.00  0.00     0.000 HD 
HETATM   21  C   UNL     1      -6.634   4.478  67.611  1.00  0.00    -0.047 C  
HETATM   22  C   UNL     1      -9.084   4.032  66.962  1.00  0.00    -0.149 C  
HETATM   23  N   UNL     1      -8.480   2.666  67.247  1.00  0.00    -0.091 NA 
HETATM   24  O   UNL     1      -9.476   3.373  69.173  1.00  0.00    -0.170 OA 
HETATM   25  C   UNL     1      -7.613   1.938  69.488  1.00  0.00    -0.043 C  
HETATM   26  C   UNL     1      -8.563   2.608  68.550  1.00  0.00    -0.079 C  
ENDROOT
BRANCH  22  27
HETATM   27  C   UNL     1      -9.662   4.105  65.544  1.00  0.00    -0.202 C  
HETATM   28  O   UNL     1     -10.774   4.605  65.343  1.00  0.00    -0.241 OA 
BRANCH  27  29
HETATM   29  C   UNL     1      -8.847   3.540  64.384  1.00  0.00    -0.109 C  
BRANCH  29  30
HETATM   30  O   UNL     1      -7.503   4.039  64.388  1.00  0.00    -0.069 OA 
BRANCH  30  31
HETATM   31  C   UNL     1      -6.567   3.075  64.169  1.00  0.00    -0.032 C  
HETATM   32  C   UNL     1      -5.402   3.621  63.395  1.00  0.00    -0.009 C  
HETATM   33  O   UNL     1      -6.671   1.907  64.543  1.00  0.00    -0.029 OA 
ENDBRANCH  30  31
ENDBRANCH  29  30
ENDBRANCH  27  29
ENDBRANCH  22  27
TORSDOF 4
ENDMDL
MODEL       94
REMARK 921   NORMALIZED FREE ENERGY PREDICTED BY IDOCK:   -0.37 KCAL/MOL
REMARK 922        TOTAL FREE ENERGY PREDICTED BY IDOCK:   -0.71 KCAL/MOL
REMARK 923 INTER-LIGAND FREE ENERGY PREDICTED BY IDOCK:   -2.69 KCAL/MOL
REMARK 924 INTRA-LIGAND FREE ENERGY PREDICTED BY IDOCK:    1.98 KCAL/MOL
REMARK 927      BINDING AFFINITY PREDICTED BY RF-SCORE:    0.00 PKD
ROOT
HETATM    1  C   UNL     1      -8.927  15.208  66.502  1.00  0.00    -0.291 C  
HETATM    2  C   UNL     1      -9.439  13.970  65.871  1.00  0.00    -0.106 C  
HETATM    3  C   UNL     1      -9.187  12.886  66.920  1.00  0.00    -0.234 C  
HETATM    4  C   UNL     1      -8.267  11.710  66.653  1.00  0.00    -0.140 C  
HETATM    5  C   UNL     1      -8.309  11.327  65.166  1.00  0.00     0.305 C  
HETATM    6  C   UNL     1      -7.582  10.034  64.904  1.00  0.00    -0.139 C  
HETATM    7  C   UNL     1      -8.101   8.900  65.799  1.00  0.00    -0.107 C  
HETATM    8  C   UNL     1      -7.814   7.643  65.410  1.00  0.00    -0.115 C  
HETATM    9  C   UNL     1      -6.318   7.510  65.558  1.00  0.00    -0.041 C  
HETATM   10  C   UNL     1      -5.690   8.272  66.712  1.00  0.00    -0.044 C  
HETATM   11  O   UNL     1      -5.661   6.825  64.785  1.00  0.00    -0.030 OA 
HETATM   12  C   UNL     1      -6.430   9.084  67.518  1.00  0.00    -0.064 C  
HETATM   13  C   UNL     1      -7.961   9.199  67.319  1.00  0.00    -0.102 C  
HETATM   14  C   UNL     1      -8.803  10.533  67.524  1.00  0.00    -0.131 C  
HETATM   15  C   UNL     1      -8.530   8.108  68.265  1.00  0.00    -0.130 C  
HETATM   16  C   UNL     1      -9.275  10.963  68.969  1.00  0.00    -0.115 C  
HETATM   17  C   UNL     1      -9.921  12.452  69.114  1.00  0.00     0.339 C  
HETATM   18  O   UNL     1      -8.227  10.720  69.904  1.00  0.00    -0.330 OA 
HETATM   19  C   UNL     1      -9.002  13.494  68.365  1.00  0.00    -0.146 C  
HETATM   20  H   UNL     1      -8.511  10.979  70.773  1.00  0.00     0.000 HD 
HETATM   21  C   UNL     1      -7.740  13.396  69.303  1.00  0.00     0.385 C  
HETATM   22  C   UNL     1      -9.197  15.073  68.005  1.00  0.00    -0.183 C  
HETATM   23  N   UNL     1      -8.002  15.869  68.507  1.00  0.00    -0.144 NA 
HETATM   24  O   UNL     1      -7.508  15.182  66.388  1.00  0.00     0.369 OA 
HETATM   25  C   UNL     1      -5.627  15.452  67.808  1.00  0.00    -0.127 C  
HETATM   26  C   UNL     1      -7.100  15.587  67.603  1.00  0.00    -0.174 C  
ENDROOT
BRANCH  22  27
HETATM   27  C   UNL     1     -10.518  15.678  68.495  1.00  0.00    -0.236 C  
HETATM   28  O   UNL     1     -10.662  16.000  69.679  1.00  0.00    -0.265 OA 
BRANCH  27  29
HETATM   29  C   UNL     1     -11.658  15.868  67.498  1.00  0.00     0.097 C  
BRANCH  29  30
HETATM   30  O   UNL     1     -11.572  14.940  66.410  1.00  0.00    -0.330 OA 
BRANCH  30  31
HETATM   31  C   UNL     1     -12.404  13.870  66.544  1.00  0.00    -0.404 C  
HETATM   32  C   UNL     1     -12.814  13.336  65.201  1.00  0.00    -0.376 C  
HETATM   33  O   UNL     1     -12.781  13.413  67.622  1.00  0.00     0.326 OA 
ENDBRANCH  30  31
ENDBRANCH  29  30
ENDBRANCH  27  29
ENDBRANCH  22  27
TORSDOF 4
ENDMDL
MODEL       95
REMARK 921   NORMALIZED FREE ENERGY PREDICTED BY IDOCK:    1.21 KCAL/MOL
REMARK 922        TOTAL FREE ENERGY PREDICTED BY IDOCK:    1.25 KCAL/MOL
REMARK 923 INTER-LIGAND FREE ENERGY PREDICTED BY IDOCK:    1.08 KCAL/MOL
REMARK 924 INTRA-LIGAND FREE ENERGY PREDICTED BY IDOCK:    0.16 KCAL/MOL
REMARK 927      BINDING AFFINITY PREDICTED BY RF-SCORE:    0.00 PKD
ROOT
HETATM    1  C   UNL     1      -8.036  11.141  66.714  1.00  0.00    -0.156 C  
HETATM    2  C   UNL     1      -7.524  12.432  66.200  1.00  0.00     1.277 C  
HETATM    3  C   UNL     1      -7.686  13.392  67.379  1.00  0.00    -0.146 C  
HETATM    4  C   UNL     1      -8.584  14.611  67.303  1.00  0.00    -0.231 C  
HETATM    5  C   UNL     1      -8.614  15.163  65.870  1.00  0.00     0.669 C  
HETATM    6  C   UNL     1      -9.317  16.494  65.801  1.00  0.00    -0.110 C  
HETATM    7  C   UNL     1      -8.716  17.505  66.788  1.00  0.00    -0.278 C  
HETATM    8  C   UNL     1      -8.988  18.805  66.563  1.00  0.00    -0.320 C  
HETATM    9  C   UNL     1     -10.469  18.953  66.813  1.00  0.00    -0.428 C  
HETATM   10  C   UNL     1     -11.054  18.076  67.907  1.00  0.00     0.098 C  
HETATM   11  O   UNL     1     -11.147  19.737  66.164  1.00  0.00    -0.260 OA 
HETATM   12  C   UNL     1     -10.294  17.160  68.570  1.00  0.00    -0.364 C  
HETATM   13  C   UNL     1      -8.780  17.035  68.270  1.00  0.00    -0.241 C  
HETATM   14  C   UNL     1      -7.967  15.668  68.271  1.00  0.00    -0.129 C  
HETATM   15  C   UNL     1      -8.128  17.995  69.299  1.00  0.00     0.211 C  
HETATM   16  C   UNL     1      -7.428  15.061  69.627  1.00  0.00    -0.161 C  
HETATM   17  C   UNL     1      -6.819  13.552  69.561  1.00  0.00     0.048 C  
HETATM   18  O   UNL     1      -8.415  15.218  70.643  1.00  0.00     0.459 OA 
HETATM   19  C   UNL     1      -7.807  12.624  68.753  1.00  0.00     0.039 C  
HETATM   20  H   UNL     1      -8.091  14.853  71.458  1.00  0.00     0.000 HD 
HETATM   21  C   UNL     1      -9.012  12.642  69.769  1.00  0.00     2.494 C  
HETATM   22  C   UNL     1      -7.678  11.094  68.204  1.00  0.00    -0.107 C  
HETATM   23  N   UNL     1      -8.866  10.273  68.680  1.00  0.00    -0.130 NA 
HETATM   24  O   UNL     1      -9.457  11.212  66.687  1.00  0.00    -0.177 OA 
HETATM   25  C   UNL     1     -11.264  10.820  68.174  1.00  0.00    -0.365 C  
HETATM   26  C   UNL     1      -9.808  10.678  67.869  1.00  0.00    -0.161 C  
ENDROOT
BRANCH  22  27
HETATM   27  C   UNL     1      -6.351  10.407  68.543  1.00  0.00    -0.051 C  
HETATM   28  O   UNL     1      -5.341  11.076  68.790  1.00  0.00    -0.041 OA 
BRANCH  27  29
HETATM   29  C   UNL     1      -6.291   8.883  68.561  1.00  0.00    -0.054 C  
BRANCH  29  30
HETATM   30  O   UNL     1      -7.032   8.335  69.658  1.00  0.00    -0.044 OA 
BRANCH  30  31
HETATM   31  C   UNL     1      -7.223   6.990  69.566  1.00  0.00    -0.080 C  
HETATM   32  C   UNL     1      -8.541   6.591  70.167  1.00  0.00    -0.140 C  
HETATM   33  O   UNL     1      -6.415   6.205  69.072  1.00  0.00    -0.039 OA 
ENDBRANCH  30  31
ENDBRANCH  29  30
ENDBRANCH  27  29
ENDBRANCH  22  27
TORSDOF 4
ENDMDL
MODEL       96
REMARK 921   NORMALIZED FREE ENERGY PREDICTED BY IDOCK:    2.72 KCAL/MOL
REMARK 922        TOTAL FREE ENERGY PREDICTED BY IDOCK:    3.11 KCAL/MOL
REMARK 923 INTER-LIGAND FREE ENERGY PREDICTED BY IDOCK:    2.48 KCAL/MOL
REMARK 924 INTRA-LIGAND FREE ENERGY PREDICTED BY IDOCK:    0.63 KCAL/MOL
REMARK 927      BINDING AFFINITY PREDICTED BY RF-SCORE:    0.00 PKD
ROOT
HETATM    1  C   UNL     1      -9.152  12.663  64.647  1.00  0.00     1.131 C  
HETATM    2  C   UNL     1      -8.774  13.127  66.001  1.00  0.00     0.644 C  
HETATM    3  C   UNL     1      -9.537  12.192  66.940  1.00  0.00    -0.210 C  
HETATM    4  C   UNL     1     -10.585  12.707  67.908  1.00  0.00    -0.232 C  
HETATM    5  C   UNL     1     -10.224  14.123  68.381  1.00  0.00    -0.247 C  
HETATM    6  C   UNL     1     -11.120  14.579  69.504  1.00  0.00    -0.285 C  
HETATM    7  C   UNL     1     -11.129  13.576  70.665  1.00  0.00     1.149 C  
HETATM    8  C   UNL     1     -11.571  14.031  71.854  1.00  0.00     1.036 C  
HETATM    9  C   UNL     1     -13.040  14.309  71.656  1.00  0.00    -0.346 C  
HETATM   10  C   UNL     1     -13.775  13.376  70.708  1.00  0.00     0.729 C  
HETATM   11  O   UNL     1     -13.595  15.235  72.231  1.00  0.00    -0.396 OA 
HETATM   12  C   UNL     1     -13.124  12.394  70.025  1.00  0.00     1.002 C  
HETATM   13  C   UNL     1     -11.610  12.156  70.251  1.00  0.00    -0.105 C  
HETATM   14  C   UNL     1     -10.583  11.721  69.117  1.00  0.00    -0.109 C  
HETATM   15  C   UNL     1     -11.578  11.089  71.378  1.00  0.00     0.705 C  
HETATM   16  C   UNL     1     -10.441  10.202  68.709  1.00  0.00    -0.204 C  
HETATM   17  C   UNL     1      -9.547   9.881  67.386  1.00  0.00    -0.185 C  
HETATM   18  O   UNL     1     -11.732   9.599  68.666  1.00  0.00    -0.280 OA 
HETATM   19  C   UNL     1      -9.970  10.856  66.220  1.00  0.00    -0.274 C  
HETATM   20  H   UNL     1     -11.646   8.685  68.420  1.00  0.00     0.000 HD 
HETATM   21  C   UNL     1     -11.430  10.309  65.990  1.00  0.00     1.412 C  
HETATM   22  C   UNL     1      -9.340  11.145  64.743  1.00  0.00    -0.185 C  
HETATM   23  N   UNL     1     -10.419  10.998  63.683  1.00  0.00    -0.359 NA 
HETATM   24  O   UNL     1     -10.454  13.170  64.377  1.00  0.00    -0.393 OA 
HETATM   25  C   UNL     1     -12.544  12.335  63.626  1.00  0.00    -0.599 C  
HETATM   26  C   UNL     1     -11.079  12.118  63.821  1.00  0.00    -0.436 C  
ENDROOT
BRANCH  22  27
HETATM   27  C   UNL     1      -8.104  10.304  64.405  1.00  0.00    -0.149 C  
HETATM   28  O   UNL     1      -8.179   9.371  63.599  1.00  0.00    -0.147 OA 
BRANCH  27  29
HETATM   29  C   UNL     1      -6.778  10.631  65.087  1.00  0.00     0.051 C  
BRANCH  29  30
HETATM   30  O   UNL     1      -6.690  10.037  66.388  1.00  0.00    -0.081 OA 
BRANCH  30  31
HETATM   31  C   UNL     1      -6.458   8.696  66.357  1.00  0.00    -0.062 C  
HETATM   32  C   UNL     1      -5.306   8.327  67.248  1.00  0.00    -0.037 C  
HETATM   33  O   UNL     1      -7.097   7.895  65.675  1.00  0.00    -0.055 OA 
ENDBRANCH  30  31
ENDBRANCH  29  30
ENDBRANCH  27  29
ENDBRANCH  22  27
TORSDOF 4
ENDMDL
MODEL       97
REMARK 921   NORMALIZED FREE ENERGY PREDICTED BY IDOCK:    3.15 KCAL/MOL
REMARK 922        TOTAL FREE ENERGY PREDICTED BY IDOCK:    3.64 KCAL/MOL
REMARK 923 INTER-LIGAND FREE ENERGY PREDICTED BY IDOCK:    2.31 KCAL/MOL
REMARK 924 INTRA-LIGAND FREE ENERGY PREDICTED BY IDOCK:    1.33 KCAL/MOL
REMARK 927      BINDING AFFINITY PREDICTED BY RF-SCORE:    0.00 PKD
ROOT
HETATM    1  C   UNL     1      -7.199  11.482  66.588  1.00  0.00    -0.068 C  
HETATM    2  C   UNL     1      -6.274  12.612  66.834  1.00  0.00     0.421 C  
HETATM    3  C   UNL     1      -7.051  13.531  67.777  1.00  0.00    -0.163 C  
HETATM    4  C   UNL     1      -7.429  14.947  67.385  1.00  0.00    -0.228 C  
HETATM    5  C   UNL     1      -6.364  15.546  66.455  1.00  0.00     1.733 C  
HETATM    6  C   UNL     1      -6.592  17.017  66.223  1.00  0.00    -0.104 C  
HETATM    7  C   UNL     1      -6.694  17.791  67.545  1.00  0.00    -0.185 C  
HETATM    8  C   UNL     1      -6.517  19.124  67.479  1.00  0.00    -0.205 C  
HETATM    9  C   UNL     1      -7.702  19.648  66.707  1.00  0.00    -0.266 C  
HETATM   10  C   UNL     1      -9.015  18.913  66.917  1.00  0.00    -0.306 C  
HETATM   11  O   UNL     1      -7.598  20.610  65.958  1.00  0.00    -0.063 OA 
HETATM   12  C   UNL     1      -9.094  17.802  67.701  1.00  0.00    -0.246 C  
HETATM   13  C   UNL     1      -7.846  17.294  68.464  1.00  0.00    -0.266 C  
HETATM   14  C   UNL     1      -7.500  15.761  68.714  1.00  0.00    -0.158 C  
HETATM   15  C   UNL     1      -7.950  18.004  69.840  1.00  0.00     1.436 C  
HETATM   16  C   UNL     1      -8.165  14.979  69.914  1.00  0.00     0.214 C  
HETATM   17  C   UNL     1      -7.938  13.367  69.951  1.00  0.00     1.733 C  
HETATM   18  O   UNL     1      -9.537  15.349  70.021  1.00  0.00    -0.422 OA 
HETATM   19  C   UNL     1      -8.217  12.767  68.518  1.00  0.00    -0.068 C  
HETATM   20  H   UNL     1      -9.936  14.878  70.743  1.00  0.00     0.000 HD 
HETATM   21  C   UNL     1      -9.764  13.060  68.450  1.00  0.00    -0.192 C  
HETATM   22  C   UNL     1      -7.993  11.281  67.884  1.00  0.00    -0.118 C  
HETATM   23  N   UNL     1      -9.288  10.784  67.262  1.00  0.00    -0.151 NA 
HETATM   24  O   UNL     1      -8.163  11.928  65.641  1.00  0.00     0.409 OA 
HETATM   25  C   UNL     1     -10.525  11.967  65.424  1.00  0.00    -0.312 C  
HETATM   26  C   UNL     1      -9.318  11.457  66.141  1.00  0.00    -0.215 C  
ENDROOT
BRANCH  22  27
HETATM   27  C   UNL     1      -7.411  10.254  68.862  1.00  0.00    -0.094 C  
HETATM   28  O   UNL     1      -7.056   9.139  68.466  1.00  0.00    -0.070 OA 
BRANCH  27  29
HETATM   29  C   UNL     1      -7.286  10.627  70.336  1.00  0.00     0.562 C  
BRANCH  29  30
HETATM   30  O   UNL     1      -6.194   9.945  70.966  1.00  0.00    -0.166 OA 
BRANCH  30  31
HETATM   31  C   UNL     1      -6.381   8.601  71.069  1.00  0.00    -0.048 C  
HETATM   32  C   UNL     1      -5.312   7.850  70.327  1.00  0.00    -0.023 C  
HETATM   33  O   UNL     1      -7.313   8.073  71.675  1.00  0.00    -0.065 OA 
ENDBRANCH  30  31
ENDBRANCH  29  30
ENDBRANCH  27  29
ENDBRANCH  22  27
TORSDOF 4
ENDMDL
MODEL       98
REMARK 921   NORMALIZED FREE ENERGY PREDICTED BY IDOCK:    5.06 KCAL/MOL
REMARK 922        TOTAL FREE ENERGY PREDICTED BY IDOCK:    5.99 KCAL/MOL
REMARK 923 INTER-LIGAND FREE ENERGY PREDICTED BY IDOCK:    6.85 KCAL/MOL
REMARK 924 INTRA-LIGAND FREE ENERGY PREDICTED BY IDOCK:   -0.86 KCAL/MOL
REMARK 927      BINDING AFFINITY PREDICTED BY RF-SCORE:    0.00 PKD
ROOT
HETATM    1  C   UNL     1     -12.344   7.805  72.034  1.00  0.00    -0.294 C  
HETATM    2  C   UNL     1     -11.323   7.789  73.106  1.00  0.00    -0.197 C  
HETATM    3  C   UNL     1      -9.999   7.637  72.358  1.00  0.00    -0.256 C  
HETATM    4  C   UNL     1      -9.099   6.432  72.558  1.00  0.00    -0.136 C  
HETATM    5  C   UNL     1      -9.216   5.912  73.998  1.00  0.00    -0.129 C  
HETATM    6  C   UNL     1      -8.179   4.860  74.296  1.00  0.00    -0.099 C  
HETATM    7  C   UNL     1      -6.761   5.357  73.983  1.00  0.00    -0.076 C  
HETATM    8  C   UNL     1      -5.744   4.677  74.548  1.00  0.00    -0.028 C  
HETATM    9  C   UNL     1      -5.761   3.316  73.895  1.00  0.00     0.000 C  
HETATM   10  C   UNL     1      -6.181   3.281  72.436  1.00  0.00    -0.013 C  
HETATM   11  O   UNL     1      -5.451   2.309  74.517  1.00  0.00     0.000 OA 
HETATM   12  C   UNL     1      -6.587   4.404  71.782  1.00  0.00    -0.026 C  
HETATM   13  C   UNL     1      -6.566   5.777  72.498  1.00  0.00    -0.067 C  
HETATM   14  C   UNL     1      -7.644   6.926  72.283  1.00  0.00    -0.092 C  
HETATM   15  C   UNL     1      -5.166   6.345  72.148  1.00  0.00    -0.027 C  
HETATM   16  C   UNL     1      -7.521   7.917  71.059  1.00  0.00    -0.073 C  
HETATM   17  C   UNL     1      -8.788   8.902  70.785  1.00  0.00    -0.250 C  
HETATM   18  O   UNL     1      -7.122   7.191  69.899  1.00  0.00    -0.069 OA 
HETATM   19  C   UNL     1     -10.124   8.064  70.843  1.00  0.00    -0.211 C  
HETATM   20  H   UNL     1      -7.048   7.787  69.163  1.00  0.00     0.000 HD 
HETATM   21  C   UNL     1      -9.887   7.176  69.563  1.00  0.00    -0.162 C  
HETATM   22  C   UNL     1     -11.697   8.497  70.828  1.00  0.00    -0.205 C  
HETATM   23  N   UNL     1     -12.431   7.741  69.732  1.00  0.00     1.351 NA 
HETATM   24  O   UNL     1     -12.535   6.458  71.616  1.00  0.00    -0.285 OA 
HETATM   25  C   UNL     1     -12.566   5.239  69.581  1.00  0.00     8.596 C  
HETATM   26  C   UNL     1     -12.573   6.561  70.276  1.00  0.00     0.810 C  
ENDROOT
BRANCH  22  27
HETATM   27  C   UNL     1     -11.939  10.007  70.726  1.00  0.00    -0.335 C  
HETATM   28  O   UNL     1     -11.878  10.724  71.731  1.00  0.00     0.130 OA 
BRANCH  27  29
HETATM   29  C   UNL     1     -12.266  10.612  69.364  1.00  0.00    -0.102 C  
BRANCH  29  30
HETATM   30  O   UNL     1     -11.338  11.643  69.004  1.00  0.00    -0.229 OA 
BRANCH  30  31
HETATM   31  C   UNL     1     -10.252  11.181  68.324  1.00  0.00    -0.182 C  
HETATM   32  C   UNL     1     -10.658  10.197  67.264  1.00  0.00    -0.321 C  
HETATM   33  O   UNL     1      -9.091  11.515  68.559  1.00  0.00    -0.175 OA 
ENDBRANCH  30  31
ENDBRANCH  29  30
ENDBRANCH  27  29
ENDBRANCH  22  27
TORSDOF 4
ENDMDL
MODEL       99
REMARK 921   NORMALIZED FREE ENERGY PREDICTED BY IDOCK:    5.40 KCAL/MOL
REMARK 922        TOTAL FREE ENERGY PREDICTED BY IDOCK:    6.41 KCAL/MOL
REMARK 923 INTER-LIGAND FREE ENERGY PREDICTED BY IDOCK:    5.40 KCAL/MOL
REMARK 924 INTRA-LIGAND FREE ENERGY PREDICTED BY IDOCK:    1.01 KCAL/MOL
REMARK 927      BINDING AFFINITY PREDICTED BY RF-SCORE:    0.00 PKD
ROOT
HETATM    1  C   UNL     1     -10.705  13.724  65.813  1.00  0.00    -0.281 C  
HETATM    2  C   UNL     1      -9.453  14.309  66.343  1.00  0.00    -0.297 C  
HETATM    3  C   UNL     1      -9.859  15.711  66.797  1.00  0.00    -0.255 C  
HETATM    4  C   UNL     1      -9.261  16.960  66.178  1.00  0.00    -0.270 C  
HETATM    5  C   UNL     1      -7.811  16.698  65.745  1.00  0.00     0.615 C  
HETATM    6  C   UNL     1      -7.116  17.968  65.329  1.00  0.00     0.552 C  
HETATM    7  C   UNL     1      -7.198  19.043  66.422  1.00  0.00    -0.254 C  
HETATM    8  C   UNL     1      -6.317  20.058  66.339  1.00  0.00    -0.207 C  
HETATM    9  C   UNL     1      -6.707  20.827  65.101  1.00  0.00    -0.120 C  
HETATM   10  C   UNL     1      -8.193  20.883  64.789  1.00  0.00     1.708 C  
HETATM   11  O   UNL     1      -5.865  21.369  64.397  1.00  0.00    -0.188 OA 
HETATM   12  C   UNL     1      -9.107  20.216  65.547  1.00  0.00     0.388 C  
HETATM   13  C   UNL     1      -8.656  19.428  66.802  1.00  0.00    -0.336 C  
HETATM   14  C   UNL     1      -9.298  18.056  67.287  1.00  0.00    -0.256 C  
HETATM   15  C   UNL     1      -8.792  20.466  67.947  1.00  0.00    -0.177 C  
HETATM   16  C   UNL     1     -10.623  18.055  68.148  1.00  0.00    -0.319 C  
HETATM   17  C   UNL     1     -11.332  16.611  68.397  1.00  0.00    -0.142 C  
HETATM   18  O   UNL     1     -11.523  19.035  67.637  1.00  0.00     0.075 OA 
HETATM   19  C   UNL     1     -11.417  15.828  67.029  1.00  0.00     0.125 C  
HETATM   20  H   UNL     1     -12.319  19.034  68.155  1.00  0.00     0.000 HD 
HETATM   21  C   UNL     1     -12.438  16.774  66.292  1.00  0.00     4.286 C  
HETATM   22  C   UNL     1     -11.846  14.297  66.662  1.00  0.00    -0.421 C  
HETATM   23  N   UNL     1     -12.923  14.307  65.589  1.00  0.00    -0.515 NA 
HETATM   24  O   UNL     1     -10.910  14.274  64.517  1.00  0.00    -0.381 OA 
HETATM   25  C   UNL     1     -12.655  15.345  63.318  1.00  0.00     2.027 C  
HETATM   26  C   UNL     1     -12.223  14.562  64.515  1.00  0.00    -0.465 C  
ENDROOT
BRANCH  22  27
HETATM   27  C   UNL     1     -12.263  13.448  67.868  1.00  0.00    -0.110 C  
HETATM   28  O   UNL     1     -11.897  12.272  67.965  1.00  0.00    -0.349 OA 
BRANCH  27  29
HETATM   29  C   UNL     1     -13.146  14.075  68.943  1.00  0.00     2.035 C  
BRANCH  29  30
HETATM   30  O   UNL     1     -12.864  13.539  70.241  1.00  0.00    -0.120 OA 
BRANCH  30  31
HETATM   31  C   UNL     1     -12.543  14.489  71.162  1.00  0.00    -0.335 C  
HETATM   32  C   UNL     1     -12.409  15.839  70.518  1.00  0.00    -0.388 C  
HETATM   33  O   UNL     1     -12.368  14.266  72.359  1.00  0.00    -0.222 OA 
ENDBRANCH  30  31
ENDBRANCH  29  30
ENDBRANCH  27  29
ENDBRANCH  22  27
TORSDOF 4
ENDMDL
MODEL      100
REMARK 921   NORMALIZED FREE ENERGY PREDICTED BY IDOCK:    5.56 KCAL/MOL
REMARK 922        TOTAL FREE ENERGY PREDICTED BY IDOCK:    6.61 KCAL/MOL
REMARK 923 INTER-LIGAND FREE ENERGY PREDICTED BY IDOCK:   -1.48 KCAL/MOL
REMARK 924 INTRA-LIGAND FREE ENERGY PREDICTED BY IDOCK:    8.09 KCAL/MOL
REMARK 927      BINDING AFFINITY PREDICTED BY RF-SCORE:    0.00 PKD
ROOT
HETATM    1  C   UNL     1      -7.069  17.312  67.371  1.00  0.00    -0.161 C  
HETATM    2  C   UNL     1      -8.037  17.223  66.254  1.00  0.00    -0.315 C  
HETATM    3  C   UNL     1      -9.231  16.481  66.854  1.00  0.00    -0.244 C  
HETATM    4  C   UNL     1      -9.688  15.135  66.325  1.00  0.00    -0.315 C  
HETATM    5  C   UNL     1      -9.419  15.036  64.816  1.00  0.00     1.340 C  
HETATM    6  C   UNL     1     -10.054  13.809  64.217  1.00  0.00     0.417 C  
HETATM    7  C   UNL     1     -11.555  13.735  64.533  1.00  0.00    -0.413 C  
HETATM    8  C   UNL     1     -12.296  12.918  63.760  1.00  0.00    -0.500 C  
HETATM    9  C   UNL     1     -11.829  11.522  64.088  1.00  0.00    -0.043 C  
HETATM   10  C   UNL     1     -11.408  11.279  65.527  1.00  0.00     0.026 C  
HETATM   11  O   UNL     1     -11.795  10.646  63.234  1.00  0.00     1.475 OA 
HETATM   12  C   UNL     1     -11.387  12.285  66.445  1.00  0.00    -0.405 C  
HETATM   13  C   UNL     1     -11.864  13.706  66.058  1.00  0.00    -0.415 C  
HETATM   14  C   UNL     1     -11.221  15.056  66.602  1.00  0.00    -0.311 C  
HETATM   15  C   UNL     1     -13.370  13.695  66.429  1.00  0.00     1.871 C  
HETATM   16  C   UNL     1     -11.652  15.635  68.007  1.00  0.00    -0.239 C  
HETATM   17  C   UNL     1     -10.777  16.881  68.584  1.00  0.00    -0.345 C  
HETATM   18  O   UNL     1     -11.781  14.567  68.942  1.00  0.00    -0.287 OA 
HETATM   19  C   UNL     1      -9.240  16.555  68.431  1.00  0.00    -0.222 C  
HETATM   20  H   UNL     1     -12.040  14.916  69.787  1.00  0.00     0.000 HD 
HETATM   21  C   UNL     1      -9.162  15.362  69.458  1.00  0.00    -0.240 C  
HETATM   22  C   UNL     1      -7.897  17.454  68.653  1.00  0.00    -0.274 C  
HETATM   23  N   UNL     1      -6.946  16.737  69.598  1.00  0.00    -0.085 NA 
HETATM   24  O   UNL     1      -6.443  16.039  67.486  1.00  0.00    -0.149 OA 
HETATM   25  C   UNL     1      -5.995  14.449  69.189  1.00  0.00    -0.091 C  
HETATM   26  C   UNL     1      -6.429  15.828  68.813  1.00  0.00    -0.111 C  
ENDROOT
BRANCH  22  27
HETATM   27  C   UNL     1      -8.163  18.892  69.111  1.00  0.00    -0.046 C  
HETATM   28  O   UNL     1      -9.298  19.375  69.037  1.00  0.00    -0.373 OA 
BRANCH  27  29
HETATM   29  C   UNL     1      -7.003  19.722  69.651  1.00  0.00    -0.216 C  
BRANCH  29  30
HETATM   30  O   UNL     1      -6.226  20.300  68.595  1.00  0.00    -0.277 OA 
BRANCH  30  31
HETATM   31  C   UNL     1      -5.824  19.396  67.660  1.00  0.00    -0.195 C  
HETATM   32  C   UNL     1      -5.141  18.223  68.305  1.00  0.00    -0.167 C  
HETATM   33  O   UNL     1      -5.985  19.530  66.448  1.00  0.00    -0.168 OA 
ENDBRANCH  30  31
ENDBRANCH  29  30
ENDBRANCH  27  29
ENDBRANCH  22  27
TORSDOF 4
ENDMDL
MODEL      101
REMARK 921   NORMALIZED FREE ENERGY PREDICTED BY IDOCK:    8.00 KCAL/MOL
REMARK 922        TOTAL FREE ENERGY PREDICTED BY IDOCK:    9.62 KCAL/MOL
REMARK 923 INTER-LIGAND FREE ENERGY PREDICTED BY IDOCK:    9.78 KCAL/MOL
REMARK 924 INTRA-LIGAND FREE ENERGY PREDICTED BY IDOCK:   -0.16 KCAL/MOL
REMARK 927      BINDING AFFINITY PREDICTED BY RF-SCORE:    0.00 PKD
ROOT
HETATM    1  C   UNL     1      -9.399   8.393  70.094  1.00  0.00    -0.163 C  
HETATM    2  C   UNL     1     -10.177   8.334  68.835  1.00  0.00    -0.222 C  
HETATM    3  C   UNL     1      -9.119   8.459  67.738  1.00  0.00    -0.142 C  
HETATM    4  C   UNL     1      -9.110   9.620  66.762  1.00  0.00    -0.171 C  
HETATM    5  C   UNL     1     -10.544  10.096  66.486  1.00  0.00    -0.179 C  
HETATM    6  C   UNL     1     -10.591  11.096  65.361  1.00  0.00    -0.291 C  
HETATM    7  C   UNL     1      -9.917  10.556  64.092  1.00  0.00    -0.385 C  
HETATM    8  C   UNL     1     -10.220  11.176  62.935  1.00  0.00    -0.168 C  
HETATM    9  C   UNL     1      -9.623  12.557  63.054  1.00  0.00     1.489 C  
HETATM   10  C   UNL     1      -8.319  12.658  63.827  1.00  0.00     4.476 C  
HETATM   11  O   UNL     1     -10.168  13.530  62.551  1.00  0.00     4.407 OA 
HETATM   12  C   UNL     1      -7.766  11.573  64.438  1.00  0.00     1.713 C  
HETATM   13  C   UNL     1      -8.423  10.178  64.300  1.00  0.00    -0.179 C  
HETATM   14  C   UNL     1      -8.464   9.079  65.449  1.00  0.00    -0.175 C  
HETATM   15  C   UNL     1      -7.715   9.567  63.062  1.00  0.00    -0.123 C  
HETATM   16  C   UNL     1      -7.226   8.126  65.686  1.00  0.00    -0.071 C  
HETATM   17  C   UNL     1      -7.263   7.200  67.025  1.00  0.00    -0.091 C  
HETATM   18  O   UNL     1      -6.019   8.873  65.561  1.00  0.00    -0.050 OA 
HETATM   19  C   UNL     1      -7.677   8.087  68.263  1.00  0.00    -0.117 C  
HETATM   20  H   UNL     1      -5.276   8.300  65.703  1.00  0.00     0.000 HD 
HETATM   21  C   UNL     1      -6.399   9.007  68.317  1.00  0.00    -0.055 C  
HETATM   22  C   UNL     1      -8.054   7.717  69.806  1.00  0.00    -0.125 C  
HETATM   23  N   UNL     1      -7.198   8.537  70.758  1.00  0.00    -0.054 NA 
HETATM   24  O   UNL     1      -9.073   9.759  70.322  1.00  0.00    -0.237 OA 
HETATM   25  C   UNL     1      -7.141  11.046  70.811  1.00  0.00     1.602 C  
HETATM   26  C   UNL     1      -7.785   9.703  70.703  1.00  0.00    -0.068 C  
ENDROOT
BRANCH  22  27
HETATM   27  C   UNL     1      -7.983   6.221  70.135  1.00  0.00    -0.108 C  
HETATM   28  O   UNL     1      -7.827   5.386  69.238  1.00  0.00    -0.086 OA 
BRANCH  27  29
HETATM   29  C   UNL     1      -8.118   5.778  71.589  1.00  0.00    -0.118 C  
BRANCH  29  30
HETATM   30  O   UNL     1      -9.380   5.147  71.837  1.00  0.00    -0.139 OA 
BRANCH  30  31
HETATM   31  C   UNL     1      -9.267   3.894  72.358  1.00  0.00    -0.112 C  
HETATM   32  C   UNL     1      -9.139   2.867  71.269  1.00  0.00    -0.179 C  
HETATM   33  O   UNL     1      -9.284   3.637  73.561  1.00  0.00    -0.097 OA 
ENDBRANCH  30  31
ENDBRANCH  29  30
ENDBRANCH  27  29
ENDBRANCH  22  27
TORSDOF 4
ENDMDL
MODEL      102
REMARK 921   NORMALIZED FREE ENERGY PREDICTED BY IDOCK:   10.01 KCAL/MOL
REMARK 922        TOTAL FREE ENERGY PREDICTED BY IDOCK:   12.10 KCAL/MOL
REMARK 923 INTER-LIGAND FREE ENERGY PREDICTED BY IDOCK:    9.62 KCAL/MOL
REMARK 924 INTRA-LIGAND FREE ENERGY PREDICTED BY IDOCK:    2.48 KCAL/MOL
REMARK 927      BINDING AFFINITY PREDICTED BY RF-SCORE:    0.00 PKD
ROOT
HETATM    1  C   UNL     1      -9.405   7.959  71.145  1.00  0.00    -0.151 C  
HETATM    2  C   UNL     1      -9.886   7.481  69.829  1.00  0.00    -0.180 C  
HETATM    3  C   UNL     1      -8.633   7.478  68.953  1.00  0.00    -0.129 C  
HETATM    4  C   UNL     1      -8.515   8.350  67.718  1.00  0.00    -0.131 C  
HETATM    5  C   UNL     1      -9.892   8.536  67.064  1.00  0.00    -0.289 C  
HETATM    6  C   UNL     1      -9.784   9.210  65.720  1.00  0.00    -0.299 C  
HETATM    7  C   UNL     1      -8.809   8.472  64.793  1.00  0.00     0.017 C  
HETATM    8  C   UNL     1      -8.908   8.738  63.476  1.00  0.00     0.153 C  
HETATM    9  C   UNL     1      -8.473  10.174  63.323  1.00  0.00    -0.184 C  
HETATM   10  C   UNL     1      -7.380  10.646  64.267  1.00  0.00     0.224 C  
HETATM   11  O   UNL     1      -8.980  10.906  62.484  1.00  0.00    -0.271 OA 
HETATM   12  C   UNL     1      -6.878   9.835  65.240  1.00  0.00    -0.103 C  
HETATM   13  C   UNL     1      -7.366   8.371  65.367  1.00  0.00    -0.084 C  
HETATM   14  C   UNL     1      -7.557   7.597  66.743  1.00  0.00    -0.098 C  
HETATM   15  C   UNL     1      -6.358   7.578  64.493  1.00  0.00    -0.041 C  
HETATM   16  C   UNL     1      -6.322   6.916  67.453  1.00  0.00    -0.045 C  
HETATM   17  C   UNL     1      -6.564   6.355  68.963  1.00  0.00    -0.048 C  
HETATM   18  O   UNL     1      -5.186   7.771  67.355  1.00  0.00    -0.028 OA 
HETATM   19  C   UNL     1      -7.310   7.454  69.815  1.00  0.00    -0.083 C  
HETATM   20  H   UNL     1      -4.443   7.361  67.782  1.00  0.00     0.000 HD 
HETATM   21  C   UNL     1      -6.158   8.529  69.852  1.00  0.00    -0.031 C  
HETATM   22  C   UNL     1      -7.976   7.428  71.304  1.00  0.00    -0.096 C  
HETATM   23  N   UNL     1      -7.419   8.570  72.139  1.00  0.00    -0.223 NA 
HETATM   24  O   UNL     1      -9.256   9.371  71.050  1.00  0.00    -0.229 OA 
HETATM   25  C   UNL     1      -7.594  10.997  71.519  1.00  0.00     5.696 C  
HETATM   26  C   UNL     1      -8.080   9.592  71.662  1.00  0.00     1.275 C  
ENDROOT
BRANCH  22  27
HETATM   27  C   UNL     1      -7.847   6.086  72.034  1.00  0.00    -0.106 C  
HETATM   28  O   UNL     1      -6.793   5.777  72.601  1.00  0.00    -0.074 OA 
BRANCH  27  29
HETATM   29  C   UNL     1      -9.038   5.133  72.042  1.00  0.00    -0.137 C  
BRANCH  29  30
HETATM   30  O   UNL     1      -9.750   5.162  70.799  1.00  0.00    -0.167 OA 
BRANCH  30  31
HETATM   31  C   UNL     1     -11.083   4.916  70.931  1.00  0.00     0.729 C  
HETATM   32  C   UNL     1     -11.759   6.015  71.701  1.00  0.00    -0.209 C  
HETATM   33  O   UNL     1     -11.652   3.918  70.493  1.00  0.00     4.957 OA 
ENDBRANCH  30  31
ENDBRANCH  29  30
ENDBRANCH  27  29
ENDBRANCH  22  27
TORSDOF 4
ENDMDL
MODEL      103
REMARK 921   NORMALIZED FREE ENERGY PREDICTED BY IDOCK:   10.61 KCAL/MOL
REMARK 922        TOTAL FREE ENERGY PREDICTED BY IDOCK:   12.84 KCAL/MOL
REMARK 923 INTER-LIGAND FREE ENERGY PREDICTED BY IDOCK:   12.33 KCAL/MOL
REMARK 924 INTRA-LIGAND FREE ENERGY PREDICTED BY IDOCK:    0.51 KCAL/MOL
REMARK 927      BINDING AFFINITY PREDICTED BY RF-SCORE:    0.00 PKD
ROOT
HETATM    1  C   UNL     1      -7.358  13.339  68.470  1.00  0.00    -0.115 C  
HETATM    2  C   UNL     1      -6.686  12.667  67.334  1.00  0.00    -0.143 C  
HETATM    3  C   UNL     1      -7.836  12.249  66.417  1.00  0.00     0.405 C  
HETATM    4  C   UNL     1      -8.117  10.793  66.097  1.00  0.00    -0.160 C  
HETATM    5  C   UNL     1      -6.810   9.988  66.084  1.00  0.00    -0.102 C  
HETATM    6  C   UNL     1      -7.021   8.592  65.558  1.00  0.00    -0.074 C  
HETATM    7  C   UNL     1      -7.697   8.602  64.179  1.00  0.00    -0.129 C  
HETATM    8  C   UNL     1      -7.597   7.474  63.449  1.00  0.00    -0.118 C  
HETATM    9  C   UNL     1      -8.403   6.441  64.196  1.00  0.00     0.103 C  
HETATM   10  C   UNL     1      -9.638   6.951  64.919  1.00  0.00     1.813 C  
HETATM   11  O   UNL     1      -8.071   5.263  64.209  1.00  0.00    -0.108 OA 
HETATM   12  C   UNL     1      -9.952   8.276  64.948  1.00  0.00     2.392 C  
HETATM   13  C   UNL     1      -9.086   9.302  64.177  1.00  0.00    -0.045 C  
HETATM   14  C   UNL     1      -8.769  10.778  64.679  1.00  0.00    -0.105 C  
HETATM   15  C   UNL     1      -9.781   9.393  62.793  1.00  0.00     1.071 C  
HETATM   16  C   UNL     1      -9.807  11.943  64.436  1.00  0.00    -0.178 C  
HETATM   17  C   UNL     1      -9.508  13.357  65.186  1.00  0.00     0.373 C  
HETATM   18  O   UNL     1     -11.128  11.460  64.667  1.00  0.00    -0.290 OA 
HETATM   19  C   UNL     1      -9.148  13.080  66.698  1.00  0.00    -0.181 C  
HETATM   20  H   UNL     1     -11.752  12.161  64.521  1.00  0.00     0.000 HD 
HETATM   21  C   UNL     1     -10.553  12.543  67.168  1.00  0.00    -0.247 C  
HETATM   22  C   UNL     1      -8.591  14.043  67.891  1.00  0.00    -0.181 C  
HETATM   23  N   UNL     1      -9.491  13.928  69.111  1.00  0.00     0.179 NA 
HETATM   24  O   UNL     1      -7.887  12.319  69.308  1.00  0.00     0.225 OA 
HETATM   25  C   UNL     1      -9.959  11.784  70.331  1.00  0.00     3.346 C  
HETATM   26  C   UNL     1      -9.112  12.781  69.611  1.00  0.00     2.063 C  
ENDROOT
BRANCH  22  27
HETATM   27  C   UNL     1      -8.385  15.506  67.482  1.00  0.00    -0.173 C  
HETATM   28  O   UNL     1      -8.791  15.917  66.390  1.00  0.00    -0.275 OA 
BRANCH  27  29
HETATM   29  C   UNL     1      -7.662  16.446  68.442  1.00  0.00    -0.177 C  
BRANCH  29  30
HETATM   30  O   UNL     1      -8.411  16.655  69.646  1.00  0.00     0.192 OA 
BRANCH  30  31
HETATM   31  C   UNL     1      -9.077  17.843  69.671  1.00  0.00     0.900 C  
HETATM   32  C   UNL     1      -9.149  18.449  68.298  1.00  0.00    -0.330 C  
HETATM   33  O   UNL     1      -9.542  18.358  70.687  1.00  0.00     2.399 OA 
ENDBRANCH  30  31
ENDBRANCH  29  30
ENDBRANCH  27  29
ENDBRANCH  22  27
TORSDOF 4
ENDMDL
MODEL      104
REMARK 921   NORMALIZED FREE ENERGY PREDICTED BY IDOCK:   10.68 KCAL/MOL
REMARK 922        TOTAL FREE ENERGY PREDICTED BY IDOCK:   12.93 KCAL/MOL
REMARK 923 INTER-LIGAND FREE ENERGY PREDICTED BY IDOCK:    7.13 KCAL/MOL
REMARK 924 INTRA-LIGAND FREE ENERGY PREDICTED BY IDOCK:    5.80 KCAL/MOL
REMARK 927      BINDING AFFINITY PREDICTED BY RF-SCORE:    0.00 PKD
ROOT
HETATM    1  C   UNL     1      -7.212  18.632  67.811  1.00  0.00    -0.228 C  
HETATM    2  C   UNL     1      -8.636  18.661  67.407  1.00  0.00    -0.281 C  
HETATM    3  C   UNL     1      -9.282  17.556  68.244  1.00  0.00    -0.277 C  
HETATM    4  C   UNL     1      -9.935  16.345  67.607  1.00  0.00    -0.252 C  
HETATM    5  C   UNL     1     -10.549  16.722  66.251  1.00  0.00    -0.190 C  
HETATM    6  C   UNL     1     -11.392  15.605  65.692  1.00  0.00    -0.001 C  
HETATM    7  C   UNL     1     -12.461  15.145  66.693  1.00  0.00     0.822 C  
HETATM    8  C   UNL     1     -13.494  14.441  66.193  1.00  0.00     1.879 C  
HETATM    9  C   UNL     1     -12.902  13.132  65.731  1.00  0.00     0.055 C  
HETATM   10  C   UNL     1     -11.747  12.592  66.557  1.00  0.00    -0.463 C  
HETATM   11  O   UNL     1     -13.335  12.551  64.745  1.00  0.00    -0.773 OA 
HETATM   12  C   UNL     1     -11.235  13.289  67.610  1.00  0.00    -0.307 C  
HETATM   13  C   UNL     1     -11.869  14.636  68.038  1.00  0.00    -0.343 C  
HETATM   14  C   UNL     1     -11.053  15.884  68.592  1.00  0.00    -0.337 C  
HETATM   15  C   UNL     1     -12.913  14.218  69.107  1.00  0.00     1.126 C  
HETATM   16  C   UNL     1     -10.638  15.954  70.115  1.00  0.00    -0.295 C  
HETATM   17  C   UNL     1      -9.610  17.143  70.538  1.00  0.00     2.769 C  
HETATM   18  O   UNL     1     -10.208  14.667  70.550  1.00  0.00    -0.214 OA 
HETATM   19  C   UNL     1      -8.413  17.190  69.510  1.00  0.00     0.579 C  
HETATM   20  H   UNL     1      -9.959  14.709  71.466  1.00  0.00     0.000 HD 
HETATM   21  C   UNL     1      -7.758  15.801  69.867  1.00  0.00     0.239 C  
HETATM   22  C   UNL     1      -7.188  18.245  69.294  1.00  0.00    -0.075 C  
HETATM   23  N   UNL     1      -5.861  17.503  69.297  1.00  0.00    -0.203 NA 
HETATM   24  O   UNL     1      -6.607  17.531  67.142  1.00  0.00    -0.149 OA 
HETATM   25  C   UNL     1      -5.263  15.658  67.702  1.00  0.00    -0.085 C  
HETATM   26  C   UNL     1      -5.854  16.970  68.104  1.00  0.00    -0.123 C  
ENDROOT
BRANCH  22  27
HETATM   27  C   UNL     1      -7.177  19.416  70.283  1.00  0.00     0.550 C  
HETATM   28  O   UNL     1      -6.362  19.449  71.211  1.00  0.00     0.195 OA 
BRANCH  27  29
HETATM   29  C   UNL     1      -8.195  20.539  70.108  1.00  0.00     1.842 C  
BRANCH  29  30
HETATM   30  O   UNL     1      -8.855  20.465  68.839  1.00  0.00     0.360 OA 
BRANCH  30  31
HETATM   31  C   UNL     1     -10.167  20.113  68.929  1.00  0.00    -0.161 C  
HETATM   32  C   UNL     1     -10.932  20.569  67.720  1.00  0.00     0.715 C  
HETATM   33  O   UNL     1     -10.662  19.516  69.885  1.00  0.00     0.756 OA 
ENDBRANCH  30  31
ENDBRANCH  29  30
ENDBRANCH  27  29
ENDBRANCH  22  27
TORSDOF 4
ENDMDL
MODEL      105
REMARK 921   NORMALIZED FREE ENERGY PREDICTED BY IDOCK:   11.34 KCAL/MOL
REMARK 922        TOTAL FREE ENERGY PREDICTED BY IDOCK:   13.74 KCAL/MOL
REMARK 923 INTER-LIGAND FREE ENERGY PREDICTED BY IDOCK:   14.07 KCAL/MOL
REMARK 924 INTRA-LIGAND FREE ENERGY PREDICTED BY IDOCK:   -0.33 KCAL/MOL
REMARK 927      BINDING AFFINITY PREDICTED BY RF-SCORE:    0.00 PKD
ROOT
HETATM    1  C   UNL     1     -11.112  13.944  65.933  1.00  0.00    -0.291 C  
HETATM    2  C   UNL     1      -9.811  14.226  66.581  1.00  0.00    -0.288 C  
HETATM    3  C   UNL     1     -10.130  15.326  67.593  1.00  0.00    -0.235 C  
HETATM    4  C   UNL     1      -9.499  16.703  67.507  1.00  0.00    -0.229 C  
HETATM    5  C   UNL     1      -8.083  16.604  66.919  1.00  0.00    -0.249 C  
HETATM    6  C   UNL     1      -7.346  17.915  67.021  1.00  0.00    -0.218 C  
HETATM    7  C   UNL     1      -7.329  18.445  68.461  1.00  0.00    -0.302 C  
HETATM    8  C   UNL     1      -6.404  19.381  68.750  1.00  0.00    -0.288 C  
HETATM    9  C   UNL     1      -6.810  20.602  67.962  1.00  0.00    -0.262 C  
HETATM   10  C   UNL     1      -8.303  20.821  67.789  1.00  0.00    -0.037 C  
HETATM   11  O   UNL     1      -5.974  21.363  67.494  1.00  0.00    -0.335 OA 
HETATM   12  C   UNL     1      -9.215  19.924  68.259  1.00  0.00    -0.345 C  
HETATM   13  C   UNL     1      -8.750  18.678  69.051  1.00  0.00    -0.102 C  
HETATM   14  C   UNL     1      -9.436  17.245  68.968  1.00  0.00    -0.141 C  
HETATM   15  C   UNL     1      -8.786  19.155  70.527  1.00  0.00     2.382 C  
HETATM   16  C   UNL     1     -10.721  16.925  69.830  1.00  0.00    -0.081 C  
HETATM   17  C   UNL     1     -11.488  15.525  69.506  1.00  0.00    -0.341 C  
HETATM   18  O   UNL     1     -11.593  18.051  69.819  1.00  0.00     2.132 OA 
HETATM   19  C   UNL     1     -11.668  15.378  67.944  1.00  0.00    -0.198 C  
HETATM   20  H   UNL     1     -12.366  17.858  70.337  1.00  0.00     0.000 HD 
HETATM   21  C   UNL     1     -12.674  16.571  67.722  1.00  0.00     3.081 C  
HETATM   22  C   UNL     1     -12.186  14.147  67.008  1.00  0.00    -0.339 C  
HETATM   23  N   UNL     1     -13.307  14.625  66.099  1.00  0.00     0.950 NA 
HETATM   24  O   UNL     1     -11.346  14.984  64.990  1.00  0.00    -0.370 OA 
HETATM   25  C   UNL     1     -13.087  16.500  64.442  1.00  0.00     4.152 C  
HETATM   26  C   UNL     1     -12.642  15.282  65.184  1.00  0.00     0.486 C  
ENDROOT
BRANCH  22  27
HETATM   27  C   UNL     1     -12.592  12.887  67.782  1.00  0.00     0.979 C  
HETATM   28  O   UNL     1     -13.775  12.682  68.074  1.00  0.00     5.469 OA 
BRANCH  27  29
HETATM   29  C   UNL     1     -11.510  11.894  68.195  1.00  0.00    -0.320 C  
BRANCH  29  30
HETATM   30  O   UNL     1     -11.766  10.583  67.675  1.00  0.00    -0.401 OA 
BRANCH  30  31
HETATM   31  C   UNL     1     -11.039   9.606  68.285  1.00  0.00    -0.046 C  
HETATM   32  C   UNL     1     -10.153  10.182  69.352  1.00  0.00    -0.250 C  
HETATM   33  O   UNL     1     -11.090   8.414  67.987  1.00  0.00     0.108 OA 
ENDBRANCH  30  31
ENDBRANCH  29  30
ENDBRANCH  27  29
ENDBRANCH  22  27
TORSDOF 4
ENDMDL
MODEL      106
REMARK 921   NORMALIZED FREE ENERGY PREDICTED BY IDOCK:   18.55 KCAL/MOL
REMARK 922        TOTAL FREE ENERGY PREDICTED BY IDOCK:   22.64 KCAL/MOL
REMARK 923 INTER-LIGAND FREE ENERGY PREDICTED BY IDOCK:   14.83 KCAL/MOL
REMARK 924 INTRA-LIGAND FREE ENERGY PREDICTED BY IDOCK:    7.81 KCAL/MOL
REMARK 927      BINDING AFFINITY PREDICTED BY RF-SCORE:    0.00 PKD
ROOT
HETATM    1  C   UNL     1      -8.841  13.433  65.069  1.00  0.00     2.278 C  
HETATM    2  C   UNL     1      -8.187  14.171  66.174  1.00  0.00     1.352 C  
HETATM    3  C   UNL     1      -9.324  14.454  67.156  1.00  0.00    -0.226 C  
HETATM    4  C   UNL     1      -9.748  15.868  67.507  1.00  0.00    -0.223 C  
HETATM    5  C   UNL     1      -8.539  16.814  67.458  1.00  0.00    -0.203 C  
HETATM    6  C   UNL     1      -8.875  18.175  68.010  1.00  0.00    -0.286 C  
HETATM    7  C   UNL     1      -9.469  18.083  69.422  1.00  0.00     0.267 C  
HETATM    8  C   UNL     1      -9.456  19.211  70.159  1.00  0.00     1.065 C  
HETATM    9  C   UNL     1     -10.412  20.152  69.468  1.00  0.00     0.340 C  
HETATM   10  C   UNL     1     -11.620  19.511  68.806  1.00  0.00     2.985 C  
HETATM   11  O   UNL     1     -10.213  21.359  69.449  1.00  0.00     1.221 OA 
HETATM   12  C   UNL     1     -11.786  18.159  68.780  1.00  0.00     2.935 C  
HETATM   13  C   UNL     1     -10.770  17.232  69.492  1.00  0.00     0.095 C  
HETATM   14  C   UNL     1     -10.319  15.804  68.957  1.00  0.00    -0.223 C  
HETATM   15  C   UNL     1     -11.374  17.058  70.910  1.00  0.00     0.833 C  
HETATM   16  C   UNL     1     -11.206  14.528  69.244  1.00  0.00    -0.281 C  
HETATM   17  C   UNL     1     -10.794  13.160  68.463  1.00  0.00    -0.285 C  
HETATM   18  O   UNL     1     -12.583  14.863  69.088  1.00  0.00    -0.572 OA 
HETATM   19  C   UNL     1     -10.549  13.483  66.937  1.00  0.00    -0.270 C  
HETATM   20  H   UNL     1     -13.116  14.095  69.261  1.00  0.00     0.000 HD 
HETATM   21  C   UNL     1     -12.029  13.863  66.549  1.00  0.00    -0.470 C  
HETATM   22  C   UNL     1      -9.955  12.594  65.705  1.00  0.00    -0.256 C  
HETATM   23  N   UNL     1     -10.927  12.614  64.537  1.00  0.00    -0.313 NA 
HETATM   24  O   UNL     1      -9.525  14.393  64.271  1.00  0.00     1.172 OA 
HETATM   25  C   UNL     1     -11.697  14.698  63.367  1.00  0.00     1.255 C  
HETATM   26  C   UNL     1     -10.706  13.798  64.030  1.00  0.00     0.185 C  
ENDROOT
BRANCH  22  27
HETATM   27  C   UNL     1      -9.566  11.161  66.087  1.00  0.00    -0.210 C  
HETATM   28  O   UNL     1      -9.497  10.278  65.225  1.00  0.00    -0.199 OA 
BRANCH  27  29
HETATM   29  C   UNL     1      -9.274  10.839  67.549  1.00  0.00    -0.143 C  
BRANCH  29  30
HETATM   30  O   UNL     1      -9.416  11.994  68.386  1.00  0.00    -0.201 OA 
BRANCH  30  31
HETATM   31  C   UNL     1      -8.362  12.188  69.226  1.00  0.00     0.705 C  
HETATM   32  C   UNL     1      -8.491  13.493  69.958  1.00  0.00     2.561 C  
HETATM   33  O   UNL     1      -7.422  11.405  69.355  1.00  0.00    -0.059 OA 
ENDBRANCH  30  31
ENDBRANCH  29  30
ENDBRANCH  27  29
ENDBRANCH  22  27
TORSDOF 4
ENDMDL
MODEL      107
REMARK 921   NORMALIZED FREE ENERGY PREDICTED BY IDOCK:   19.37 KCAL/MOL
REMARK 922        TOTAL FREE ENERGY PREDICTED BY IDOCK:   23.65 KCAL/MOL
REMARK 923 INTER-LIGAND FREE ENERGY PREDICTED BY IDOCK:   17.45 KCAL/MOL
REMARK 924 INTRA-LIGAND FREE ENERGY PREDICTED BY IDOCK:    6.20 KCAL/MOL
REMARK 927      BINDING AFFINITY PREDICTED BY RF-SCORE:    0.00 PKD
ROOT
HETATM    1  C   UNL     1      -7.011  17.914  69.172  1.00  0.00    -0.207 C  
HETATM    2  C   UNL     1      -7.766  17.521  67.961  1.00  0.00    -0.211 C  
HETATM    3  C   UNL     1      -8.739  16.452  68.460  1.00  0.00    -0.223 C  
HETATM    4  C   UNL     1      -8.697  15.026  67.944  1.00  0.00    -0.155 C  
HETATM    5  C   UNL     1      -8.234  15.002  66.480  1.00  0.00     0.115 C  
HETATM    6  C   UNL     1      -8.390  13.633  65.870  1.00  0.00     1.786 C  
HETATM    7  C   UNL     1      -9.822  13.103  66.023  1.00  0.00    -0.266 C  
HETATM    8  C   UNL     1     -10.182  12.091  65.211  1.00  0.00    -0.304 C  
HETATM    9  C   UNL     1      -9.353  10.909  65.650  1.00  0.00    -0.207 C  
HETATM   10  C   UNL     1      -9.051  10.821  67.137  1.00  0.00    -0.153 C  
HETATM   11  O   UNL     1      -8.953  10.079  64.846  1.00  0.00    -0.173 OA 
HETATM   12  C   UNL     1      -9.447  11.792  68.005  1.00  0.00    -0.188 C  
HETATM   13  C   UNL     1     -10.285  12.994  67.504  1.00  0.00    -0.221 C  
HETATM   14  C   UNL     1     -10.155  14.481  68.054  1.00  0.00    -0.226 C  
HETATM   15  C   UNL     1     -11.750  12.522  67.708  1.00  0.00    -0.419 C  
HETATM   16  C   UNL     1     -10.905  14.911  69.376  1.00  0.00    -0.264 C  
HETATM   17  C   UNL     1     -10.527  16.372  69.989  1.00  0.00    -0.131 C  
HETATM   18  O   UNL     1     -10.811  13.864  70.339  1.00  0.00    -0.190 OA 
HETATM   19  C   UNL     1      -8.957  16.534  70.021  1.00  0.00     1.258 C  
HETATM   20  H   UNL     1     -11.262  14.123  71.133  1.00  0.00     0.000 HD 
HETATM   21  C   UNL     1      -8.640  15.432  71.103  1.00  0.00     3.275 C  
HETATM   22  C   UNL     1      -7.988  17.805  70.349  1.00  0.00     3.381 C  
HETATM   23  N   UNL     1      -6.983  17.425  71.424  1.00  0.00     4.407 NA 
HETATM   24  O   UNL     1      -6.044  16.898  69.413  1.00  0.00    -0.191 OA 
HETATM   25  C   UNL     1      -5.337  15.539  71.224  1.00  0.00    -0.007 C  
HETATM   26  C   UNL     1      -6.124  16.713  70.742  1.00  0.00     0.666 C  
ENDROOT
BRANCH  22  27
HETATM   27  C   UNL     1      -8.734  19.095  70.709  1.00  0.00     3.227 C  
HETATM   28  O   UNL     1      -9.969  19.118  70.748  1.00  0.00     1.362 OA 
BRANCH  27  29
HETATM   29  C   UNL     1      -7.927  20.354  71.012  1.00  0.00     1.926 C  
BRANCH  29  30
HETATM   30  O   UNL     1      -7.166  20.783  69.875  1.00  0.00     0.596 OA 
BRANCH  30  31
HETATM   31  C   UNL     1      -6.059  20.025  69.647  1.00  0.00    -0.341 C  
HETATM   32  C   UNL     1      -5.222  19.906  70.888  1.00  0.00    -0.270 C  
HETATM   33  O   UNL     1      -5.774  19.520  68.561  1.00  0.00    -0.202 OA 
ENDBRANCH  30  31
ENDBRANCH  29  30
ENDBRANCH  27  29
ENDBRANCH  22  27
TORSDOF 4
ENDMDL
MODEL      108
REMARK 921   NORMALIZED FREE ENERGY PREDICTED BY IDOCK:   21.47 KCAL/MOL
REMARK 922        TOTAL FREE ENERGY PREDICTED BY IDOCK:   26.24 KCAL/MOL
REMARK 923 INTER-LIGAND FREE ENERGY PREDICTED BY IDOCK:   19.13 KCAL/MOL
REMARK 924 INTRA-LIGAND FREE ENERGY PREDICTED BY IDOCK:    7.11 KCAL/MOL
REMARK 927      BINDING AFFINITY PREDICTED BY RF-SCORE:    0.00 PKD
ROOT
HETATM    1  C   UNL     1      -9.929  10.738  67.169  1.00  0.00    -0.194 C  
HETATM    2  C   UNL     1      -9.200  11.647  68.082  1.00  0.00    -0.184 C  
HETATM    3  C   UNL     1     -10.292  12.224  68.984  1.00  0.00     0.008 C  
HETATM    4  C   UNL     1     -10.604  13.707  69.018  1.00  0.00    -0.147 C  
HETATM    5  C   UNL     1      -9.331  14.526  68.756  1.00  0.00    -0.177 C  
HETATM    6  C   UNL     1      -9.555  15.996  68.998  1.00  0.00    -0.247 C  
HETATM    7  C   UNL     1     -10.124  16.260  70.399  1.00  0.00     0.643 C  
HETATM    8  C   UNL     1     -10.012  17.517  70.870  1.00  0.00     3.337 C  
HETATM    9  C   UNL     1     -10.912  18.354  69.994  1.00  0.00     2.409 C  
HETATM   10  C   UNL     1     -12.177  17.677  69.495  1.00  0.00     5.675 C  
HETATM   11  O   UNL     1     -10.626  19.509  69.709  1.00  0.00     0.414 OA 
HETATM   12  C   UNL     1     -12.442  16.369  69.767  1.00  0.00     1.102 C  
HETATM   13  C   UNL     1     -11.481  15.546  70.660  1.00  0.00    -0.383 C  
HETATM   14  C   UNL     1     -11.147  14.005  70.450  1.00  0.00     0.285 C  
HETATM   15  C   UNL     1     -12.066  15.732  72.085  1.00  0.00    -0.570 C  
HETATM   16  C   UNL     1     -12.118  12.894  71.013  1.00  0.00     0.050 C  
HETATM   17  C   UNL     1     -11.823  11.361  70.550  1.00  0.00    -0.394 C  
HETATM   18  O   UNL     1     -13.470  13.290  70.795  1.00  0.00     0.182 OA 
HETATM   19  C   UNL     1     -11.589  11.324  68.989  1.00  0.00    -0.386 C  
HETATM   20  H   UNL     1     -14.054  12.621  71.135  1.00  0.00     0.000 HD 
HETATM   21  C   UNL     1     -13.045  11.720  68.534  1.00  0.00     3.401 C  
HETATM   22  C   UNL     1     -11.087  10.145  67.980  1.00  0.00    -0.240 C  
HETATM   23  N   UNL     1     -12.080   9.982  66.840  1.00  0.00     2.875 NA 
HETATM   24  O   UNL     1     -10.558  11.549  66.183  1.00  0.00    -0.250 OA 
HETATM   25  C   UNL     1     -12.721  11.812  65.245  1.00  0.00     1.490 C  
HETATM   26  C   UNL     1     -11.784  11.007  66.085  1.00  0.00     0.975 C  
ENDROOT
BRANCH  22  27
HETATM   27  C   UNL     1     -10.795   8.804  68.664  1.00  0.00     0.028 C  
HETATM   28  O   UNL     1     -11.630   8.286  69.413  1.00  0.00     0.407 OA 
BRANCH  27  29
HETATM   29  C   UNL     1      -9.453   8.124  68.414  1.00  0.00    -0.142 C  
BRANCH  29  30
HETATM   30  O   UNL     1      -8.425   8.647  69.264  1.00  0.00    -0.120 OA 
BRANCH  30  31
HETATM   31  C   UNL     1      -8.850   8.905  70.532  1.00  0.00    -0.192 C  
HETATM   32  C   UNL     1     -10.324   9.193  70.558  1.00  0.00    -0.288 C  
HETATM   33  O   UNL     1      -8.119   8.918  71.521  1.00  0.00    -0.241 OA 
ENDBRANCH  30  31
ENDBRANCH  29  30
ENDBRANCH  27  29
ENDBRANCH  22  27
TORSDOF 4
ENDMDL
MODEL      109
REMARK 921   NORMALIZED FREE ENERGY PREDICTED BY IDOCK:   22.75 KCAL/MOL
REMARK 922        TOTAL FREE ENERGY PREDICTED BY IDOCK:   27.82 KCAL/MOL
REMARK 923 INTER-LIGAND FREE ENERGY PREDICTED BY IDOCK:   12.83 KCAL/MOL
REMARK 924 INTRA-LIGAND FREE ENERGY PREDICTED BY IDOCK:   14.99 KCAL/MOL
REMARK 927      BINDING AFFINITY PREDICTED BY RF-SCORE:    0.00 PKD
ROOT
HETATM    1  C   UNL     1      -7.765  19.284  68.186  1.00  0.00    -0.297 C  
HETATM    2  C   UNL     1      -7.157  18.238  67.332  1.00  0.00    -0.207 C  
HETATM    3  C   UNL     1      -8.129  17.062  67.433  1.00  0.00    -0.193 C  
HETATM    4  C   UNL     1      -7.713  15.726  68.016  1.00  0.00    -0.136 C  
HETATM    5  C   UNL     1      -6.230  15.455  67.726  1.00  0.00    -0.180 C  
HETATM    6  C   UNL     1      -5.838  14.048  68.095  1.00  0.00    -0.125 C  
HETATM    7  C   UNL     1      -6.748  13.010  67.423  1.00  0.00    -0.123 C  
HETATM    8  C   UNL     1      -6.283  11.748  67.364  1.00  0.00    -0.108 C  
HETATM    9  C   UNL     1      -6.247  11.266  68.793  1.00  0.00    -0.045 C  
HETATM   10  C   UNL     1      -7.344  11.791  69.703  1.00  0.00     0.368 C  
HETATM   11  O   UNL     1      -5.378  10.498  69.183  1.00  0.00    -0.039 OA 
HETATM   12  C   UNL     1      -8.261  12.699  69.267  1.00  0.00     0.757 C  
HETATM   13  C   UNL     1      -8.250  13.174  67.793  1.00  0.00    -0.168 C  
HETATM   14  C   UNL     1      -8.601  14.650  67.316  1.00  0.00    -0.231 C  
HETATM   15  C   UNL     1      -9.218  12.187  67.089  1.00  0.00    -0.193 C  
HETATM   16  C   UNL     1     -10.106  15.088  67.117  1.00  0.00    -0.239 C  
HETATM   17  C   UNL     1     -10.378  16.673  66.859  1.00  0.00    -0.299 C  
HETATM   18  O   UNL     1     -10.900  14.553  68.173  1.00  0.00    -0.233 OA 
HETATM   19  C   UNL     1      -9.562  17.521  67.911  1.00  0.00    -0.277 C  
HETATM   20  H   UNL     1     -11.805  14.817  68.053  1.00  0.00     0.000 HD 
HETATM   21  C   UNL     1     -10.339  17.078  69.208  1.00  0.00    -0.276 C  
HETATM   22  C   UNL     1      -9.284  19.122  68.055  1.00  0.00    -0.313 C  
HETATM   23  N   UNL     1      -9.666  19.589  69.450  1.00  0.00    -0.269 NA 
HETATM   24  O   UNL     1      -7.482  18.939  69.537  1.00  0.00    -0.075 OA 
HETATM   25  C   UNL     1      -8.675  18.682  71.571  1.00  0.00     8.170 C  
HETATM   26  C   UNL     1      -8.653  19.164  70.158  1.00  0.00     1.498 C  
ENDROOT
BRANCH  22  27
HETATM   27  C   UNL     1      -9.949  19.982  66.974  1.00  0.00    -0.445 C  
HETATM   28  O   UNL     1     -11.146  20.276  67.053  1.00  0.00     0.115 OA 
BRANCH  27  29
HETATM   29  C   UNL     1      -9.110  20.463  65.793  1.00  0.00     0.249 C  
BRANCH  29  30
HETATM   30  O   UNL     1      -9.100  19.507  64.726  1.00  0.00     1.773 OA 
BRANCH  30  31
HETATM   31  C   UNL     1      -9.302  18.226  65.142  1.00  0.00     2.376 C  
HETATM   32  C   UNL     1     -10.584  18.108  65.916  1.00  0.00    -0.247 C  
HETATM   33  O   UNL     1      -8.528  17.295  64.926  1.00  0.00     2.247 OA 
ENDBRANCH  30  31
ENDBRANCH  29  30
ENDBRANCH  27  29
ENDBRANCH  22  27
TORSDOF 4
ENDMDL
MODEL      110
REMARK 921   NORMALIZED FREE ENERGY PREDICTED BY IDOCK:   23.59 KCAL/MOL
REMARK 922        TOTAL FREE ENERGY PREDICTED BY IDOCK:   28.86 KCAL/MOL
REMARK 923 INTER-LIGAND FREE ENERGY PREDICTED BY IDOCK:   21.19 KCAL/MOL
REMARK 924 INTRA-LIGAND FREE ENERGY PREDICTED BY IDOCK:    7.67 KCAL/MOL
REMARK 927      BINDING AFFINITY PREDICTED BY RF-SCORE:    0.00 PKD
ROOT
HETATM    1  C   UNL     1      -7.116  17.942  69.414  1.00  0.00    -0.018 C  
HETATM    2  C   UNL     1      -7.878  18.183  68.167  1.00  0.00    -0.287 C  
HETATM    3  C   UNL     1      -9.181  17.409  68.372  1.00  0.00    -0.277 C  
HETATM    4  C   UNL     1      -9.580  16.258  67.469  1.00  0.00    -0.230 C  
HETATM    5  C   UNL     1      -9.057  16.492  66.044  1.00  0.00    -0.290 C  
HETATM    6  C   UNL     1      -9.616  15.485  65.073  1.00  0.00     0.441 C  
HETATM    7  C   UNL     1     -11.150  15.446  65.117  1.00  0.00    -0.402 C  
HETATM    8  C   UNL     1     -11.771  14.886  64.061  1.00  0.00     0.022 C  
HETATM    9  C   UNL     1     -11.411  13.422  64.115  1.00  0.00    -0.383 C  
HETATM   10  C   UNL     1     -11.254  12.823  65.503  1.00  0.00    -0.329 C  
HETATM   11  O   UNL     1     -11.257  12.767  63.094  1.00  0.00    -0.305 OA 
HETATM   12  C   UNL     1     -11.362  13.586  66.626  1.00  0.00    -0.344 C  
HETATM   13  C   UNL     1     -11.720  15.089  66.519  1.00  0.00    -0.126 C  
HETATM   14  C   UNL     1     -11.140  16.227  67.468  1.00  0.00    -0.140 C  
HETATM   15  C   UNL     1     -13.267  15.099  66.630  1.00  0.00     2.972 C  
HETATM   16  C   UNL     1     -11.790  16.494  68.882  1.00  0.00     0.227 C  
HETATM   17  C   UNL     1     -10.990  17.508  69.874  1.00  0.00     1.004 C  
HETATM   18  O   UNL     1     -12.112  15.251  69.501  1.00  0.00    -0.394 OA 
HETATM   19  C   UNL     1      -9.461  17.117  69.898  1.00  0.00     1.047 C  
HETATM   20  H   UNL     1     -12.503  15.413  70.351  1.00  0.00     0.000 HD 
HETATM   21  C   UNL     1      -9.598  15.717  70.607  1.00  0.00     1.139 C  
HETATM   22  C   UNL     1      -8.149  17.842  70.542  1.00  0.00     4.052 C  
HETATM   23  N   UNL     1      -7.399  16.861  71.428  1.00  0.00     5.522 NA 
HETATM   24  O   UNL     1      -6.559  16.636  69.320  1.00  0.00    -0.191 OA 
HETATM   25  C   UNL     1      -6.463  14.668  70.641  1.00  0.00     0.014 C  
HETATM   26  C   UNL     1      -6.782  16.124  70.542  1.00  0.00     0.909 C  
ENDROOT
BRANCH  22  27
HETATM   27  C   UNL     1      -8.447  19.151  71.283  1.00  0.00     4.879 C  
HETATM   28  O   UNL     1      -9.586  19.629  71.283  1.00  0.00     1.785 OA 
BRANCH  27  29
HETATM   29  C   UNL     1      -7.310  19.862  72.012  1.00  0.00     1.745 C  
BRANCH  29  30
HETATM   30  O   UNL     1      -6.084  19.798  71.274  1.00  0.00    -0.192 OA 
BRANCH  30  31
HETATM   31  C   UNL     1      -6.110  20.512  70.116  1.00  0.00    -0.185 C  
HETATM   32  C   UNL     1      -7.282  20.115  69.265  1.00  0.00    -0.062 C  
HETATM   33  O   UNL     1      -5.273  21.358  69.802  1.00  0.00    -0.416 OA 
ENDBRANCH  30  31
ENDBRANCH  29  30
ENDBRANCH  27  29
ENDBRANCH  22  27
TORSDOF 4
ENDMDL
MODEL      111
REMARK 921   NORMALIZED FREE ENERGY PREDICTED BY IDOCK:   25.34 KCAL/MOL
REMARK 922        TOTAL FREE ENERGY PREDICTED BY IDOCK:   31.01 KCAL/MOL
REMARK 923 INTER-LIGAND FREE ENERGY PREDICTED BY IDOCK:   27.92 KCAL/MOL
REMARK 924 INTRA-LIGAND FREE ENERGY PREDICTED BY IDOCK:    3.10 KCAL/MOL
REMARK 927      BINDING AFFINITY PREDICTED BY RF-SCORE:    0.00 PKD
ROOT
HETATM    1  C   UNL     1      -5.815  11.341  67.134  1.00  0.00    -0.082 C  
HETATM    2  C   UNL     1      -5.495   9.986  66.629  1.00  0.00    -0.045 C  
HETATM    3  C   UNL     1      -6.856   9.393  66.266  1.00  0.00    -0.086 C  
HETATM    4  C   UNL     1      -7.402   8.157  66.954  1.00  0.00    -0.087 C  
HETATM    5  C   UNL     1      -6.254   7.220  67.357  1.00  0.00    -0.050 C  
HETATM    6  C   UNL     1      -6.766   5.889  67.843  1.00  0.00    -0.058 C  
HETATM    7  C   UNL     1      -7.702   5.233  66.819  1.00  0.00    -0.096 C  
HETATM    8  C   UNL     1      -7.917   3.910  66.956  1.00  0.00    -0.095 C  
HETATM    9  C   UNL     1      -8.691   3.761  68.242  1.00  0.00    -0.103 C  
HETATM   10  C   UNL     1      -9.665   4.880  68.570  1.00  0.00    -0.218 C  
HETATM   11  O   UNL     1      -8.534   2.790  68.969  1.00  0.00    -0.062 OA 
HETATM   12  C   UNL     1      -9.774   5.985  67.781  1.00  0.00    -0.119 C  
HETATM   13  C   UNL     1      -8.948   6.100  66.477  1.00  0.00    -0.143 C  
HETATM   14  C   UNL     1      -8.328   7.452  65.914  1.00  0.00    -0.140 C  
HETATM   15  C   UNL     1      -9.893   5.507  65.398  1.00  0.00     0.314 C  
HETATM   16  C   UNL     1      -9.217   8.446  65.067  1.00  0.00     0.389 C  
HETATM   17  C   UNL     1      -8.571   9.904  64.737  1.00  0.00    -0.191 C  
HETATM   18  O   UNL     1     -10.516   8.532  65.646  1.00  0.00     0.397 OA 
HETATM   19  C   UNL     1      -7.950  10.511  66.055  1.00  0.00    -0.149 C  
HETATM   20  H   UNL     1     -11.051   9.130  65.136  1.00  0.00     0.000 HD 
HETATM   21  C   UNL     1      -9.290  10.719  66.858  1.00  0.00    -0.179 C  
HETATM   22  C   UNL     1      -7.028  11.828  66.332  1.00  0.00     0.230 C  
HETATM   23  N   UNL     1      -7.665  12.686  67.414  1.00  0.00    -0.161 NA 
HETATM   24  O   UNL     1      -6.300  11.190  68.463  1.00  0.00    -0.046 OA 
HETATM   25  C   UNL     1      -8.172  11.891  69.741  1.00  0.00     1.631 C  
HETATM   26  C   UNL     1      -7.358  12.019  68.495  1.00  0.00    -0.111 C  
ENDROOT
BRANCH  22  27
HETATM   27  C   UNL     1      -6.705  12.652  65.081  1.00  0.00     7.060 C  
HETATM   28  O   UNL     1      -6.397  12.093  64.022  1.00  0.00     4.110 OA 
BRANCH  27  29
HETATM   29  C   UNL     1      -6.759  14.174  65.164  1.00  0.00    13.956 C  
BRANCH  29  30
HETATM   30  O   UNL     1      -8.060  14.640  65.542  1.00  0.00     2.588 OA 
BRANCH  30  31
HETATM   31  C   UNL     1      -8.170  14.923  66.870  1.00  0.00    -0.143 C  
HETATM   32  C   UNL     1      -6.851  15.364  67.437  1.00  0.00    -0.204 C  
HETATM   33  O   UNL     1      -9.209  14.814  67.520  1.00  0.00    -0.190 OA 
ENDBRANCH  30  31
ENDBRANCH  29  30
ENDBRANCH  27  29
ENDBRANCH  22  27
TORSDOF 4
ENDMDL
MODEL      112
REMARK 921   NORMALIZED FREE ENERGY PREDICTED BY IDOCK:   27.81 KCAL/MOL
REMARK 922        TOTAL FREE ENERGY PREDICTED BY IDOCK:   34.06 KCAL/MOL
REMARK 923 INTER-LIGAND FREE ENERGY PREDICTED BY IDOCK:   34.43 KCAL/MOL
REMARK 924 INTRA-LIGAND FREE ENERGY PREDICTED BY IDOCK:   -0.37 KCAL/MOL
REMARK 927      BINDING AFFINITY PREDICTED BY RF-SCORE:    0.00 PKD
ROOT
HETATM    1  C   UNL     1     -12.754   7.406  71.669  1.00  0.00    -0.365 C  
HETATM    2  C   UNL     1     -11.302   7.451  71.956  1.00  0.00    -0.301 C  
HETATM    3  C   UNL     1     -10.674   7.885  70.631  1.00  0.00    -0.230 C  
HETATM    4  C   UNL     1      -9.703   6.999  69.875  1.00  0.00    -0.163 C  
HETATM    5  C   UNL     1      -8.883   6.148  70.856  1.00  0.00    -0.136 C  
HETATM    6  C   UNL     1      -7.762   5.421  70.159  1.00  0.00    -0.077 C  
HETATM    7  C   UNL     1      -6.873   6.382  69.358  1.00  0.00    -0.065 C  
HETATM    8  C   UNL     1      -5.652   5.930  69.013  1.00  0.00    -0.011 C  
HETATM    9  C   UNL     1      -5.900   4.820  68.022  1.00  0.00    -0.022 C  
HETATM   10  C   UNL     1      -7.098   4.998  67.104  1.00  0.00    -0.069 C  
HETATM   11  O   UNL     1      -5.172   3.838  67.972  1.00  0.00    -0.010 OA 
HETATM   12  C   UNL     1      -7.936   6.065  67.223  1.00  0.00    -0.102 C  
HETATM   13  C   UNL     1      -7.648   7.174  68.265  1.00  0.00    -0.115 C  
HETATM   14  C   UNL     1      -8.763   7.959  69.083  1.00  0.00    -0.138 C  
HETATM   15  C   UNL     1      -6.804   8.205  67.470  1.00  0.00    -0.070 C  
HETATM   16  C   UNL     1      -9.503   9.196  68.436  1.00  0.00    -0.142 C  
HETATM   17  C   UNL     1     -10.785   9.787  69.248  1.00  0.00    -0.246 C  
HETATM   18  O   UNL     1      -9.793   8.916  67.069  1.00  0.00    -0.178 OA 
HETATM   19  C   UNL     1     -11.722   8.594  69.686  1.00  0.00     0.626 C  
HETATM   20  H   UNL     1     -10.238   9.660  66.681  1.00  0.00     0.000 HD 
HETATM   21  C   UNL     1     -12.193   8.142  68.251  1.00  0.00     4.363 C  
HETATM   22  C   UNL     1     -13.032   8.521  70.655  1.00  0.00     0.547 C  
HETATM   23  N   UNL     1     -14.183   7.854  69.919  1.00  0.00     3.255 NA 
HETATM   24  O   UNL     1     -13.003   6.200  70.956  1.00  0.00     0.690 OA 
HETATM   25  C   UNL     1     -14.100   5.535  68.960  1.00  0.00    19.840 C  
HETATM   26  C   UNL     1     -13.840   6.594  69.981  1.00  0.00     4.738 C  
ENDROOT
BRANCH  22  27
HETATM   27  C   UNL     1     -13.454   9.868  71.253  1.00  0.00    -0.280 C  
HETATM   28  O   UNL     1     -14.402  10.499  70.774  1.00  0.00     1.541 OA 
BRANCH  27  29
HETATM   29  C   UNL     1     -12.680  10.422  72.445  1.00  0.00     0.318 C  
BRANCH  29  30
HETATM   30  O   UNL     1     -11.761  11.448  72.051  1.00  0.00     1.631 OA 
BRANCH  30  31
HETATM   31  C   UNL     1     -12.364  12.637  71.770  1.00  0.00     0.405 C  
HETATM   32  C   UNL     1     -12.073  13.068  70.361  1.00  0.00    -0.391 C  
HETATM   33  O   UNL     1     -13.043  13.278  72.571  1.00  0.00    -0.411 OA 
ENDBRANCH  30  31
ENDBRANCH  29  30
ENDBRANCH  27  29
ENDBRANCH  22  27
TORSDOF 4
ENDMDL
MODEL      113
REMARK 921   NORMALIZED FREE ENERGY PREDICTED BY IDOCK:   28.60 KCAL/MOL
REMARK 922        TOTAL FREE ENERGY PREDICTED BY IDOCK:   35.04 KCAL/MOL
REMARK 923 INTER-LIGAND FREE ENERGY PREDICTED BY IDOCK:   34.95 KCAL/MOL
REMARK 924 INTRA-LIGAND FREE ENERGY PREDICTED BY IDOCK:    0.08 KCAL/MOL
REMARK 927      BINDING AFFINITY PREDICTED BY RF-SCORE:    0.00 PKD
ROOT
HETATM    1  C   UNL     1      -9.853  16.036  70.953  1.00  0.00     1.724 C  
HETATM    2  C   UNL     1      -9.054  14.953  70.336  1.00  0.00     1.140 C  
HETATM    3  C   UNL     1      -9.015  15.318  68.852  1.00  0.00    -0.209 C  
HETATM    4  C   UNL     1      -9.613  14.418  67.788  1.00  0.00    -0.216 C  
HETATM    5  C   UNL     1      -9.492  12.945  68.206  1.00  0.00    -0.206 C  
HETATM    6  C   UNL     1      -9.874  12.015  67.084  1.00  0.00    -0.205 C  
HETATM    7  C   UNL     1      -9.078  12.311  65.806  1.00  0.00     0.113 C  
HETATM    8  C   UNL     1      -9.045  11.338  64.875  1.00  0.00    -0.059 C  
HETATM    9  C   UNL     1     -10.458  11.231  64.357  1.00  0.00    -0.345 C  
HETATM   10  C   UNL     1     -11.245  12.529  64.291  1.00  0.00    -0.407 C  
HETATM   11  O   UNL     1     -10.930  10.156  64.014  1.00  0.00     1.299 OA 
HETATM   12  C   UNL     1     -10.724  13.704  64.742  1.00  0.00    -0.420 C  
HETATM   13  C   UNL     1      -9.273  13.761  65.278  1.00  0.00     0.863 C  
HETATM   14  C   UNL     1      -8.790  14.675  66.487  1.00  0.00    -0.190 C  
HETATM   15  C   UNL     1      -8.439  14.128  64.022  1.00  0.00    10.189 C  
HETATM   16  C   UNL     1      -8.427  16.193  66.245  1.00  0.00    -0.322 C  
HETATM   17  C   UNL     1      -8.173  17.105  67.570  1.00  0.00    -0.196 C  
HETATM   18  O   UNL     1      -9.371  16.770  65.346  1.00  0.00    -0.343 OA 
HETATM   19  C   UNL     1      -9.331  16.846  68.611  1.00  0.00    -0.268 C  
HETATM   20  H   UNL     1      -9.152  17.683  65.201  1.00  0.00     0.000 HD 
HETATM   21  C   UNL     1     -10.519  17.471  67.785  1.00  0.00    -0.381 C  
HETATM   22  C   UNL     1      -9.542  17.311  70.160  1.00  0.00     1.642 C  
HETATM   23  N   UNL     1     -10.893  17.991  70.317  1.00  0.00     1.448 NA 
HETATM   24  O   UNL     1     -11.220  15.761  70.670  1.00  0.00    -0.317 OA 
HETATM   25  C   UNL     1     -13.095  16.910  69.780  1.00  0.00     5.758 C  
HETATM   26  C   UNL     1     -11.705  16.966  70.323  1.00  0.00     1.164 C  
ENDROOT
BRANCH  22  27
HETATM   27  C   UNL     1      -8.410  18.178  70.723  1.00  0.00     5.344 C  
HETATM   28  O   UNL     1      -7.819  17.848  71.757  1.00  0.00     8.582 OA 
BRANCH  27  29
HETATM   29  C   UNL     1      -8.030  19.462  69.992  1.00  0.00     0.851 C  
BRANCH  29  30
HETATM   30  O   UNL     1      -6.780  19.332  69.304  1.00  0.00    -0.304 OA 
BRANCH  30  31
HETATM   31  C   UNL     1      -6.755  19.964  68.099  1.00  0.00    -0.278 C  
HETATM   32  C   UNL     1      -5.357  20.378  67.736  1.00  0.00    -0.217 C  
HETATM   33  O   UNL     1      -7.749  20.182  67.407  1.00  0.00    -0.281 OA 
ENDBRANCH  30  31
ENDBRANCH  29  30
ENDBRANCH  27  29
ENDBRANCH  22  27
TORSDOF 4
ENDMDL
MODEL      114
REMARK 921   NORMALIZED FREE ENERGY PREDICTED BY IDOCK:   40.41 KCAL/MOL
REMARK 922        TOTAL FREE ENERGY PREDICTED BY IDOCK:   49.61 KCAL/MOL
REMARK 923 INTER-LIGAND FREE ENERGY PREDICTED BY IDOCK:   32.30 KCAL/MOL
REMARK 924 INTRA-LIGAND FREE ENERGY PREDICTED BY IDOCK:   17.30 KCAL/MOL
REMARK 927      BINDING AFFINITY PREDICTED BY RF-SCORE:    0.00 PKD
ROOT
HETATM    1  C   UNL     1      -7.530  17.677  67.573  1.00  0.00    -0.194 C  
HETATM    2  C   UNL     1      -8.785  18.140  66.938  1.00  0.00    -0.267 C  
HETATM    3  C   UNL     1      -9.836  17.136  67.413  1.00  0.00    -0.264 C  
HETATM    4  C   UNL     1     -10.592  16.248  66.444  1.00  0.00    -0.253 C  
HETATM    5  C   UNL     1     -10.789  16.968  65.102  1.00  0.00    -0.059 C  
HETATM    6  C   UNL     1     -11.721  16.209  64.195  1.00  0.00     0.133 C  
HETATM    7  C   UNL     1     -13.061  15.907  64.881  1.00  0.00     2.113 C  
HETATM    8  C   UNL     1     -14.092  15.582  64.077  1.00  0.00     5.281 C  
HETATM    9  C   UNL     1     -13.729  14.246  63.478  1.00  0.00     5.121 C  
HETATM   10  C   UNL     1     -12.940  13.305  64.373  1.00  0.00     0.101 C  
HETATM   11  O   UNL     1     -14.056  13.951  62.337  1.00  0.00     5.500 OA 
HETATM   12  C   UNL     1     -12.527  13.680  65.615  1.00  0.00    -0.540 C  
HETATM   13  C   UNL     1     -12.913  15.068  66.182  1.00  0.00     1.252 C  
HETATM   14  C   UNL     1     -11.975  15.961  67.106  1.00  0.00     0.820 C  
HETATM   15  C   UNL     1     -14.234  14.790  66.947  1.00  0.00     9.389 C  
HETATM   16  C   UNL     1     -11.901  15.695  68.662  1.00  0.00    -0.291 C  
HETATM   17  C   UNL     1     -10.747  16.494  69.486  1.00  0.00    -0.321 C  
HETATM   18  O   UNL     1     -11.885  14.290  68.904  1.00  0.00    -0.307 OA 
HETATM   19  C   UNL     1      -9.375  16.372  68.715  1.00  0.00    -0.245 C  
HETATM   20  H   UNL     1     -11.840  14.131  69.839  1.00  0.00     0.000 HD 
HETATM   21  C   UNL     1      -9.151  14.823  68.901  1.00  0.00    -0.168 C  
HETATM   22  C   UNL     1      -7.924  17.084  68.931  1.00  0.00    -0.217 C  
HETATM   23  N   UNL     1      -6.836  16.026  69.021  1.00  0.00    -0.148 NA 
HETATM   24  O   UNL     1      -7.063  16.565  66.817  1.00  0.00    -0.206 OA 
HETATM   25  C   UNL     1      -6.341  14.343  67.225  1.00  0.00     0.369 C  
HETATM   26  C   UNL     1      -6.689  15.691  67.767  1.00  0.00    -0.159 C  
ENDROOT
BRANCH  22  27
HETATM   27  C   UNL     1      -7.862  18.054  70.117  1.00  0.00     2.153 C  
HETATM   28  O   UNL     1      -7.265  17.743  71.153  1.00  0.00     3.782 OA 
BRANCH  27  29
HETATM   29  C   UNL     1      -8.559  19.406  70.002  1.00  0.00     1.090 C  
BRANCH  29  30
HETATM   30  O   UNL     1      -8.844  19.743  68.638  1.00  0.00    -0.301 OA 
BRANCH  30  31
HETATM   31  C   UNL     1      -7.743  19.739  67.837  1.00  0.00    -0.295 C  
HETATM   32  C   UNL     1      -8.082  19.247  66.459  1.00  0.00    -0.310 C  
HETATM   33  O   UNL     1      -6.617  20.077  68.201  1.00  0.00    -0.259 OA 
ENDBRANCH  30  31
ENDBRANCH  29  30
ENDBRANCH  27  29
ENDBRANCH  22  27
TORSDOF 4
ENDMDL
MODEL      115
REMARK 921   NORMALIZED FREE ENERGY PREDICTED BY IDOCK:   48.89 KCAL/MOL
REMARK 922        TOTAL FREE ENERGY PREDICTED BY IDOCK:   60.08 KCAL/MOL
REMARK 923 INTER-LIGAND FREE ENERGY PREDICTED BY IDOCK:   43.58 KCAL/MOL
REMARK 924 INTRA-LIGAND FREE ENERGY PREDICTED BY IDOCK:   16.50 KCAL/MOL
REMARK 927      BINDING AFFINITY PREDICTED BY RF-SCORE:    0.00 PKD
ROOT
HETATM    1  C   UNL     1     -10.889  13.928  68.712  1.00  0.00    -0.263 C  
HETATM    2  C   UNL     1     -11.098  12.470  68.857  1.00  0.00    -0.309 C  
HETATM    3  C   UNL     1      -9.862  11.850  68.203  1.00  0.00    -0.192 C  
HETATM    4  C   UNL     1      -9.964  10.953  66.984  1.00  0.00    -0.227 C  
HETATM    5  C   UNL     1     -11.280  10.162  67.013  1.00  0.00     0.123 C  
HETATM    6  C   UNL     1     -11.317   9.105  65.940  1.00  0.00     3.473 C  
HETATM    7  C   UNL     1     -10.095   8.179  66.013  1.00  0.00     0.301 C  
HETATM    8  C   UNL     1     -10.193   6.996  65.377  1.00  0.00     2.337 C  
HETATM    9  C   UNL     1     -10.254   7.335  63.908  1.00  0.00     7.654 C  
HETATM   10  C   UNL     1      -9.443   8.542  63.466  1.00  0.00     1.995 C  
HETATM   11  O   UNL     1     -10.921   6.668  63.129  1.00  0.00     9.233 OA 
HETATM   12  C   UNL     1      -8.762   9.310  64.361  1.00  0.00    -0.211 C  
HETATM   13  C   UNL     1      -8.741   8.931  65.862  1.00  0.00    -0.197 C  
HETATM   14  C   UNL     1      -8.750   9.976  67.060  1.00  0.00    -0.137 C  
HETATM   15  C   UNL     1      -7.473   8.046  65.991  1.00  0.00    -0.077 C  
HETATM   16  C   UNL     1      -7.405  10.656  67.536  1.00  0.00    -0.091 C  
HETATM   17  C   UNL     1      -7.542  11.880  68.601  1.00  0.00    -0.119 C  
HETATM   18  O   UNL     1      -6.616  10.996  66.399  1.00  0.00    -0.125 OA 
HETATM   19  C   UNL     1      -8.665  12.876  68.112  1.00  0.00    -0.190 C  
HETATM   20  H   UNL     1      -5.808  11.404  66.685  1.00  0.00     0.000 HD 
HETATM   21  C   UNL     1      -7.943  13.409  66.817  1.00  0.00     0.332 C  
HETATM   22  C   UNL     1      -9.377  14.163  68.816  1.00  0.00    -0.092 C  
HETATM   23  N   UNL     1      -9.288  15.370  67.895  1.00  0.00    -0.192 NA 
HETATM   24  O   UNL     1     -11.214  14.268  67.368  1.00  0.00    -0.293 OA 
HETATM   25  C   UNL     1     -10.223  15.451  65.567  1.00  0.00    -0.411 C  
HETATM   26  C   UNL     1     -10.221  15.103  67.019  1.00  0.00    -0.262 C  
ENDROOT
BRANCH  22  27
HETATM   27  C   UNL     1      -8.855  14.489  70.220  1.00  0.00     1.536 C  
HETATM   28  O   UNL     1      -8.391  15.606  70.474  1.00  0.00     0.981 OA 
BRANCH  27  29
HETATM   29  C   UNL     1      -8.908  13.410  71.296  1.00  0.00    10.732 C  
BRANCH  29  30
HETATM   30  O   UNL     1     -10.238  13.219  71.793  1.00  0.00     7.392 OA 
BRANCH  30  31
HETATM   31  C   UNL     1     -11.192  13.825  71.033  1.00  0.00     1.293 C  
HETATM   32  C   UNL     1     -12.410  14.144  71.852  1.00  0.00    -0.281 C  
HETATM   33  O   UNL     1     -11.077  14.062  69.831  1.00  0.00    -0.133 OA 
ENDBRANCH  30  31
ENDBRANCH  29  30
ENDBRANCH  27  29
ENDBRANCH  22  27
TORSDOF 4
ENDMDL
