MODEL        1
REMARK 921   NORMALIZED FREE ENERGY PREDICTED BY IDOCK:   -7.83 KCAL/MOL
REMARK 922        TOTAL FREE ENERGY PREDICTED BY IDOCK:   -8.39 KCAL/MOL
REMARK 923 INTER-LIGAND FREE ENERGY PREDICTED BY IDOCK:   -8.28 KCAL/MOL
REMARK 924 INTRA-LIGAND FREE ENERGY PREDICTED BY IDOCK:   -0.11 KCAL/MOL
REMARK 927      BINDING AFFINITY PREDICTED BY RF-SCORE:    0.00 PKD
ROOT
HETATM    1  C   UNL     1     -10.019  13.926  66.321  1.00  0.00    -0.315 C  
HETATM    2  C   UNL     1     -10.607  15.535  66.396  1.00  0.00    -0.312 C  
HETATM    3  C   UNL     1     -10.441  13.606  67.740  1.00  0.00    -0.241 C  
HETATM    4  C   UNL     1      -9.842  16.405  67.539  1.00  0.00    -0.239 C  
HETATM    5  C   UNL     1     -11.875  13.125  67.490  1.00  0.00    -0.409 C  
HETATM    6  C   UNL     1     -10.672  16.420  65.163  1.00  0.00    -0.309 C  
HETATM    7  C   UNL     1     -11.629  11.887  66.685  1.00  0.00    -0.337 C  
HETATM    8  C   UNL     1     -11.199  12.912  64.189  1.00  0.00    -0.432 C  
HETATM    9  C   UNL     1     -10.643  12.451  65.575  1.00  0.00    -0.307 C  
HETATM   10  C   UNL     1     -10.981  10.917  67.740  1.00  0.00    -0.339 C  
HETATM   11  O   UNL     1     -10.246  10.470  64.061  1.00  0.00    -0.319 OA 
HETATM   12  C   UNL     1     -11.770  10.843  69.018  1.00  0.00    -0.320 C  
HETATM   13  C   UNL     1     -10.020  10.957  65.183  1.00  0.00    -0.284 C  
HETATM   14  O   UNL     1     -12.997  10.862  69.084  1.00  0.00     0.026 OA 
HETATM   15  C   UNL     1     -10.914  10.565  70.198  1.00  0.00    -0.338 C  
HETATM   16  C   UNL     1     -10.695   9.058  70.004  1.00  0.00    -0.247 C  
HETATM   17  C   UNL     1     -10.263   8.476  71.332  1.00  0.00    -0.303 C  
HETATM   18  C   UNL     1      -8.806   8.711  71.609  1.00  0.00    -0.223 C  
HETATM   19  C   UNL     1      -7.831   8.635  70.456  1.00  0.00    -0.096 C  
HETATM   20  O   UNL     1      -8.403   8.794  72.770  1.00  0.00    -0.412 OA 
HETATM   21  C   UNL     1      -8.329   9.140  69.083  1.00  0.00    -0.123 C  
HETATM   22  C   UNL     1      -9.801   8.781  68.715  1.00  0.00    -0.180 C  
HETATM   23  C   UNL     1      -9.853   7.263  68.426  1.00  0.00    -0.161 C  
HETATM   24  C   UNL     1     -10.419   9.572  67.361  1.00  0.00    -0.336 C  
HETATM   25  C   UNL     1      -9.433   9.942  66.215  1.00  0.00    -0.245 C  
ENDROOT
BRANCH   4  26
HETATM   26  C   UNL     1     -10.566  17.654  68.108  1.00  0.00    -0.359 C  
HETATM   27  O   UNL     1     -10.180  19.933  68.774  1.00  0.00    -0.451 OA 
HETATM   28  C   UNL     1      -9.589  18.812  68.333  1.00  0.00    -0.365 C  
HETATM   29  O   UNL     1      -8.372  18.718  68.225  1.00  0.00    -0.307 OA 
ENDBRANCH   4  26
TORSDOF 1
ENDMDL
MODEL        2
REMARK 921   NORMALIZED FREE ENERGY PREDICTED BY IDOCK:   -7.76 KCAL/MOL
REMARK 922        TOTAL FREE ENERGY PREDICTED BY IDOCK:   -8.32 KCAL/MOL
REMARK 923 INTER-LIGAND FREE ENERGY PREDICTED BY IDOCK:   -8.22 KCAL/MOL
REMARK 924 INTRA-LIGAND FREE ENERGY PREDICTED BY IDOCK:   -0.11 KCAL/MOL
REMARK 927      BINDING AFFINITY PREDICTED BY RF-SCORE:    0.00 PKD
ROOT
HETATM    1  C   UNL     1     -10.138  14.124  65.809  1.00  0.00    -0.352 C  
HETATM    2  C   UNL     1     -10.769  15.713  65.938  1.00  0.00    -0.336 C  
HETATM    3  C   UNL     1     -10.365  13.814  67.273  1.00  0.00    -0.253 C  
HETATM    4  C   UNL     1      -9.897  16.628  66.964  1.00  0.00    -0.260 C  
HETATM    5  C   UNL     1     -11.801  13.280  67.214  1.00  0.00    -0.421 C  
HETATM    6  C   UNL     1     -11.022  16.575  64.712  1.00  0.00    -0.192 C  
HETATM    7  C   UNL     1     -11.615  12.038  66.400  1.00  0.00    -0.381 C  
HETATM    8  C   UNL     1     -11.542  13.035  63.857  1.00  0.00    -0.508 C  
HETATM    9  C   UNL     1     -10.799  12.617  65.166  1.00  0.00    -0.321 C  
HETATM   10  C   UNL     1     -10.805  11.108  67.375  1.00  0.00    -0.317 C  
HETATM   11  O   UNL     1     -10.527  10.625  63.639  1.00  0.00    -0.219 OA 
HETATM   12  C   UNL     1     -11.423  11.029  68.744  1.00  0.00    -0.305 C  
HETATM   13  C   UNL     1     -10.177  11.138  64.716  1.00  0.00    -0.306 C  
HETATM   14  O   UNL     1     -12.631  11.007  68.966  1.00  0.00    -0.378 OA 
HETATM   15  C   UNL     1     -10.414  10.800  69.808  1.00  0.00    -0.130 C  
HETATM   16  C   UNL     1     -10.168   9.298  69.607  1.00  0.00    -0.219 C  
HETATM   17  C   UNL     1      -9.551   8.754  70.876  1.00  0.00    -0.275 C  
HETATM   18  C   UNL     1      -8.080   9.042  70.962  1.00  0.00    -0.159 C  
HETATM   19  C   UNL     1      -7.256   8.980  69.696  1.00  0.00    -0.059 C  
HETATM   20  O   UNL     1      -7.536   9.158  72.062  1.00  0.00    -0.335 OA 
HETATM   21  C   UNL     1      -7.942   9.445  68.392  1.00  0.00    -0.094 C  
HETATM   22  C   UNL     1      -9.436   9.030  68.218  1.00  0.00    -0.156 C  
HETATM   23  C   UNL     1      -9.469   7.506  67.957  1.00  0.00    -0.149 C  
HETATM   24  C   UNL     1     -10.247   9.777  66.944  1.00  0.00    -0.310 C  
HETATM   25  C   UNL     1      -9.429  10.161  65.678  1.00  0.00    -0.275 C  
ENDROOT
BRANCH   4  26
HETATM   26  C   UNL     1     -10.587  17.860  67.605  1.00  0.00    -0.398 C  
HETATM   27  O   UNL     1     -10.154  19.754  69.025  1.00  0.00    -0.448 OA 
HETATM   28  C   UNL     1      -9.616  18.646  68.491  1.00  0.00    -0.361 C  
HETATM   29  O   UNL     1      -8.487  18.268  68.781  1.00  0.00    -0.300 OA 
ENDBRANCH   4  26
TORSDOF 1
ENDMDL
MODEL        3
REMARK 921   NORMALIZED FREE ENERGY PREDICTED BY IDOCK:   -7.52 KCAL/MOL
REMARK 922        TOTAL FREE ENERGY PREDICTED BY IDOCK:   -8.06 KCAL/MOL
REMARK 923 INTER-LIGAND FREE ENERGY PREDICTED BY IDOCK:   -7.94 KCAL/MOL
REMARK 924 INTRA-LIGAND FREE ENERGY PREDICTED BY IDOCK:   -0.12 KCAL/MOL
REMARK 927      BINDING AFFINITY PREDICTED BY RF-SCORE:    0.00 PKD
ROOT
HETATM    1  C   UNL     1     -10.103  14.252  66.160  1.00  0.00    -0.325 C  
HETATM    2  C   UNL     1     -10.520  15.843  66.646  1.00  0.00    -0.306 C  
HETATM    3  C   UNL     1     -10.222  13.693  67.562  1.00  0.00    -0.241 C  
HETATM    4  C   UNL     1      -9.446  16.452  67.707  1.00  0.00    -0.222 C  
HETATM    5  C   UNL     1     -11.711  13.329  67.580  1.00  0.00    -0.410 C  
HETATM    6  C   UNL     1     -10.785  16.944  65.632  1.00  0.00    -0.173 C  
HETATM    7  C   UNL     1     -11.759  12.253  66.541  1.00  0.00    -0.420 C  
HETATM    8  C   UNL     1     -11.814  13.705  64.226  1.00  0.00    -0.464 C  
HETATM    9  C   UNL     1     -11.003  12.970  65.342  1.00  0.00    -0.297 C  
HETATM   10  C   UNL     1     -10.976  11.076  67.231  1.00  0.00    -0.356 C  
HETATM   11  O   UNL     1     -11.127  11.290  63.462  1.00  0.00    -0.367 OA 
HETATM   12  C   UNL     1     -11.461  10.800  68.628  1.00  0.00    -0.295 C  
HETATM   13  C   UNL     1     -10.614  11.550  64.565  1.00  0.00    -0.329 C  
HETATM   14  O   UNL     1     -12.635  10.860  68.984  1.00  0.00    -0.350 OA 
HETATM   15  C   UNL     1     -10.389  10.271  69.506  1.00  0.00    -0.267 C  
HETATM   16  C   UNL     1     -10.349   8.819  69.012  1.00  0.00    -0.227 C  
HETATM   17  C   UNL     1      -9.681   7.982  70.080  1.00  0.00    -0.176 C  
HETATM   18  C   UNL     1      -8.184   8.098  70.041  1.00  0.00    -0.120 C  
HETATM   19  C   UNL     1      -7.503   8.194  68.695  1.00  0.00    -0.098 C  
HETATM   20  O   UNL     1      -7.526   7.946  71.071  1.00  0.00    -0.070 OA 
HETATM   21  C   UNL     1      -8.251   8.967  67.586  1.00  0.00    -0.109 C  
HETATM   22  C   UNL     1      -9.794   8.748  67.520  1.00  0.00    -0.232 C  
HETATM   23  C   UNL     1     -10.039   7.313  66.997  1.00  0.00    -0.316 C  
HETATM   24  C   UNL     1     -10.630   9.803  66.506  1.00  0.00    -0.150 C  
HETATM   25  C   UNL     1      -9.899  10.336  65.240  1.00  0.00    -0.372 C  
ENDROOT
BRANCH   4  26
HETATM   26  C   UNL     1      -9.914  17.603  68.636  1.00  0.00    -0.367 C  
HETATM   27  O   UNL     1      -9.736  19.982  68.949  1.00  0.00    -0.264 OA 
HETATM   28  C   UNL     1      -9.315  18.946  68.207  1.00  0.00    -0.339 C  
HETATM   29  O   UNL     1      -8.457  19.072  67.341  1.00  0.00    -0.273 OA 
ENDBRANCH   4  26
TORSDOF 1
ENDMDL
MODEL        4
REMARK 921   NORMALIZED FREE ENERGY PREDICTED BY IDOCK:   -7.40 KCAL/MOL
REMARK 922        TOTAL FREE ENERGY PREDICTED BY IDOCK:   -7.93 KCAL/MOL
REMARK 923 INTER-LIGAND FREE ENERGY PREDICTED BY IDOCK:   -7.67 KCAL/MOL
REMARK 924 INTRA-LIGAND FREE ENERGY PREDICTED BY IDOCK:   -0.27 KCAL/MOL
REMARK 927      BINDING AFFINITY PREDICTED BY RF-SCORE:    0.00 PKD
ROOT
HETATM    1  C   UNL     1     -11.982  11.801  67.362  1.00  0.00    -0.050 C  
HETATM    2  C   UNL     1     -11.548  12.596  65.906  1.00  0.00    -0.443 C  
HETATM    3  C   UNL     1     -10.848  10.802  67.265  1.00  0.00    -0.344 C  
HETATM    4  C   UNL     1     -11.636  11.599  64.622  1.00  0.00    -0.199 C  
HETATM    5  C   UNL     1      -9.743  11.583  67.986  1.00  0.00    -0.187 C  
HETATM    6  C   UNL     1     -12.208  13.896  65.478  1.00  0.00    -0.467 C  
HETATM    7  C   UNL     1     -10.303  11.662  69.372  1.00  0.00     0.138 C  
HETATM    8  C   UNL     1     -12.065  13.740  69.151  1.00  0.00    -0.374 C  
HETATM    9  C   UNL     1     -11.763  12.208  69.067  1.00  0.00    -0.377 C  
HETATM   10  C   UNL     1     -10.224  10.170  69.860  1.00  0.00    -0.284 C  
HETATM   11  O   UNL     1     -12.782  12.512  71.356  1.00  0.00    -0.348 OA 
HETATM   12  C   UNL     1      -8.871   9.556  69.626  1.00  0.00    -0.187 C  
HETATM   13  C   UNL     1     -12.404  11.682  70.511  1.00  0.00    -0.321 C  
HETATM   14  O   UNL     1      -7.803  10.151  69.749  1.00  0.00    -0.154 OA 
HETATM   15  C   UNL     1      -8.944   8.092  69.396  1.00  0.00    -0.148 C  
HETATM   16  C   UNL     1      -9.137   7.617  70.843  1.00  0.00    -0.149 C  
HETATM   17  C   UNL     1      -8.755   6.155  70.907  1.00  0.00    -0.136 C  
HETATM   18  C   UNL     1      -9.850   5.258  70.404  1.00  0.00    -0.213 C  
HETATM   19  C   UNL     1     -11.283   5.624  70.715  1.00  0.00    -0.098 C  
HETATM   20  O   UNL     1      -9.573   4.167  69.902  1.00  0.00    -0.182 OA 
HETATM   21  C   UNL     1     -11.629   7.130  70.745  1.00  0.00    -0.358 C  
HETATM   22  C   UNL     1     -10.562   8.065  71.395  1.00  0.00    -0.258 C  
HETATM   23  C   UNL     1     -10.578   7.801  72.919  1.00  0.00    -0.428 C  
HETATM   24  C   UNL     1     -10.816   9.715  71.167  1.00  0.00    -0.404 C  
HETATM   25  C   UNL     1     -12.283  10.223  71.056  1.00  0.00    -0.487 C  
ENDROOT
BRANCH   4  26
HETATM   26  C   UNL     1     -10.800  11.956  63.366  1.00  0.00    -0.469 C  
HETATM   27  O   UNL     1      -8.663  11.564  62.332  1.00  0.00    -0.310 OA 
HETATM   28  C   UNL     1      -9.405  11.327  63.425  1.00  0.00    -0.241 C  
HETATM   29  O   UNL     1      -8.951  10.748  64.405  1.00  0.00    -0.191 OA 
ENDBRANCH   4  26
TORSDOF 1
ENDMDL
MODEL        5
REMARK 921   NORMALIZED FREE ENERGY PREDICTED BY IDOCK:   -7.38 KCAL/MOL
REMARK 922        TOTAL FREE ENERGY PREDICTED BY IDOCK:   -7.92 KCAL/MOL
REMARK 923 INTER-LIGAND FREE ENERGY PREDICTED BY IDOCK:   -7.81 KCAL/MOL
REMARK 924 INTRA-LIGAND FREE ENERGY PREDICTED BY IDOCK:   -0.11 KCAL/MOL
REMARK 927      BINDING AFFINITY PREDICTED BY RF-SCORE:    0.00 PKD
ROOT
HETATM    1  C   UNL     1      -9.464  12.898  68.105  1.00  0.00    -0.218 C  
HETATM    2  C   UNL     1      -9.254  11.464  67.189  1.00  0.00    -0.170 C  
HETATM    3  C   UNL     1      -8.933  13.792  67.004  1.00  0.00    -0.247 C  
HETATM    4  C   UNL     1      -7.691  11.212  66.811  1.00  0.00    -0.153 C  
HETATM    5  C   UNL     1     -10.229  14.061  66.230  1.00  0.00    -0.300 C  
HETATM    6  C   UNL     1      -9.797  10.127  67.663  1.00  0.00    -0.201 C  
HETATM    7  C   UNL     1     -11.018  14.830  67.245  1.00  0.00    -0.318 C  
HETATM    8  C   UNL     1     -12.002  12.831  68.827  1.00  0.00    -0.278 C  
HETATM    9  C   UNL     1     -10.882  13.873  68.505  1.00  0.00    -0.274 C  
HETATM   10  C   UNL     1     -10.229  16.187  67.334  1.00  0.00    -0.272 C  
HETATM   11  O   UNL     1     -12.289  15.004  70.271  1.00  0.00    -0.313 OA 
HETATM   12  C   UNL     1      -9.952  16.784  65.981  1.00  0.00    -0.313 C  
HETATM   13  C   UNL     1     -11.236  15.066  69.613  1.00  0.00    -0.275 C  
HETATM   14  O   UNL     1     -10.728  16.750  65.031  1.00  0.00    -0.692 OA 
HETATM   15  C   UNL     1      -8.701  17.582  65.960  1.00  0.00    -0.069 C  
HETATM   16  C   UNL     1      -9.202  18.859  66.649  1.00  0.00    -0.343 C  
HETATM   17  C   UNL     1      -8.246  19.979  66.305  1.00  0.00    -0.324 C  
HETATM   18  C   UNL     1      -7.002  19.943  67.146  1.00  0.00    -0.213 C  
HETATM   19  C   UNL     1      -7.123  19.544  68.598  1.00  0.00    -0.373 C  
HETATM   20  O   UNL     1      -5.943  20.393  66.702  1.00  0.00    -0.173 OA 
HETATM   21  C   UNL     1      -8.179  18.470  68.943  1.00  0.00    -0.203 C  
HETATM   22  C   UNL     1      -9.537  18.576  68.180  1.00  0.00    -0.353 C  
HETATM   23  C   UNL     1     -10.286  19.811  68.732  1.00  0.00    -0.473 C  
HETATM   24  C   UNL     1     -10.562  17.249  68.347  1.00  0.00    -0.368 C  
HETATM   25  C   UNL     1     -10.518  16.452  69.683  1.00  0.00    -0.278 C  
ENDROOT
BRANCH   4  26
HETATM   26  C   UNL     1      -7.375  10.313  65.587  1.00  0.00    -0.149 C  
HETATM   27  O   UNL     1      -5.589   9.688  64.101  1.00  0.00    -0.068 OA 
HETATM   28  C   UNL     1      -5.925  10.487  65.125  1.00  0.00    -0.113 C  
HETATM   29  O   UNL     1      -5.159  11.338  65.564  1.00  0.00    -0.281 OA 
ENDBRANCH   4  26
TORSDOF 1
ENDMDL
MODEL        6
REMARK 921   NORMALIZED FREE ENERGY PREDICTED BY IDOCK:   -7.38 KCAL/MOL
REMARK 922        TOTAL FREE ENERGY PREDICTED BY IDOCK:   -7.92 KCAL/MOL
REMARK 923 INTER-LIGAND FREE ENERGY PREDICTED BY IDOCK:   -7.64 KCAL/MOL
REMARK 924 INTRA-LIGAND FREE ENERGY PREDICTED BY IDOCK:   -0.27 KCAL/MOL
REMARK 927      BINDING AFFINITY PREDICTED BY RF-SCORE:    0.00 PKD
ROOT
HETATM    1  C   UNL     1     -10.769   9.837  70.938  1.00  0.00    -0.375 C  
HETATM    2  C   UNL     1     -10.561   8.147  70.736  1.00  0.00    -0.234 C  
HETATM    3  C   UNL     1     -10.209  10.164  69.570  1.00  0.00    -0.258 C  
HETATM    4  C   UNL     1      -8.994   7.751  70.537  1.00  0.00    -0.150 C  
HETATM    5  C   UNL     1     -11.488  10.077  68.730  1.00  0.00    -0.040 C  
HETATM    6  C   UNL     1     -11.127   7.148  71.731  1.00  0.00    -0.267 C  
HETATM    7  C   UNL     1     -12.285  11.211  69.295  1.00  0.00    -0.295 C  
HETATM    8  C   UNL     1     -13.320  10.096  71.565  1.00  0.00    -0.434 C  
HETATM    9  C   UNL     1     -12.183  10.893  70.848  1.00  0.00    -0.485 C  
HETATM   10  C   UNL     1     -11.482  12.471  68.805  1.00  0.00    -0.353 C  
HETATM   11  O   UNL     1     -13.607  12.680  71.921  1.00  0.00    -0.382 OA 
HETATM   12  C   UNL     1     -11.174  12.424  67.333  1.00  0.00    -0.297 C  
HETATM   13  C   UNL     1     -12.541  12.449  71.323  1.00  0.00    -0.230 C  
HETATM   14  O   UNL     1     -11.935  11.984  66.475  1.00  0.00    -0.616 OA 
HETATM   15  C   UNL     1      -9.914  13.130  66.995  1.00  0.00    -0.244 C  
HETATM   16  C   UNL     1     -10.412  14.581  67.054  1.00  0.00    -0.268 C  
HETATM   17  C   UNL     1      -9.436  15.439  66.280  1.00  0.00    -0.342 C  
HETATM   18  C   UNL     1      -8.208  15.766  67.079  1.00  0.00    -0.228 C  
HETATM   19  C   UNL     1      -8.359  16.034  68.558  1.00  0.00    -0.191 C  
HETATM   20  O   UNL     1      -7.136  15.977  66.507  1.00  0.00    -0.169 OA 
HETATM   21  C   UNL     1      -9.434  15.218  69.311  1.00  0.00    -0.242 C  
HETATM   22  C   UNL     1     -10.776  14.989  68.550  1.00  0.00    -0.244 C  
HETATM   23  C   UNL     1     -11.520  16.344  68.498  1.00  0.00    -0.209 C  
HETATM   24  C   UNL     1     -11.820  13.868  69.253  1.00  0.00    -0.394 C  
HETATM   25  C   UNL     1     -11.809  13.727  70.802  1.00  0.00    -0.215 C  
ENDROOT
BRANCH   4  26
HETATM   26  C   UNL     1      -8.668   6.410  69.829  1.00  0.00    -0.138 C  
HETATM   27  O   UNL     1      -8.058   5.492  67.690  1.00  0.00    -0.101 OA 
HETATM   28  C   UNL     1      -8.399   6.618  68.335  1.00  0.00    -0.122 C  
HETATM   29  O   UNL     1      -8.572   7.678  67.745  1.00  0.00    -0.121 OA 
ENDBRANCH   4  26
TORSDOF 1
ENDMDL
MODEL        7
REMARK 921   NORMALIZED FREE ENERGY PREDICTED BY IDOCK:   -7.20 KCAL/MOL
REMARK 922        TOTAL FREE ENERGY PREDICTED BY IDOCK:   -7.73 KCAL/MOL
REMARK 923 INTER-LIGAND FREE ENERGY PREDICTED BY IDOCK:   -7.59 KCAL/MOL
REMARK 924 INTRA-LIGAND FREE ENERGY PREDICTED BY IDOCK:   -0.14 KCAL/MOL
REMARK 927      BINDING AFFINITY PREDICTED BY RF-SCORE:    0.00 PKD
ROOT
HETATM    1  C   UNL     1     -10.968   9.932  71.055  1.00  0.00    -0.360 C  
HETATM    2  C   UNL     1     -10.838   8.231  70.879  1.00  0.00    -0.261 C  
HETATM    3  C   UNL     1     -10.377  10.213  69.689  1.00  0.00    -0.278 C  
HETATM    4  C   UNL     1      -9.290   7.758  70.704  1.00  0.00    -0.162 C  
HETATM    5  C   UNL     1     -11.649  10.174  68.835  1.00  0.00    -0.056 C  
HETATM    6  C   UNL     1     -11.463   7.274  71.880  1.00  0.00    -0.302 C  
HETATM    7  C   UNL     1     -12.398  11.353  69.375  1.00  0.00    -0.184 C  
HETATM    8  C   UNL     1     -13.511  10.321  71.648  1.00  0.00    -0.360 C  
HETATM    9  C   UNL     1     -12.329  11.053  70.933  1.00  0.00    -0.503 C  
HETATM   10  C   UNL     1     -11.530  12.566  68.877  1.00  0.00    -0.355 C  
HETATM   11  O   UNL     1     -13.678  12.921  71.964  1.00  0.00    -0.433 OA 
HETATM   12  C   UNL     1     -11.208  12.483  67.410  1.00  0.00    -0.293 C  
HETATM   13  C   UNL     1     -12.618  12.630  71.382  1.00  0.00    -0.202 C  
HETATM   14  O   UNL     1     -11.978  12.068  66.549  1.00  0.00    -0.616 OA 
HETATM   15  C   UNL     1      -9.912  13.124  67.078  1.00  0.00    -0.244 C  
HETATM   16  C   UNL     1     -10.341  14.597  67.110  1.00  0.00    -0.265 C  
HETATM   17  C   UNL     1      -9.317  15.397  66.336  1.00  0.00    -0.331 C  
HETATM   18  C   UNL     1      -8.083  15.677  67.145  1.00  0.00    -0.215 C  
HETATM   19  C   UNL     1      -8.238  15.974  68.619  1.00  0.00    -0.193 C  
HETATM   20  O   UNL     1      -6.997  15.828  66.583  1.00  0.00    -0.177 OA 
HETATM   21  C   UNL     1      -9.360  15.220  69.370  1.00  0.00    -0.228 C  
HETATM   22  C   UNL     1     -10.702  15.044  68.596  1.00  0.00    -0.244 C  
HETATM   23  C   UNL     1     -11.381  16.431  68.516  1.00  0.00    -0.289 C  
HETATM   24  C   UNL     1     -11.807  13.984  69.301  1.00  0.00    -0.389 C  
HETATM   25  C   UNL     1     -11.820  13.864  70.853  1.00  0.00    -0.204 C  
ENDROOT
BRANCH   4  26
HETATM   26  C   UNL     1      -9.019   6.394  70.019  1.00  0.00    -0.146 C  
HETATM   27  O   UNL     1      -8.287   4.149  70.480  1.00  0.00    -0.065 OA 
HETATM   28  C   UNL     1      -8.484   5.363  71.017  1.00  0.00    -0.124 C  
HETATM   29  O   UNL     1      -8.164   5.623  72.171  1.00  0.00    -0.111 OA 
ENDBRANCH   4  26
TORSDOF 1
ENDMDL
MODEL        8
REMARK 921   NORMALIZED FREE ENERGY PREDICTED BY IDOCK:   -6.99 KCAL/MOL
REMARK 922        TOTAL FREE ENERGY PREDICTED BY IDOCK:   -7.51 KCAL/MOL
REMARK 923 INTER-LIGAND FREE ENERGY PREDICTED BY IDOCK:   -7.78 KCAL/MOL
REMARK 924 INTRA-LIGAND FREE ENERGY PREDICTED BY IDOCK:    0.28 KCAL/MOL
REMARK 927      BINDING AFFINITY PREDICTED BY RF-SCORE:    0.00 PKD
ROOT
HETATM    1  C   UNL     1      -9.671  12.795  68.045  1.00  0.00    -0.220 C  
HETATM    2  C   UNL     1      -9.613  11.353  67.118  1.00  0.00    -0.193 C  
HETATM    3  C   UNL     1      -9.180  13.659  66.903  1.00  0.00    -0.257 C  
HETATM    4  C   UNL     1      -8.100  11.015  66.619  1.00  0.00    -0.155 C  
HETATM    5  C   UNL     1     -10.516  14.001  66.233  1.00  0.00    -0.286 C  
HETATM    6  C   UNL     1     -10.189  10.046  67.637  1.00  0.00    -0.249 C  
HETATM    7  C   UNL     1     -11.179  14.810  67.304  1.00  0.00    -0.351 C  
HETATM    8  C   UNL     1     -12.144  12.865  68.964  1.00  0.00    -0.198 C  
HETATM    9  C   UNL     1     -10.998  13.845  68.553  1.00  0.00    -0.277 C  
HETATM   10  C   UNL     1     -10.312  16.121  67.328  1.00  0.00    -0.287 C  
HETATM   11  O   UNL     1     -12.197  15.048  70.420  1.00  0.00    -0.298 OA 
HETATM   12  C   UNL     1     -10.110  16.705  65.956  1.00  0.00    -0.340 C  
HETATM   13  C   UNL     1     -11.197  15.053  69.681  1.00  0.00    -0.275 C  
HETATM   14  O   UNL     1     -10.959  16.716  65.069  1.00  0.00    -0.568 OA 
HETATM   15  C   UNL     1      -8.822  17.433  65.835  1.00  0.00     0.035 C  
HETATM   16  C   UNL     1      -9.197  18.734  66.558  1.00  0.00    -0.336 C  
HETATM   17  C   UNL     1      -8.210  19.801  66.137  1.00  0.00    -0.363 C  
HETATM   18  C   UNL     1      -6.908  19.695  66.877  1.00  0.00    -0.196 C  
HETATM   19  C   UNL     1      -6.937  19.300  68.336  1.00  0.00    -0.316 C  
HETATM   20  O   UNL     1      -5.865  20.087  66.351  1.00  0.00    -0.171 OA 
HETATM   21  C   UNL     1      -8.020  18.285  68.765  1.00  0.00    -0.268 C  
HETATM   22  C   UNL     1      -9.425  18.467  68.111  1.00  0.00    -0.341 C  
HETATM   23  C   UNL     1     -10.060  19.741  68.717  1.00  0.00    -0.523 C  
HETATM   24  C   UNL     1     -10.506  17.199  68.362  1.00  0.00    -0.376 C  
HETATM   25  C   UNL     1     -10.401  16.398  69.692  1.00  0.00    -0.244 C  
ENDROOT
BRANCH   4  26
HETATM   26  C   UNL     1      -7.931  10.103  65.377  1.00  0.00    -0.144 C  
HETATM   27  O   UNL     1      -8.659   9.844  63.098  1.00  0.00    -0.163 OA 
HETATM   28  C   UNL     1      -8.813  10.572  64.215  1.00  0.00    -0.197 C  
HETATM   29  O   UNL     1      -9.657  11.456  64.304  1.00  0.00    -0.229 OA 
ENDBRANCH   4  26
TORSDOF 1
ENDMDL
MODEL        9
REMARK 921   NORMALIZED FREE ENERGY PREDICTED BY IDOCK:   -6.97 KCAL/MOL
REMARK 922        TOTAL FREE ENERGY PREDICTED BY IDOCK:   -7.49 KCAL/MOL
REMARK 923 INTER-LIGAND FREE ENERGY PREDICTED BY IDOCK:   -7.29 KCAL/MOL
REMARK 924 INTRA-LIGAND FREE ENERGY PREDICTED BY IDOCK:   -0.20 KCAL/MOL
REMARK 927      BINDING AFFINITY PREDICTED BY RF-SCORE:    0.00 PKD
ROOT
HETATM    1  C   UNL     1     -10.623  17.130  68.320  1.00  0.00    -0.375 C  
HETATM    2  C   UNL     1      -9.752  18.600  68.467  1.00  0.00    -0.409 C  
HETATM    3  C   UNL     1      -9.494  16.424  67.600  1.00  0.00    -0.225 C  
HETATM    4  C   UNL     1      -9.381  19.231  67.013  1.00  0.00    -0.373 C  
HETATM    5  C   UNL     1      -8.713  15.876  68.800  1.00  0.00    -0.213 C  
HETATM    6  C   UNL     1     -10.268  19.754  69.311  1.00  0.00    -0.225 C  
HETATM    7  C   UNL     1      -9.703  14.910  69.373  1.00  0.00    -0.099 C  
HETATM    8  C   UNL     1     -11.348  16.566  70.795  1.00  0.00    -0.064 C  
HETATM    9  C   UNL     1     -10.993  15.833  69.461  1.00  0.00    -0.295 C  
HETATM   10  C   UNL     1      -9.749  13.780  68.282  1.00  0.00    -0.231 C  
HETATM   11  O   UNL     1     -12.722  14.345  70.543  1.00  0.00    -0.343 OA 
HETATM   12  C   UNL     1      -8.378  13.307  67.881  1.00  0.00    -0.163 C  
HETATM   13  C   UNL     1     -12.062  14.557  69.510  1.00  0.00    -0.306 C  
HETATM   14  O   UNL     1      -7.429  13.183  68.650  1.00  0.00    -0.112 OA 
HETATM   15  C   UNL     1      -8.331  12.833  66.475  1.00  0.00     0.220 C  
HETATM   16  C   UNL     1      -8.980  11.453  66.651  1.00  0.00    -0.183 C  
HETATM   17  C   UNL     1      -8.601  10.606  65.457  1.00  0.00    -0.191 C  
HETATM   18  C   UNL     1      -9.442  10.913  64.251  1.00  0.00    -0.250 C  
HETATM   19  C   UNL     1     -10.906  11.227  64.453  1.00  0.00    -0.373 C  
HETATM   20  O   UNL     1      -8.984  10.743  63.119  1.00  0.00    -0.200 OA 
HETATM   21  C   UNL     1     -11.284  12.006  65.733  1.00  0.00    -0.383 C  
HETATM   22  C   UNL     1     -10.520  11.601  67.031  1.00  0.00    -0.258 C  
HETATM   23  C   UNL     1     -11.033  10.206  67.459  1.00  0.00    -0.319 C  
HETATM   24  C   UNL     1     -10.729  12.638  68.343  1.00  0.00    -0.260 C  
HETATM   25  C   UNL     1     -12.089  13.382  68.481  1.00  0.00    -0.283 C  
ENDROOT
BRANCH   4  26
HETATM   26  C   UNL     1      -8.186  20.216  66.931  1.00  0.00    -0.363 C  
HETATM   27  O   UNL     1      -6.100  20.579  65.788  1.00  0.00    -0.199 OA 
HETATM   28  C   UNL     1      -7.130  19.731  65.934  1.00  0.00    -0.298 C  
HETATM   29  O   UNL     1      -7.149  18.633  65.388  1.00  0.00    -0.517 OA 
ENDBRANCH   4  26
TORSDOF 1
ENDMDL
MODEL       10
REMARK 921   NORMALIZED FREE ENERGY PREDICTED BY IDOCK:   -6.85 KCAL/MOL
REMARK 922        TOTAL FREE ENERGY PREDICTED BY IDOCK:   -7.36 KCAL/MOL
REMARK 923 INTER-LIGAND FREE ENERGY PREDICTED BY IDOCK:   -7.09 KCAL/MOL
REMARK 924 INTRA-LIGAND FREE ENERGY PREDICTED BY IDOCK:   -0.27 KCAL/MOL
REMARK 927      BINDING AFFINITY PREDICTED BY RF-SCORE:    0.00 PKD
ROOT
HETATM    1  C   UNL     1     -10.266   9.944  70.139  1.00  0.00    -0.326 C  
HETATM    2  C   UNL     1      -9.882   8.318  69.751  1.00  0.00    -0.187 C  
HETATM    3  C   UNL     1      -9.950  10.449  68.746  1.00  0.00    -0.196 C  
HETATM    4  C   UNL     1      -8.323   8.153  69.312  1.00  0.00    -0.130 C  
HETATM    5  C   UNL     1     -11.315  10.255  68.076  1.00  0.00    -0.219 C  
HETATM    6  C   UNL     1     -10.175   7.178  70.712  1.00  0.00    -0.208 C  
HETATM    7  C   UNL     1     -12.157  11.225  68.847  1.00  0.00    -0.292 C  
HETATM    8  C   UNL     1     -12.714   9.808  71.116  1.00  0.00    -0.433 C  
HETATM    9  C   UNL     1     -11.797  10.804  70.335  1.00  0.00    -0.450 C  
HETATM   10  C   UNL     1     -11.592  12.615  68.378  1.00  0.00    -0.370 C  
HETATM   11  O   UNL     1     -13.263  12.295  71.751  1.00  0.00    -0.445 OA 
HETATM   12  C   UNL     1     -11.493  12.724  66.881  1.00  0.00    -0.340 C  
HETATM   13  C   UNL     1     -12.273  12.256  70.999  1.00  0.00    -0.108 C  
HETATM   14  O   UNL     1     -12.308  12.254  66.091  1.00  0.00    -0.588 OA 
HETATM   15  C   UNL     1     -10.390  13.618  66.450  1.00  0.00    -0.286 C  
HETATM   16  C   UNL     1     -11.049  14.979  66.711  1.00  0.00    -0.326 C  
HETATM   17  C   UNL     1     -10.306  16.019  65.901  1.00  0.00    -0.386 C  
HETATM   18  C   UNL     1      -9.026  16.446  66.560  1.00  0.00    -0.276 C  
HETATM   19  C   UNL     1      -8.998  16.576  68.066  1.00  0.00    -0.204 C  
HETATM   20  O   UNL     1      -8.081  16.842  65.875  1.00  0.00    -0.453 OA 
HETATM   21  C   UNL     1      -9.846  15.566  68.871  1.00  0.00    -0.219 C  
HETATM   22  C   UNL     1     -11.245  15.218  68.274  1.00  0.00    -0.318 C  
HETATM   23  C   UNL     1     -12.149  16.460  68.449  1.00  0.00     0.664 C  
HETATM   24  C   UNL     1     -12.033  13.915  68.997  1.00  0.00    -0.402 C  
HETATM   25  C   UNL     1     -11.784  13.657  70.511  1.00  0.00    -0.175 C  
ENDROOT
BRANCH   4  26
HETATM   26  C   UNL     1      -7.939   6.928  68.443  1.00  0.00    -0.122 C  
HETATM   27  O   UNL     1      -7.460   6.285  66.174  1.00  0.00    -0.082 OA 
HETATM   28  C   UNL     1      -7.844   7.302  66.960  1.00  0.00    -0.112 C  
HETATM   29  O   UNL     1      -8.180   8.387  66.501  1.00  0.00    -0.102 OA 
ENDBRANCH   4  26
TORSDOF 1
ENDMDL
MODEL       11
REMARK 921   NORMALIZED FREE ENERGY PREDICTED BY IDOCK:   -6.83 KCAL/MOL
REMARK 922        TOTAL FREE ENERGY PREDICTED BY IDOCK:   -7.34 KCAL/MOL
REMARK 923 INTER-LIGAND FREE ENERGY PREDICTED BY IDOCK:   -7.26 KCAL/MOL
REMARK 924 INTRA-LIGAND FREE ENERGY PREDICTED BY IDOCK:   -0.08 KCAL/MOL
REMARK 927      BINDING AFFINITY PREDICTED BY RF-SCORE:    0.00 PKD
ROOT
HETATM    1  C   UNL     1     -10.090  14.627  65.466  1.00  0.00    -0.405 C  
HETATM    2  C   UNL     1     -10.273  16.265  65.939  1.00  0.00    -0.384 C  
HETATM    3  C   UNL     1      -9.789  14.156  66.874  1.00  0.00    -0.265 C  
HETATM    4  C   UNL     1      -8.900  16.868  66.572  1.00  0.00    -0.305 C  
HETATM    5  C   UNL     1     -11.212  13.884  67.374  1.00  0.00    -0.330 C  
HETATM    6  C   UNL     1     -10.795  17.320  64.979  1.00  0.00     0.158 C  
HETATM    7  C   UNL     1     -11.623  12.755  66.481  1.00  0.00    -0.435 C  
HETATM    8  C   UNL     1     -12.336  14.073  64.196  1.00  0.00    -0.374 C  
HETATM    9  C   UNL     1     -11.248  13.356  65.059  1.00  0.00    -0.332 C  
HETATM   10  C   UNL     1     -10.711  11.575  66.981  1.00  0.00    -0.300 C  
HETATM   11  O   UNL     1     -12.015  11.582  63.435  1.00  0.00    -0.345 OA 
HETATM   12  C   UNL     1     -10.749  11.408  68.475  1.00  0.00    -0.201 C  
HETATM   13  C   UNL     1     -11.175  11.873  64.305  1.00  0.00    -0.357 C  
HETATM   14  O   UNL     1     -11.752  11.558  69.169  1.00  0.00    -0.272 OA 
HETATM   15  C   UNL     1      -9.479  10.867  69.018  1.00  0.00    -0.160 C  
HETATM   16  C   UNL     1      -9.651   9.389  68.642  1.00  0.00    -0.152 C  
HETATM   17  C   UNL     1      -8.718   8.576  69.512  1.00  0.00    -0.136 C  
HETATM   18  C   UNL     1      -7.304   8.600  69.007  1.00  0.00    -0.077 C  
HETATM   19  C   UNL     1      -7.070   8.579  67.514  1.00  0.00    -0.080 C  
HETATM   20  O   UNL     1      -6.364   8.468  69.793  1.00  0.00    -0.035 OA 
HETATM   21  C   UNL     1      -8.095   9.331  66.635  1.00  0.00    -0.108 C  
HETATM   22  C   UNL     1      -9.590   9.200  67.062  1.00  0.00    -0.223 C  
HETATM   23  C   UNL     1     -10.041   7.755  66.745  1.00  0.00    -0.341 C  
HETATM   24  C   UNL     1     -10.657  10.244  66.279  1.00  0.00    -0.150 C  
HETATM   25  C   UNL     1     -10.334  10.659  64.815  1.00  0.00    -0.353 C  
ENDROOT
BRANCH   4  26
HETATM   26  C   UNL     1      -9.011  18.096  67.513  1.00  0.00    -0.257 C  
HETATM   27  O   UNL     1      -8.749  20.487  67.554  1.00  0.00    -0.316 OA 
HETATM   28  C   UNL     1      -8.616  19.389  66.794  1.00  0.00    -0.311 C  
HETATM   29  O   UNL     1      -8.126  19.431  65.671  1.00  0.00    -0.414 OA 
ENDBRANCH   4  26
TORSDOF 1
ENDMDL
MODEL       12
REMARK 921   NORMALIZED FREE ENERGY PREDICTED BY IDOCK:   -6.79 KCAL/MOL
REMARK 922        TOTAL FREE ENERGY PREDICTED BY IDOCK:   -7.30 KCAL/MOL
REMARK 923 INTER-LIGAND FREE ENERGY PREDICTED BY IDOCK:   -7.23 KCAL/MOL
REMARK 924 INTRA-LIGAND FREE ENERGY PREDICTED BY IDOCK:   -0.07 KCAL/MOL
REMARK 927      BINDING AFFINITY PREDICTED BY RF-SCORE:    0.00 PKD
ROOT
HETATM    1  C   UNL     1     -11.537  12.300  70.444  1.00  0.00     0.048 C  
HETATM    2  C   UNL     1     -12.018  10.680  70.152  1.00  0.00    -0.417 C  
HETATM    3  C   UNL     1     -10.867  12.444  69.093  1.00  0.00    -0.148 C  
HETATM    4  C   UNL     1     -10.737   9.701  69.927  1.00  0.00    -0.283 C  
HETATM    5  C   UNL     1     -12.059  12.918  68.254  1.00  0.00    -0.173 C  
HETATM    6  C   UNL     1     -12.955   9.943  71.093  1.00  0.00    -0.456 C  
HETATM    7  C   UNL     1     -12.346  14.246  68.881  1.00  0.00    -0.116 C  
HETATM    8  C   UNL     1     -13.782  13.527  71.093  1.00  0.00     0.163 C  
HETATM    9  C   UNL     1     -12.408  13.837  70.415  1.00  0.00    -0.423 C  
HETATM   10  C   UNL     1     -11.097  15.102  68.457  1.00  0.00    -0.281 C  
HETATM   11  O   UNL     1     -13.018  15.989  71.587  1.00  0.00    -0.418 OA 
HETATM   12  C   UNL     1     -10.807  15.010  66.984  1.00  0.00    -0.311 C  
HETATM   13  C   UNL     1     -12.123  15.380  70.973  1.00  0.00    -0.365 C  
HETATM   14  O   UNL     1     -11.664  14.955  66.105  1.00  0.00    -0.299 OA 
HETATM   15  C   UNL     1      -9.363  15.168  66.679  1.00  0.00    -0.291 C  
HETATM   16  C   UNL     1      -9.240  16.692  66.817  1.00  0.00    -0.259 C  
HETATM   17  C   UNL     1      -7.989  17.126  66.086  1.00  0.00    -0.297 C  
HETATM   18  C   UNL     1      -6.747  16.893  66.898  1.00  0.00    -0.217 C  
HETATM   19  C   UNL     1      -6.806  17.125  68.390  1.00  0.00    -0.191 C  
HETATM   20  O   UNL     1      -5.671  16.686  66.334  1.00  0.00    -0.302 OA 
HETATM   21  C   UNL     1      -8.131  16.771  69.102  1.00  0.00    -0.109 C  
HETATM   22  C   UNL     1      -9.439  17.136  68.334  1.00  0.00    -0.276 C  
HETATM   23  C   UNL     1      -9.578  18.677  68.356  1.00  0.00    -0.396 C  
HETATM   24  C   UNL     1     -10.857  16.494  68.979  1.00  0.00    -0.329 C  
HETATM   25  C   UNL     1     -10.931  16.282  70.519  1.00  0.00    -0.233 C  
ENDROOT
BRANCH   4  26
HETATM   26  C   UNL     1     -10.961   8.379  69.147  1.00  0.00     0.063 C  
HETATM   27  O   UNL     1     -11.298   6.019  69.468  1.00  0.00    -0.405 OA 
HETATM   28  C   UNL     1     -11.050   7.179  70.095  1.00  0.00    -0.272 C  
HETATM   29  O   UNL     1     -10.820   7.232  71.297  1.00  0.00    -0.233 OA 
ENDBRANCH   4  26
TORSDOF 1
ENDMDL
MODEL       13
REMARK 921   NORMALIZED FREE ENERGY PREDICTED BY IDOCK:   -6.73 KCAL/MOL
REMARK 922        TOTAL FREE ENERGY PREDICTED BY IDOCK:   -7.23 KCAL/MOL
REMARK 923 INTER-LIGAND FREE ENERGY PREDICTED BY IDOCK:   -7.13 KCAL/MOL
REMARK 924 INTRA-LIGAND FREE ENERGY PREDICTED BY IDOCK:   -0.10 KCAL/MOL
REMARK 927      BINDING AFFINITY PREDICTED BY RF-SCORE:    0.00 PKD
ROOT
HETATM    1  C   UNL     1     -11.411  10.234  68.485  1.00  0.00    -0.231 C  
HETATM    2  C   UNL     1     -11.270  11.933  68.300  1.00  0.00    -0.317 C  
HETATM    3  C   UNL     1     -10.411   9.937  67.387  1.00  0.00    -0.325 C  
HETATM    4  C   UNL     1     -11.733  12.420  66.818  1.00  0.00    -0.430 C  
HETATM    5  C   UNL     1      -9.112   9.948  68.199  1.00  0.00    -0.121 C  
HETATM    6  C   UNL     1     -11.910  12.900  69.283  1.00  0.00    -0.363 C  
HETATM    7  C   UNL     1      -9.322   8.770  69.099  1.00  0.00    -0.149 C  
HETATM    8  C   UNL     1     -10.921   9.827  71.047  1.00  0.00    -0.402 C  
HETATM    9  C   UNL     1     -10.767   9.097  69.674  1.00  0.00    -0.236 C  
HETATM   10  C   UNL     1      -9.246   7.558  68.100  1.00  0.00    -0.137 C  
HETATM   11  O   UNL     1     -11.194   7.231  71.321  1.00  0.00    -0.248 OA 
HETATM   12  C   UNL     1      -8.038   7.620  67.207  1.00  0.00    -0.119 C  
HETATM   13  C   UNL     1     -11.090   7.524  70.116  1.00  0.00    -0.231 C  
HETATM   14  O   UNL     1      -6.928   8.012  67.559  1.00  0.00    -0.071 OA 
HETATM   15  C   UNL     1      -8.276   6.988  65.886  1.00  0.00    -0.133 C  
HETATM   16  C   UNL     1      -8.160   5.511  66.286  1.00  0.00    -0.106 C  
HETATM   17  C   UNL     1      -7.887   4.710  65.032  1.00  0.00    -0.094 C  
HETATM   18  C   UNL     1      -9.135   4.457  64.236  1.00  0.00    -0.151 C  
HETATM   19  C   UNL     1     -10.423   4.184  64.979  1.00  0.00    -0.187 C  
HETATM   20  O   UNL     1      -9.069   4.309  63.014  1.00  0.00    -0.120 OA 
HETATM   21  C   UNL     1     -10.635   4.937  66.311  1.00  0.00    -0.307 C  
HETATM   22  C   UNL     1      -9.377   5.086  67.221  1.00  0.00    -0.135 C  
HETATM   23  C   UNL     1      -9.055   3.689  67.803  1.00  0.00    -0.193 C  
HETATM   24  C   UNL     1      -9.549   6.145  68.521  1.00  0.00    -0.127 C  
HETATM   25  C   UNL     1     -10.957   6.290  69.167  1.00  0.00    -0.442 C  
ENDROOT
BRANCH   4  26
HETATM   26  C   UNL     1     -11.191  13.776  66.295  1.00  0.00    -0.310 C  
HETATM   27  O   UNL     1     -11.519  15.411  64.561  1.00  0.00    -0.394 OA 
HETATM   28  C   UNL     1     -11.918  14.215  65.020  1.00  0.00    -0.408 C  
HETATM   29  O   UNL     1     -12.714  13.515  64.405  1.00  0.00    -0.643 OA 
ENDBRANCH   4  26
TORSDOF 1
ENDMDL
MODEL       14
REMARK 921   NORMALIZED FREE ENERGY PREDICTED BY IDOCK:   -6.66 KCAL/MOL
REMARK 922        TOTAL FREE ENERGY PREDICTED BY IDOCK:   -7.15 KCAL/MOL
REMARK 923 INTER-LIGAND FREE ENERGY PREDICTED BY IDOCK:   -6.88 KCAL/MOL
REMARK 924 INTRA-LIGAND FREE ENERGY PREDICTED BY IDOCK:   -0.27 KCAL/MOL
REMARK 927      BINDING AFFINITY PREDICTED BY RF-SCORE:    0.00 PKD
ROOT
HETATM    1  C   UNL     1     -11.230  10.352  67.860  1.00  0.00    -0.332 C  
HETATM    2  C   UNL     1     -10.619  11.177  66.486  1.00  0.00    -0.314 C  
HETATM    3  C   UNL     1      -9.953   9.565  68.071  1.00  0.00    -0.198 C  
HETATM    4  C   UNL     1     -10.253  10.150  65.277  1.00  0.00    -0.261 C  
HETATM    5  C   UNL     1      -9.181  10.543  68.964  1.00  0.00    -0.193 C  
HETATM    6  C   UNL     1     -11.373  12.331  65.847  1.00  0.00    -0.406 C  
HETATM    7  C   UNL     1     -10.041  10.556  70.190  1.00  0.00     0.156 C  
HETATM    8  C   UNL     1     -12.027  12.288  69.466  1.00  0.00    -0.333 C  
HETATM    9  C   UNL     1     -11.466  10.832  69.544  1.00  0.00    -0.365 C  
HETATM   10  C   UNL     1      -9.827   9.112  70.773  1.00  0.00    -0.334 C  
HETATM   11  O   UNL     1     -13.006  11.006  71.537  1.00  0.00    -0.422 OA 
HETATM   12  C   UNL     1      -8.374   8.739  70.875  1.00  0.00    -0.165 C  
HETATM   13  C   UNL     1     -12.317  10.236  70.845  1.00  0.00    -0.373 C  
HETATM   14  O   UNL     1      -7.474   9.514  71.189  1.00  0.00    -0.324 OA 
HETATM   15  C   UNL     1      -8.152   7.279  70.725  1.00  0.00    -0.111 C  
HETATM   16  C   UNL     1      -8.581   6.812  72.122  1.00  0.00    -0.117 C  
HETATM   17  C   UNL     1      -7.987   5.441  72.357  1.00  0.00    -0.103 C  
HETATM   18  C   UNL     1      -8.779   4.355  71.687  1.00  0.00    -0.118 C  
HETATM   19  C   UNL     1     -10.285   4.473  71.658  1.00  0.00    -0.214 C  
HETATM   20  O   UNL     1      -8.221   3.318  71.324  1.00  0.00    -0.061 OA 
HETATM   21  C   UNL     1     -10.873   5.895  71.520  1.00  0.00    -0.325 C  
HETATM   22  C   UNL     1     -10.147   7.017  72.326  1.00  0.00    -0.195 C  
HETATM   23  C   UNL     1     -10.458   6.791  73.824  1.00  0.00    -0.383 C  
HETATM   24  C   UNL     1     -10.613   8.592  71.948  1.00  0.00    -0.392 C  
HETATM   25  C   UNL     1     -12.081   8.833  71.492  1.00  0.00    -0.388 C  
ENDROOT
BRANCH   4  26
HETATM   26  C   UNL     1      -9.229  10.617  64.211  1.00  0.00    -0.265 C  
HETATM   27  O   UNL     1      -6.910  10.436  63.597  1.00  0.00    -0.106 OA 
HETATM   28  C   UNL     1      -7.821  10.101  64.523  1.00  0.00    -0.141 C  
HETATM   29  O   UNL     1      -7.512   9.526  65.560  1.00  0.00    -0.097 OA 
ENDBRANCH   4  26
TORSDOF 1
ENDMDL
MODEL       15
REMARK 921   NORMALIZED FREE ENERGY PREDICTED BY IDOCK:   -6.57 KCAL/MOL
REMARK 922        TOTAL FREE ENERGY PREDICTED BY IDOCK:   -7.06 KCAL/MOL
REMARK 923 INTER-LIGAND FREE ENERGY PREDICTED BY IDOCK:   -7.06 KCAL/MOL
REMARK 924 INTRA-LIGAND FREE ENERGY PREDICTED BY IDOCK:    0.00 KCAL/MOL
REMARK 927      BINDING AFFINITY PREDICTED BY RF-SCORE:    0.00 PKD
ROOT
HETATM    1  C   UNL     1     -11.026   9.975  68.304  1.00  0.00    -0.278 C  
HETATM    2  C   UNL     1     -10.393  10.910  67.013  1.00  0.00    -0.276 C  
HETATM    3  C   UNL     1      -9.726   9.230  68.525  1.00  0.00    -0.162 C  
HETATM    4  C   UNL     1      -9.930   9.977  65.762  1.00  0.00    -0.346 C  
HETATM    5  C   UNL     1      -9.037  10.181  69.511  1.00  0.00    -0.213 C  
HETATM    6  C   UNL     1     -11.169  12.070  66.412  1.00  0.00    -0.389 C  
HETATM    7  C   UNL     1      -9.949  10.082  70.695  1.00  0.00     0.063 C  
HETATM    8  C   UNL     1     -11.977  11.772  69.988  1.00  0.00    -0.421 C  
HETATM    9  C   UNL     1     -11.355  10.338  70.002  1.00  0.00    -0.370 C  
HETATM   10  C   UNL     1      -9.697   8.614  71.198  1.00  0.00    -0.287 C  
HETATM   11  O   UNL     1     -12.986  10.322  71.929  1.00  0.00    -0.427 OA 
HETATM   12  C   UNL     1      -8.234   8.295  71.343  1.00  0.00    -0.131 C  
HETATM   13  C   UNL     1     -12.234   9.626  71.224  1.00  0.00    -0.363 C  
HETATM   14  O   UNL     1      -7.384   9.085  71.744  1.00  0.00    -0.301 OA 
HETATM   15  C   UNL     1      -7.941   6.859  71.114  1.00  0.00    -0.101 C  
HETATM   16  C   UNL     1      -8.409   6.287  72.459  1.00  0.00    -0.113 C  
HETATM   17  C   UNL     1      -7.765   4.930  72.637  1.00  0.00    -0.093 C  
HETATM   18  C   UNL     1      -8.479   3.856  71.866  1.00  0.00    -0.098 C  
HETATM   19  C   UNL     1      -9.986   3.913  71.776  1.00  0.00    -0.234 C  
HETATM   20  O   UNL     1      -7.860   2.868  71.466  1.00  0.00    -0.050 OA 
HETATM   21  C   UNL     1     -10.630   5.316  71.698  1.00  0.00    -0.261 C  
HETATM   22  C   UNL     1      -9.990   6.413  72.604  1.00  0.00    -0.184 C  
HETATM   23  C   UNL     1     -10.355   6.080  74.069  1.00  0.00    -0.301 C  
HETATM   24  C   UNL     1     -10.508   7.988  72.301  1.00  0.00    -0.344 C  
HETATM   25  C   UNL     1     -11.965   8.196  71.795  1.00  0.00    -0.348 C  
ENDROOT
BRANCH   4  26
HETATM   26  C   UNL     1      -8.883  10.553  64.774  1.00  0.00    -0.211 C  
HETATM   27  O   UNL     1      -8.688  11.690  62.662  1.00  0.00    -0.236 OA 
HETATM   28  C   UNL     1      -9.553  11.130  63.523  1.00  0.00    -0.315 C  
HETATM   29  O   UNL     1     -10.745  11.013  63.263  1.00  0.00    -0.271 OA 
ENDBRANCH   4  26
TORSDOF 1
ENDMDL
MODEL       16
REMARK 921   NORMALIZED FREE ENERGY PREDICTED BY IDOCK:   -6.56 KCAL/MOL
REMARK 922        TOTAL FREE ENERGY PREDICTED BY IDOCK:   -7.05 KCAL/MOL
REMARK 923 INTER-LIGAND FREE ENERGY PREDICTED BY IDOCK:   -6.91 KCAL/MOL
REMARK 924 INTRA-LIGAND FREE ENERGY PREDICTED BY IDOCK:   -0.14 KCAL/MOL
REMARK 927      BINDING AFFINITY PREDICTED BY RF-SCORE:    0.00 PKD
ROOT
HETATM    1  C   UNL     1     -11.614  10.775  68.663  1.00  0.00    -0.342 C  
HETATM    2  C   UNL     1     -11.347  12.377  68.111  1.00  0.00    -0.341 C  
HETATM    3  C   UNL     1     -10.280  10.276  68.149  1.00  0.00    -0.192 C  
HETATM    4  C   UNL     1     -11.183  12.439  66.493  1.00  0.00    -0.368 C  
HETATM    5  C   UNL     1      -9.395  10.579  69.363  1.00  0.00    -0.139 C  
HETATM    6  C   UNL     1     -12.280  13.516  68.486  1.00  0.00    -0.160 C  
HETATM    7  C   UNL     1      -9.981   9.658  70.387  1.00  0.00    -0.330 C  
HETATM    8  C   UNL     1     -12.167  11.066  71.228  1.00  0.00    -0.365 C  
HETATM    9  C   UNL     1     -11.522  10.023  70.259  1.00  0.00    -0.372 C  
HETATM   10  C   UNL     1      -9.572   8.240  69.844  1.00  0.00    -0.171 C  
HETATM   11  O   UNL     1     -12.623   8.613  72.041  1.00  0.00    -0.332 OA 
HETATM   12  C   UNL     1      -8.110   8.153  69.499  1.00  0.00    -0.119 C  
HETATM   13  C   UNL     1     -12.050   8.596  70.937  1.00  0.00    -0.147 C  
HETATM   14  O   UNL     1      -7.209   8.694  70.134  1.00  0.00    -0.048 OA 
HETATM   15  C   UNL     1      -7.844   7.191  68.401  1.00  0.00    -0.122 C  
HETATM   16  C   UNL     1      -7.948   5.875  69.184  1.00  0.00    -0.099 C  
HETATM   17  C   UNL     1      -7.243   4.802  68.385  1.00  0.00    -0.061 C  
HETATM   18  C   UNL     1      -8.095   4.272  67.267  1.00  0.00    -0.100 C  
HETATM   19  C   UNL     1      -9.579   4.112  67.505  1.00  0.00    -0.219 C  
HETATM   20  O   UNL     1      -7.568   3.823  66.248  1.00  0.00    -0.082 OA 
HETATM   21  C   UNL     1     -10.261   5.163  68.410  1.00  0.00    -0.175 C  
HETATM   22  C   UNL     1      -9.447   5.622  69.659  1.00  0.00    -0.180 C  
HETATM   23  C   UNL     1      -9.428   4.444  70.661  1.00  0.00    -0.242 C  
HETATM   24  C   UNL     1     -10.067   6.962  70.470  1.00  0.00    -0.201 C  
HETATM   25  C   UNL     1     -11.609   7.173  70.467  1.00  0.00    -0.331 C  
ENDROOT
BRANCH   4  26
HETATM   26  C   UNL     1     -10.430  13.650  65.884  1.00  0.00    -0.297 C  
HETATM   27  O   UNL     1     -10.785  15.671  64.627  1.00  0.00    -0.431 OA 
HETATM   28  C   UNL     1     -11.384  14.578  65.126  1.00  0.00    -0.366 C  
HETATM   29  O   UNL     1     -12.560  14.319  64.896  1.00  0.00    -0.583 OA 
ENDBRANCH   4  26
TORSDOF 1
ENDMDL
MODEL       17
REMARK 921   NORMALIZED FREE ENERGY PREDICTED BY IDOCK:   -6.55 KCAL/MOL
REMARK 922        TOTAL FREE ENERGY PREDICTED BY IDOCK:   -7.04 KCAL/MOL
REMARK 923 INTER-LIGAND FREE ENERGY PREDICTED BY IDOCK:   -6.95 KCAL/MOL
REMARK 924 INTRA-LIGAND FREE ENERGY PREDICTED BY IDOCK:   -0.09 KCAL/MOL
REMARK 927      BINDING AFFINITY PREDICTED BY RF-SCORE:    0.00 PKD
ROOT
HETATM    1  C   UNL     1     -11.859  10.234  69.789  1.00  0.00    -0.217 C  
HETATM    2  C   UNL     1     -11.714  11.934  69.969  1.00  0.00    -0.366 C  
HETATM    3  C   UNL     1     -10.558  10.111  69.023  1.00  0.00    -0.245 C  
HETATM    4  C   UNL     1     -11.703  12.695  68.530  1.00  0.00    -0.372 C  
HETATM    5  C   UNL     1      -9.578   9.933  70.189  1.00  0.00    -0.237 C  
HETATM    6  C   UNL     1     -12.656  12.725  70.861  1.00  0.00    -0.342 C  
HETATM    7  C   UNL     1     -10.027   8.619  70.748  1.00  0.00    -0.241 C  
HETATM    8  C   UNL     1     -12.184   9.355  72.256  1.00  0.00    -0.246 C  
HETATM    9  C   UNL     1     -11.587   8.881  70.891  1.00  0.00    -0.331 C  
HETATM   10  C   UNL     1      -9.609   7.607  69.620  1.00  0.00    -0.160 C  
HETATM   11  O   UNL     1     -12.456   6.762  71.954  1.00  0.00    -0.346 OA 
HETATM   12  C   UNL     1      -8.183   7.792  69.176  1.00  0.00    -0.129 C  
HETATM   13  C   UNL     1     -11.989   7.265  70.917  1.00  0.00    -0.305 C  
HETATM   14  O   UNL     1      -7.252   8.079  69.923  1.00  0.00    -0.059 OA 
HETATM   15  C   UNL     1      -7.979   7.418  67.755  1.00  0.00    -0.118 C  
HETATM   16  C   UNL     1      -7.953   5.889  67.896  1.00  0.00    -0.105 C  
HETATM   17  C   UNL     1      -7.279   5.321  66.667  1.00  0.00    -0.077 C  
HETATM   18  C   UNL     1      -8.208   5.255  65.488  1.00  0.00    -0.124 C  
HETATM   19  C   UNL     1      -9.655   4.892  65.729  1.00  0.00    -0.181 C  
HETATM   20  O   UNL     1      -7.758   5.329  64.343  1.00  0.00    -0.079 OA 
HETATM   21  C   UNL     1     -10.295   5.397  67.041  1.00  0.00    -0.299 C  
HETATM   22  C   UNL     1      -9.389   5.339  68.310  1.00  0.00    -0.143 C  
HETATM   23  C   UNL     1      -9.226   3.851  68.700  1.00  0.00    -0.211 C  
HETATM   24  C   UNL     1      -9.988   6.150  69.661  1.00  0.00    -0.210 C  
HETATM   25  C   UNL     1     -11.531   6.220  69.849  1.00  0.00    -0.459 C  
ENDROOT
BRANCH   4  26
HETATM   26  C   UNL     1     -11.062  14.106  68.459  1.00  0.00    -0.276 C  
HETATM   27  O   UNL     1     -10.976  16.086  67.095  1.00  0.00    -0.289 OA 
HETATM   28  C   UNL     1     -11.464  14.838  67.175  1.00  0.00    -0.364 C  
HETATM   29  O   UNL     1     -12.082  14.321  66.252  1.00  0.00    -0.415 OA 
ENDBRANCH   4  26
TORSDOF 1
ENDMDL
MODEL       18
REMARK 921   NORMALIZED FREE ENERGY PREDICTED BY IDOCK:   -6.46 KCAL/MOL
REMARK 922        TOTAL FREE ENERGY PREDICTED BY IDOCK:   -6.94 KCAL/MOL
REMARK 923 INTER-LIGAND FREE ENERGY PREDICTED BY IDOCK:   -6.82 KCAL/MOL
REMARK 924 INTRA-LIGAND FREE ENERGY PREDICTED BY IDOCK:   -0.12 KCAL/MOL
REMARK 927      BINDING AFFINITY PREDICTED BY RF-SCORE:    0.00 PKD
ROOT
HETATM    1  C   UNL     1     -10.807  14.769  67.544  1.00  0.00    -0.287 C  
HETATM    2  C   UNL     1     -10.979  13.073  67.731  1.00  0.00    -0.273 C  
HETATM    3  C   UNL     1      -9.436  14.795  68.187  1.00  0.00    -0.208 C  
HETATM    4  C   UNL     1     -10.962  12.633  69.298  1.00  0.00    -0.123 C  
HETATM    5  C   UNL     1      -8.559  14.541  66.956  1.00  0.00    -0.241 C  
HETATM    6  C   UNL     1     -12.127  12.311  67.089  1.00  0.00    -0.013 C  
HETATM    7  C   UNL     1      -8.824  15.775  66.151  1.00  0.00    -0.346 C  
HETATM    8  C   UNL     1     -11.213  15.174  64.968  1.00  0.00    -0.414 C  
HETATM    9  C   UNL     1     -10.412  15.793  66.159  1.00  0.00    -0.326 C  
HETATM   10  C   UNL     1      -8.128  16.896  67.006  1.00  0.00    -0.228 C  
HETATM   11  O   UNL     1     -10.997  17.777  64.712  1.00  0.00    -0.855 OA 
HETATM   12  C   UNL     1      -6.720  16.536  67.395  1.00  0.00    -0.164 C  
HETATM   13  C   UNL     1     -10.526  17.416  65.805  1.00  0.00    -0.215 C  
HETATM   14  O   UNL     1      -5.930  15.931  66.676  1.00  0.00    -0.118 OA 
HETATM   15  C   UNL     1      -6.316  17.146  68.686  1.00  0.00    -0.163 C  
HETATM   16  C   UNL     1      -6.038  18.580  68.214  1.00  0.00    -0.202 C  
HETATM   17  C   UNL     1      -5.159  19.247  69.249  1.00  0.00    -0.192 C  
HETATM   18  C   UNL     1      -5.942  19.728  70.436  1.00  0.00    -0.285 C  
HETATM   19  C   UNL     1      -7.321  20.304  70.207  1.00  0.00     0.677 C  
HETATM   20  O   UNL     1      -5.404  19.804  71.542  1.00  0.00    -0.300 OA 
HETATM   21  C   UNL     1      -8.163  19.674  69.075  1.00  0.00    -0.182 C  
HETATM   22  C   UNL     1      -7.389  19.298  67.774  1.00  0.00    -0.285 C  
HETATM   23  C   UNL     1      -7.008  20.617  67.061  1.00  0.00    -0.365 C  
HETATM   24  C   UNL     1      -8.249  18.359  66.670  1.00  0.00    -0.283 C  
HETATM   25  C   UNL     1      -9.792  18.549  66.591  1.00  0.00    -0.370 C  
ENDROOT
BRANCH   4  26
HETATM   26  C   UNL     1     -10.573  11.170  69.638  1.00  0.00    -0.076 C  
HETATM   27  O   UNL     1     -11.284   9.266  70.925  1.00  0.00    -0.260 OA 
HETATM   28  C   UNL     1     -11.549  10.551  70.642  1.00  0.00    -0.352 C  
HETATM   29  O   UNL     1     -12.431  11.176  71.221  1.00  0.00    -0.376 OA 
ENDBRANCH   4  26
TORSDOF 1
ENDMDL
MODEL       19
REMARK 921   NORMALIZED FREE ENERGY PREDICTED BY IDOCK:   -6.37 KCAL/MOL
REMARK 922        TOTAL FREE ENERGY PREDICTED BY IDOCK:   -6.85 KCAL/MOL
REMARK 923 INTER-LIGAND FREE ENERGY PREDICTED BY IDOCK:   -6.81 KCAL/MOL
REMARK 924 INTRA-LIGAND FREE ENERGY PREDICTED BY IDOCK:   -0.04 KCAL/MOL
REMARK 927      BINDING AFFINITY PREDICTED BY RF-SCORE:    0.00 PKD
ROOT
HETATM    1  C   UNL     1      -9.843  11.557  67.807  1.00  0.00    -0.186 C  
HETATM    2  C   UNL     1      -9.828  10.172  66.796  1.00  0.00    -0.247 C  
HETATM    3  C   UNL     1      -9.387  12.485  66.700  1.00  0.00    -0.236 C  
HETATM    4  C   UNL     1      -8.337   9.857  66.224  1.00  0.00    -0.125 C  
HETATM    5  C   UNL     1     -10.744  12.871  66.100  1.00  0.00    -0.290 C  
HETATM    6  C   UNL     1     -10.395   8.840  67.258  1.00  0.00    -0.360 C  
HETATM    7  C   UNL     1     -11.362  13.620  67.240  1.00  0.00    -0.346 C  
HETATM    8  C   UNL     1     -12.281  11.586  68.817  1.00  0.00    -0.071 C  
HETATM    9  C   UNL     1     -11.144  12.582  68.423  1.00  0.00    -0.293 C  
HETATM   10  C   UNL     1     -10.486  14.923  67.309  1.00  0.00    -0.263 C  
HETATM   11  O   UNL     1     -12.267  13.679  70.400  1.00  0.00    -0.334 OA 
HETATM   12  C   UNL     1     -10.329  15.586  65.968  1.00  0.00    -0.326 C  
HETATM   13  C   UNL     1     -11.294  13.723  69.627  1.00  0.00    -0.178 C  
HETATM   14  O   UNL     1     -11.210  15.652  65.114  1.00  0.00    -0.340 OA 
HETATM   15  C   UNL     1      -9.042  16.313  65.842  1.00  0.00    -0.246 C  
HETATM   16  C   UNL     1      -9.381  17.571  66.653  1.00  0.00    -0.275 C  
HETATM   17  C   UNL     1      -8.403  18.656  66.260  1.00  0.00    -0.249 C  
HETATM   18  C   UNL     1      -7.076  18.501  66.946  1.00  0.00    -0.203 C  
HETATM   19  C   UNL     1      -7.055  18.021  68.379  1.00  0.00    -0.247 C  
HETATM   20  O   UNL     1      -6.049  18.918  66.406  1.00  0.00    -0.163 OA 
HETATM   21  C   UNL     1      -8.130  16.988  68.786  1.00  0.00    -0.250 C  
HETATM   22  C   UNL     1      -9.556  17.215  68.196  1.00  0.00    -0.270 C  
HETATM   23  C   UNL     1     -10.159  18.454  68.898  1.00  0.00    -0.352 C  
HETATM   24  C   UNL     1     -10.635  15.939  68.410  1.00  0.00    -0.266 C  
HETATM   25  C   UNL     1     -10.489  15.061  69.687  1.00  0.00    -0.226 C  
ENDROOT
BRANCH   4  26
HETATM   26  C   UNL     1      -8.219   9.018  64.925  1.00  0.00    -0.154 C  
HETATM   27  O   UNL     1      -7.824   6.778  64.140  1.00  0.00    -0.109 OA 
HETATM   28  C   UNL     1      -7.883   7.556  65.232  1.00  0.00    -0.120 C  
HETATM   29  O   UNL     1      -7.591   7.135  66.346  1.00  0.00    -0.088 OA 
ENDBRANCH   4  26
TORSDOF 1
ENDMDL
MODEL       20
REMARK 921   NORMALIZED FREE ENERGY PREDICTED BY IDOCK:   -6.37 KCAL/MOL
REMARK 922        TOTAL FREE ENERGY PREDICTED BY IDOCK:   -6.84 KCAL/MOL
REMARK 923 INTER-LIGAND FREE ENERGY PREDICTED BY IDOCK:   -7.47 KCAL/MOL
REMARK 924 INTRA-LIGAND FREE ENERGY PREDICTED BY IDOCK:    0.62 KCAL/MOL
REMARK 927      BINDING AFFINITY PREDICTED BY RF-SCORE:    0.00 PKD
ROOT
HETATM    1  C   UNL     1      -8.206  18.228  66.639  1.00  0.00    -0.282 C  
HETATM    2  C   UNL     1      -7.475  19.515  67.506  1.00  0.00    -0.278 C  
HETATM    3  C   UNL     1      -8.152  17.280  67.818  1.00  0.00    -0.201 C  
HETATM    4  C   UNL     1      -5.970  19.135  67.996  1.00  0.00    -0.222 C  
HETATM    5  C   UNL     1      -9.484  17.620  68.496  1.00  0.00    -0.298 C  
HETATM    6  C   UNL     1      -7.391  20.919  66.930  1.00  0.00    -0.272 C  
HETATM    7  C   UNL     1     -10.462  17.167  67.457  1.00  0.00    -0.348 C  
HETATM    8  C   UNL     1     -10.447  19.272  65.714  1.00  0.00    -0.438 C  
HETATM    9  C   UNL     1      -9.876  17.891  66.170  1.00  0.00    -0.256 C  
HETATM   10  C   UNL     1     -10.299  15.604  67.491  1.00  0.00    -0.277 C  
HETATM   11  O   UNL     1     -11.524  17.306  64.349  1.00  0.00    -0.941 OA 
HETATM   12  C   UNL     1     -10.367  15.046  68.886  1.00  0.00    -0.244 C  
HETATM   13  C   UNL     1     -10.627  16.868  65.091  1.00  0.00    -0.069 C  
HETATM   14  O   UNL     1     -11.112  15.463  69.769  1.00  0.00    -0.247 OA 
HETATM   15  C   UNL     1      -9.560  13.811  69.043  1.00  0.00     0.174 C  
HETATM   16  C   UNL     1     -10.503  12.803  68.373  1.00  0.00    -0.253 C  
HETATM   17  C   UNL     1     -10.114  11.419  68.842  1.00  0.00    -0.166 C  
HETATM   18  C   UNL     1      -8.921  10.882  68.103  1.00  0.00    -0.144 C  
HETATM   19  C   UNL     1      -8.787  11.190  66.629  1.00  0.00    -0.168 C  
HETATM   20  O   UNL     1      -8.168  10.074  68.649  1.00  0.00    -0.103 OA 
HETATM   21  C   UNL     1      -9.287  12.573  66.154  1.00  0.00    -0.136 C  
HETATM   22  C   UNL     1     -10.607  13.085  66.809  1.00  0.00    -0.269 C  
HETATM   23  C   UNL     1     -11.767  12.226  66.254  1.00  0.00    -0.431 C  
HETATM   24  C   UNL     1     -10.984  14.699  66.502  1.00  0.00    -0.318 C  
HETATM   25  C   UNL     1     -10.542  15.308  65.140  1.00  0.00    -0.453 C  
ENDROOT
BRANCH   4  26
HETATM   26  C   UNL     1      -5.380  19.914  69.201  1.00  0.00    -0.224 C  
HETATM   27  O   UNL     1      -5.976  20.836  71.342  1.00  0.00    -0.584 OA 
HETATM   28  C   UNL     1      -6.452  20.210  70.254  1.00  0.00    -0.240 C  
HETATM   29  O   UNL     1      -7.649  20.000  70.097  1.00  0.00     0.222 OA 
ENDBRANCH   4  26
TORSDOF 1
ENDMDL
MODEL       21
REMARK 921   NORMALIZED FREE ENERGY PREDICTED BY IDOCK:   -6.28 KCAL/MOL
REMARK 922        TOTAL FREE ENERGY PREDICTED BY IDOCK:   -6.76 KCAL/MOL
REMARK 923 INTER-LIGAND FREE ENERGY PREDICTED BY IDOCK:   -6.56 KCAL/MOL
REMARK 924 INTRA-LIGAND FREE ENERGY PREDICTED BY IDOCK:   -0.20 KCAL/MOL
REMARK 927      BINDING AFFINITY PREDICTED BY RF-SCORE:    0.00 PKD
ROOT
HETATM    1  C   UNL     1      -9.989   8.988  71.244  1.00  0.00    -0.381 C  
HETATM    2  C   UNL     1      -8.917   7.815  70.597  1.00  0.00    -0.145 C  
HETATM    3  C   UNL     1      -9.699   9.993  70.149  1.00  0.00    -0.177 C  
HETATM    4  C   UNL     1      -7.381   8.353  70.565  1.00  0.00    -0.057 C  
HETATM    5  C   UNL     1     -10.745   9.567  69.112  1.00  0.00    -0.228 C  
HETATM    6  C   UNL     1      -8.859   6.399  71.143  1.00  0.00    -0.138 C  
HETATM    7  C   UNL     1     -12.017   9.878  69.838  1.00  0.00    -0.006 C  
HETATM    8  C   UNL     1     -12.283   7.702  71.470  1.00  0.00    -0.351 C  
HETATM    9  C   UNL     1     -11.748   9.150  71.224  1.00  0.00    -0.396 C  
HETATM   10  C   UNL     1     -12.008  11.450  69.883  1.00  0.00    -0.434 C  
HETATM   11  O   UNL     1     -13.894   9.495  72.509  1.00  0.00    -0.409 OA 
HETATM   12  C   UNL     1     -11.735  12.066  68.538  1.00  0.00    -0.332 C  
HETATM   13  C   UNL     1     -12.873  10.048  72.063  1.00  0.00    -0.389 C  
HETATM   14  O   UNL     1     -12.155  11.626  67.471  1.00  0.00    -0.611 OA 
HETATM   15  C   UNL     1     -11.045  13.374  68.644  1.00  0.00    -0.295 C  
HETATM   16  C   UNL     1     -12.235  14.260  69.036  1.00  0.00    -0.255 C  
HETATM   17  C   UNL     1     -11.870  15.694  68.727  1.00  0.00    -0.336 C  
HETATM   18  C   UNL     1     -10.995  16.300  69.786  1.00  0.00    -0.354 C  
HETATM   19  C   UNL     1     -11.253  15.936  71.230  1.00  0.00    -0.325 C  
HETATM   20  O   UNL     1     -10.204  17.199  69.494  1.00  0.00    -0.212 OA 
HETATM   21  C   UNL     1     -11.724  14.492  71.515  1.00  0.00    -0.191 C  
HETATM   22  C   UNL     1     -12.747  13.895  70.500  1.00  0.00    -0.318 C  
HETATM   23  C   UNL     1     -14.097  14.618  70.718  1.00  0.00     0.233 C  
HETATM   24  C   UNL     1     -13.032  12.241  70.654  1.00  0.00     0.120 C  
HETATM   25  C   UNL     1     -12.934  11.609  72.072  1.00  0.00    -0.365 C  
ENDROOT
BRANCH   4  26
HETATM   26  C   UNL     1      -6.400   7.690  69.564  1.00  0.00    -0.031 C  
HETATM   27  O   UNL     1      -5.723   7.735  67.255  1.00  0.00    -0.034 OA 
HETATM   28  C   UNL     1      -6.589   8.241  68.147  1.00  0.00    -0.057 C  
HETATM   29  O   UNL     1      -7.499   8.992  67.816  1.00  0.00    -0.084 OA 
ENDBRANCH   4  26
TORSDOF 1
ENDMDL
MODEL       22
REMARK 921   NORMALIZED FREE ENERGY PREDICTED BY IDOCK:   -6.27 KCAL/MOL
REMARK 922        TOTAL FREE ENERGY PREDICTED BY IDOCK:   -6.74 KCAL/MOL
REMARK 923 INTER-LIGAND FREE ENERGY PREDICTED BY IDOCK:   -6.47 KCAL/MOL
REMARK 924 INTRA-LIGAND FREE ENERGY PREDICTED BY IDOCK:   -0.27 KCAL/MOL
REMARK 927      BINDING AFFINITY PREDICTED BY RF-SCORE:    0.00 PKD
ROOT
HETATM    1  C   UNL     1      -8.638  13.296  67.953  1.00  0.00    -0.188 C  
HETATM    2  C   UNL     1      -9.094  14.357  66.685  1.00  0.00    -0.265 C  
HETATM    3  C   UNL     1      -9.663  12.249  67.573  1.00  0.00    -0.190 C  
HETATM    4  C   UNL     1     -10.640  14.844  66.832  1.00  0.00    -0.300 C  
HETATM    5  C   UNL     1      -8.851  11.435  66.559  1.00  0.00    -0.187 C  
HETATM    6  C   UNL     1      -8.287  15.602  66.356  1.00  0.00    -0.215 C  
HETATM    7  C   UNL     1      -7.774  10.873  67.435  1.00  0.00    -0.108 C  
HETATM    8  C   UNL     1      -6.039  12.977  67.617  1.00  0.00    -0.151 C  
HETATM    9  C   UNL     1      -7.275  12.192  68.166  1.00  0.00    -0.096 C  
HETATM   10  C   UNL     1      -8.564   9.855  68.336  1.00  0.00    -0.116 C  
HETATM   11  O   UNL     1      -5.352  11.396  69.595  1.00  0.00    -0.051 OA 
HETATM   12  C   UNL     1      -9.442   8.934  67.535  1.00  0.00    -0.141 C  
HETATM   13  C   UNL     1      -6.587  11.380  69.446  1.00  0.00    -0.119 C  
HETATM   14  O   UNL     1      -9.147   8.465  66.439  1.00  0.00    -0.163 OA 
HETATM   15  C   UNL     1     -10.646   8.503  68.287  1.00  0.00    -0.173 C  
HETATM   16  C   UNL     1     -10.012   7.441  69.195  1.00  0.00    -0.173 C  
HETATM   17  C   UNL     1     -11.116   6.538  69.697  1.00  0.00    -0.435 C  
HETATM   18  C   UNL     1     -11.874   7.148  70.842  1.00  0.00    -0.339 C  
HETATM   19  C   UNL     1     -11.109   7.959  71.863  1.00  0.00    -0.317 C  
HETATM   20  O   UNL     1     -13.055   6.850  71.030  1.00  0.00    -0.270 OA 
HETATM   21  C   UNL     1      -9.918   8.795  71.343  1.00  0.00    -0.354 C  
HETATM   22  C   UNL     1      -9.032   8.119  70.252  1.00  0.00    -0.146 C  
HETATM   23  C   UNL     1      -8.229   6.989  70.938  1.00  0.00    -0.121 C  
HETATM   24  C   UNL     1      -7.923   9.136  69.493  1.00  0.00    -0.098 C  
HETATM   25  C   UNL     1      -7.323  10.311  70.318  1.00  0.00    -0.032 C  
ENDROOT
BRANCH   4  26
HETATM   26  C   UNL     1     -11.370  15.341  65.556  1.00  0.00    -0.220 C  
HETATM   27  O   UNL     1     -12.880  14.617  63.829  1.00  0.00    -0.677 OA 
HETATM   28  C   UNL     1     -12.186  14.219  64.907  1.00  0.00    -0.440 C  
HETATM   29  O   UNL     1     -12.145  13.046  65.257  1.00  0.00    -0.386 OA 
ENDBRANCH   4  26
TORSDOF 1
ENDMDL
MODEL       23
REMARK 921   NORMALIZED FREE ENERGY PREDICTED BY IDOCK:   -6.25 KCAL/MOL
REMARK 922        TOTAL FREE ENERGY PREDICTED BY IDOCK:   -6.72 KCAL/MOL
REMARK 923 INTER-LIGAND FREE ENERGY PREDICTED BY IDOCK:   -6.58 KCAL/MOL
REMARK 924 INTRA-LIGAND FREE ENERGY PREDICTED BY IDOCK:   -0.13 KCAL/MOL
REMARK 927      BINDING AFFINITY PREDICTED BY RF-SCORE:    0.00 PKD
ROOT
HETATM    1  C   UNL     1      -7.509   9.103  67.411  1.00  0.00    -0.084 C  
HETATM    2  C   UNL     1      -7.580   7.391  67.360  1.00  0.00    -0.112 C  
HETATM    3  C   UNL     1      -8.932   9.270  66.920  1.00  0.00    -0.149 C  
HETATM    4  C   UNL     1      -7.840   6.842  65.850  1.00  0.00    -0.103 C  
HETATM    5  C   UNL     1      -9.682   9.232  68.256  1.00  0.00    -0.167 C  
HETATM    6  C   UNL     1      -6.472   6.528  67.940  1.00  0.00    -0.052 C  
HETATM    7  C   UNL     1      -9.167  10.474  68.914  1.00  0.00    -0.188 C  
HETATM    8  C   UNL     1      -6.752   9.638  69.883  1.00  0.00    -0.069 C  
HETATM    9  C   UNL     1      -7.602  10.271  68.734  1.00  0.00    -0.093 C  
HETATM   10  C   UNL     1      -9.809  11.614  68.043  1.00  0.00    -0.193 C  
HETATM   11  O   UNL     1      -6.598  12.258  69.926  1.00  0.00    -0.052 OA 
HETATM   12  C   UNL     1     -11.288  11.424  67.841  1.00  0.00    -0.303 C  
HETATM   13  C   UNL     1      -7.239  11.885  68.927  1.00  0.00    -0.098 C  
HETATM   14  O   UNL     1     -12.058  10.988  68.692  1.00  0.00    -0.551 OA 
HETATM   15  C   UNL     1     -11.761  11.986  66.552  1.00  0.00    -0.330 C  
HETATM   16  C   UNL     1     -11.794  13.475  66.920  1.00  0.00    -0.452 C  
HETATM   17  C   UNL     1     -12.696  14.179  65.931  1.00  0.00    -0.387 C  
HETATM   18  C   UNL     1     -12.004  14.457  64.628  1.00  0.00    -0.464 C  
HETATM   19  C   UNL     1     -10.545  14.854  64.655  1.00  0.00    -0.208 C  
HETATM   20  O   UNL     1     -12.655  14.525  63.584  1.00  0.00    -0.798 OA 
HETATM   21  C   UNL     1      -9.662  14.199  65.741  1.00  0.00    -0.246 C  
HETATM   22  C   UNL     1     -10.318  14.031  67.147  1.00  0.00    -0.265 C  
HETATM   23  C   UNL     1     -10.439  15.439  67.776  1.00  0.00    -0.266 C  
HETATM   24  C   UNL     1      -9.461  13.067  68.231  1.00  0.00    -0.208 C  
HETATM   25  C   UNL     1      -7.909  13.048  68.126  1.00  0.00    -0.145 C  
ENDROOT
BRANCH   4  26
HETATM   26  C   UNL     1      -8.451   5.426  65.686  1.00  0.00    -0.138 C  
HETATM   27  O   UNL     1     -10.531   4.226  65.839  1.00  0.00    -0.200 OA 
HETATM   28  C   UNL     1      -9.946   5.420  66.019  1.00  0.00    -0.084 C  
HETATM   29  O   UNL     1     -10.548   6.372  66.502  1.00  0.00    -0.180 OA 
ENDBRANCH   4  26
TORSDOF 1
ENDMDL
MODEL       24
REMARK 921   NORMALIZED FREE ENERGY PREDICTED BY IDOCK:   -6.24 KCAL/MOL
REMARK 922        TOTAL FREE ENERGY PREDICTED BY IDOCK:   -6.71 KCAL/MOL
REMARK 923 INTER-LIGAND FREE ENERGY PREDICTED BY IDOCK:   -6.68 KCAL/MOL
REMARK 924 INTRA-LIGAND FREE ENERGY PREDICTED BY IDOCK:   -0.04 KCAL/MOL
REMARK 927      BINDING AFFINITY PREDICTED BY RF-SCORE:    0.00 PKD
ROOT
HETATM    1  C   UNL     1      -9.559  12.401  66.903  1.00  0.00    -0.219 C  
HETATM    2  C   UNL     1     -10.283  13.935  66.654  1.00  0.00    -0.276 C  
HETATM    3  C   UNL     1     -10.056  12.293  68.329  1.00  0.00    -0.218 C  
HETATM    4  C   UNL     1      -9.679  15.059  67.665  1.00  0.00    -0.215 C  
HETATM    5  C   UNL     1     -11.422  11.642  68.088  1.00  0.00    -0.382 C  
HETATM    6  C   UNL     1     -10.331  14.582  65.280  1.00  0.00    -0.435 C  
HETATM    7  C   UNL     1     -11.016  10.312  67.534  1.00  0.00    -0.344 C  
HETATM    8  C   UNL     1     -10.491  10.925  64.923  1.00  0.00    -0.352 C  
HETATM    9  C   UNL     1     -10.002  10.766  66.399  1.00  0.00    -0.264 C  
HETATM   10  C   UNL     1     -10.369   9.606  68.781  1.00  0.00    -0.233 C  
HETATM   11  O   UNL     1      -9.331   8.599  65.290  1.00  0.00    -0.067 OA 
HETATM   12  C   UNL     1     -11.240   9.680  70.004  1.00  0.00    -0.231 C  
HETATM   13  C   UNL     1      -9.229   9.293  66.317  1.00  0.00    -0.186 C  
HETATM   14  O   UNL     1     -12.465   9.593  69.995  1.00  0.00     0.201 OA 
HETATM   15  C   UNL     1     -10.452   9.693  71.261  1.00  0.00    -0.216 C  
HETATM   16  C   UNL     1     -10.095   8.203  71.354  1.00  0.00    -0.248 C  
HETATM   17  C   UNL     1      -9.715   7.905  72.787  1.00  0.00    -0.322 C  
HETATM   18  C   UNL     1      -8.306   8.322  73.101  1.00  0.00    -0.187 C  
HETATM   19  C   UNL     1      -7.246   8.139  72.039  1.00  0.00    -0.099 C  
HETATM   20  O   UNL     1      -7.998   8.642  74.250  1.00  0.00    -0.382 OA 
HETATM   21  C   UNL     1      -7.683   8.349  70.571  1.00  0.00    -0.080 C  
HETATM   22  C   UNL     1      -9.089   7.794  70.189  1.00  0.00    -0.153 C  
HETATM   23  C   UNL     1      -8.993   6.250  70.175  1.00  0.00    -0.149 C  
HETATM   24  C   UNL     1      -9.669   8.276  68.682  1.00  0.00    -0.162 C  
HETATM   25  C   UNL     1      -8.637   8.532  67.547  1.00  0.00    -0.128 C  
ENDROOT
BRANCH   4  26
HETATM   26  C   UNL     1     -10.544  16.313  67.958  1.00  0.00    -0.308 C  
HETATM   27  O   UNL     1     -10.843  18.609  67.305  1.00  0.00    -0.426 OA 
HETATM   28  C   UNL     1     -10.088  17.514  67.125  1.00  0.00    -0.321 C  
HETATM   29  O   UNL     1      -9.076  17.529  66.433  1.00  0.00    -0.277 OA 
ENDBRANCH   4  26
TORSDOF 1
ENDMDL
MODEL       25
REMARK 921   NORMALIZED FREE ENERGY PREDICTED BY IDOCK:   -6.22 KCAL/MOL
REMARK 922        TOTAL FREE ENERGY PREDICTED BY IDOCK:   -6.69 KCAL/MOL
REMARK 923 INTER-LIGAND FREE ENERGY PREDICTED BY IDOCK:   -6.54 KCAL/MOL
REMARK 924 INTRA-LIGAND FREE ENERGY PREDICTED BY IDOCK:   -0.15 KCAL/MOL
REMARK 927      BINDING AFFINITY PREDICTED BY RF-SCORE:    0.00 PKD
ROOT
HETATM    1  C   UNL     1     -11.105  11.523  67.407  1.00  0.00    -0.339 C  
HETATM    2  C   UNL     1     -11.106  13.211  67.104  1.00  0.00    -0.305 C  
HETATM    3  C   UNL     1      -9.777  11.305  66.713  1.00  0.00    -0.218 C  
HETATM    4  C   UNL     1     -11.117  13.539  65.509  1.00  0.00    -0.303 C  
HETATM    5  C   UNL     1      -8.820  11.546  67.885  1.00  0.00    -0.152 C  
HETATM    6  C   UNL     1     -12.135  14.135  67.733  1.00  0.00    -0.321 C  
HETATM    7  C   UNL     1      -9.174  10.406  68.788  1.00  0.00    -0.172 C  
HETATM    8  C   UNL     1     -11.427  11.342  70.020  1.00  0.00    -0.359 C  
HETATM    9  C   UNL     1     -10.754  10.560  68.846  1.00  0.00    -0.253 C  
HETATM   10  C   UNL     1      -8.642   9.160  67.991  1.00  0.00    -0.125 C  
HETATM   11  O   UNL     1     -11.476   8.754  70.456  1.00  0.00    -0.262 OA 
HETATM   12  C   UNL     1      -7.224   9.337  67.520  1.00  0.00    -0.080 C  
HETATM   13  C   UNL     1     -11.022   8.987  69.322  1.00  0.00    -0.032 C  
HETATM   14  O   UNL     1      -6.341   9.901  68.161  1.00  0.00    -0.054 OA 
HETATM   15  C   UNL     1      -6.949   8.601  66.262  1.00  0.00    -0.077 C  
HETATM   16  C   UNL     1      -6.801   7.181  66.826  1.00  0.00    -0.068 C  
HETATM   17  C   UNL     1      -6.048   6.353  65.809  1.00  0.00    -0.030 C  
HETATM   18  C   UNL     1      -6.933   5.880  64.691  1.00  0.00    -0.052 C  
HETATM   19  C   UNL     1      -8.352   5.474  65.017  1.00  0.00    -0.146 C  
HETATM   20  O   UNL     1      -6.459   5.670  63.573  1.00  0.00    -0.027 OA 
HETATM   21  C   UNL     1      -9.069   6.268  66.133  1.00  0.00    -0.153 C  
HETATM   22  C   UNL     1      -8.198   6.645  67.371  1.00  0.00    -0.121 C  
HETATM   23  C   UNL     1      -7.925   5.345  68.163  1.00  0.00    -0.095 C  
HETATM   24  C   UNL     1      -8.901   7.745  68.437  1.00  0.00    -0.130 C  
HETATM   25  C   UNL     1     -10.449   7.729  68.592  1.00  0.00    -0.199 C  
ENDROOT
BRANCH   4  26
HETATM   26  C   UNL     1     -10.593  14.924  65.048  1.00  0.00    -0.446 C  
HETATM   27  O   UNL     1     -11.293  16.955  63.965  1.00  0.00    -1.109 OA 
HETATM   28  C   UNL     1     -11.685  15.726  64.335  1.00  0.00    -0.201 C  
HETATM   29  O   UNL     1     -12.783  15.275  64.029  1.00  0.00    -0.710 OA 
ENDBRANCH   4  26
TORSDOF 1
ENDMDL
MODEL       26
REMARK 921   NORMALIZED FREE ENERGY PREDICTED BY IDOCK:   -6.20 KCAL/MOL
REMARK 922        TOTAL FREE ENERGY PREDICTED BY IDOCK:   -6.67 KCAL/MOL
REMARK 923 INTER-LIGAND FREE ENERGY PREDICTED BY IDOCK:   -6.55 KCAL/MOL
REMARK 924 INTRA-LIGAND FREE ENERGY PREDICTED BY IDOCK:   -0.12 KCAL/MOL
REMARK 927      BINDING AFFINITY PREDICTED BY RF-SCORE:    0.00 PKD
ROOT
HETATM    1  C   UNL     1     -10.304   7.980  67.061  1.00  0.00    -0.414 C  
HETATM    2  C   UNL     1     -10.007   6.603  68.039  1.00  0.00    -0.157 C  
HETATM    3  C   UNL     1     -10.131   8.950  68.211  1.00  0.00    -0.219 C  
HETATM    4  C   UNL     1     -11.116   6.451  69.221  1.00  0.00    -0.437 C  
HETATM    5  C   UNL     1      -8.618   9.186  68.136  1.00  0.00    -0.129 C  
HETATM    6  C   UNL     1      -9.836   5.218  67.438  1.00  0.00    -0.183 C  
HETATM    7  C   UNL     1      -8.496   9.864  66.807  1.00  0.00    -0.125 C  
HETATM    8  C   UNL     1      -8.571   7.745  65.083  1.00  0.00    -0.023 C  
HETATM    9  C   UNL     1      -9.314   8.858  65.890  1.00  0.00    -0.301 C  
HETATM   10  C   UNL     1      -9.180  11.255  67.069  1.00  0.00    -0.173 C  
HETATM   11  O   UNL     1      -9.076   9.830  63.572  1.00  0.00    -0.247 OA 
HETATM   12  C   UNL     1      -8.664  11.929  68.311  1.00  0.00    -0.170 C  
HETATM   13  C   UNL     1      -9.599   9.978  64.690  1.00  0.00    -0.297 C  
HETATM   14  O   UNL     1      -7.495  11.898  68.688  1.00  0.00    -0.112 OA 
HETATM   15  C   UNL     1      -9.685  12.792  68.954  1.00  0.00     0.185 C  
HETATM   16  C   UNL     1      -9.617  14.007  68.018  1.00  0.00    -0.217 C  
HETATM   17  C   UNL     1     -10.209  15.190  68.750  1.00  0.00    -0.235 C  
HETATM   18  C   UNL     1     -11.711  15.182  68.724  1.00  0.00    -0.342 C  
HETATM   19  C   UNL     1     -12.409  14.709  67.469  1.00  0.00     0.104 C  
HETATM   20  O   UNL     1     -12.348  15.707  69.639  1.00  0.00    -0.314 OA 
HETATM   21  C   UNL     1     -11.731  13.566  66.680  1.00  0.00    -0.425 C  
HETATM   22  C   UNL     1     -10.176  13.636  66.574  1.00  0.00    -0.284 C  
HETATM   23  C   UNL     1      -9.825  14.803  65.622  1.00  0.00    -0.361 C  
HETATM   24  C   UNL     1      -9.433  12.250  65.967  1.00  0.00    -0.194 C  
HETATM   25  C   UNL     1     -10.213  11.395  64.927  1.00  0.00    -0.330 C  
ENDROOT
BRANCH   4  26
HETATM   26  C   UNL     1     -10.731   5.628  70.478  1.00  0.00    -0.344 C  
HETATM   27  O   UNL     1     -11.288   5.336  72.801  1.00  0.00    -0.285 OA 
HETATM   28  C   UNL     1     -11.548   6.059  71.700  1.00  0.00    -0.199 C  
HETATM   29  O   UNL     1     -12.296   7.029  71.722  1.00  0.00    -0.327 OA 
ENDBRANCH   4  26
TORSDOF 1
ENDMDL
MODEL       27
REMARK 921   NORMALIZED FREE ENERGY PREDICTED BY IDOCK:   -6.15 KCAL/MOL
REMARK 922        TOTAL FREE ENERGY PREDICTED BY IDOCK:   -6.62 KCAL/MOL
REMARK 923 INTER-LIGAND FREE ENERGY PREDICTED BY IDOCK:   -6.52 KCAL/MOL
REMARK 924 INTRA-LIGAND FREE ENERGY PREDICTED BY IDOCK:   -0.09 KCAL/MOL
REMARK 927      BINDING AFFINITY PREDICTED BY RF-SCORE:    0.00 PKD
ROOT
HETATM    1  C   UNL     1     -10.275   9.236  66.466  1.00  0.00    -0.316 C  
HETATM    2  C   UNL     1      -9.718   7.727  67.062  1.00  0.00    -0.259 C  
HETATM    3  C   UNL     1      -9.716  10.012  67.640  1.00  0.00    -0.185 C  
HETATM    4  C   UNL     1     -10.393   7.358  68.496  1.00  0.00    -0.221 C  
HETATM    5  C   UNL     1      -8.301  10.296  67.122  1.00  0.00    -0.122 C  
HETATM    6  C   UNL     1      -9.788   6.462  66.222  1.00  0.00    -0.049 C  
HETATM    7  C   UNL     1      -8.593  11.183  65.952  1.00  0.00    -0.135 C  
HETATM    8  C   UNL     1      -9.277   9.368  64.026  1.00  0.00    -0.010 C  
HETATM    9  C   UNL     1      -9.690  10.317  65.197  1.00  0.00    -0.364 C  
HETATM   10  C   UNL     1      -9.118  12.495  66.641  1.00  0.00    -0.203 C  
HETATM   11  O   UNL     1     -10.182  11.657  63.114  1.00  0.00    -0.385 OA 
HETATM   12  C   UNL     1      -8.212  12.972  67.742  1.00  0.00    -0.168 C  
HETATM   13  C   UNL     1     -10.314  11.609  64.350  1.00  0.00    -0.313 C  
HETATM   14  O   UNL     1      -6.985  12.911  67.714  1.00  0.00    -0.106 OA 
HETATM   15  C   UNL     1      -8.948  13.693  68.810  1.00  0.00     0.073 C  
HETATM   16  C   UNL     1      -9.150  15.045  68.111  1.00  0.00    -0.178 C  
HETATM   17  C   UNL     1      -9.444  16.079  69.174  1.00  0.00    -0.253 C  
HETATM   18  C   UNL     1     -10.874  16.036  69.631  1.00  0.00    -0.329 C  
HETATM   19  C   UNL     1     -11.950  15.754  68.608  1.00  0.00    -0.165 C  
HETATM   20  O   UNL     1     -11.168  16.389  70.774  1.00  0.00    -0.350 OA 
HETATM   21  C   UNL     1     -11.594  14.771  67.470  1.00  0.00    -0.379 C  
HETATM   22  C   UNL     1     -10.154  14.898  66.883  1.00  0.00    -0.242 C  
HETATM   23  C   UNL     1     -10.095  16.212  66.069  1.00  0.00    -0.372 C  
HETATM   24  C   UNL     1      -9.683  13.648  65.854  1.00  0.00    -0.206 C  
HETATM   25  C   UNL     1     -10.779  12.953  64.996  1.00  0.00    -0.326 C  
ENDROOT
BRANCH   4  26
HETATM   26  C   UNL     1      -9.648   6.353  69.413  1.00  0.00    -0.152 C  
HETATM   27  O   UNL     1      -9.972   4.920  71.318  1.00  0.00    -0.182 OA 
HETATM   28  C   UNL     1     -10.558   5.835  70.531  1.00  0.00    -0.289 C  
HETATM   29  O   UNL     1     -11.678   6.272  70.765  1.00  0.00    -0.340 OA 
ENDBRANCH   4  26
TORSDOF 1
ENDMDL
MODEL       28
REMARK 921   NORMALIZED FREE ENERGY PREDICTED BY IDOCK:   -6.12 KCAL/MOL
REMARK 922        TOTAL FREE ENERGY PREDICTED BY IDOCK:   -6.59 KCAL/MOL
REMARK 923 INTER-LIGAND FREE ENERGY PREDICTED BY IDOCK:   -6.44 KCAL/MOL
REMARK 924 INTRA-LIGAND FREE ENERGY PREDICTED BY IDOCK:   -0.14 KCAL/MOL
REMARK 927      BINDING AFFINITY PREDICTED BY RF-SCORE:    0.00 PKD
ROOT
HETATM    1  C   UNL     1     -10.327  14.538  67.261  1.00  0.00    -0.260 C  
HETATM    2  C   UNL     1      -9.834  16.103  67.760  1.00  0.00    -0.232 C  
HETATM    3  C   UNL     1      -8.926  14.120  66.868  1.00  0.00    -0.247 C  
HETATM    4  C   UNL     1      -9.197  16.957  66.529  1.00  0.00    -0.295 C  
HETATM    5  C   UNL     1      -8.426  13.568  68.208  1.00  0.00    -0.168 C  
HETATM    6  C   UNL     1     -10.781  17.046  68.484  1.00  0.00    -0.352 C  
HETATM    7  C   UNL     1      -9.332  12.391  68.392  1.00  0.00    -0.158 C  
HETATM    8  C   UNL     1     -11.599  13.569  69.361  1.00  0.00    -0.369 C  
HETATM    9  C   UNL     1     -10.747  13.070  68.150  1.00  0.00    -0.258 C  
HETATM   10  C   UNL     1      -8.848  11.407  67.265  1.00  0.00    -0.153 C  
HETATM   11  O   UNL     1     -12.390  11.198  68.561  1.00  0.00    -0.561 OA 
HETATM   12  C   UNL     1      -7.355  11.219  67.263  1.00  0.00    -0.122 C  
HETATM   13  C   UNL     1     -11.519  11.638  67.791  1.00  0.00    -0.302 C  
HETATM   14  O   UNL     1      -6.657  11.162  68.272  1.00  0.00    -0.057 OA 
HETATM   15  C   UNL     1      -6.822  10.932  65.908  1.00  0.00    -0.032 C  
HETATM   16  C   UNL     1      -7.215   9.453  65.789  1.00  0.00    -0.095 C  
HETATM   17  C   UNL     1      -6.357   8.830  64.711  1.00  0.00    -0.066 C  
HETATM   18  C   UNL     1      -6.865   9.136  63.331  1.00  0.00    -0.090 C  
HETATM   19  C   UNL     1      -8.359   9.178  63.105  1.00  0.00    -0.193 C  
HETATM   20  O   UNL     1      -6.083   9.182  62.380  1.00  0.00    -0.094 OA 
HETATM   21  C   UNL     1      -9.227   9.724  64.261  1.00  0.00    -0.286 C  
HETATM   22  C   UNL     1      -8.797   9.298  65.699  1.00  0.00    -0.216 C  
HETATM   23  C   UNL     1      -9.131   7.796  65.860  1.00  0.00    -0.122 C  
HETATM   24  C   UNL     1      -9.565  10.120  66.954  1.00  0.00    -0.219 C  
HETATM   25  C   UNL     1     -11.025  10.607  66.726  1.00  0.00    -0.182 C  
ENDROOT
BRANCH   4  26
HETATM   26  C   UNL     1      -8.241  18.128  66.875  1.00  0.00    -0.258 C  
HETATM   27  O   UNL     1      -8.105  20.531  66.877  1.00  0.00    -0.294 OA 
HETATM   28  C   UNL     1      -8.875  19.483  66.544  1.00  0.00    -0.357 C  
HETATM   29  O   UNL     1      -9.933  19.620  65.942  1.00  0.00    -0.406 OA 
ENDBRANCH   4  26
TORSDOF 1
ENDMDL
MODEL       29
REMARK 921   NORMALIZED FREE ENERGY PREDICTED BY IDOCK:   -6.11 KCAL/MOL
REMARK 922        TOTAL FREE ENERGY PREDICTED BY IDOCK:   -6.58 KCAL/MOL
REMARK 923 INTER-LIGAND FREE ENERGY PREDICTED BY IDOCK:   -6.31 KCAL/MOL
REMARK 924 INTRA-LIGAND FREE ENERGY PREDICTED BY IDOCK:   -0.27 KCAL/MOL
REMARK 927      BINDING AFFINITY PREDICTED BY RF-SCORE:    0.00 PKD
ROOT
HETATM    1  C   UNL     1     -10.283  12.331  68.008  1.00  0.00    -0.206 C  
HETATM    2  C   UNL     1     -11.420  13.613  68.061  1.00  0.00    -0.345 C  
HETATM    3  C   UNL     1     -10.558  11.904  69.435  1.00  0.00     0.068 C  
HETATM    4  C   UNL     1     -11.027  14.724  69.184  1.00  0.00    -0.277 C  
HETATM    5  C   UNL     1     -11.716  10.927  69.203  1.00  0.00    -0.397 C  
HETATM    6  C   UNL     1     -11.805  14.390  66.813  1.00  0.00    -0.431 C  
HETATM    7  C   UNL     1     -11.033   9.850  68.417  1.00  0.00    -0.235 C  
HETATM    8  C   UNL     1     -11.009  10.917  65.901  1.00  0.00    -0.054 C  
HETATM    9  C   UNL     1     -10.323  10.716  67.291  1.00  0.00    -0.265 C  
HETATM   10  C   UNL     1     -10.075   9.204  69.484  1.00  0.00    -0.202 C  
HETATM   11  O   UNL     1      -9.228   8.991  65.808  1.00  0.00    -0.206 OA 
HETATM   12  C   UNL     1     -10.782   8.869  70.768  1.00  0.00    -0.233 C  
HETATM   13  C   UNL     1      -9.196   9.548  66.920  1.00  0.00    -0.143 C  
HETATM   14  O   UNL     1     -11.930   8.439  70.842  1.00  0.00    -0.270 OA 
HETATM   15  C   UNL     1      -9.883   8.946  71.946  1.00  0.00    -0.364 C  
HETATM   16  C   UNL     1      -9.127   7.621  71.776  1.00  0.00    -0.161 C  
HETATM   17  C   UNL     1      -8.512   7.262  73.110  1.00  0.00    -0.150 C  
HETATM   18  C   UNL     1      -7.242   8.020  73.373  1.00  0.00    -0.129 C  
HETATM   19  C   UNL     1      -6.306   8.285  72.216  1.00  0.00    -0.065 C  
HETATM   20  O   UNL     1      -6.897   8.265  74.531  1.00  0.00    -0.140 OA 
HETATM   21  C   UNL     1      -6.955   8.548  70.838  1.00  0.00    -0.057 C  
HETATM   22  C   UNL     1      -8.194   7.668  70.486  1.00  0.00    -0.121 C  
HETATM   23  C   UNL     1      -7.686   6.231  70.223  1.00  0.00    -0.098 C  
HETATM   24  C   UNL     1      -9.059   8.153  69.123  1.00  0.00    -0.148 C  
HETATM   25  C   UNL     1      -8.277   8.837  67.965  1.00  0.00    -0.118 C  
ENDROOT
BRANCH   4  26
HETATM   26  C   UNL     1     -12.157  15.630  69.737  1.00  0.00    -0.346 C  
HETATM   27  O   UNL     1     -13.728  15.814  71.550  1.00  0.00    -0.496 OA 
HETATM   28  C   UNL     1     -12.780  15.036  71.004  1.00  0.00    -0.366 C  
HETATM   29  O   UNL     1     -12.528  13.918  71.437  1.00  0.00    -0.351 OA 
ENDBRANCH   4  26
TORSDOF 1
ENDMDL
MODEL       30
REMARK 921   NORMALIZED FREE ENERGY PREDICTED BY IDOCK:   -5.98 KCAL/MOL
REMARK 922        TOTAL FREE ENERGY PREDICTED BY IDOCK:   -6.44 KCAL/MOL
REMARK 923 INTER-LIGAND FREE ENERGY PREDICTED BY IDOCK:   -6.18 KCAL/MOL
REMARK 924 INTRA-LIGAND FREE ENERGY PREDICTED BY IDOCK:   -0.26 KCAL/MOL
REMARK 927      BINDING AFFINITY PREDICTED BY RF-SCORE:    0.00 PKD
ROOT
HETATM    1  C   UNL     1     -10.120   9.219  66.455  1.00  0.00    -0.343 C  
HETATM    2  C   UNL     1      -9.462   7.730  66.993  1.00  0.00    -0.210 C  
HETATM    3  C   UNL     1      -9.590   9.991  67.646  1.00  0.00    -0.171 C  
HETATM    4  C   UNL     1     -10.088   7.274  68.425  1.00  0.00    -0.188 C  
HETATM    5  C   UNL     1      -8.204  10.378  67.117  1.00  0.00    -0.122 C  
HETATM    6  C   UNL     1      -9.468   6.491  66.114  1.00  0.00    -0.067 C  
HETATM    7  C   UNL     1      -8.570  11.282  65.981  1.00  0.00    -0.130 C  
HETATM    8  C   UNL     1      -9.173   9.491  64.007  1.00  0.00    -0.116 C  
HETATM    9  C   UNL     1      -9.624  10.375  65.214  1.00  0.00    -0.316 C  
HETATM   10  C   UNL     1      -9.163  12.537  66.719  1.00  0.00    -0.217 C  
HETATM   11  O   UNL     1     -10.232  11.746  63.183  1.00  0.00    -0.403 OA 
HETATM   12  C   UNL     1      -8.269  13.034  67.822  1.00  0.00    -0.168 C  
HETATM   13  C   UNL     1     -10.340  11.651  64.419  1.00  0.00    -0.313 C  
HETATM   14  O   UNL     1      -7.042  13.051  67.773  1.00  0.00    -0.108 OA 
HETATM   15  C   UNL     1      -9.031  13.674  68.923  1.00  0.00     0.189 C  
HETATM   16  C   UNL     1      -9.327  15.032  68.272  1.00  0.00    -0.192 C  
HETATM   17  C   UNL     1      -9.666  16.012  69.373  1.00  0.00    -0.248 C  
HETATM   18  C   UNL     1     -11.083  15.866  69.849  1.00  0.00    -0.343 C  
HETATM   19  C   UNL     1     -12.157  15.550  68.833  1.00  0.00    -0.219 C  
HETATM   20  O   UNL     1     -11.379  16.164  71.008  1.00  0.00    -0.387 OA 
HETATM   21  C   UNL     1     -11.760  14.628  67.659  1.00  0.00    -0.389 C  
HETATM   22  C   UNL     1     -10.340  14.862  67.055  1.00  0.00    -0.264 C  
HETATM   23  C   UNL     1     -10.376  16.202  66.284  1.00  0.00    -0.337 C  
HETATM   24  C   UNL     1      -9.811  13.677  65.979  1.00  0.00    -0.290 C  
HETATM   25  C   UNL     1     -10.877  12.943  65.116  1.00  0.00    -0.320 C  
ENDROOT
BRANCH   4  26
HETATM   26  C   UNL     1      -9.267   6.289  69.297  1.00  0.00    -0.133 C  
HETATM   27  O   UNL     1      -7.921   6.185  71.288  1.00  0.00    -0.109 OA 
HETATM   28  C   UNL     1      -8.599   7.007  70.473  1.00  0.00    -0.141 C  
HETATM   29  O   UNL     1      -8.585   8.224  70.619  1.00  0.00    -0.126 OA 
ENDBRANCH   4  26
TORSDOF 1
ENDMDL
MODEL       31
REMARK 921   NORMALIZED FREE ENERGY PREDICTED BY IDOCK:   -5.94 KCAL/MOL
REMARK 922        TOTAL FREE ENERGY PREDICTED BY IDOCK:   -6.40 KCAL/MOL
REMARK 923 INTER-LIGAND FREE ENERGY PREDICTED BY IDOCK:   -6.25 KCAL/MOL
REMARK 924 INTRA-LIGAND FREE ENERGY PREDICTED BY IDOCK:   -0.15 KCAL/MOL
REMARK 927      BINDING AFFINITY PREDICTED BY RF-SCORE:    0.00 PKD
ROOT
HETATM    1  C   UNL     1     -10.405   9.944  68.619  1.00  0.00    -0.217 C  
HETATM    2  C   UNL     1      -9.854   8.752  69.722  1.00  0.00    -0.189 C  
HETATM    3  C   UNL     1      -9.596  11.049  69.265  1.00  0.00    -0.008 C  
HETATM    4  C   UNL     1     -10.288   9.098  71.253  1.00  0.00    -0.405 C  
HETATM    5  C   UNL     1      -8.279  10.902  68.494  1.00  0.00    -0.140 C  
HETATM    6  C   UNL     1     -10.156   7.276  69.520  1.00  0.00    -0.182 C  
HETATM    7  C   UNL     1      -8.713  11.261  67.107  1.00  0.00    -0.151 C  
HETATM    8  C   UNL     1      -9.846   8.928  66.248  1.00  0.00    -0.355 C  
HETATM    9  C   UNL     1      -9.982  10.320  66.945  1.00  0.00    -0.259 C  
HETATM   10  C   UNL     1      -9.019  12.799  67.233  1.00  0.00    -0.199 C  
HETATM   11  O   UNL     1     -10.743  10.740  64.575  1.00  0.00    -0.297 OA 
HETATM   12  C   UNL     1      -7.902  13.558  67.896  1.00  0.00    -0.159 C  
HETATM   13  C   UNL     1     -10.658  11.222  65.719  1.00  0.00    -0.248 C  
HETATM   14  O   UNL     1      -6.707  13.325  67.734  1.00  0.00    -0.121 OA 
HETATM   15  C   UNL     1      -8.389  14.746  68.640  1.00  0.00    -0.165 C  
HETATM   16  C   UNL     1      -8.620  15.705  67.465  1.00  0.00    -0.185 C  
HETATM   17  C   UNL     1      -8.651  17.114  68.014  1.00  0.00    -0.227 C  
HETATM   18  C   UNL     1      -9.977  17.456  68.630  1.00  0.00    -0.340 C  
HETATM   19  C   UNL     1     -11.234  16.928  67.977  1.00  0.00    -0.064 C  
HETATM   20  O   UNL     1     -10.041  18.284  69.541  1.00  0.00    -0.090 OA 
HETATM   21  C   UNL     1     -11.151  15.527  67.330  1.00  0.00    -0.285 C  
HETATM   22  C   UNL     1      -9.832  15.205  66.561  1.00  0.00    -0.278 C  
HETATM   23  C   UNL     1      -9.830  16.049  65.265  1.00  0.00     0.036 C  
HETATM   24  C   UNL     1      -9.636  13.593  66.112  1.00  0.00    -0.226 C  
HETATM   25  C   UNL     1     -10.910  12.762  65.786  1.00  0.00    -0.299 C  
ENDROOT
BRANCH   4  26
HETATM   26  C   UNL     1      -9.462   8.467  72.403  1.00  0.00    -0.365 C  
HETATM   27  O   UNL     1      -9.609   6.857  74.185  1.00  0.00    -0.230 OA 
HETATM   28  C   UNL     1     -10.299   7.470  73.211  1.00  0.00    -0.357 C  
HETATM   29  O   UNL     1     -11.505   7.308  73.067  1.00  0.00    -0.244 OA 
ENDBRANCH   4  26
TORSDOF 1
ENDMDL
MODEL       32
REMARK 921   NORMALIZED FREE ENERGY PREDICTED BY IDOCK:   -5.93 KCAL/MOL
REMARK 922        TOTAL FREE ENERGY PREDICTED BY IDOCK:   -6.38 KCAL/MOL
REMARK 923 INTER-LIGAND FREE ENERGY PREDICTED BY IDOCK:   -6.16 KCAL/MOL
REMARK 924 INTRA-LIGAND FREE ENERGY PREDICTED BY IDOCK:   -0.23 KCAL/MOL
REMARK 927      BINDING AFFINITY PREDICTED BY RF-SCORE:    0.00 PKD
ROOT
HETATM    1  C   UNL     1      -9.903   8.059  72.052  1.00  0.00    -0.273 C  
HETATM    2  C   UNL     1      -9.665   6.625  72.962  1.00  0.00    -0.176 C  
HETATM    3  C   UNL     1      -9.382   7.444  70.771  1.00  0.00    -0.159 C  
HETATM    4  C   UNL     1      -8.096   6.194  73.011  1.00  0.00    -0.112 C  
HETATM    5  C   UNL     1     -10.678   6.842  70.217  1.00  0.00    -0.284 C  
HETATM    6  C   UNL     1     -10.188   6.484  74.382  1.00  0.00    -0.334 C  
HETATM    7  C   UNL     1     -11.484   8.077  69.958  1.00  0.00     0.065 C  
HETATM    8  C   UNL     1     -12.443   8.655  72.451  1.00  0.00    -0.428 C  
HETATM    9  C   UNL     1     -11.340   8.817  71.356  1.00  0.00    -0.364 C  
HETATM   10  C   UNL     1     -10.718   8.740  68.756  1.00  0.00    -0.111 C  
HETATM   11  O   UNL     1     -12.774  10.878  71.096  1.00  0.00    -0.370 OA 
HETATM   12  C   UNL     1     -10.444   7.770  67.640  1.00  0.00    -0.239 C  
HETATM   13  C   UNL     1     -11.718  10.320  70.748  1.00  0.00    -0.360 C  
HETATM   14  O   UNL     1     -11.216   6.885  67.279  1.00  0.00    -0.317 OA 
HETATM   15  C   UNL     1      -9.207   8.102  66.891  1.00  0.00    -0.198 C  
HETATM   16  C   UNL     1      -9.732   9.260  66.032  1.00  0.00    -0.359 C  
HETATM   17  C   UNL     1      -8.793   9.432  64.859  1.00  0.00    -0.240 C  
HETATM   18  C   UNL     1      -7.553  10.193  65.231  1.00  0.00    -0.144 C  
HETATM   19  C   UNL     1      -7.675  11.340  66.208  1.00  0.00    -0.053 C  
HETATM   20  O   UNL     1      -6.500   9.994  64.622  1.00  0.00    -0.113 OA 
HETATM   21  C   UNL     1      -8.715  11.186  67.341  1.00  0.00    -0.133 C  
HETATM   22  C   UNL     1     -10.070  10.524  66.940  1.00  0.00    -0.265 C  
HETATM   23  C   UNL     1     -10.842  11.538  66.063  1.00  0.00    -0.330 C  
HETATM   24  C   UNL     1     -11.074  10.104  68.226  1.00  0.00    -0.285 C  
HETATM   25  C   UNL     1     -11.024  10.978  69.512  1.00  0.00    -0.297 C  
ENDROOT
BRANCH   4  26
HETATM   26  C   UNL     1      -7.759   4.708  73.304  1.00  0.00    -0.088 C  
HETATM   27  O   UNL     1      -7.503   2.571  72.229  1.00  0.00    -0.042 OA 
HETATM   28  C   UNL     1      -7.840   3.856  72.034  1.00  0.00    -0.075 C  
HETATM   29  O   UNL     1      -8.266   4.260  70.959  1.00  0.00    -0.073 OA 
ENDBRANCH   4  26
TORSDOF 1
ENDMDL
MODEL       33
REMARK 921   NORMALIZED FREE ENERGY PREDICTED BY IDOCK:   -5.92 KCAL/MOL
REMARK 922        TOTAL FREE ENERGY PREDICTED BY IDOCK:   -6.37 KCAL/MOL
REMARK 923 INTER-LIGAND FREE ENERGY PREDICTED BY IDOCK:   -6.24 KCAL/MOL
REMARK 924 INTRA-LIGAND FREE ENERGY PREDICTED BY IDOCK:   -0.13 KCAL/MOL
REMARK 927      BINDING AFFINITY PREDICTED BY RF-SCORE:    0.00 PKD
ROOT
HETATM    1  C   UNL     1     -11.003  11.966  67.608  1.00  0.00    -0.286 C  
HETATM    2  C   UNL     1     -10.909  10.581  68.615  1.00  0.00    -0.276 C  
HETATM    3  C   UNL     1     -10.341  12.868  68.628  1.00  0.00    -0.202 C  
HETATM    4  C   UNL     1     -11.756  10.777  69.992  1.00  0.00    -0.417 C  
HETATM    5  C   UNL     1      -8.869  12.659  68.254  1.00  0.00    -0.172 C  
HETATM    6  C   UNL     1     -11.254   9.194  68.100  1.00  0.00     0.286 C  
HETATM    7  C   UNL     1      -8.834  13.247  66.877  1.00  0.00    -0.186 C  
HETATM    8  C   UNL     1      -9.838  11.205  65.365  1.00  0.00    -0.289 C  
HETATM    9  C   UNL     1     -10.066  12.500  66.209  1.00  0.00    -0.264 C  
HETATM   10  C   UNL     1      -9.038  14.781  67.156  1.00  0.00    -0.231 C  
HETATM   11  O   UNL     1     -10.039  13.317  63.820  1.00  0.00    -0.162 OA 
HETATM   12  C   UNL     1      -8.117  15.303  68.224  1.00  0.00    -0.137 C  
HETATM   13  C   UNL     1     -10.264  13.631  65.002  1.00  0.00    -0.334 C  
HETATM   14  O   UNL     1      -6.952  14.946  68.377  1.00  0.00    -0.100 OA 
HETATM   15  C   UNL     1      -8.708  16.435  68.979  1.00  0.00    -0.233 C  
HETATM   16  C   UNL     1      -8.495  17.560  67.958  1.00  0.00    -0.242 C  
HETATM   17  C   UNL     1      -8.577  18.879  68.695  1.00  0.00    -0.376 C  
HETATM   18  C   UNL     1      -9.996  19.300  68.951  1.00  0.00    -0.427 C  
HETATM   19  C   UNL     1     -11.035  19.023  67.889  1.00  0.00    -0.157 C  
HETATM   20  O   UNL     1     -10.265  20.004  69.926  1.00  0.00    -0.109 OA 
HETATM   21  C   UNL     1     -10.873  17.718  67.076  1.00  0.00    -0.087 C  
HETATM   22  C   UNL     1      -9.414  17.337  66.676  1.00  0.00    -0.278 C  
HETATM   23  C   UNL     1      -8.953  18.335  65.589  1.00  0.00     0.714 C  
HETATM   24  C   UNL     1      -9.222  15.785  66.048  1.00  0.00    -0.379 C  
HETATM   25  C   UNL     1     -10.401  15.169  65.241  1.00  0.00    -0.425 C  
ENDROOT
BRANCH   4  26
HETATM   26  C   UNL     1     -11.369   9.903  71.214  1.00  0.00    -0.404 C  
HETATM   27  O   UNL     1     -12.277   8.311  72.773  1.00  0.00    -0.327 OA 
HETATM   28  C   UNL     1     -12.575   9.125  71.748  1.00  0.00    -0.370 C  
HETATM   29  O   UNL     1     -13.727   9.288  71.362  1.00  0.00    -0.370 OA 
ENDBRANCH   4  26
TORSDOF 1
ENDMDL
MODEL       34
REMARK 921   NORMALIZED FREE ENERGY PREDICTED BY IDOCK:   -5.92 KCAL/MOL
REMARK 922        TOTAL FREE ENERGY PREDICTED BY IDOCK:   -6.37 KCAL/MOL
REMARK 923 INTER-LIGAND FREE ENERGY PREDICTED BY IDOCK:   -6.24 KCAL/MOL
REMARK 924 INTRA-LIGAND FREE ENERGY PREDICTED BY IDOCK:   -0.13 KCAL/MOL
REMARK 927      BINDING AFFINITY PREDICTED BY RF-SCORE:    0.00 PKD
ROOT
HETATM    1  C   UNL     1      -8.163   9.492  65.928  1.00  0.00    -0.115 C  
HETATM    2  C   UNL     1      -8.837  10.037  64.449  1.00  0.00    -0.239 C  
HETATM    3  C   UNL     1      -9.505   9.082  66.496  1.00  0.00    -0.266 C  
HETATM    4  C   UNL     1      -9.877  11.269  64.676  1.00  0.00    -0.314 C  
HETATM    5  C   UNL     1      -9.590   7.644  65.971  1.00  0.00     0.019 C  
HETATM    6  C   UNL     1      -7.963  10.433  63.271  1.00  0.00    -0.117 C  
HETATM    7  C   UNL     1      -8.452   7.001  66.700  1.00  0.00    -0.121 C  
HETATM    8  C   UNL     1      -6.308   7.766  65.188  1.00  0.00    -0.038 C  
HETATM    9  C   UNL     1      -7.283   8.028  66.381  1.00  0.00    -0.079 C  
HETATM   10  C   UNL     1      -8.961   6.992  68.188  1.00  0.00    -0.127 C  
HETATM   11  O   UNL     1      -5.254   6.983  67.461  1.00  0.00    -0.014 OA 
HETATM   12  C   UNL     1     -10.353   6.436  68.319  1.00  0.00    -0.191 C  
HETATM   13  C   UNL     1      -6.339   7.555  67.669  1.00  0.00    -0.053 C  
HETATM   14  O   UNL     1     -10.795   5.497  67.662  1.00  0.00    -0.179 OA 
HETATM   15  C   UNL     1     -11.095   7.030  69.459  1.00  0.00    -0.221 C  
HETATM   16  C   UNL     1     -10.453   6.249  70.614  1.00  0.00    -0.276 C  
HETATM   17  C   UNL     1     -11.381   6.336  71.806  1.00  0.00    -0.346 C  
HETATM   18  C   UNL     1     -11.248   7.641  72.537  1.00  0.00    -0.346 C  
HETATM   19  C   UNL     1      -9.875   8.259  72.668  1.00  0.00    -0.357 C  
HETATM   20  O   UNL     1     -12.209   8.102  73.156  1.00  0.00    -0.118 OA 
HETATM   21  C   UNL     1      -8.906   8.070  71.479  1.00  0.00    -0.178 C  
HETATM   22  C   UNL     1      -8.927   6.668  70.795  1.00  0.00    -0.151 C  
HETATM   23  C   UNL     1      -8.278   5.662  71.774  1.00  0.00    -0.119 C  
HETATM   24  C   UNL     1      -8.087   6.565  69.338  1.00  0.00    -0.119 C  
HETATM   25  C   UNL     1      -6.834   7.468  69.148  1.00  0.00    -0.056 C  
ENDROOT
BRANCH   4  26
HETATM   26  C   UNL     1     -10.949  11.526  63.585  1.00  0.00    -0.482 C  
HETATM   27  O   UNL     1     -13.148  12.449  63.263  1.00  0.00    -0.630 OA 
HETATM   28  C   UNL     1     -12.211  12.157  64.180  1.00  0.00    -0.413 C  
HETATM   29  O   UNL     1     -12.412  12.298  65.381  1.00  0.00    -0.596 OA 
ENDBRANCH   4  26
TORSDOF 1
ENDMDL
MODEL       35
REMARK 921   NORMALIZED FREE ENERGY PREDICTED BY IDOCK:   -5.91 KCAL/MOL
REMARK 922        TOTAL FREE ENERGY PREDICTED BY IDOCK:   -6.37 KCAL/MOL
REMARK 923 INTER-LIGAND FREE ENERGY PREDICTED BY IDOCK:   -6.22 KCAL/MOL
REMARK 924 INTRA-LIGAND FREE ENERGY PREDICTED BY IDOCK:   -0.15 KCAL/MOL
REMARK 927      BINDING AFFINITY PREDICTED BY RF-SCORE:    0.00 PKD
ROOT
HETATM    1  C   UNL     1      -8.920   9.559  66.052  1.00  0.00    -0.198 C  
HETATM    2  C   UNL     1     -10.078  10.472  65.177  1.00  0.00    -0.383 C  
HETATM    3  C   UNL     1      -9.829   9.377  67.249  1.00  0.00    -0.232 C  
HETATM    4  C   UNL     1     -10.465  11.854  65.946  1.00  0.00    -0.296 C  
HETATM    5  C   UNL     1     -10.565   8.099  66.832  1.00  0.00    -0.311 C  
HETATM    6  C   UNL     1      -9.867  10.844  63.719  1.00  0.00    -0.391 C  
HETATM    7  C   UNL     1      -9.444   7.107  66.824  1.00  0.00    -0.214 C  
HETATM    8  C   UNL     1      -8.273   7.601  64.404  1.00  0.00    -0.032 C  
HETATM    9  C   UNL     1      -8.376   7.882  65.938  1.00  0.00    -0.134 C  
HETATM   10  C   UNL     1      -9.092   6.975  68.351  1.00  0.00    -0.127 C  
HETATM   11  O   UNL     1      -6.463   6.247  65.738  1.00  0.00    -0.040 OA 
HETATM   12  C   UNL     1     -10.307   6.734  69.205  1.00  0.00    -0.194 C  
HETATM   13  C   UNL     1      -7.077   7.008  66.506  1.00  0.00    -0.077 C  
HETATM   14  O   UNL     1     -11.263   6.036  68.877  1.00  0.00    -0.344 OA 
HETATM   15  C   UNL     1     -10.157   7.289  70.572  1.00  0.00    -0.195 C  
HETATM   16  C   UNL     1      -9.257   6.210  71.188  1.00  0.00    -0.161 C  
HETATM   17  C   UNL     1      -9.371   6.311  72.693  1.00  0.00    -0.145 C  
HETATM   18  C   UNL     1      -8.527   7.419  73.254  1.00  0.00    -0.136 C  
HETATM   19  C   UNL     1      -7.174   7.682  72.633  1.00  0.00    -0.088 C  
HETATM   20  O   UNL     1      -8.859   7.980  74.300  1.00  0.00    -0.194 OA 
HETATM   21  C   UNL     1      -7.053   7.472  71.106  1.00  0.00    -0.058 C  
HETATM   22  C   UNL     1      -7.810   6.239  70.523  1.00  0.00    -0.106 C  
HETATM   23  C   UNL     1      -7.057   4.969  70.983  1.00  0.00    -0.055 C  
HETATM   24  C   UNL     1      -7.908   6.184  68.841  1.00  0.00    -0.101 C  
HETATM   25  C   UNL     1      -6.740   6.800  68.018  1.00  0.00    -0.068 C  
ENDROOT
BRANCH   4  26
HETATM   26  C   UNL     1     -11.826  12.517  65.610  1.00  0.00    -0.493 C  
HETATM   27  O   UNL     1     -12.784  14.462  64.567  1.00  0.00    -0.663 OA 
HETATM   28  C   UNL     1     -11.632  13.874  64.927  1.00  0.00    -0.359 C  
HETATM   29  O   UNL     1     -10.550  14.435  64.802  1.00  0.00    -0.421 OA 
ENDBRANCH   4  26
TORSDOF 1
ENDMDL
MODEL       36
REMARK 921   NORMALIZED FREE ENERGY PREDICTED BY IDOCK:   -5.89 KCAL/MOL
REMARK 922        TOTAL FREE ENERGY PREDICTED BY IDOCK:   -6.34 KCAL/MOL
REMARK 923 INTER-LIGAND FREE ENERGY PREDICTED BY IDOCK:   -6.32 KCAL/MOL
REMARK 924 INTRA-LIGAND FREE ENERGY PREDICTED BY IDOCK:   -0.01 KCAL/MOL
REMARK 927      BINDING AFFINITY PREDICTED BY RF-SCORE:    0.00 PKD
ROOT
HETATM    1  C   UNL     1      -8.332  13.103  68.215  1.00  0.00    -0.152 C  
HETATM    2  C   UNL     1      -8.684  14.163  66.913  1.00  0.00    -0.187 C  
HETATM    3  C   UNL     1      -9.411  12.115  67.824  1.00  0.00    -0.192 C  
HETATM    4  C   UNL     1     -10.200  14.750  67.005  1.00  0.00    -0.253 C  
HETATM    5  C   UNL     1      -8.624  11.230  66.851  1.00  0.00    -0.150 C  
HETATM    6  C   UNL     1      -7.790  15.347  66.584  1.00  0.00     0.010 C  
HETATM    7  C   UNL     1      -7.611  10.620  67.769  1.00  0.00    -0.095 C  
HETATM    8  C   UNL     1      -5.751  12.613  67.961  1.00  0.00    -0.091 C  
HETATM    9  C   UNL     1      -7.049  11.920  68.488  1.00  0.00    -0.089 C  
HETATM   10  C   UNL     1      -8.489   9.673  68.666  1.00  0.00    -0.119 C  
HETATM   11  O   UNL     1      -5.222  11.033  69.989  1.00  0.00    -0.046 OA 
HETATM   12  C   UNL     1      -9.401   8.793  67.857  1.00  0.00    -0.142 C  
HETATM   13  C   UNL     1      -6.451  11.092  69.804  1.00  0.00    -0.137 C  
HETATM   14  O   UNL     1      -9.105   8.283  66.779  1.00  0.00    -0.140 OA 
HETATM   15  C   UNL     1     -10.651   8.454  68.581  1.00  0.00    -0.149 C  
HETATM   16  C   UNL     1     -10.111   7.373  69.528  1.00  0.00    -0.187 C  
HETATM   17  C   UNL     1     -11.285   6.553  70.015  1.00  0.00    -0.453 C  
HETATM   18  C   UNL     1     -12.034   7.234  71.125  1.00  0.00    -0.328 C  
HETATM   19  C   UNL     1     -11.249   8.016  72.152  1.00  0.00    -0.380 C  
HETATM   20  O   UNL     1     -13.236   7.015  71.284  1.00  0.00    -0.358 OA 
HETATM   21  C   UNL     1      -9.993   8.764  71.651  1.00  0.00    -0.381 C  
HETATM   22  C   UNL     1      -9.120   8.010  70.600  1.00  0.00    -0.154 C  
HETATM   23  C   UNL     1      -8.411   6.847  71.332  1.00  0.00    -0.115 C  
HETATM   24  C   UNL     1      -7.928   8.939  69.855  1.00  0.00    -0.108 C  
HETATM   25  C   UNL     1      -7.278  10.091  70.674  1.00  0.00     0.051 C  
ENDROOT
BRANCH   4  26
HETATM   26  C   UNL     1     -10.860  15.265  65.699  1.00  0.00    -0.371 C  
HETATM   27  O   UNL     1     -11.277  17.277  64.448  1.00  0.00    -1.082 OA 
HETATM   28  C   UNL     1     -10.767  16.790  65.590  1.00  0.00    -0.192 C  
HETATM   29  O   UNL     1     -10.365  17.522  66.486  1.00  0.00    -0.335 OA 
ENDBRANCH   4  26
TORSDOF 1
ENDMDL
MODEL       37
REMARK 921   NORMALIZED FREE ENERGY PREDICTED BY IDOCK:   -5.88 KCAL/MOL
REMARK 922        TOTAL FREE ENERGY PREDICTED BY IDOCK:   -6.32 KCAL/MOL
REMARK 923 INTER-LIGAND FREE ENERGY PREDICTED BY IDOCK:   -6.21 KCAL/MOL
REMARK 924 INTRA-LIGAND FREE ENERGY PREDICTED BY IDOCK:   -0.12 KCAL/MOL
REMARK 927      BINDING AFFINITY PREDICTED BY RF-SCORE:    0.00 PKD
ROOT
HETATM    1  C   UNL     1     -11.815   8.677  70.720  1.00  0.00    -0.197 C  
HETATM    2  C   UNL     1     -12.656   9.664  71.843  1.00  0.00    -0.481 C  
HETATM    3  C   UNL     1     -10.636   9.622  70.631  1.00  0.00    -0.386 C  
HETATM    4  C   UNL     1     -13.009  11.125  71.218  1.00  0.00    -0.457 C  
HETATM    5  C   UNL     1      -9.779   9.089  71.785  1.00  0.00    -0.311 C  
HETATM    6  C   UNL     1     -13.919   9.185  72.538  1.00  0.00    -0.453 C  
HETATM    7  C   UNL     1      -9.439   7.719  71.287  1.00  0.00    -0.173 C  
HETATM    8  C   UNL     1     -11.704   6.318  71.900  1.00  0.00    -0.370 C  
HETATM    9  C   UNL     1     -10.883   7.186  70.893  1.00  0.00    -0.266 C  
HETATM   10  C   UNL     1      -8.475   8.023  70.083  1.00  0.00    -0.128 C  
HETATM   11  O   UNL     1     -10.463   4.811  70.146  1.00  0.00    -0.199 OA 
HETATM   12  C   UNL     1      -7.380   8.987  70.448  1.00  0.00    -0.084 C  
HETATM   13  C   UNL     1     -10.310   6.012  69.860  1.00  0.00    -0.227 C  
HETATM   14  O   UNL     1      -6.804   9.011  71.533  1.00  0.00    -0.144 OA 
HETATM   15  C   UNL     1      -6.936   9.805  69.293  1.00  0.00    -0.056 C  
HETATM   16  C   UNL     1      -6.065   8.770  68.568  1.00  0.00    -0.046 C  
HETATM   17  C   UNL     1      -5.133   9.516  67.639  1.00  0.00    -0.036 C  
HETATM   18  C   UNL     1      -5.810   9.926  66.363  1.00  0.00    -0.058 C  
HETATM   19  C   UNL     1      -6.814   8.982  65.743  1.00  0.00    -0.076 C  
HETATM   20  O   UNL     1      -5.427  10.927  65.754  1.00  0.00    -0.122 OA 
HETATM   21  C   UNL     1      -7.686   8.153  66.712  1.00  0.00    -0.095 C  
HETATM   22  C   UNL     1      -6.963   7.595  67.977  1.00  0.00    -0.079 C  
HETATM   23  C   UNL     1      -6.012   6.468  67.511  1.00  0.00    -0.017 C  
HETATM   24  C   UNL     1      -7.974   6.945  69.158  1.00  0.00    -0.119 C  
HETATM   25  C   UNL     1      -9.298   6.269  68.698  1.00  0.00    -0.122 C  
ENDROOT
BRANCH   4  26
HETATM   26  C   UNL     1     -13.266  12.294  72.203  1.00  0.00    -0.466 C  
HETATM   27  O   UNL     1     -13.246  14.696  72.346  1.00  0.00    -0.346 OA 
HETATM   28  C   UNL     1     -12.985  13.650  71.547  1.00  0.00    -0.360 C  
HETATM   29  O   UNL     1     -12.475  13.788  70.442  1.00  0.00    -0.331 OA 
ENDBRANCH   4  26
TORSDOF 1
ENDMDL
MODEL       38
REMARK 921   NORMALIZED FREE ENERGY PREDICTED BY IDOCK:   -5.81 KCAL/MOL
REMARK 922        TOTAL FREE ENERGY PREDICTED BY IDOCK:   -6.25 KCAL/MOL
REMARK 923 INTER-LIGAND FREE ENERGY PREDICTED BY IDOCK:   -6.13 KCAL/MOL
REMARK 924 INTRA-LIGAND FREE ENERGY PREDICTED BY IDOCK:   -0.12 KCAL/MOL
REMARK 927      BINDING AFFINITY PREDICTED BY RF-SCORE:    0.00 PKD
ROOT
HETATM    1  C   UNL     1      -8.082   8.503  68.928  1.00  0.00    -0.119 C  
HETATM    2  C   UNL     1      -8.422   7.191  69.978  1.00  0.00    -0.140 C  
HETATM    3  C   UNL     1      -9.545   8.788  68.657  1.00  0.00    -0.159 C  
HETATM    4  C   UNL     1      -9.211   5.991  69.210  1.00  0.00    -0.133 C  
HETATM    5  C   UNL     1      -9.847   9.750  69.811  1.00  0.00    -0.262 C  
HETATM    6  C   UNL     1      -7.333   6.523  70.800  1.00  0.00    -0.076 C  
HETATM    7  C   UNL     1      -8.975  10.914  69.455  1.00  0.00     0.104 C  
HETATM    8  C   UNL     1      -6.534  10.087  70.364  1.00  0.00    -0.125 C  
HETATM    9  C   UNL     1      -7.589  10.176  69.214  1.00  0.00    -0.117 C  
HETATM   10  C   UNL     1      -9.674  11.483  68.167  1.00  0.00    -0.192 C  
HETATM   11  O   UNL     1      -5.982  12.061  68.725  1.00  0.00    -0.053 OA 
HETATM   12  C   UNL     1     -11.154  11.678  68.350  1.00  0.00    -0.234 C  
HETATM   13  C   UNL     1      -6.946  11.404  68.292  1.00  0.00    -0.072 C  
HETATM   14  O   UNL     1     -11.684  12.068  69.387  1.00  0.00    -0.297 OA 
HETATM   15  C   UNL     1     -11.908  11.516  67.083  1.00  0.00    -0.000 C  
HETATM   16  C   UNL     1     -11.603  12.872  66.431  1.00  0.00    -0.425 C  
HETATM   17  C   UNL     1     -12.647  13.121  65.366  1.00  0.00    -0.512 C  
HETATM   18  C   UNL     1     -12.353  12.378  64.094  1.00  0.00    -0.467 C  
HETATM   19  C   UNL     1     -10.914  12.247  63.651  1.00  0.00    -0.532 C  
HETATM   20  O   UNL     1     -13.275  12.035  63.352  1.00  0.00    -0.687 OA 
HETATM   21  C   UNL     1      -9.851  12.096  64.762  1.00  0.00    -0.157 C  
HETATM   22  C   UNL     1     -10.063  12.971  66.036  1.00  0.00    -0.286 C  
HETATM   23  C   UNL     1      -9.772  14.439  65.647  1.00  0.00    -0.258 C  
HETATM   24  C   UNL     1      -9.071  12.591  67.344  1.00  0.00    -0.185 C  
HETATM   25  C   UNL     1      -7.646  12.039  67.048  1.00  0.00    -0.111 C  
ENDROOT
BRANCH   4  26
HETATM   26  C   UNL     1     -10.049   5.007  70.067  1.00  0.00    -0.342 C  
HETATM   27  O   UNL     1     -10.016   2.780  70.979  1.00  0.00    -0.070 OA 
HETATM   28  C   UNL     1      -9.353   3.649  70.199  1.00  0.00    -0.173 C  
HETATM   29  O   UNL     1      -8.344   3.329  69.582  1.00  0.00    -0.051 OA 
ENDBRANCH   4  26
TORSDOF 1
ENDMDL
MODEL       39
REMARK 921   NORMALIZED FREE ENERGY PREDICTED BY IDOCK:   -5.72 KCAL/MOL
REMARK 922        TOTAL FREE ENERGY PREDICTED BY IDOCK:   -6.16 KCAL/MOL
REMARK 923 INTER-LIGAND FREE ENERGY PREDICTED BY IDOCK:   -5.89 KCAL/MOL
REMARK 924 INTRA-LIGAND FREE ENERGY PREDICTED BY IDOCK:   -0.27 KCAL/MOL
REMARK 927      BINDING AFFINITY PREDICTED BY RF-SCORE:    0.00 PKD
ROOT
HETATM    1  C   UNL     1     -11.052  10.050  69.197  1.00  0.00    -0.232 C  
HETATM    2  C   UNL     1     -10.549  11.630  68.756  1.00  0.00    -0.241 C  
HETATM    3  C   UNL     1      -9.638   9.510  69.233  1.00  0.00    -0.179 C  
HETATM    4  C   UNL     1      -9.786  11.642  67.319  1.00  0.00    -0.192 C  
HETATM    5  C   UNL     1      -9.267   9.829  70.686  1.00  0.00     0.001 C  
HETATM    6  C   UNL     1     -11.520  12.799  68.730  1.00  0.00    -0.347 C  
HETATM    7  C   UNL     1     -10.223   8.949  71.429  1.00  0.00    -0.375 C  
HETATM    8  C   UNL     1     -12.522  10.426  71.356  1.00  0.00    -0.521 C  
HETATM    9  C   UNL     1     -11.591   9.342  70.723  1.00  0.00    -0.364 C  
HETATM   10  C   UNL     1      -9.682   7.509  71.109  1.00  0.00    -0.168 C  
HETATM   11  O   UNL     1     -13.323   8.007  71.984  1.00  0.00    -0.305 OA 
HETATM   12  C   UNL     1      -8.201   7.382  71.342  1.00  0.00    -0.104 C  
HETATM   13  C   UNL     1     -12.378   7.947  71.178  1.00  0.00    -0.230 C  
HETATM   14  O   UNL     1      -7.591   7.923  72.260  1.00  0.00    -0.084 OA 
HETATM   15  C   UNL     1      -7.569   6.384  70.444  1.00  0.00    -0.096 C  
HETATM   16  C   UNL     1      -8.000   5.094  71.154  1.00  0.00    -0.103 C  
HETATM   17  C   UNL     1      -7.078   3.984  70.701  1.00  0.00    -0.037 C  
HETATM   18  C   UNL     1      -7.461   3.440  69.355  1.00  0.00    -0.048 C  
HETATM   19  C   UNL     1      -8.930   3.317  69.017  1.00  0.00    -0.187 C  
HETATM   20  O   UNL     1      -6.602   2.951  68.618  1.00  0.00    -0.032 OA 
HETATM   21  C   UNL     1      -9.870   4.407  69.578  1.00  0.00    -0.258 C  
HETATM   22  C   UNL     1      -9.574   4.884  71.033  1.00  0.00    -0.238 C  
HETATM   23  C   UNL     1      -9.969   3.735  71.990  1.00  0.00    -0.238 C  
HETATM   24  C   UNL     1     -10.414   6.260  71.525  1.00  0.00    -0.266 C  
HETATM   25  C   UNL     1     -11.834   6.502  70.936  1.00  0.00    -0.391 C  
ENDROOT
BRANCH   4  26
HETATM   26  C   UNL     1      -8.823  12.820  67.017  1.00  0.00    -0.213 C  
HETATM   27  O   UNL     1      -6.505  13.455  67.130  1.00  0.00    -0.220 OA 
HETATM   28  C   UNL     1      -7.385  12.485  67.423  1.00  0.00    -0.147 C  
HETATM   29  O   UNL     1      -7.061  11.481  68.047  1.00  0.00    -0.073 OA 
ENDBRANCH   4  26
TORSDOF 1
ENDMDL
MODEL       40
REMARK 921   NORMALIZED FREE ENERGY PREDICTED BY IDOCK:   -5.68 KCAL/MOL
REMARK 922        TOTAL FREE ENERGY PREDICTED BY IDOCK:   -6.11 KCAL/MOL
REMARK 923 INTER-LIGAND FREE ENERGY PREDICTED BY IDOCK:   -5.85 KCAL/MOL
REMARK 924 INTRA-LIGAND FREE ENERGY PREDICTED BY IDOCK:   -0.27 KCAL/MOL
REMARK 927      BINDING AFFINITY PREDICTED BY RF-SCORE:    0.00 PKD
ROOT
HETATM    1  C   UNL     1      -9.133   9.050  67.705  1.00  0.00    -0.143 C  
HETATM    2  C   UNL     1      -8.112   7.917  68.490  1.00  0.00    -0.123 C  
HETATM    3  C   UNL     1      -8.597  10.223  68.498  1.00  0.00    -0.126 C  
HETATM    4  C   UNL     1      -8.409   7.842  70.088  1.00  0.00    -0.128 C  
HETATM    5  C   UNL     1      -7.416  10.628  67.609  1.00  0.00    -0.091 C  
HETATM    6  C   UNL     1      -7.999   6.479  68.012  1.00  0.00    -0.109 C  
HETATM    7  C   UNL     1      -8.125  11.068  66.367  1.00  0.00    -0.166 C  
HETATM    8  C   UNL     1      -8.642   8.683  65.138  1.00  0.00    -0.200 C  
HETATM    9  C   UNL     1      -9.076   9.821  66.117  1.00  0.00    -0.198 C  
HETATM   10  C   UNL     1      -8.842  12.388  66.832  1.00  0.00    -0.205 C  
HETATM   11  O   UNL     1     -10.250  10.386  63.954  1.00  0.00    -0.243 OA 
HETATM   12  C   UNL     1      -7.912  13.331  67.545  1.00  0.00    -0.184 C  
HETATM   13  C   UNL     1     -10.149  10.665  65.162  1.00  0.00    -0.307 C  
HETATM   14  O   UNL     1      -6.736  13.514  67.242  1.00  0.00    -0.211 OA 
HETATM   15  C   UNL     1      -8.612  14.161  68.555  1.00  0.00    -0.163 C  
HETATM   16  C   UNL     1      -9.274  15.189  67.627  1.00  0.00    -0.181 C  
HETATM   17  C   UNL     1      -9.634  16.401  68.456  1.00  0.00    -0.229 C  
HETATM   18  C   UNL     1     -10.903  16.201  69.235  1.00  0.00    -0.310 C  
HETATM   19  C   UNL     1     -12.031  15.429  68.590  1.00  0.00    -0.240 C  
HETATM   20  O   UNL     1     -11.075  16.798  70.299  1.00  0.00    -0.211 OA 
HETATM   21  C   UNL     1     -11.637  14.257  67.663  1.00  0.00    -0.396 C  
HETATM   22  C   UNL     1     -10.403  14.500  66.740  1.00  0.00    -0.269 C  
HETATM   23  C   UNL     1     -10.827  15.512  65.651  1.00  0.00    -0.354 C  
HETATM   24  C   UNL     1      -9.813  13.132  65.953  1.00  0.00    -0.241 C  
HETATM   25  C   UNL     1     -10.825  12.015  65.566  1.00  0.00    -0.336 C  
ENDROOT
BRANCH   4  26
HETATM   26  C   UNL     1      -7.282   7.311  71.013  1.00  0.00    -0.073 C  
HETATM   27  O   UNL     1      -5.571   8.046  72.536  1.00  0.00    -0.036 OA 
HETATM   28  C   UNL     1      -6.522   8.459  71.683  1.00  0.00    -0.061 C  
HETATM   29  O   UNL     1      -6.677   9.643  71.407  1.00  0.00    -0.311 OA 
ENDBRANCH   4  26
TORSDOF 1
ENDMDL
MODEL       41
REMARK 921   NORMALIZED FREE ENERGY PREDICTED BY IDOCK:   -5.67 KCAL/MOL
REMARK 922        TOTAL FREE ENERGY PREDICTED BY IDOCK:   -6.11 KCAL/MOL
REMARK 923 INTER-LIGAND FREE ENERGY PREDICTED BY IDOCK:   -5.99 KCAL/MOL
REMARK 924 INTRA-LIGAND FREE ENERGY PREDICTED BY IDOCK:   -0.12 KCAL/MOL
REMARK 927      BINDING AFFINITY PREDICTED BY RF-SCORE:    0.00 PKD
ROOT
HETATM    1  C   UNL     1     -10.103  12.156  67.322  1.00  0.00    -0.214 C  
HETATM    2  C   UNL     1     -11.495  13.024  67.822  1.00  0.00    -0.359 C  
HETATM    3  C   UNL     1     -10.222  11.138  68.436  1.00  0.00    -0.200 C  
HETATM    4  C   UNL     1     -11.319  13.639  69.319  1.00  0.00    -0.323 C  
HETATM    5  C   UNL     1     -11.140  10.112  67.763  1.00  0.00    -0.293 C  
HETATM    6  C   UNL     1     -12.090  14.136  66.974  1.00  0.00    -0.449 C  
HETATM    7  C   UNL     1     -10.264   9.625  66.650  1.00  0.00    -0.302 C  
HETATM    8  C   UNL     1     -10.573  11.599  64.785  1.00  0.00    -0.358 C  
HETATM    9  C   UNL     1      -9.808  11.007  66.013  1.00  0.00    -0.273 C  
HETATM   10  C   UNL     1      -9.147   8.829  67.418  1.00  0.00    -0.147 C  
HETATM   11  O   UNL     1      -8.411  10.319  64.025  1.00  0.00    -0.165 OA 
HETATM   12  C   UNL     1      -9.712   7.855  68.415  1.00  0.00    -0.160 C  
HETATM   13  C   UNL     1      -8.463  10.368  65.267  1.00  0.00    -0.169 C  
HETATM   14  O   UNL     1     -10.731   7.192  68.243  1.00  0.00    -0.201 OA 
HETATM   15  C   UNL     1      -8.810   7.642  69.574  1.00  0.00    -0.139 C  
HETATM   16  C   UNL     1      -7.784   6.701  68.927  1.00  0.00    -0.109 C  
HETATM   17  C   UNL     1      -7.055   5.976  70.036  1.00  0.00    -0.071 C  
HETATM   18  C   UNL     1      -5.977   6.819  70.655  1.00  0.00    -0.027 C  
HETATM   19  C   UNL     1      -5.169   7.729  69.760  1.00  0.00    -0.023 C  
HETATM   20  O   UNL     1      -5.654   6.642  71.831  1.00  0.00    -0.035 OA 
HETATM   21  C   UNL     1      -5.911   8.380  68.571  1.00  0.00    -0.041 C  
HETATM   22  C   UNL     1      -6.934   7.471  67.822  1.00  0.00    -0.080 C  
HETATM   23  C   UNL     1      -6.127   6.415  67.031  1.00  0.00    -0.025 C  
HETATM   24  C   UNL     1      -7.935   8.266  66.724  1.00  0.00    -0.099 C  
HETATM   25  C   UNL     1      -7.370   9.514  65.987  1.00  0.00    -0.097 C  
ENDROOT
BRANCH   4  26
HETATM   26  C   UNL     1     -12.602  13.971  70.124  1.00  0.00    -0.310 C  
HETATM   27  O   UNL     1     -13.644  15.726  71.397  1.00  0.00    -0.526 OA 
HETATM   28  C   UNL     1     -12.531  15.373  70.735  1.00  0.00    -0.423 C  
HETATM   29  O   UNL     1     -11.531  16.081  70.722  1.00  0.00    -0.373 OA 
ENDBRANCH   4  26
TORSDOF 1
ENDMDL
MODEL       42
REMARK 921   NORMALIZED FREE ENERGY PREDICTED BY IDOCK:   -5.63 KCAL/MOL
REMARK 922        TOTAL FREE ENERGY PREDICTED BY IDOCK:   -6.06 KCAL/MOL
REMARK 923 INTER-LIGAND FREE ENERGY PREDICTED BY IDOCK:   -5.88 KCAL/MOL
REMARK 924 INTRA-LIGAND FREE ENERGY PREDICTED BY IDOCK:   -0.18 KCAL/MOL
REMARK 927      BINDING AFFINITY PREDICTED BY RF-SCORE:    0.00 PKD
ROOT
HETATM    1  C   UNL     1      -9.632  13.583  66.091  1.00  0.00    -0.219 C  
HETATM    2  C   UNL     1     -10.354  15.003  66.726  1.00  0.00    -0.270 C  
HETATM    3  C   UNL     1      -9.664  12.859  67.421  1.00  0.00    -0.201 C  
HETATM    4  C   UNL     1      -9.434  15.682  67.885  1.00  0.00    -0.204 C  
HETATM    5  C   UNL     1     -11.056  12.222  67.345  1.00  0.00    -0.333 C  
HETATM    6  C   UNL     1     -10.809  16.139  65.826  1.00  0.00    -0.206 C  
HETATM    7  C   UNL     1     -10.880  11.277  66.196  1.00  0.00    -0.281 C  
HETATM    8  C   UNL     1     -11.175  12.940  64.048  1.00  0.00    -0.458 C  
HETATM    9  C   UNL     1     -10.256  12.253  65.109  1.00  0.00    -0.305 C  
HETATM   10  C   UNL     1      -9.898  10.201  66.787  1.00  0.00    -0.247 C  
HETATM   11  O   UNL     1     -10.026  10.798  63.059  1.00  0.00    -0.326 OA 
HETATM   12  C   UNL     1     -10.343   9.685  68.127  1.00  0.00    -0.209 C  
HETATM   13  C   UNL     1      -9.590  11.027  64.201  1.00  0.00    -0.266 C  
HETATM   14  O   UNL     1     -11.512   9.482  68.444  1.00  0.00     0.141 OA 
HETATM   15  C   UNL     1      -9.203   9.274  68.984  1.00  0.00    -0.144 C  
HETATM   16  C   UNL     1      -8.878   7.919  68.341  1.00  0.00    -0.130 C  
HETATM   17  C   UNL     1      -8.080   7.110  69.339  1.00  0.00    -0.130 C  
HETATM   18  C   UNL     1      -6.632   7.510  69.367  1.00  0.00    -0.037 C  
HETATM   19  C   UNL     1      -5.960   7.882  68.065  1.00  0.00    -0.041 C  
HETATM   20  O   UNL     1      -5.973   7.372  70.399  1.00  0.00    -0.027 OA 
HETATM   21  C   UNL     1      -6.825   8.618  67.017  1.00  0.00    -0.067 C  
HETATM   22  C   UNL     1      -8.296   8.120  66.872  1.00  0.00    -0.115 C  
HETATM   23  C   UNL     1      -8.253   6.731  66.191  1.00  0.00    -0.124 C  
HETATM   24  C   UNL     1      -9.302   9.104  65.945  1.00  0.00    -0.306 C  
HETATM   25  C   UNL     1      -8.666   9.902  64.770  1.00  0.00    -0.210 C  
ENDROOT
BRANCH   4  26
HETATM   26  C   UNL     1     -10.129  16.614  68.912  1.00  0.00    -0.274 C  
HETATM   27  O   UNL     1     -11.442  16.574  70.928  1.00  0.00    -0.311 OA 
HETATM   28  C   UNL     1     -10.870  15.809  69.984  1.00  0.00    -0.342 C  
HETATM   29  O   UNL     1     -11.026  14.594  69.950  1.00  0.00    -0.236 OA 
ENDBRANCH   4  26
TORSDOF 1
ENDMDL
MODEL       43
REMARK 921   NORMALIZED FREE ENERGY PREDICTED BY IDOCK:   -5.61 KCAL/MOL
REMARK 922        TOTAL FREE ENERGY PREDICTED BY IDOCK:   -6.04 KCAL/MOL
REMARK 923 INTER-LIGAND FREE ENERGY PREDICTED BY IDOCK:   -5.94 KCAL/MOL
REMARK 924 INTRA-LIGAND FREE ENERGY PREDICTED BY IDOCK:   -0.10 KCAL/MOL
REMARK 927      BINDING AFFINITY PREDICTED BY RF-SCORE:    0.00 PKD
ROOT
HETATM    1  C   UNL     1      -9.604   9.420  65.937  1.00  0.00    -0.338 C  
HETATM    2  C   UNL     1      -8.288   9.169  64.866  1.00  0.00    -0.169 C  
HETATM    3  C   UNL     1      -8.932   8.691  67.082  1.00  0.00    -0.148 C  
HETATM    4  C   UNL     1      -8.024   7.586  64.594  1.00  0.00    -0.133 C  
HETATM    5  C   UNL     1      -8.156   9.850  67.718  1.00  0.00    -0.109 C  
HETATM    6  C   UNL     1      -8.223   9.849  63.509  1.00  0.00    -0.163 C  
HETATM    7  C   UNL     1      -9.275  10.725  68.190  1.00  0.00    -0.151 C  
HETATM    8  C   UNL     1      -9.975  12.033  65.895  1.00  0.00    -0.260 C  
HETATM    9  C   UNL     1     -10.148  10.821  66.866  1.00  0.00    -0.255 C  
HETATM   10  C   UNL     1      -9.901   9.878  69.357  1.00  0.00    -0.231 C  
HETATM   11  O   UNL     1     -12.023  12.390  67.497  1.00  0.00    -0.482 OA 
HETATM   12  C   UNL     1      -8.868   9.382  70.331  1.00  0.00    -0.249 C  
HETATM   13  C   UNL     1     -11.545  11.254  67.663  1.00  0.00    -0.210 C  
HETATM   14  O   UNL     1      -7.881  10.021  70.687  1.00  0.00    -0.236 OA 
HETATM   15  C   UNL     1      -9.255   8.096  70.962  1.00  0.00    -0.178 C  
HETATM   16  C   UNL     1     -10.273   8.613  71.989  1.00  0.00    -0.407 C  
HETATM   17  C   UNL     1     -10.433   7.555  73.057  1.00  0.00    -0.396 C  
HETATM   18  C   UNL     1     -11.346   6.443  72.625  1.00  0.00    -0.231 C  
HETATM   19  C   UNL     1     -12.557   6.787  71.788  1.00  0.00    -0.370 C  
HETATM   20  O   UNL     1     -11.199   5.309  73.085  1.00  0.00    -0.299 OA 
HETATM   21  C   UNL     1     -12.401   7.942  70.773  1.00  0.00     0.004 C  
HETATM   22  C   UNL     1     -11.573   9.172  71.258  1.00  0.00    -0.401 C  
HETATM   23  C   UNL     1     -12.420   9.917  72.315  1.00  0.00    -0.092 C  
HETATM   24  C   UNL     1     -11.169  10.286  70.060  1.00  0.00    -0.376 C  
HETATM   25  C   UNL     1     -12.156  10.474  68.871  1.00  0.00     0.094 C  
ENDROOT
BRANCH   4  26
HETATM   26  C   UNL     1      -6.612   7.157  64.116  1.00  0.00    -0.043 C  
HETATM   27  O   UNL     1      -5.389   5.268  63.263  1.00  0.00    -0.012 OA 
HETATM   28  C   UNL     1      -6.579   5.673  63.736  1.00  0.00    -0.036 C  
HETATM   29  O   UNL     1      -7.501   4.891  63.930  1.00  0.00    -0.057 OA 
ENDBRANCH   4  26
TORSDOF 1
ENDMDL
MODEL       44
REMARK 921   NORMALIZED FREE ENERGY PREDICTED BY IDOCK:   -5.50 KCAL/MOL
REMARK 922        TOTAL FREE ENERGY PREDICTED BY IDOCK:   -5.92 KCAL/MOL
REMARK 923 INTER-LIGAND FREE ENERGY PREDICTED BY IDOCK:   -5.83 KCAL/MOL
REMARK 924 INTRA-LIGAND FREE ENERGY PREDICTED BY IDOCK:   -0.09 KCAL/MOL
REMARK 927      BINDING AFFINITY PREDICTED BY RF-SCORE:    0.00 PKD
ROOT
HETATM    1  C   UNL     1      -8.354   8.631  69.179  1.00  0.00    -0.119 C  
HETATM    2  C   UNL     1      -8.748   7.508  70.413  1.00  0.00    -0.144 C  
HETATM    3  C   UNL     1      -9.798   9.021  68.943  1.00  0.00    -0.181 C  
HETATM    4  C   UNL     1      -9.689   6.302  69.855  1.00  0.00    -0.191 C  
HETATM    5  C   UNL     1      -9.940  10.152  69.968  1.00  0.00    -0.213 C  
HETATM    6  C   UNL     1      -7.677   6.849  71.266  1.00  0.00    -0.092 C  
HETATM    7  C   UNL     1      -8.988  11.166  69.415  1.00  0.00     0.301 C  
HETATM    8  C   UNL     1      -6.582  10.228  70.310  1.00  0.00    -0.142 C  
HETATM    9  C   UNL     1      -7.693  10.270  69.211  1.00  0.00    -0.130 C  
HETATM   10  C   UNL     1      -9.709  11.629  68.097  1.00  0.00    -0.189 C  
HETATM   11  O   UNL     1      -5.953  11.906  68.392  1.00  0.00    -0.049 OA 
HETATM   12  C   UNL     1     -11.151  11.991  68.323  1.00  0.00    -0.243 C  
HETATM   13  C   UNL     1      -6.997  11.297  68.100  1.00  0.00    -0.069 C  
HETATM   14  O   UNL     1     -11.579  12.564  69.322  1.00  0.00    -0.284 OA 
HETATM   15  C   UNL     1     -11.993  11.741  67.127  1.00  0.00     0.026 C  
HETATM   16  C   UNL     1     -11.605  12.962  66.283  1.00  0.00    -0.424 C  
HETATM   17  C   UNL     1     -12.685  13.172  65.245  1.00  0.00    -0.457 C  
HETATM   18  C   UNL     1     -12.539  12.243  64.074  1.00  0.00    -0.420 C  
HETATM   19  C   UNL     1     -11.147  11.913  63.584  1.00  0.00    -0.517 C  
HETATM   20  O   UNL     1     -13.532  11.899  63.431  1.00  0.00    -0.440 OA 
HETATM   21  C   UNL     1     -10.036  11.805  64.653  1.00  0.00    -0.310 C  
HETATM   22  C   UNL     1     -10.089  12.855  65.804  1.00  0.00    -0.294 C  
HETATM   23  C   UNL     1      -9.689  14.224  65.205  1.00  0.00    -0.068 C  
HETATM   24  C   UNL     1      -9.058  12.554  67.103  1.00  0.00    -0.205 C  
HETATM   25  C   UNL     1      -7.711  11.830  66.816  1.00  0.00    -0.086 C  
ENDROOT
BRANCH   4  26
HETATM   26  C   UNL     1     -10.559   5.527  70.877  1.00  0.00    -0.309 C  
HETATM   27  O   UNL     1     -12.539   5.734  72.229  1.00  0.00     0.005 OA 
HETATM   28  C   UNL     1     -11.725   6.382  71.382  1.00  0.00    -0.306 C  
HETATM   29  O   UNL     1     -11.864   7.574  71.132  1.00  0.00    -0.287 OA 
ENDBRANCH   4  26
TORSDOF 1
ENDMDL
MODEL       45
REMARK 921   NORMALIZED FREE ENERGY PREDICTED BY IDOCK:   -5.44 KCAL/MOL
REMARK 922        TOTAL FREE ENERGY PREDICTED BY IDOCK:   -5.86 KCAL/MOL
REMARK 923 INTER-LIGAND FREE ENERGY PREDICTED BY IDOCK:   -5.74 KCAL/MOL
REMARK 924 INTRA-LIGAND FREE ENERGY PREDICTED BY IDOCK:   -0.13 KCAL/MOL
REMARK 927      BINDING AFFINITY PREDICTED BY RF-SCORE:    0.00 PKD
ROOT
HETATM    1  C   UNL     1      -9.221  12.029  68.350  1.00  0.00    -0.160 C  
HETATM    2  C   UNL     1      -9.513  13.546  67.605  1.00  0.00    -0.222 C  
HETATM    3  C   UNL     1      -9.381  11.257  67.057  1.00  0.00    -0.183 C  
HETATM    4  C   UNL     1     -11.003  13.623  66.954  1.00  0.00    -0.296 C  
HETATM    5  C   UNL     1      -7.942  11.311  66.534  1.00  0.00    -0.145 C  
HETATM    6  C   UNL     1      -9.307  14.854  68.349  1.00  0.00    -0.197 C  
HETATM    7  C   UNL     1      -7.224  10.513  67.578  1.00  0.00    -0.090 C  
HETATM    8  C   UNL     1      -6.904  12.353  69.573  1.00  0.00     0.082 C  
HETATM    9  C   UNL     1      -7.748  11.223  68.899  1.00  0.00    -0.125 C  
HETATM   10  C   UNL     1      -7.765   9.058  67.328  1.00  0.00    -0.096 C  
HETATM   11  O   UNL     1      -6.501  10.042  70.750  1.00  0.00    -0.187 OA 
HETATM   12  C   UNL     1      -7.687   8.653  65.882  1.00  0.00    -0.101 C  
HETATM   13  C   UNL     1      -7.393   9.932  69.890  1.00  0.00    -0.147 C  
HETATM   14  O   UNL     1      -6.772   8.954  65.120  1.00  0.00    -0.070 OA 
HETATM   15  C   UNL     1      -8.754   7.693  65.504  1.00  0.00    -0.079 C  
HETATM   16  C   UNL     1      -8.167   6.410  66.108  1.00  0.00    -0.122 C  
HETATM   17  C   UNL     1      -8.835   5.231  65.435  1.00  0.00    -0.152 C  
HETATM   18  C   UNL     1     -10.195   4.947  66.004  1.00  0.00    -0.257 C  
HETATM   19  C   UNL     1     -10.407   5.120  67.491  1.00  0.00    -0.190 C  
HETATM   20  O   UNL     1     -11.062   4.423  65.301  1.00  0.00    -0.203 OA 
HETATM   21  C   UNL     1      -9.634   6.268  68.178  1.00  0.00    -0.115 C  
HETATM   22  C   UNL     1      -8.166   6.488  67.699  1.00  0.00    -0.122 C  
HETATM   23  C   UNL     1      -7.321   5.304  68.226  1.00  0.00    -0.072 C  
HETATM   24  C   UNL     1      -7.436   7.907  68.241  1.00  0.00    -0.104 C  
HETATM   25  C   UNL     1      -7.857   8.462  69.633  1.00  0.00    -0.100 C  
ENDROOT
BRANCH   4  26
HETATM   26  C   UNL     1     -11.249  14.650  65.819  1.00  0.00    -0.336 C  
HETATM   27  O   UNL     1     -12.659  15.077  63.917  1.00  0.00    -0.813 OA 
HETATM   28  C   UNL     1     -12.373  14.193  64.884  1.00  0.00    -0.430 C  
HETATM   29  O   UNL     1     -12.902  13.088  64.933  1.00  0.00    -0.706 OA 
ENDBRANCH   4  26
TORSDOF 1
ENDMDL
MODEL       46
REMARK 921   NORMALIZED FREE ENERGY PREDICTED BY IDOCK:   -5.36 KCAL/MOL
REMARK 922        TOTAL FREE ENERGY PREDICTED BY IDOCK:   -5.78 KCAL/MOL
REMARK 923 INTER-LIGAND FREE ENERGY PREDICTED BY IDOCK:   -5.63 KCAL/MOL
REMARK 924 INTRA-LIGAND FREE ENERGY PREDICTED BY IDOCK:   -0.16 KCAL/MOL
REMARK 927      BINDING AFFINITY PREDICTED BY RF-SCORE:    0.00 PKD
ROOT
HETATM    1  C   UNL     1      -9.824   9.990  68.367  1.00  0.00    -0.169 C  
HETATM    2  C   UNL     1     -11.310  10.609  68.957  1.00  0.00    -0.340 C  
HETATM    3  C   UNL     1     -10.188   8.555  68.682  1.00  0.00    -0.217 C  
HETATM    4  C   UNL     1     -11.508  10.297  70.542  1.00  0.00    -0.427 C  
HETATM    5  C   UNL     1     -10.900   8.167  67.381  1.00  0.00    -0.125 C  
HETATM    6  C   UNL     1     -11.705  12.062  68.758  1.00  0.00    -0.377 C  
HETATM    7  C   UNL     1      -9.775   8.257  66.398  1.00  0.00    -0.300 C  
HETATM    8  C   UNL     1      -9.664  10.944  65.911  1.00  0.00    -0.269 C  
HETATM    9  C   UNL     1      -9.204   9.700  66.738  1.00  0.00    -0.181 C  
HETATM   10  C   UNL     1      -8.859   7.048  66.814  1.00  0.00    -0.130 C  
HETATM   11  O   UNL     1      -7.360  10.031  65.045  1.00  0.00    -0.129 OA 
HETATM   12  C   UNL     1      -9.629   5.765  66.966  1.00  0.00    -0.135 C  
HETATM   13  C   UNL     1      -7.708   9.410  66.065  1.00  0.00    -0.099 C  
HETATM   14  O   UNL     1     -10.566   5.424  66.248  1.00  0.00    -0.260 OA 
HETATM   15  C   UNL     1      -9.027   4.858  67.974  1.00  0.00    -0.121 C  
HETATM   16  C   UNL     1      -7.860   4.300  67.148  1.00  0.00    -0.096 C  
HETATM   17  C   UNL     1      -7.404   3.013  67.798  1.00  0.00    -0.054 C  
HETATM   18  C   UNL     1      -6.521   3.258  68.988  1.00  0.00    -0.030 C  
HETATM   19  C   UNL     1      -5.538   4.405  68.934  1.00  0.00    -0.013 C  
HETATM   20  O   UNL     1      -6.485   2.440  69.910  1.00  0.00    -0.028 OA 
HETATM   21  C   UNL     1      -5.986   5.675  68.176  1.00  0.00    -0.017 C  
HETATM   22  C   UNL     1      -6.784   5.438  66.856  1.00  0.00    -0.062 C  
HETATM   23  C   UNL     1      -5.793   4.887  65.804  1.00  0.00    -0.022 C  
HETATM   24  C   UNL     1      -7.507   6.809  66.196  1.00  0.00    -0.081 C  
HETATM   25  C   UNL     1      -6.805   8.182  66.406  1.00  0.00    -0.066 C  
ENDROOT
BRANCH   4  26
HETATM   26  C   UNL     1     -12.952  10.291  71.107  1.00  0.00    -0.503 C  
HETATM   27  O   UNL     1     -14.401   9.085  72.602  1.00  0.00    -0.603 OA 
HETATM   28  C   UNL     1     -13.180   9.102  72.045  1.00  0.00    -0.441 C  
HETATM   29  O   UNL     1     -12.380   8.188  72.207  1.00  0.00    -0.333 OA 
ENDBRANCH   4  26
TORSDOF 1
ENDMDL
MODEL       47
REMARK 921   NORMALIZED FREE ENERGY PREDICTED BY IDOCK:   -5.36 KCAL/MOL
REMARK 922        TOTAL FREE ENERGY PREDICTED BY IDOCK:   -5.78 KCAL/MOL
REMARK 923 INTER-LIGAND FREE ENERGY PREDICTED BY IDOCK:   -5.64 KCAL/MOL
REMARK 924 INTRA-LIGAND FREE ENERGY PREDICTED BY IDOCK:   -0.13 KCAL/MOL
REMARK 927      BINDING AFFINITY PREDICTED BY RF-SCORE:    0.00 PKD
ROOT
HETATM    1  C   UNL     1      -8.800  11.129  68.760  1.00  0.00    -0.128 C  
HETATM    2  C   UNL     1      -9.460  11.881  67.367  1.00  0.00    -0.175 C  
HETATM    3  C   UNL     1      -9.688   9.909  68.636  1.00  0.00    -0.163 C  
HETATM    4  C   UNL     1     -11.049  12.185  67.539  1.00  0.00    -0.328 C  
HETATM    5  C   UNL     1      -8.821   9.039  67.720  1.00  0.00    -0.125 C  
HETATM    6  C   UNL     1      -8.849  13.140  66.774  1.00  0.00    -0.140 C  
HETATM    7  C   UNL     1      -7.636   8.783  68.598  1.00  0.00    -0.097 C  
HETATM    8  C   UNL     1      -6.202  11.090  68.296  1.00  0.00    -0.049 C  
HETATM    9  C   UNL     1      -7.289  10.264  69.057  1.00  0.00    -0.092 C  
HETATM   10  C   UNL     1      -8.233   7.848  69.713  1.00  0.00    -0.121 C  
HETATM   11  O   UNL     1      -5.207   9.985  70.459  1.00  0.00    -0.039 OA 
HETATM   12  C   UNL     1      -9.014   6.696  69.144  1.00  0.00    -0.131 C  
HETATM   13  C   UNL     1      -6.434   9.785  70.404  1.00  0.00    -0.101 C  
HETATM   14  O   UNL     1      -8.709   6.082  68.125  1.00  0.00    -0.114 OA 
HETATM   15  C   UNL     1     -10.108   6.254  70.043  1.00  0.00    -0.217 C  
HETATM   16  C   UNL     1      -9.290   5.460  71.070  1.00  0.00    -0.188 C  
HETATM   17  C   UNL     1     -10.233   4.527  71.795  1.00  0.00    -0.226 C  
HETATM   18  C   UNL     1     -11.011   5.228  72.872  1.00  0.00    -0.287 C  
HETATM   19  C   UNL     1     -10.317   6.298  73.683  1.00  0.00    -0.286 C  
HETATM   20  O   UNL     1     -12.129   4.820  73.192  1.00  0.00    -0.136 OA 
HETATM   21  C   UNL     1      -9.280   7.174  72.945  1.00  0.00    -0.171 C  
HETATM   22  C   UNL     1      -8.363   6.434  71.923  1.00  0.00    -0.116 C  
HETATM   23  C   UNL     1      -7.379   5.556  72.731  1.00  0.00    -0.092 C  
HETATM   24  C   UNL     1      -7.443   7.433  70.926  1.00  0.00    -0.074 C  
HETATM   25  C   UNL     1      -6.972   8.803  71.494  1.00  0.00    -0.091 C  
ENDROOT
BRANCH   4  26
HETATM   26  C   UNL     1     -11.902  12.351  66.254  1.00  0.00    -0.431 C  
HETATM   27  O   UNL     1     -13.023  14.010  64.920  1.00  0.00    -0.707 OA 
HETATM   28  C   UNL     1     -12.328  13.808  66.050  1.00  0.00    -0.457 C  
HETATM   29  O   UNL     1     -12.152  14.699  66.873  1.00  0.00    -0.361 OA 
ENDBRANCH   4  26
TORSDOF 1
ENDMDL
MODEL       48
REMARK 921   NORMALIZED FREE ENERGY PREDICTED BY IDOCK:   -5.36 KCAL/MOL
REMARK 922        TOTAL FREE ENERGY PREDICTED BY IDOCK:   -5.77 KCAL/MOL
REMARK 923 INTER-LIGAND FREE ENERGY PREDICTED BY IDOCK:   -5.66 KCAL/MOL
REMARK 924 INTRA-LIGAND FREE ENERGY PREDICTED BY IDOCK:   -0.11 KCAL/MOL
REMARK 927      BINDING AFFINITY PREDICTED BY RF-SCORE:    0.00 PKD
ROOT
HETATM    1  C   UNL     1     -10.027  10.139  67.909  1.00  0.00    -0.190 C  
HETATM    2  C   UNL     1     -10.264  11.807  67.586  1.00  0.00    -0.216 C  
HETATM    3  C   UNL     1      -9.696   9.811  66.468  1.00  0.00    -0.267 C  
HETATM    4  C   UNL     1     -11.487  12.052  66.541  1.00  0.00    -0.413 C  
HETATM    5  C   UNL     1      -8.183  10.059  66.479  1.00  0.00    -0.119 C  
HETATM    6  C   UNL     1     -10.452  12.817  68.705  1.00  0.00    -0.230 C  
HETATM    7  C   UNL     1      -7.720   8.988  67.417  1.00  0.00    -0.092 C  
HETATM    8  C   UNL     1      -8.242  10.111  69.854  1.00  0.00    -0.128 C  
HETATM    9  C   UNL     1      -8.700   9.233  68.644  1.00  0.00    -0.132 C  
HETATM   10  C   UNL     1      -7.980   7.675  66.593  1.00  0.00    -0.107 C  
HETATM   11  O   UNL     1      -7.933   7.556  70.368  1.00  0.00    -0.099 OA 
HETATM   12  C   UNL     1      -7.422   7.749  65.198  1.00  0.00    -0.083 C  
HETATM   13  C   UNL     1      -8.505   7.704  69.274  1.00  0.00    -0.138 C  
HETATM   14  O   UNL     1      -6.364   8.295  64.897  1.00  0.00    -0.052 OA 
HETATM   15  C   UNL     1      -8.200   6.934  64.232  1.00  0.00     0.039 C  
HETATM   16  C   UNL     1      -7.671   5.539  64.591  1.00  0.00    -0.093 C  
HETATM   17  C   UNL     1      -7.956   4.619  63.425  1.00  0.00    -0.083 C  
HETATM   18  C   UNL     1      -9.379   4.140  63.414  1.00  0.00    -0.143 C  
HETATM   19  C   UNL     1     -10.048   3.830  64.734  1.00  0.00    -0.172 C  
HETATM   20  O   UNL     1      -9.924   3.846  62.348  1.00  0.00    -0.131 OA 
HETATM   21  C   UNL     1      -9.663   4.719  65.938  1.00  0.00    -0.203 C  
HETATM   22  C   UNL     1      -8.157   5.111  66.046  1.00  0.00    -0.109 C  
HETATM   23  C   UNL     1      -7.372   3.840  66.448  1.00  0.00    -0.072 C  
HETATM   24  C   UNL     1      -7.803   6.302  67.185  1.00  0.00    -0.105 C  
HETATM   25  C   UNL     1      -8.687   6.380  68.463  1.00  0.00    -0.121 C  
ENDROOT
BRANCH   4  26
HETATM   26  C   UNL     1     -11.504  13.380  65.740  1.00  0.00    -0.341 C  
HETATM   27  O   UNL     1     -12.637  14.494  63.933  1.00  0.00    -0.827 OA 
HETATM   28  C   UNL     1     -12.548  13.344  64.620  1.00  0.00    -0.265 C  
HETATM   29  O   UNL     1     -13.179  12.344  64.298  1.00  0.00    -0.769 OA 
ENDBRANCH   4  26
TORSDOF 1
ENDMDL
MODEL       49
REMARK 921   NORMALIZED FREE ENERGY PREDICTED BY IDOCK:   -5.34 KCAL/MOL
REMARK 922        TOTAL FREE ENERGY PREDICTED BY IDOCK:   -5.76 KCAL/MOL
REMARK 923 INTER-LIGAND FREE ENERGY PREDICTED BY IDOCK:   -5.61 KCAL/MOL
REMARK 924 INTRA-LIGAND FREE ENERGY PREDICTED BY IDOCK:   -0.15 KCAL/MOL
REMARK 927      BINDING AFFINITY PREDICTED BY RF-SCORE:    0.00 PKD
ROOT
HETATM    1  C   UNL     1      -9.174  11.326  67.737  1.00  0.00    -0.156 C  
HETATM    2  C   UNL     1      -9.574  12.390  66.453  1.00  0.00    -0.249 C  
HETATM    3  C   UNL     1      -9.069  10.118  66.829  1.00  0.00    -0.159 C  
HETATM    4  C   UNL     1     -10.970  11.967  65.730  1.00  0.00    -0.351 C  
HETATM    5  C   UNL     1      -7.597  10.221  66.416  1.00  0.00    -0.117 C  
HETATM    6  C   UNL     1      -9.639  13.894  66.653  1.00  0.00    -0.297 C  
HETATM    7  C   UNL     1      -6.911   9.997  67.728  1.00  0.00    -0.085 C  
HETATM    8  C   UNL     1      -7.089  12.465  68.887  1.00  0.00    -0.078 C  
HETATM    9  C   UNL     1      -7.684  11.041  68.643  1.00  0.00    -0.132 C  
HETATM   10  C   UNL     1      -7.217   8.482  68.018  1.00  0.00    -0.087 C  
HETATM   11  O   UNL     1      -6.526  10.852  70.878  1.00  0.00    -0.316 OA 
HETATM   12  C   UNL     1      -6.909   7.594  66.844  1.00  0.00    -0.068 C  
HETATM   13  C   UNL     1      -7.283  10.284  70.071  1.00  0.00    -0.158 C  
HETATM   14  O   UNL     1      -5.956   7.747  66.084  1.00  0.00    -0.037 OA 
HETATM   15  C   UNL     1      -7.783   6.396  66.795  1.00  0.00    -0.100 C  
HETATM   16  C   UNL     1      -7.107   5.544  67.878  1.00  0.00    -0.071 C  
HETATM   17  C   UNL     1      -7.523   4.106  67.665  1.00  0.00    -0.069 C  
HETATM   18  C   UNL     1      -8.892   3.822  68.213  1.00  0.00    -0.112 C  
HETATM   19  C   UNL     1      -9.305   4.489  69.504  1.00  0.00    -0.221 C  
HETATM   20  O   UNL     1      -9.587   2.937  67.709  1.00  0.00    -0.189 OA 
HETATM   21  C   UNL     1      -8.784   5.923  69.749  1.00  0.00    -0.129 C  
HETATM   22  C   UNL     1      -7.311   6.199  69.315  1.00  0.00    -0.088 C  
HETATM   23  C   UNL     1      -6.386   5.453  70.306  1.00  0.00    -0.030 C  
HETATM   24  C   UNL     1      -6.850   7.820  69.320  1.00  0.00    -0.048 C  
HETATM   25  C   UNL     1      -7.509   8.766  70.365  1.00  0.00    -0.072 C  
ENDROOT
BRANCH   4  26
HETATM   26  C   UNL     1     -11.211  12.449  64.276  1.00  0.00    -0.408 C  
HETATM   27  O   UNL     1     -12.577  13.939  62.971  1.00  0.00    -0.694 OA 
HETATM   28  C   UNL     1     -12.366  13.452  64.204  1.00  0.00    -0.333 C  
HETATM   29  O   UNL     1     -13.105  13.721  65.144  1.00  0.00    -0.762 OA 
ENDBRANCH   4  26
TORSDOF 1
ENDMDL
MODEL       50
REMARK 921   NORMALIZED FREE ENERGY PREDICTED BY IDOCK:   -5.31 KCAL/MOL
REMARK 922        TOTAL FREE ENERGY PREDICTED BY IDOCK:   -5.72 KCAL/MOL
REMARK 923 INTER-LIGAND FREE ENERGY PREDICTED BY IDOCK:   -5.60 KCAL/MOL
REMARK 924 INTRA-LIGAND FREE ENERGY PREDICTED BY IDOCK:   -0.12 KCAL/MOL
REMARK 927      BINDING AFFINITY PREDICTED BY RF-SCORE:    0.00 PKD
ROOT
HETATM    1  C   UNL     1      -9.514   8.462  66.231  1.00  0.00    -0.292 C  
HETATM    2  C   UNL     1      -8.659   7.045  66.680  1.00  0.00    -0.124 C  
HETATM    3  C   UNL     1      -8.955   9.276  67.379  1.00  0.00    -0.135 C  
HETATM    4  C   UNL     1      -9.098   6.517  68.156  1.00  0.00    -0.114 C  
HETATM    5  C   UNL     1      -7.673   9.808  66.730  1.00  0.00    -0.098 C  
HETATM    6  C   UNL     1      -8.621   5.817  65.785  1.00  0.00    -0.149 C  
HETATM    7  C   UNL     1      -8.234  10.677  65.647  1.00  0.00    -0.154 C  
HETATM    8  C   UNL     1      -8.835   8.846  63.709  1.00  0.00     0.055 C  
HETATM    9  C   UNL     1      -9.258   9.671  64.968  1.00  0.00    -0.310 C  
HETATM   10  C   UNL     1      -8.880  11.859  66.459  1.00  0.00    -0.178 C  
HETATM   11  O   UNL     1     -10.192  10.986  63.025  1.00  0.00    -0.305 OA 
HETATM   12  C   UNL     1      -7.942  12.438  67.482  1.00  0.00    -0.173 C  
HETATM   13  C   UNL     1     -10.173  10.871  64.263  1.00  0.00    -0.364 C  
HETATM   14  O   UNL     1      -6.733  12.581  67.319  1.00  0.00    -0.156 OA 
HETATM   15  C   UNL     1      -8.657  12.989  68.659  1.00  0.00     0.045 C  
HETATM   16  C   UNL     1      -9.151  14.313  68.061  1.00  0.00    -0.191 C  
HETATM   17  C   UNL     1      -9.482  15.245  69.205  1.00  0.00    -0.236 C  
HETATM   18  C   UNL     1     -10.826  14.950  69.808  1.00  0.00    -0.235 C  
HETATM   19  C   UNL     1     -11.953  14.532  68.892  1.00  0.00    -0.326 C  
HETATM   20  O   UNL     1     -11.040  15.208  70.994  1.00  0.00    -0.304 OA 
HETATM   21  C   UNL     1     -11.576  13.664  67.670  1.00  0.00    -0.381 C  
HETATM   22  C   UNL     1     -10.252  14.047  66.941  1.00  0.00    -0.260 C  
HETATM   23  C   UNL     1     -10.497  15.382  66.199  1.00  0.00    -0.325 C  
HETATM   24  C   UNL     1      -9.708  12.931  65.801  1.00  0.00    -0.155 C  
HETATM   25  C   UNL     1     -10.770  12.096  65.029  1.00  0.00    -0.338 C  
ENDROOT
BRANCH   4  26
HETATM   26  C   UNL     1      -8.102   5.616  68.932  1.00  0.00    -0.100 C  
HETATM   27  O   UNL     1      -7.703   3.328  69.558  1.00  0.00    -0.050 OA 
HETATM   28  C   UNL     1      -8.562   4.155  68.944  1.00  0.00    -0.084 C  
HETATM   29  O   UNL     1      -9.651   3.773  68.532  1.00  0.00    -0.162 OA 
ENDBRANCH   4  26
TORSDOF 1
ENDMDL
MODEL       51
REMARK 921   NORMALIZED FREE ENERGY PREDICTED BY IDOCK:   -5.24 KCAL/MOL
REMARK 922        TOTAL FREE ENERGY PREDICTED BY IDOCK:   -5.66 KCAL/MOL
REMARK 923 INTER-LIGAND FREE ENERGY PREDICTED BY IDOCK:   -5.56 KCAL/MOL
REMARK 924 INTRA-LIGAND FREE ENERGY PREDICTED BY IDOCK:   -0.09 KCAL/MOL
REMARK 927      BINDING AFFINITY PREDICTED BY RF-SCORE:    0.00 PKD
ROOT
HETATM    1  C   UNL     1      -9.676  11.062  67.391  1.00  0.00    -0.189 C  
HETATM    2  C   UNL     1     -10.923  12.238  67.460  1.00  0.00    -0.298 C  
HETATM    3  C   UNL     1     -10.148  10.353  68.643  1.00  0.00    -0.188 C  
HETATM    4  C   UNL     1     -10.833  13.134  68.815  1.00  0.00    -0.278 C  
HETATM    5  C   UNL     1     -11.151   9.369  68.031  1.00  0.00    -0.004 C  
HETATM    6  C   UNL     1     -11.163  13.215  66.321  1.00  0.00    -0.328 C  
HETATM    7  C   UNL     1     -10.246   8.507  67.206  1.00  0.00    -0.346 C  
HETATM    8  C   UNL     1      -9.898  10.037  64.968  1.00  0.00    -0.374 C  
HETATM    9  C   UNL     1      -9.441   9.616  66.403  1.00  0.00    -0.244 C  
HETATM   10  C   UNL     1      -9.426   7.729  68.298  1.00  0.00    -0.150 C  
HETATM   11  O   UNL     1      -7.952   8.279  64.863  1.00  0.00    -0.127 OA 
HETATM   12  C   UNL     1     -10.305   7.110  69.350  1.00  0.00    -0.198 C  
HETATM   13  C   UNL     1      -8.161   8.613  66.043  1.00  0.00    -0.127 C  
HETATM   14  O   UNL     1     -11.402   6.604  69.134  1.00  0.00    -0.264 OA 
HETATM   15  C   UNL     1      -9.630   7.015  70.668  1.00  0.00    -0.165 C  
HETATM   16  C   UNL     1      -8.734   5.796  70.407  1.00  0.00    -0.135 C  
HETATM   17  C   UNL     1      -8.322   5.226  71.747  1.00  0.00    -0.119 C  
HETATM   18  C   UNL     1      -7.193   5.996  72.370  1.00  0.00    -0.086 C  
HETATM   19  C   UNL     1      -6.105   6.536  71.470  1.00  0.00    -0.037 C  
HETATM   20  O   UNL     1      -7.075   6.036  73.596  1.00  0.00    -0.080 OA 
HETATM   21  C   UNL     1      -6.533   7.018  70.066  1.00  0.00    -0.036 C  
HETATM   22  C   UNL     1      -7.605   6.148  69.341  1.00  0.00    -0.098 C  
HETATM   23  C   UNL     1      -6.925   4.822  68.924  1.00  0.00    -0.052 C  
HETATM   24  C   UNL     1      -8.268   6.831  67.950  1.00  0.00    -0.117 C  
HETATM   25  C   UNL     1      -7.370   7.772  67.096  1.00  0.00    -0.091 C  
ENDROOT
BRANCH   4  26
HETATM   26  C   UNL     1     -12.122  13.846  69.303  1.00  0.00    -0.383 C  
HETATM   27  O   UNL     1     -12.879  15.755  70.556  1.00  0.00    -0.423 OA 
HETATM   28  C   UNL     1     -11.794  15.074  70.156  1.00  0.00    -0.314 C  
HETATM   29  O   UNL     1     -10.666  15.369  70.535  1.00  0.00    -0.311 OA 
ENDBRANCH   4  26
TORSDOF 1
ENDMDL
MODEL       52
REMARK 921   NORMALIZED FREE ENERGY PREDICTED BY IDOCK:   -5.22 KCAL/MOL
REMARK 922        TOTAL FREE ENERGY PREDICTED BY IDOCK:   -5.63 KCAL/MOL
REMARK 923 INTER-LIGAND FREE ENERGY PREDICTED BY IDOCK:   -5.53 KCAL/MOL
REMARK 924 INTRA-LIGAND FREE ENERGY PREDICTED BY IDOCK:   -0.11 KCAL/MOL
REMARK 927      BINDING AFFINITY PREDICTED BY RF-SCORE:    0.00 PKD
ROOT
HETATM    1  C   UNL     1      -9.973  10.071  69.264  1.00  0.00    -0.226 C  
HETATM    2  C   UNL     1      -9.466   8.571  69.922  1.00  0.00    -0.163 C  
HETATM    3  C   UNL     1      -8.608  10.707  69.419  1.00  0.00    -0.046 C  
HETATM    4  C   UNL     1      -8.965   8.724  71.463  1.00  0.00    -0.306 C  
HETATM    5  C   UNL     1      -7.972  10.303  68.084  1.00  0.00    -0.109 C  
HETATM    6  C   UNL     1     -10.358   7.341  69.886  1.00  0.00    -0.226 C  
HETATM    7  C   UNL     1      -8.833  11.052  67.115  1.00  0.00    -0.140 C  
HETATM    8  C   UNL     1     -11.021   9.426  66.929  1.00  0.00     0.102 C  
HETATM    9  C   UNL     1     -10.278  10.619  67.612  1.00  0.00    -0.229 C  
HETATM   10  C   UNL     1      -8.438  12.549  67.393  1.00  0.00    -0.181 C  
HETATM   11  O   UNL     1     -11.837  11.725  65.963  1.00  0.00    -0.446 OA 
HETATM   12  C   UNL     1      -6.950  12.762  67.403  1.00  0.00    -0.129 C  
HETATM   13  C   UNL     1     -11.052  11.915  66.909  1.00  0.00    -0.305 C  
HETATM   14  O   UNL     1      -6.158  12.197  66.653  1.00  0.00    -0.189 OA 
HETATM   15  C   UNL     1      -6.542  13.869  68.303  1.00  0.00    -0.110 C  
HETATM   16  C   UNL     1      -6.915  15.067  67.418  1.00  0.00    -0.184 C  
HETATM   17  C   UNL     1      -6.151  16.272  67.921  1.00  0.00    -0.140 C  
HETATM   18  C   UNL     1      -6.793  16.890  69.129  1.00  0.00    -0.238 C  
HETATM   19  C   UNL     1      -8.303  16.933  69.201  1.00  0.00    -0.056 C  
HETATM   20  O   UNL     1      -6.105  17.494  69.954  1.00  0.00    -0.245 OA 
HETATM   21  C   UNL     1      -9.067  15.738  68.589  1.00  0.00    -0.204 C  
HETATM   22  C   UNL     1      -8.495  15.172  67.253  1.00  0.00    -0.220 C  
HETATM   23  C   UNL     1      -8.782  16.212  66.145  1.00  0.00    -0.358 C  
HETATM   24  C   UNL     1      -9.157  13.706  66.750  1.00  0.00    -0.230 C  
HETATM   25  C   UNL     1     -10.641  13.409  67.110  1.00  0.00    -0.259 C  
ENDROOT
BRANCH   4  26
HETATM   26  C   UNL     1      -8.004   7.645  72.026  1.00  0.00    -0.112 C  
HETATM   27  O   UNL     1      -6.853   6.990  74.034  1.00  0.00    -0.081 OA 
HETATM   28  C   UNL     1      -7.641   7.928  73.487  1.00  0.00    -0.147 C  
HETATM   29  O   UNL     1      -7.943   8.954  74.086  1.00  0.00    -0.348 OA 
ENDBRANCH   4  26
TORSDOF 1
ENDMDL
MODEL       53
REMARK 921   NORMALIZED FREE ENERGY PREDICTED BY IDOCK:   -5.21 KCAL/MOL
REMARK 922        TOTAL FREE ENERGY PREDICTED BY IDOCK:   -5.62 KCAL/MOL
REMARK 923 INTER-LIGAND FREE ENERGY PREDICTED BY IDOCK:   -5.37 KCAL/MOL
REMARK 924 INTRA-LIGAND FREE ENERGY PREDICTED BY IDOCK:   -0.25 KCAL/MOL
REMARK 927      BINDING AFFINITY PREDICTED BY RF-SCORE:    0.00 PKD
ROOT
HETATM    1  C   UNL     1      -8.324   7.663  68.003  1.00  0.00    -0.124 C  
HETATM    2  C   UNL     1      -7.421   6.831  69.200  1.00  0.00    -0.095 C  
HETATM    3  C   UNL     1      -8.229   8.992  68.723  1.00  0.00    -0.117 C  
HETATM    4  C   UNL     1      -8.160   6.867  70.649  1.00  0.00    -0.118 C  
HETATM    5  C   UNL     1      -6.914   9.519  68.138  1.00  0.00    -0.078 C  
HETATM    6  C   UNL     1      -6.955   5.399  68.997  1.00  0.00    -0.056 C  
HETATM    7  C   UNL     1      -7.283   9.687  66.697  1.00  0.00    -0.086 C  
HETATM    8  C   UNL     1      -7.048   7.133  65.754  1.00  0.00    -0.069 C  
HETATM    9  C   UNL     1      -7.919   8.264  66.392  1.00  0.00    -0.096 C  
HETATM   10  C   UNL     1      -8.296  10.889  66.742  1.00  0.00    -0.138 C  
HETATM   11  O   UNL     1      -8.474   8.370  63.931  1.00  0.00    -0.107 OA 
HETATM   12  C   UNL     1      -7.772  12.059  67.528  1.00  0.00    -0.155 C  
HETATM   13  C   UNL     1      -8.777   8.787  65.063  1.00  0.00    -0.148 C  
HETATM   14  O   UNL     1      -6.601  12.428  67.533  1.00  0.00    -0.116 OA 
HETATM   15  C   UNL     1      -8.856  12.841  68.170  1.00  0.00    -0.194 C  
HETATM   16  C   UNL     1      -9.362  13.624  66.951  1.00  0.00    -0.261 C  
HETATM   17  C   UNL     1     -10.130  14.826  67.455  1.00  0.00    -0.224 C  
HETATM   18  C   UNL     1     -11.526  14.471  67.880  1.00  0.00    -0.325 C  
HETATM   19  C   UNL     1     -12.284  13.438  67.078  1.00  0.00    -0.321 C  
HETATM   20  O   UNL     1     -12.093  15.131  68.753  1.00  0.00    -0.265 OA 
HETATM   21  C   UNL     1     -11.462  12.272  66.485  1.00  0.00    -0.438 C  
HETATM   22  C   UNL     1     -10.062  12.646  65.907  1.00  0.00    -0.276 C  
HETATM   23  C   UNL     1     -10.294  13.443  64.601  1.00  0.00    -0.400 C  
HETATM   24  C   UNL     1      -9.066  11.340  65.529  1.00  0.00    -0.184 C  
HETATM   25  C   UNL     1      -9.738  10.019  65.057  1.00  0.00    -0.386 C  
ENDROOT
BRANCH   4  26
HETATM   26  C   UNL     1      -7.290   6.656  71.915  1.00  0.00    -0.086 C  
HETATM   27  O   UNL     1      -6.421   7.815  73.837  1.00  0.00    -0.079 OA 
HETATM   28  C   UNL     1      -7.123   7.960  72.702  1.00  0.00    -0.083 C  
HETATM   29  O   UNL     1      -7.495   9.057  72.304  1.00  0.00    -0.340 OA 
ENDBRANCH   4  26
TORSDOF 1
ENDMDL
MODEL       54
REMARK 921   NORMALIZED FREE ENERGY PREDICTED BY IDOCK:   -5.16 KCAL/MOL
REMARK 922        TOTAL FREE ENERGY PREDICTED BY IDOCK:   -5.57 KCAL/MOL
REMARK 923 INTER-LIGAND FREE ENERGY PREDICTED BY IDOCK:   -5.45 KCAL/MOL
REMARK 924 INTRA-LIGAND FREE ENERGY PREDICTED BY IDOCK:   -0.12 KCAL/MOL
REMARK 927      BINDING AFFINITY PREDICTED BY RF-SCORE:    0.00 PKD
ROOT
HETATM    1  C   UNL     1     -11.280   9.295  69.705  1.00  0.00    -0.061 C  
HETATM    2  C   UNL     1     -11.739  10.591  70.729  1.00  0.00    -0.454 C  
HETATM    3  C   UNL     1     -10.121  10.060  69.100  1.00  0.00    -0.219 C  
HETATM    4  C   UNL     1     -12.173  11.909  69.879  1.00  0.00    -0.269 C  
HETATM    5  C   UNL     1      -9.015   9.702  70.098  1.00  0.00    -0.273 C  
HETATM    6  C   UNL     1     -12.792  10.419  71.812  1.00  0.00    -0.561 C  
HETATM    7  C   UNL     1      -8.889   8.227  69.876  1.00  0.00    -0.138 C  
HETATM    8  C   UNL     1     -10.974   7.255  71.352  1.00  0.00    -0.256 C  
HETATM    9  C   UNL     1     -10.410   7.784  69.993  1.00  0.00    -0.221 C  
HETATM   10  C   UNL     1      -8.268   8.150  68.433  1.00  0.00    -0.129 C  
HETATM   11  O   UNL     1     -10.323   5.271  69.761  1.00  0.00    -0.270 OA 
HETATM   12  C   UNL     1      -7.069   9.043  68.271  1.00  0.00    -0.077 C  
HETATM   13  C   UNL     1     -10.194   6.355  69.165  1.00  0.00    -0.182 C  
HETATM   14  O   UNL     1      -6.223   9.240  69.140  1.00  0.00    -0.041 OA 
HETATM   15  C   UNL     1      -6.911   9.534  66.880  1.00  0.00    -0.080 C  
HETATM   16  C   UNL     1      -6.318   8.275  66.232  1.00  0.00    -0.046 C  
HETATM   17  C   UNL     1      -5.633   8.691  64.949  1.00  0.00    -0.047 C  
HETATM   18  C   UNL     1      -6.606   8.883  63.822  1.00  0.00    -0.088 C  
HETATM   19  C   UNL     1      -7.786   7.944  63.717  1.00  0.00    -0.135 C  
HETATM   20  O   UNL     1      -6.352   9.678  62.915  1.00  0.00    -0.099 OA 
HETATM   21  C   UNL     1      -8.406   7.449  65.044  1.00  0.00    -0.057 C  
HETATM   22  C   UNL     1      -7.399   7.106  66.184  1.00  0.00    -0.075 C  
HETATM   23  C   UNL     1      -6.665   5.805  65.783  1.00  0.00    -0.051 C  
HETATM   24  C   UNL     1      -8.088   6.847  67.700  1.00  0.00    -0.113 C  
HETATM   25  C   UNL     1      -9.518   6.237  67.761  1.00  0.00    -0.118 C  
ENDROOT
BRANCH   4  26
HETATM   26  C   UNL     1     -12.099  13.287  70.586  1.00  0.00    -0.361 C  
HETATM   27  O   UNL     1     -12.038  15.651  70.137  1.00  0.00    -0.366 OA 
HETATM   28  C   UNL     1     -12.049  14.434  69.571  1.00  0.00    -0.322 C  
HETATM   29  O   UNL     1     -11.926  14.279  68.362  1.00  0.00    -0.337 OA 
ENDBRANCH   4  26
TORSDOF 1
ENDMDL
MODEL       55
REMARK 921   NORMALIZED FREE ENERGY PREDICTED BY IDOCK:   -4.89 KCAL/MOL
REMARK 922        TOTAL FREE ENERGY PREDICTED BY IDOCK:   -5.28 KCAL/MOL
REMARK 923 INTER-LIGAND FREE ENERGY PREDICTED BY IDOCK:   -5.16 KCAL/MOL
REMARK 924 INTRA-LIGAND FREE ENERGY PREDICTED BY IDOCK:   -0.12 KCAL/MOL
REMARK 927      BINDING AFFINITY PREDICTED BY RF-SCORE:    0.00 PKD
ROOT
HETATM    1  C   UNL     1     -10.380  11.279  69.585  1.00  0.00     0.173 C  
HETATM    2  C   UNL     1     -11.919  11.009  70.291  1.00  0.00    -0.452 C  
HETATM    3  C   UNL     1     -10.461  10.044  68.712  1.00  0.00    -0.229 C  
HETATM    4  C   UNL     1     -11.970   9.605  71.113  1.00  0.00    -0.452 C  
HETATM    5  C   UNL     1     -11.160  10.632  67.482  1.00  0.00    -0.367 C  
HETATM    6  C   UNL     1     -12.582  12.046  71.183  1.00  0.00    -0.372 C  
HETATM    7  C   UNL     1     -10.126  11.598  66.994  1.00  0.00    -0.234 C  
HETATM    8  C   UNL     1     -10.530  13.739  68.643  1.00  0.00    -0.245 C  
HETATM    9  C   UNL     1      -9.808  12.388  68.335  1.00  0.00    -0.198 C  
HETATM   10  C   UNL     1      -8.985  10.646  66.479  1.00  0.00    -0.169 C  
HETATM   11  O   UNL     1      -8.150  14.151  67.615  1.00  0.00    -0.151 OA 
HETATM   12  C   UNL     1      -9.501   9.566  65.568  1.00  0.00    -0.268 C  
HETATM   13  C   UNL     1      -8.324  12.936  67.815  1.00  0.00    -0.178 C  
HETATM   14  O   UNL     1     -10.397   9.718  64.743  1.00  0.00     0.161 OA 
HETATM   15  C   UNL     1      -8.689   8.326  65.643  1.00  0.00    -0.188 C  
HETATM   16  C   UNL     1      -7.487   8.757  64.791  1.00  0.00    -0.100 C  
HETATM   17  C   UNL     1      -6.771   7.506  64.332  1.00  0.00    -0.048 C  
HETATM   18  C   UNL     1      -5.883   6.934  65.399  1.00  0.00    -0.035 C  
HETATM   19  C   UNL     1      -5.129   7.887  66.298  1.00  0.00    -0.025 C  
HETATM   20  O   UNL     1      -5.649   5.724  65.426  1.00  0.00    -0.015 OA 
HETATM   21  C   UNL     1      -5.840   9.207  66.672  1.00  0.00    -0.058 C  
HETATM   22  C   UNL     1      -6.653   9.893  65.531  1.00  0.00    -0.092 C  
HETATM   23  C   UNL     1      -5.638  10.467  64.515  1.00  0.00    -0.135 C  
HETATM   24  C   UNL     1      -7.648  11.163  66.019  1.00  0.00     0.023 C  
HETATM   25  C   UNL     1      -7.195  12.024  67.234  1.00  0.00    -0.150 C  
ENDROOT
BRANCH   4  26
HETATM   26  C   UNL     1     -13.356   8.951  71.349  1.00  0.00    -0.309 C  
HETATM   27  O   UNL     1     -14.399   6.844  71.866  1.00  0.00    -0.349 OA 
HETATM   28  C   UNL     1     -13.228   7.445  71.602  1.00  0.00    -0.362 C  
HETATM   29  O   UNL     1     -12.186   6.812  71.479  1.00  0.00    -0.338 OA 
ENDBRANCH   4  26
TORSDOF 1
ENDMDL
MODEL       56
REMARK 921   NORMALIZED FREE ENERGY PREDICTED BY IDOCK:   -4.81 KCAL/MOL
REMARK 922        TOTAL FREE ENERGY PREDICTED BY IDOCK:   -5.19 KCAL/MOL
REMARK 923 INTER-LIGAND FREE ENERGY PREDICTED BY IDOCK:   -4.94 KCAL/MOL
REMARK 924 INTRA-LIGAND FREE ENERGY PREDICTED BY IDOCK:   -0.25 KCAL/MOL
REMARK 927      BINDING AFFINITY PREDICTED BY RF-SCORE:    0.00 PKD
ROOT
HETATM    1  C   UNL     1      -9.875   8.564  69.475  1.00  0.00    -0.187 C  
HETATM    2  C   UNL     1     -10.871   8.388  70.860  1.00  0.00    -0.267 C  
HETATM    3  C   UNL     1      -9.794   7.072  69.228  1.00  0.00    -0.159 C  
HETATM    4  C   UNL     1     -10.125   7.549  72.039  1.00  0.00    -0.225 C  
HETATM    5  C   UNL     1     -11.035   6.880  68.348  1.00  0.00    -0.198 C  
HETATM    6  C   UNL     1     -11.517   9.585  71.537  1.00  0.00    -0.466 C  
HETATM    7  C   UNL     1     -10.655   7.671  67.135  1.00  0.00    -0.410 C  
HETATM    8  C   UNL     1     -11.220  10.225  67.926  1.00  0.00    -0.290 C  
HETATM    9  C   UNL     1     -10.208   9.039  67.807  1.00  0.00    -0.284 C  
HETATM   10  C   UNL     1      -9.496   6.808  66.514  1.00  0.00    -0.193 C  
HETATM   11  O   UNL     1      -9.657  10.522  65.839  1.00  0.00    -0.185 OA 
HETATM   12  C   UNL     1      -9.862   5.355  66.384  1.00  0.00    -0.176 C  
HETATM   13  C   UNL     1      -9.298   9.533  66.503  1.00  0.00    -0.171 C  
HETATM   14  O   UNL     1     -10.976   4.941  66.077  1.00  0.00    -0.245 OA 
HETATM   15  C   UNL     1      -8.683   4.461  66.496  1.00  0.00    -0.112 C  
HETATM   16  C   UNL     1      -8.088   4.649  65.094  1.00  0.00    -0.104 C  
HETATM   17  C   UNL     1      -7.170   3.479  64.818  1.00  0.00    -0.066 C  
HETATM   18  C   UNL     1      -5.828   3.642  65.473  1.00  0.00    -0.022 C  
HETATM   19  C   UNL     1      -5.213   5.022  65.525  1.00  0.00    -0.012 C  
HETATM   20  O   UNL     1      -5.177   2.649  65.803  1.00  0.00    -0.007 OA 
HETATM   21  C   UNL     1      -6.181   6.213  65.704  1.00  0.00    -0.037 C  
HETATM   22  C   UNL     1      -7.524   6.128  64.916  1.00  0.00    -0.083 C  
HETATM   23  C   UNL     1      -7.199   6.328  63.417  1.00  0.00    -0.058 C  
HETATM   24  C   UNL     1      -8.681   7.278  65.338  1.00  0.00     0.009 C  
HETATM   25  C   UNL     1      -8.187   8.673  65.819  1.00  0.00    -0.126 C  
ENDROOT
BRANCH   4  26
HETATM   26  C   UNL     1     -11.008   6.846  73.102  1.00  0.00    -0.297 C  
HETATM   27  O   UNL     1     -11.740   4.672  73.828  1.00  0.00    -0.110 OA 
HETATM   28  C   UNL     1     -11.031   5.329  72.897  1.00  0.00    -0.287 C  
HETATM   29  O   UNL     1     -10.543   4.757  71.929  1.00  0.00    -0.173 OA 
ENDBRANCH   4  26
TORSDOF 1
ENDMDL
MODEL       57
REMARK 921   NORMALIZED FREE ENERGY PREDICTED BY IDOCK:   -4.74 KCAL/MOL
REMARK 922        TOTAL FREE ENERGY PREDICTED BY IDOCK:   -5.13 KCAL/MOL
REMARK 923 INTER-LIGAND FREE ENERGY PREDICTED BY IDOCK:   -4.87 KCAL/MOL
REMARK 924 INTRA-LIGAND FREE ENERGY PREDICTED BY IDOCK:   -0.25 KCAL/MOL
REMARK 927      BINDING AFFINITY PREDICTED BY RF-SCORE:    0.00 PKD
ROOT
HETATM    1  C   UNL     1      -6.321  10.373  67.012  1.00  0.00    -0.072 C  
HETATM    2  C   UNL     1      -6.212   8.811  66.312  1.00  0.00    -0.060 C  
HETATM    3  C   UNL     1      -7.620  10.701  66.307  1.00  0.00    -0.137 C  
HETATM    4  C   UNL     1      -6.099   8.883  64.690  1.00  0.00    -0.066 C  
HETATM    5  C   UNL     1      -8.624  10.143  67.323  1.00  0.00    -0.125 C  
HETATM    6  C   UNL     1      -5.169   7.804  66.765  1.00  0.00    -0.027 C  
HETATM    7  C   UNL     1      -8.380  11.041  68.495  1.00  0.00    -0.149 C  
HETATM    8  C   UNL     1      -6.148   9.924  69.607  1.00  0.00    -0.042 C  
HETATM    9  C   UNL     1      -6.799  10.941  68.616  1.00  0.00    -0.062 C  
HETATM   10  C   UNL     1      -8.937  12.422  67.989  1.00  0.00    -0.194 C  
HETATM   11  O   UNL     1      -6.263  12.327  70.657  1.00  0.00    -0.208 OA 
HETATM   12  C   UNL     1     -10.315  12.308  67.399  1.00  0.00    -0.206 C  
HETATM   13  C   UNL     1      -6.643  12.360  69.473  1.00  0.00    -0.048 C  
HETATM   14  O   UNL     1     -11.199  11.570  67.826  1.00  0.00    -0.238 OA 
HETATM   15  C   UNL     1     -10.564  13.318  66.340  1.00  0.00    -0.288 C  
HETATM   16  C   UNL     1     -10.818  14.550  67.219  1.00  0.00    -0.297 C  
HETATM   17  C   UNL     1     -11.560  15.571  66.385  1.00  0.00     0.201 C  
HETATM   18  C   UNL     1     -10.644  16.337  65.475  1.00  0.00    -0.353 C  
HETATM   19  C   UNL     1      -9.268  16.708  65.980  1.00  0.00    -0.263 C  
HETATM   20  O   UNL     1     -11.069  16.794  64.412  1.00  0.00    -1.072 OA 
HETATM   21  C   UNL     1      -8.570  15.695  66.915  1.00  0.00    -0.281 C  
HETATM   22  C   UNL     1      -9.483  14.992  67.967  1.00  0.00    -0.193 C  
HETATM   23  C   UNL     1      -9.868  16.048  69.029  1.00  0.00    -0.239 C  
HETATM   24  C   UNL     1      -8.779  13.694  68.779  1.00  0.00     0.070 C  
HETATM   25  C   UNL     1      -7.244  13.734  69.033  1.00  0.00    -0.063 C  
ENDROOT
BRANCH   4  26
HETATM   26  C   UNL     1      -6.521   7.633  63.875  1.00  0.00    -0.053 C  
HETATM   27  O   UNL     1      -8.249   6.812  62.416  1.00  0.00    -0.107 OA 
HETATM   28  C   UNL     1      -7.868   7.849  63.178  1.00  0.00    -0.142 C  
HETATM   29  O   UNL     1      -8.592   8.820  63.364  1.00  0.00    -0.159 OA 
ENDBRANCH   4  26
TORSDOF 1
ENDMDL
MODEL       58
REMARK 921   NORMALIZED FREE ENERGY PREDICTED BY IDOCK:   -4.63 KCAL/MOL
REMARK 922        TOTAL FREE ENERGY PREDICTED BY IDOCK:   -5.00 KCAL/MOL
REMARK 923 INTER-LIGAND FREE ENERGY PREDICTED BY IDOCK:   -4.91 KCAL/MOL
REMARK 924 INTRA-LIGAND FREE ENERGY PREDICTED BY IDOCK:   -0.10 KCAL/MOL
REMARK 927      BINDING AFFINITY PREDICTED BY RF-SCORE:    0.00 PKD
ROOT
HETATM    1  C   UNL     1      -9.174   8.249  65.944  1.00  0.00    -0.185 C  
HETATM    2  C   UNL     1      -7.846   7.772  64.971  1.00  0.00    -0.125 C  
HETATM    3  C   UNL     1      -8.563   7.694  67.214  1.00  0.00    -0.121 C  
HETATM    4  C   UNL     1      -7.645   6.157  64.971  1.00  0.00    -0.092 C  
HETATM    5  C   UNL     1      -7.752   8.910  67.674  1.00  0.00    -0.101 C  
HETATM    6  C   UNL     1      -7.717   8.215  63.523  1.00  0.00    -0.143 C  
HETATM    7  C   UNL     1      -8.842   9.895  67.961  1.00  0.00    -0.125 C  
HETATM    8  C   UNL     1      -9.428  10.832  65.461  1.00  0.00    -0.253 C  
HETATM    9  C   UNL     1      -9.678   9.805  66.613  1.00  0.00    -0.257 C  
HETATM   10  C   UNL     1      -9.534   9.279  69.231  1.00  0.00    -0.160 C  
HETATM   11  O   UNL     1     -11.496  11.531  66.918  1.00  0.00    -0.441 OA 
HETATM   12  C   UNL     1      -8.547   8.911  70.305  1.00  0.00    -0.167 C  
HETATM   13  C   UNL     1     -11.073  10.419  67.284  1.00  0.00    -0.179 C  
HETATM   14  O   UNL     1      -7.541   9.560  70.582  1.00  0.00    -0.144 OA 
HETATM   15  C   UNL     1      -9.005   7.763  71.127  1.00  0.00    -0.146 C  
HETATM   16  C   UNL     1     -10.024   8.483  72.022  1.00  0.00    -0.383 C  
HETATM   17  C   UNL     1     -10.257   7.623  73.245  1.00  0.00    -0.398 C  
HETATM   18  C   UNL     1     -11.207   6.492  72.973  1.00  0.00    -0.142 C  
HETATM   19  C   UNL     1     -12.381   6.741  72.054  1.00  0.00    -0.311 C  
HETATM   20  O   UNL     1     -11.122   5.446  73.618  1.00  0.00    -0.280 OA 
HETATM   21  C   UNL     1     -12.149   7.705  70.868  1.00  0.00    -0.226 C  
HETATM   22  C   UNL     1     -11.280   8.964  71.169  1.00  0.00    -0.352 C  
HETATM   23  C   UNL     1     -12.119   9.907  72.063  1.00  0.00    -0.103 C  
HETATM   24  C   UNL     1     -10.799   9.848  69.817  1.00  0.00    -0.300 C  
HETATM   25  C   UNL     1     -11.747   9.875  68.584  1.00  0.00     0.352 C  
ENDROOT
BRANCH   4  26
HETATM   26  C   UNL     1      -6.243   5.599  64.614  1.00  0.00    -0.025 C  
HETATM   27  O   UNL     1      -5.135   3.621  63.808  1.00  0.00    -0.007 OA 
HETATM   28  C   UNL     1      -6.319   4.132  64.179  1.00  0.00    -0.034 C  
HETATM   29  O   UNL     1      -7.330   3.443  64.253  1.00  0.00    -0.060 OA 
ENDBRANCH   4  26
TORSDOF 1
ENDMDL
MODEL       59
REMARK 921   NORMALIZED FREE ENERGY PREDICTED BY IDOCK:   -4.59 KCAL/MOL
REMARK 922        TOTAL FREE ENERGY PREDICTED BY IDOCK:   -4.97 KCAL/MOL
REMARK 923 INTER-LIGAND FREE ENERGY PREDICTED BY IDOCK:   -4.77 KCAL/MOL
REMARK 924 INTRA-LIGAND FREE ENERGY PREDICTED BY IDOCK:   -0.20 KCAL/MOL
REMARK 927      BINDING AFFINITY PREDICTED BY RF-SCORE:    0.00 PKD
ROOT
HETATM    1  C   UNL     1      -6.570  13.383  68.136  1.00  0.00    -0.118 C  
HETATM    2  C   UNL     1      -6.894  11.707  67.971  1.00  0.00    -0.072 C  
HETATM    3  C   UNL     1      -7.966  13.790  67.713  1.00  0.00    -0.170 C  
HETATM    4  C   UNL     1      -7.275  11.314  66.438  1.00  0.00    -0.052 C  
HETATM    5  C   UNL     1      -8.676  13.763  69.071  1.00  0.00     0.268 C  
HETATM    6  C   UNL     1      -5.909  10.653  68.447  1.00  0.00    -0.043 C  
HETATM    7  C   UNL     1      -7.964  14.866  69.792  1.00  0.00     0.082 C  
HETATM    8  C   UNL     1      -5.672  13.621  70.606  1.00  0.00    -0.187 C  
HETATM    9  C   UNL     1      -6.452  14.453  69.537  1.00  0.00    -0.133 C  
HETATM   10  C   UNL     1      -8.456  16.148  69.026  1.00  0.00    -0.251 C  
HETATM   11  O   UNL     1      -5.133  16.180  70.822  1.00  0.00    -0.177 OA 
HETATM   12  C   UNL     1      -9.952  16.190  68.869  1.00  0.00    -0.233 C  
HETATM   13  C   UNL     1      -5.849  15.978  69.826  1.00  0.00    -0.162 C  
HETATM   14  O   UNL     1     -10.754  15.809  69.718  1.00  0.00    -0.263 OA 
HETATM   15  C   UNL     1     -10.373  16.907  67.641  1.00  0.00    -0.317 C  
HETATM   16  C   UNL     1     -10.176  18.354  68.111  1.00  0.00    -0.410 C  
HETATM   17  C   UNL     1     -10.992  19.252  67.208  1.00  0.00    -0.443 C  
HETATM   18  C   UNL     1     -10.304  19.521  65.901  1.00  0.00    -0.470 C  
HETATM   19  C   UNL     1      -8.803  19.699  65.898  1.00  0.00    -0.126 C  
HETATM   20  O   UNL     1     -10.968  19.759  64.890  1.00  0.00    -0.178 OA 
HETATM   21  C   UNL     1      -7.996  18.845  66.902  1.00  0.00    -0.266 C  
HETATM   22  C   UNL     1      -8.629  18.672  68.317  1.00  0.00    -0.347 C  
HETATM   23  C   UNL     1      -8.523  20.033  69.045  1.00  0.00     0.160 C  
HETATM   24  C   UNL     1      -7.893  17.517  69.299  1.00  0.00     0.115 C  
HETATM   25  C   UNL     1      -6.364  17.281  69.133  1.00  0.00    -0.229 C  
ENDROOT
BRANCH   4  26
HETATM   26  C   UNL     1      -8.093  10.017  66.202  1.00  0.00    -0.122 C  
HETATM   27  O   UNL     1     -10.340   9.156  66.236  1.00  0.00    -0.244 OA 
HETATM   28  C   UNL     1      -9.583  10.238  66.480  1.00  0.00    -0.181 C  
HETATM   29  O   UNL     1     -10.048  11.259  66.973  1.00  0.00    -0.197 OA 
ENDBRANCH   4  26
TORSDOF 1
ENDMDL
MODEL       60
REMARK 921   NORMALIZED FREE ENERGY PREDICTED BY IDOCK:   -4.56 KCAL/MOL
REMARK 922        TOTAL FREE ENERGY PREDICTED BY IDOCK:   -4.93 KCAL/MOL
REMARK 923 INTER-LIGAND FREE ENERGY PREDICTED BY IDOCK:   -4.70 KCAL/MOL
REMARK 924 INTRA-LIGAND FREE ENERGY PREDICTED BY IDOCK:   -0.23 KCAL/MOL
REMARK 927      BINDING AFFINITY PREDICTED BY RF-SCORE:    0.00 PKD
ROOT
HETATM    1  C   UNL     1     -10.935  10.834  68.509  1.00  0.00    -0.291 C  
HETATM    2  C   UNL     1     -11.066  12.493  68.925  1.00  0.00    -0.309 C  
HETATM    3  C   UNL     1      -9.596  11.016  67.824  1.00  0.00    -0.180 C  
HETATM    4  C   UNL     1     -11.108  13.446  67.606  1.00  0.00    -0.288 C  
HETATM    5  C   UNL     1      -8.656  10.821  69.019  1.00  0.00    -0.143 C  
HETATM    6  C   UNL     1     -12.161  13.000  69.849  1.00  0.00    -0.347 C  
HETATM    7  C   UNL     1      -8.919   9.388  69.364  1.00  0.00    -0.157 C  
HETATM    8  C   UNL     1     -11.233   9.572  70.808  1.00  0.00    -0.383 C  
HETATM    9  C   UNL     1     -10.506   9.392  69.435  1.00  0.00    -0.231 C  
HETATM   10  C   UNL     1      -8.296   8.622  68.141  1.00  0.00    -0.127 C  
HETATM   11  O   UNL     1     -11.081   7.038  70.142  1.00  0.00    -0.264 OA 
HETATM   12  C   UNL     1      -6.898   9.078  67.825  1.00  0.00    -0.070 C  
HETATM   13  C   UNL     1     -10.651   7.748  69.216  1.00  0.00    -0.192 C  
HETATM   14  O   UNL     1      -6.058   9.390  68.665  1.00  0.00    -0.044 OA 
HETATM   15  C   UNL     1      -6.571   8.946  66.383  1.00  0.00    -0.067 C  
HETATM   16  C   UNL     1      -6.313   7.434  66.319  1.00  0.00    -0.041 C  
HETATM   17  C   UNL     1      -5.503   7.154  65.073  1.00  0.00    -0.032 C  
HETATM   18  C   UNL     1      -6.354   7.120  63.836  1.00  0.00    -0.044 C  
HETATM   19  C   UNL     1      -7.736   6.515  63.927  1.00  0.00    -0.108 C  
HETATM   20  O   UNL     1      -5.869   7.423  62.744  1.00  0.00    -0.048 OA 
HETATM   21  C   UNL     1      -8.507   6.727  65.249  1.00  0.00    -0.067 C  
HETATM   22  C   UNL     1      -7.663   6.623  66.557  1.00  0.00    -0.102 C  
HETATM   23  C   UNL     1      -7.288   5.136  66.753  1.00  0.00    -0.086 C  
HETATM   24  C   UNL     1      -8.444   7.134  67.960  1.00  0.00    -0.122 C  
HETATM   25  C   UNL     1      -9.986   6.946  68.051  1.00  0.00    -0.175 C  
ENDROOT
BRANCH   4  26
HETATM   26  C   UNL     1     -10.694  14.931  67.768  1.00  0.00    -0.271 C  
HETATM   27  O   UNL     1      -8.770  16.376  67.774  1.00  0.00    -0.178 OA 
HETATM   28  C   UNL     1      -9.173  15.098  67.693  1.00  0.00    -0.181 C  
HETATM   29  O   UNL     1      -8.378  14.166  67.664  1.00  0.00    -0.156 OA 
ENDBRANCH   4  26
TORSDOF 1
ENDMDL
MODEL       61
REMARK 921   NORMALIZED FREE ENERGY PREDICTED BY IDOCK:   -4.55 KCAL/MOL
REMARK 922        TOTAL FREE ENERGY PREDICTED BY IDOCK:   -4.92 KCAL/MOL
REMARK 923 INTER-LIGAND FREE ENERGY PREDICTED BY IDOCK:   -4.78 KCAL/MOL
REMARK 924 INTRA-LIGAND FREE ENERGY PREDICTED BY IDOCK:   -0.13 KCAL/MOL
REMARK 927      BINDING AFFINITY PREDICTED BY RF-SCORE:    0.00 PKD
ROOT
HETATM    1  C   UNL     1     -11.103  13.737  68.248  1.00  0.00    -0.279 C  
HETATM    2  C   UNL     1     -12.118  14.252  69.532  1.00  0.00    -0.376 C  
HETATM    3  C   UNL     1     -10.748  12.432  68.928  1.00  0.00    -0.202 C  
HETATM    4  C   UNL     1     -11.293  14.420  70.925  1.00  0.00     0.014 C  
HETATM    5  C   UNL     1     -11.891  11.546  68.419  1.00  0.00    -0.353 C  
HETATM    6  C   UNL     1     -12.998  15.484  69.409  1.00  0.00     0.666 C  
HETATM    7  C   UNL     1     -11.599  11.511  66.951  1.00  0.00    -0.166 C  
HETATM    8  C   UNL     1     -12.645  13.893  66.112  1.00  0.00    -0.426 C  
HETATM    9  C   UNL     1     -11.435  13.062  66.650  1.00  0.00    -0.382 C  
HETATM   10  C   UNL     1     -10.277  10.663  66.885  1.00  0.00    -0.272 C  
HETATM   11  O   UNL     1     -11.061  13.153  64.154  1.00  0.00    -0.375 OA 
HETATM   12  C   UNL     1     -10.373   9.381  67.666  1.00  0.00    -0.246 C  
HETATM   13  C   UNL     1     -10.565  12.832  65.249  1.00  0.00    -0.290 C  
HETATM   14  O   UNL     1     -11.380   8.682  67.740  1.00  0.00     0.428 OA 
HETATM   15  C   UNL     1      -9.061   8.947  68.206  1.00  0.00    -0.140 C  
HETATM   16  C   UNL     1      -8.442   8.362  66.929  1.00  0.00    -0.117 C  
HETATM   17  C   UNL     1      -7.319   7.436  67.339  1.00  0.00    -0.102 C  
HETATM   18  C   UNL     1      -6.060   8.182  67.678  1.00  0.00    -0.051 C  
HETATM   19  C   UNL     1      -5.703   9.403  66.860  1.00  0.00    -0.051 C  
HETATM   20  O   UNL     1      -5.260   7.710  68.487  1.00  0.00    -0.024 OA 
HETATM   21  C   UNL     1      -6.874  10.280  66.364  1.00  0.00    -0.106 C  
HETATM   22  C   UNL     1      -8.141   9.515  65.872  1.00  0.00    -0.115 C  
HETATM   23  C   UNL     1      -7.785   8.838  64.528  1.00  0.00    -0.121 C  
HETATM   24  C   UNL     1      -9.503  10.473  65.608  1.00  0.00    -0.259 C  
HETATM   25  C   UNL     1      -9.287  11.939  65.134  1.00  0.00     0.029 C  
ENDROOT
BRANCH   4  26
HETATM   26  C   UNL     1     -12.088  14.349  72.254  1.00  0.00    -0.133 C  
HETATM   27  O   UNL     1     -12.922  15.724  74.044  1.00  0.00    -0.506 OA 
HETATM   28  C   UNL     1     -12.194  15.726  72.916  1.00  0.00    -0.481 C  
HETATM   29  O   UNL     1     -11.597  16.725  72.529  1.00  0.00    -0.345 OA 
ENDBRANCH   4  26
TORSDOF 1
ENDMDL
MODEL       62
REMARK 921   NORMALIZED FREE ENERGY PREDICTED BY IDOCK:   -4.40 KCAL/MOL
REMARK 922        TOTAL FREE ENERGY PREDICTED BY IDOCK:   -4.76 KCAL/MOL
REMARK 923 INTER-LIGAND FREE ENERGY PREDICTED BY IDOCK:   -4.66 KCAL/MOL
REMARK 924 INTRA-LIGAND FREE ENERGY PREDICTED BY IDOCK:   -0.09 KCAL/MOL
REMARK 927      BINDING AFFINITY PREDICTED BY RF-SCORE:    0.00 PKD
ROOT
HETATM    1  C   UNL     1      -9.168   8.835  70.302  1.00  0.00    -0.191 C  
HETATM    2  C   UNL     1      -9.010   7.814  71.671  1.00  0.00    -0.157 C  
HETATM    3  C   UNL     1      -8.551   7.824  69.359  1.00  0.00    -0.135 C  
HETATM    4  C   UNL     1      -7.452   7.462  71.985  1.00  0.00    -0.080 C  
HETATM    5  C   UNL     1      -9.804   7.038  68.955  1.00  0.00    -0.150 C  
HETATM    6  C   UNL     1      -9.643   8.165  73.007  1.00  0.00    -0.336 C  
HETATM    7  C   UNL     1     -10.580   8.087  68.222  1.00  0.00    -0.155 C  
HETATM    8  C   UNL     1     -11.729   9.476  70.276  1.00  0.00    -0.168 C  
HETATM    9  C   UNL     1     -10.542   9.271  69.280  1.00  0.00    -0.234 C  
HETATM   10  C   UNL     1      -9.719   8.306  66.925  1.00  0.00    -0.291 C  
HETATM   11  O   UNL     1     -11.940  11.080  68.209  1.00  0.00    -0.593 OA 
HETATM   12  C   UNL     1      -9.364   7.014  66.241  1.00  0.00    -0.098 C  
HETATM   13  C   UNL     1     -10.863  10.459  68.158  1.00  0.00    -0.264 C  
HETATM   14  O   UNL     1     -10.109   6.042  66.155  1.00  0.00    -0.060 OA 
HETATM   15  C   UNL     1      -8.070   7.092  65.519  1.00  0.00    -0.135 C  
HETATM   16  C   UNL     1      -8.520   7.866  64.273  1.00  0.00     0.123 C  
HETATM   17  C   UNL     1      -7.491   7.640  63.188  1.00  0.00    -0.112 C  
HETATM   18  C   UNL     1      -6.279   8.510  63.362  1.00  0.00    -0.081 C  
HETATM   19  C   UNL     1      -6.471   9.923  63.866  1.00  0.00    -0.126 C  
HETATM   20  O   UNL     1      -5.183   8.135  62.943  1.00  0.00    -0.056 OA 
HETATM   21  C   UNL     1      -7.598  10.150  64.899  1.00  0.00    -0.138 C  
HETATM   22  C   UNL     1      -8.921   9.360  64.654  1.00  0.00    -0.233 C  
HETATM   23  C   UNL     1      -9.617   9.987  63.423  1.00  0.00    -0.115 C  
HETATM   24  C   UNL     1     -10.025   9.391  65.926  1.00  0.00    -0.327 C  
HETATM   25  C   UNL     1     -10.071  10.660  66.826  1.00  0.00    -0.272 C  
ENDROOT
BRANCH   4  26
HETATM   26  C   UNL     1      -7.147   6.180  72.803  1.00  0.00    -0.076 C  
HETATM   27  O   UNL     1      -7.093   3.781  72.624  1.00  0.00    -0.042 OA 
HETATM   28  C   UNL     1      -7.397   4.916  71.975  1.00  0.00    -0.081 C  
HETATM   29  O   UNL     1      -7.917   4.911  70.865  1.00  0.00    -0.080 OA 
ENDBRANCH   4  26
TORSDOF 1
ENDMDL
MODEL       63
REMARK 921   NORMALIZED FREE ENERGY PREDICTED BY IDOCK:   -4.15 KCAL/MOL
REMARK 922        TOTAL FREE ENERGY PREDICTED BY IDOCK:   -4.49 KCAL/MOL
REMARK 923 INTER-LIGAND FREE ENERGY PREDICTED BY IDOCK:   -4.36 KCAL/MOL
REMARK 924 INTRA-LIGAND FREE ENERGY PREDICTED BY IDOCK:   -0.14 KCAL/MOL
REMARK 927      BINDING AFFINITY PREDICTED BY RF-SCORE:    0.00 PKD
ROOT
HETATM    1  C   UNL     1      -9.185   5.933  66.465  1.00  0.00    -0.154 C  
HETATM    2  C   UNL     1      -8.160   5.231  65.283  1.00  0.00    -0.123 C  
HETATM    3  C   UNL     1      -8.468   5.265  67.619  1.00  0.00    -0.105 C  
HETATM    4  C   UNL     1      -8.257   3.606  65.287  1.00  0.00    -0.097 C  
HETATM    5  C   UNL     1      -7.381   6.309  67.899  1.00  0.00    -0.088 C  
HETATM    6  C   UNL     1      -8.214   5.655  63.825  1.00  0.00    -0.091 C  
HETATM    7  C   UNL     1      -8.207   7.473  68.350  1.00  0.00    -0.125 C  
HETATM    8  C   UNL     1      -9.050   8.523  65.971  1.00  0.00    -0.246 C  
HETATM    9  C   UNL     1      -9.272   7.549  67.174  1.00  0.00    -0.161 C  
HETATM   10  C   UNL     1      -8.760   6.983  69.737  1.00  0.00    -0.142 C  
HETATM   11  O   UNL     1     -10.664   9.574  67.754  1.00  0.00    -0.261 OA 
HETATM   12  C   UNL     1      -7.681   6.432  70.628  1.00  0.00    -0.105 C  
HETATM   13  C   UNL     1     -10.391   8.401  68.066  1.00  0.00    -0.215 C  
HETATM   14  O   UNL     1      -6.542   6.884  70.707  1.00  0.00    -0.050 OA 
HETATM   15  C   UNL     1      -8.185   5.380  71.546  1.00  0.00    -0.118 C  
HETATM   16  C   UNL     1      -8.881   6.265  72.589  1.00  0.00    -0.126 C  
HETATM   17  C   UNL     1      -9.043   5.452  73.854  1.00  0.00    -0.122 C  
HETATM   18  C   UNL     1     -10.215   4.516  73.782  1.00  0.00    -0.185 C  
HETATM   19  C   UNL     1     -11.470   4.982  73.080  1.00  0.00    -0.344 C  
HETATM   20  O   UNL     1     -10.207   3.466  74.427  1.00  0.00    -0.145 OA 
HETATM   21  C   UNL     1     -11.283   5.897  71.849  1.00  0.00    -0.323 C  
HETATM   22  C   UNL     1     -10.161   6.975  71.961  1.00  0.00    -0.201 C  
HETATM   23  C   UNL     1     -10.642   8.047  72.966  1.00  0.00    -0.332 C  
HETATM   24  C   UNL     1      -9.777   7.768  70.524  1.00  0.00    -0.175 C  
HETATM   25  C   UNL     1     -10.909   7.977  69.478  1.00  0.00    -0.135 C  
ENDROOT
BRANCH   4  26
HETATM   26  C   UNL     1      -7.066   2.804  64.701  1.00  0.00    -0.050 C  
HETATM   27  O   UNL     1      -6.417   1.489  62.794  1.00  0.00    -0.009 OA 
HETATM   28  C   UNL     1      -7.435   2.149  63.367  1.00  0.00    -0.054 C  
HETATM   29  O   UNL     1      -8.567   2.129  62.899  1.00  0.00    -0.076 OA 
ENDBRANCH   4  26
TORSDOF 1
ENDMDL
MODEL       64
REMARK 921   NORMALIZED FREE ENERGY PREDICTED BY IDOCK:   -4.10 KCAL/MOL
REMARK 922        TOTAL FREE ENERGY PREDICTED BY IDOCK:   -4.44 KCAL/MOL
REMARK 923 INTER-LIGAND FREE ENERGY PREDICTED BY IDOCK:   -4.19 KCAL/MOL
REMARK 924 INTRA-LIGAND FREE ENERGY PREDICTED BY IDOCK:   -0.25 KCAL/MOL
REMARK 927      BINDING AFFINITY PREDICTED BY RF-SCORE:    0.00 PKD
ROOT
HETATM    1  C   UNL     1      -6.674  13.694  68.649  1.00  0.00    -0.100 C  
HETATM    2  C   UNL     1      -6.684  15.327  68.125  1.00  0.00    -0.137 C  
HETATM    3  C   UNL     1      -8.182  13.620  68.753  1.00  0.00     0.021 C  
HETATM    4  C   UNL     1      -7.331  16.316  69.244  1.00  0.00    -0.221 C  
HETATM    5  C   UNL     1      -8.529  13.190  67.323  1.00  0.00    -0.199 C  
HETATM    6  C   UNL     1      -5.423  16.015  67.630  1.00  0.00    -0.158 C  
HETATM    7  C   UNL     1      -7.903  11.831  67.269  1.00  0.00    -0.161 C  
HETATM    8  C   UNL     1      -5.281  12.436  66.793  1.00  0.00     0.308 C  
HETATM    9  C   UNL     1      -6.443  12.161  67.801  1.00  0.00    -0.095 C  
HETATM   10  C   UNL     1      -8.811  10.998  68.246  1.00  0.00    -0.144 C  
HETATM   11  O   UNL     1      -5.232   9.952  67.638  1.00  0.00    -0.036 OA 
HETATM   12  C   UNL     1     -10.277  11.167  67.958  1.00  0.00    -0.181 C  
HETATM   13  C   UNL     1      -6.109  10.591  68.245  1.00  0.00    -0.047 C  
HETATM   14  O   UNL     1     -10.761  11.267  66.834  1.00  0.00    -0.247 OA 
HETATM   15  C   UNL     1     -11.114  11.024  69.175  1.00  0.00    -0.301 C  
HETATM   16  C   UNL     1     -11.106   9.495  69.311  1.00  0.00    -0.109 C  
HETATM   17  C   UNL     1     -12.277   9.099  70.183  1.00  0.00     0.435 C  
HETATM   18  C   UNL     1     -11.987   9.289  71.644  1.00  0.00    -0.378 C  
HETATM   19  C   UNL     1     -10.597   8.980  72.151  1.00  0.00    -0.209 C  
HETATM   20  O   UNL     1     -12.907   9.525  72.431  1.00  0.00    -0.363 OA 
HETATM   21  C   UNL     1      -9.420   9.297  71.202  1.00  0.00    -0.287 C  
HETATM   22  C   UNL     1      -9.651   8.973  69.693  1.00  0.00    -0.175 C  
HETATM   23  C   UNL     1      -9.650   7.433  69.543  1.00  0.00    -0.155 C  
HETATM   24  C   UNL     1      -8.485   9.582  68.639  1.00  0.00    -0.119 C  
HETATM   25  C   UNL     1      -7.024   9.713  69.158  1.00  0.00    -0.050 C  
ENDROOT
BRANCH   4  26
HETATM   26  C   UNL     1      -7.903  17.677  68.768  1.00  0.00    -0.242 C  
HETATM   27  O   UNL     1      -9.922  18.712  67.967  1.00  0.00    -0.318 OA 
HETATM   28  C   UNL     1      -9.367  17.547  68.336  1.00  0.00    -0.287 C  
HETATM   29  O   UNL     1      -9.963  16.481  68.231  1.00  0.00    -0.236 OA 
ENDBRANCH   4  26
TORSDOF 1
ENDMDL
MODEL       65
REMARK 921   NORMALIZED FREE ENERGY PREDICTED BY IDOCK:   -4.07 KCAL/MOL
REMARK 922        TOTAL FREE ENERGY PREDICTED BY IDOCK:   -4.41 KCAL/MOL
REMARK 923 INTER-LIGAND FREE ENERGY PREDICTED BY IDOCK:   -4.19 KCAL/MOL
REMARK 924 INTRA-LIGAND FREE ENERGY PREDICTED BY IDOCK:   -0.22 KCAL/MOL
REMARK 927      BINDING AFFINITY PREDICTED BY RF-SCORE:    0.00 PKD
ROOT
HETATM    1  C   UNL     1      -6.921   8.414  67.236  1.00  0.00    -0.075 C  
HETATM    2  C   UNL     1      -7.159   9.875  66.371  1.00  0.00    -0.096 C  
HETATM    3  C   UNL     1      -8.158   8.607  68.088  1.00  0.00    -0.115 C  
HETATM    4  C   UNL     1      -7.106  11.174  67.351  1.00  0.00    -0.102 C  
HETATM    5  C   UNL     1      -9.207   7.940  67.191  1.00  0.00    -0.175 C  
HETATM    6  C   UNL     1      -6.321  10.229  65.154  1.00  0.00    -0.123 C  
HETATM    7  C   UNL     1      -8.736   6.519  67.201  1.00  0.00    -0.111 C  
HETATM    8  C   UNL     1      -6.726   6.578  65.349  1.00  0.00    -0.047 C  
HETATM    9  C   UNL     1      -7.204   6.717  66.831  1.00  0.00    -0.081 C  
HETATM   10  C   UNL     1      -9.025   6.073  68.681  1.00  0.00    -0.118 C  
HETATM   11  O   UNL     1      -6.310   4.360  66.689  1.00  0.00    -0.035 OA 
HETATM   12  C   UNL     1     -10.423   6.408  69.122  1.00  0.00    -0.229 C  
HETATM   13  C   UNL     1      -6.728   5.248  67.454  1.00  0.00    -0.055 C  
HETATM   14  O   UNL     1     -11.418   6.339  68.405  1.00  0.00    -0.201 OA 
HETATM   15  C   UNL     1     -10.510   6.667  70.581  1.00  0.00    -0.253 C  
HETATM   16  C   UNL     1     -10.473   5.223  71.098  1.00  0.00    -0.275 C  
HETATM   17  C   UNL     1     -11.031   5.218  72.504  1.00  0.00    -0.298 C  
HETATM   18  C   UNL     1     -10.021   5.669  73.519  1.00  0.00    -0.177 C  
HETATM   19  C   UNL     1      -8.578   5.259  73.334  1.00  0.00    -0.116 C  
HETATM   20  O   UNL     1     -10.392   6.214  74.560  1.00  0.00    -0.305 OA 
HETATM   21  C   UNL     1      -8.056   5.171  71.882  1.00  0.00    -0.116 C  
HETATM   22  C   UNL     1      -9.044   4.569  70.835  1.00  0.00    -0.185 C  
HETATM   23  C   UNL     1      -9.162   3.054  71.122  1.00  0.00    -0.197 C  
HETATM   24  C   UNL     1      -8.580   4.741  69.224  1.00  0.00    -0.098 C  
HETATM   25  C   UNL     1      -7.059   4.746  68.896  1.00  0.00    -0.053 C  
ENDROOT
BRANCH   4  26
HETATM   26  C   UNL     1      -7.807  12.473  66.876  1.00  0.00     0.016 C  
HETATM   27  O   UNL     1      -9.610  13.968  67.427  1.00  0.00    -0.217 OA 
HETATM   28  C   UNL     1      -9.004  12.820  67.767  1.00  0.00    -0.190 C  
HETATM   29  O   UNL     1      -9.446  12.087  68.644  1.00  0.00    -0.163 OA 
ENDBRANCH   4  26
TORSDOF 1
ENDMDL
MODEL       66
REMARK 921   NORMALIZED FREE ENERGY PREDICTED BY IDOCK:   -3.97 KCAL/MOL
REMARK 922        TOTAL FREE ENERGY PREDICTED BY IDOCK:   -4.31 KCAL/MOL
REMARK 923 INTER-LIGAND FREE ENERGY PREDICTED BY IDOCK:   -4.19 KCAL/MOL
REMARK 924 INTRA-LIGAND FREE ENERGY PREDICTED BY IDOCK:   -0.12 KCAL/MOL
REMARK 927      BINDING AFFINITY PREDICTED BY RF-SCORE:    0.00 PKD
ROOT
HETATM    1  C   UNL     1      -8.741  10.745  66.697  1.00  0.00    -0.149 C  
HETATM    2  C   UNL     1      -9.607  12.158  66.258  1.00  0.00    -0.246 C  
HETATM    3  C   UNL     1      -9.117  10.856  68.159  1.00  0.00    -0.155 C  
HETATM    4  C   UNL     1      -9.023  13.481  67.005  1.00  0.00    -0.237 C  
HETATM    5  C   UNL     1     -10.439  10.080  68.155  1.00  0.00    -0.250 C  
HETATM    6  C   UNL     1      -9.813  12.549  64.804  1.00  0.00    -0.084 C  
HETATM    7  C   UNL     1      -9.967   8.704  67.800  1.00  0.00    -0.240 C  
HETATM    8  C   UNL     1      -9.695   8.883  65.087  1.00  0.00     0.402 C  
HETATM    9  C   UNL     1      -9.083   9.020  66.518  1.00  0.00    -0.202 C  
HETATM   10  C   UNL     1      -9.170   8.274  69.086  1.00  0.00    -0.151 C  
HETATM   11  O   UNL     1      -8.321   6.744  65.737  1.00  0.00    -0.132 OA 
HETATM   12  C   UNL     1      -9.949   8.502  70.352  1.00  0.00    -0.183 C  
HETATM   13  C   UNL     1      -8.199   7.613  66.619  1.00  0.00    -0.124 C  
HETATM   14  O   UNL     1     -11.160   8.332  70.467  1.00  0.00    -0.250 OA 
HETATM   15  C   UNL     1      -9.071   8.791  71.513  1.00  0.00    -0.322 C  
HETATM   16  C   UNL     1      -8.586   7.368  71.824  1.00  0.00    -0.124 C  
HETATM   17  C   UNL     1      -8.074   7.353  73.247  1.00  0.00    -0.141 C  
HETATM   18  C   UNL     1      -6.685   7.914  73.358  1.00  0.00    -0.093 C  
HETATM   19  C   UNL     1      -5.697   7.621  72.252  1.00  0.00    -0.036 C  
HETATM   20  O   UNL     1      -6.318   8.452  74.404  1.00  0.00    -0.118 OA 
HETATM   21  C   UNL     1      -6.260   7.539  70.815  1.00  0.00    -0.035 C  
HETATM   22  C   UNL     1      -7.641   6.830  70.661  1.00  0.00    -0.095 C  
HETATM   23  C   UNL     1      -7.418   5.318  70.899  1.00  0.00    -0.082 C  
HETATM   24  C   UNL     1      -8.372   6.999  69.152  1.00  0.00    -0.125 C  
HETATM   25  C   UNL     1      -7.454   7.122  67.902  1.00  0.00    -0.099 C  
ENDROOT
BRANCH   4  26
HETATM   26  C   UNL     1      -9.965  14.704  67.158  1.00  0.00    -0.240 C  
HETATM   27  O   UNL     1     -10.325  16.667  68.503  1.00  0.00    -0.266 OA 
HETATM   28  C   UNL     1      -9.571  15.565  68.362  1.00  0.00    -0.199 C  
HETATM   29  O   UNL     1      -8.723  15.248  69.188  1.00  0.00    -0.208 OA 
ENDBRANCH   4  26
TORSDOF 1
ENDMDL
MODEL       67
REMARK 921   NORMALIZED FREE ENERGY PREDICTED BY IDOCK:   -3.95 KCAL/MOL
REMARK 922        TOTAL FREE ENERGY PREDICTED BY IDOCK:   -4.29 KCAL/MOL
REMARK 923 INTER-LIGAND FREE ENERGY PREDICTED BY IDOCK:   -4.14 KCAL/MOL
REMARK 924 INTRA-LIGAND FREE ENERGY PREDICTED BY IDOCK:   -0.14 KCAL/MOL
REMARK 927      BINDING AFFINITY PREDICTED BY RF-SCORE:    0.00 PKD
ROOT
HETATM    1  C   UNL     1     -10.509  12.779  67.558  1.00  0.00    -0.223 C  
HETATM    2  C   UNL     1     -10.108  11.161  67.963  1.00  0.00    -0.191 C  
HETATM    3  C   UNL     1      -9.264  13.348  68.206  1.00  0.00    -0.198 C  
HETATM    4  C   UNL     1     -10.027  10.944  69.574  1.00  0.00    -0.010 C  
HETATM    5  C   UNL     1      -8.287  13.264  67.027  1.00  0.00    -0.092 C  
HETATM    6  C   UNL     1     -10.895   9.983  67.416  1.00  0.00    -0.313 C  
HETATM    7  C   UNL     1      -8.910  14.227  66.065  1.00  0.00     0.443 C  
HETATM    8  C   UNL     1     -10.889  12.710  64.947  1.00  0.00    -0.329 C  
HETATM    9  C   UNL     1     -10.409  13.702  66.055  1.00  0.00    -0.305 C  
HETATM   10  C   UNL     1      -8.680  15.613  66.772  1.00  0.00    -0.306 C  
HETATM   11  O   UNL     1     -11.551  15.179  64.356  1.00  0.00    -0.354 OA 
HETATM   12  C   UNL     1      -7.256  15.805  67.219  1.00  0.00    -0.219 C  
HETATM   13  C   UNL     1     -11.045  15.134  65.491  1.00  0.00    -0.345 C  
HETATM   14  O   UNL     1      -6.271  15.424  66.593  1.00  0.00     0.273 OA 
HETATM   15  C   UNL     1      -7.151  16.665  68.423  1.00  0.00    -0.167 C  
HETATM   16  C   UNL     1      -7.348  18.040  67.771  1.00  0.00    -0.213 C  
HETATM   17  C   UNL     1      -6.803  19.086  68.717  1.00  0.00    -0.332 C  
HETATM   18  C   UNL     1      -7.765  19.409  69.825  1.00  0.00     0.329 C  
HETATM   19  C   UNL     1      -9.243  19.448  69.508  1.00  0.00     0.148 C  
HETATM   20  O   UNL     1      -7.344  19.796  70.916  1.00  0.00     0.628 OA 
HETATM   21  C   UNL     1      -9.761  18.437  68.461  1.00  0.00    -0.386 C  
HETATM   22  C   UNL     1      -8.837  18.196  67.227  1.00  0.00    -0.251 C  
HETATM   23  C   UNL     1      -8.886  19.470  66.352  1.00  0.00    -0.400 C  
HETATM   24  C   UNL     1      -9.270  16.895  66.247  1.00  0.00    -0.299 C  
HETATM   25  C   UNL     1     -10.779  16.536  66.129  1.00  0.00    -0.155 C  
ENDROOT
BRANCH   4  26
HETATM   26  C   UNL     1      -9.186   9.754  70.106  1.00  0.00    -0.253 C  
HETATM   27  O   UNL     1      -9.370   7.711  71.363  1.00  0.00    -0.140 OA 
HETATM   28  C   UNL     1     -10.044   8.787  70.927  1.00  0.00    -0.219 C  
HETATM   29  O   UNL     1     -11.205   9.002  71.254  1.00  0.00    -0.265 OA 
ENDBRANCH   4  26
TORSDOF 1
ENDMDL
MODEL       68
REMARK 921   NORMALIZED FREE ENERGY PREDICTED BY IDOCK:   -3.89 KCAL/MOL
REMARK 922        TOTAL FREE ENERGY PREDICTED BY IDOCK:   -4.23 KCAL/MOL
REMARK 923 INTER-LIGAND FREE ENERGY PREDICTED BY IDOCK:   -3.96 KCAL/MOL
REMARK 924 INTRA-LIGAND FREE ENERGY PREDICTED BY IDOCK:   -0.27 KCAL/MOL
REMARK 927      BINDING AFFINITY PREDICTED BY RF-SCORE:    0.00 PKD
ROOT
HETATM    1  C   UNL     1      -6.826  11.078  68.682  1.00  0.00    -0.064 C  
HETATM    2  C   UNL     1      -6.665  12.369  67.565  1.00  0.00    -0.146 C  
HETATM    3  C   UNL     1      -8.326  10.982  68.498  1.00  0.00    -0.149 C  
HETATM    4  C   UNL     1      -7.489  13.689  68.043  1.00  0.00    -0.133 C  
HETATM    5  C   UNL     1      -8.388  10.007  67.317  1.00  0.00    -0.121 C  
HETATM    6  C   UNL     1      -5.303  12.863  67.105  1.00  0.00     0.227 C  
HETATM    7  C   UNL     1      -7.818   8.767  67.934  1.00  0.00    -0.102 C  
HETATM    8  C   UNL     1      -5.132   9.255  67.801  1.00  0.00    -0.033 C  
HETATM    9  C   UNL     1      -6.486   9.348  68.577  1.00  0.00    -0.053 C  
HETATM   10  C   UNL     1      -8.938   8.347  68.954  1.00  0.00    -0.146 C  
HETATM   11  O   UNL     1      -5.354   7.313  69.552  1.00  0.00    -0.015 OA 
HETATM   12  C   UNL     1     -10.307   8.320  68.332  1.00  0.00    -0.199 C  
HETATM   13  C   UNL     1      -6.311   8.098  69.664  1.00  0.00    -0.033 C  
HETATM   14  O   UNL     1     -10.546   7.945  67.187  1.00  0.00    -0.320 OA 
HETATM   15  C   UNL     1     -11.380   8.631  69.308  1.00  0.00     0.391 C  
HETATM   16  C   UNL     1     -11.459   7.282  70.036  1.00  0.00    -0.142 C  
HETATM   17  C   UNL     1     -12.798   7.209  70.736  1.00  0.00    -0.075 C  
HETATM   18  C   UNL     1     -12.808   7.974  72.028  1.00  0.00    -0.287 C  
HETATM   19  C   UNL     1     -11.564   7.956  72.887  1.00  0.00    -0.303 C  
HETATM   20  O   UNL     1     -13.858   8.459  72.452  1.00  0.00    -0.303 OA 
HETATM   21  C   UNL     1     -10.206   7.926  72.151  1.00  0.00    -0.286 C  
HETATM   22  C   UNL     1     -10.135   7.022  70.882  1.00  0.00    -0.204 C  
HETATM   23  C   UNL     1     -10.163   5.550  71.356  1.00  0.00    -0.275 C  
HETATM   24  C   UNL     1      -8.755   7.218  69.933  1.00  0.00    -0.141 C  
HETATM   25  C   UNL     1      -7.428   7.611  70.643  1.00  0.00    -0.072 C  
ENDROOT
BRANCH   4  26
HETATM   26  C   UNL     1      -7.898  14.723  66.962  1.00  0.00    -0.089 C  
HETATM   27  O   UNL     1      -9.759  15.409  65.599  1.00  0.00    -0.343 OA 
HETATM   28  C   UNL     1      -9.341  14.503  66.497  1.00  0.00    -0.284 C  
HETATM   29  O   UNL     1     -10.031  13.543  66.820  1.00  0.00    -0.255 OA 
ENDBRANCH   4  26
TORSDOF 1
ENDMDL
MODEL       69
REMARK 921   NORMALIZED FREE ENERGY PREDICTED BY IDOCK:   -3.86 KCAL/MOL
REMARK 922        TOTAL FREE ENERGY PREDICTED BY IDOCK:   -4.20 KCAL/MOL
REMARK 923 INTER-LIGAND FREE ENERGY PREDICTED BY IDOCK:   -4.06 KCAL/MOL
REMARK 924 INTRA-LIGAND FREE ENERGY PREDICTED BY IDOCK:   -0.14 KCAL/MOL
REMARK 927      BINDING AFFINITY PREDICTED BY RF-SCORE:    0.00 PKD
ROOT
HETATM    1  C   UNL     1      -7.283  12.218  66.847  1.00  0.00     0.042 C  
HETATM    2  C   UNL     1      -7.757  10.692  66.224  1.00  0.00    -0.143 C  
HETATM    3  C   UNL     1      -8.589  12.883  66.467  1.00  0.00     0.107 C  
HETATM    4  C   UNL     1      -8.039  10.754  64.623  1.00  0.00     0.114 C  
HETATM    5  C   UNL     1      -9.414  12.592  67.726  1.00  0.00    -0.197 C  
HETATM    6  C   UNL     1      -6.927   9.441  66.460  1.00  0.00    -0.084 C  
HETATM    7  C   UNL     1      -8.662  13.379  68.754  1.00  0.00     0.126 C  
HETATM    8  C   UNL     1      -6.585  11.703  69.340  1.00  0.00    -0.115 C  
HETATM    9  C   UNL     1      -7.182  12.868  68.487  1.00  0.00    -0.107 C  
HETATM   10  C   UNL     1      -8.955  14.864  68.329  1.00  0.00    -0.177 C  
HETATM   11  O   UNL     1      -5.815  14.037  70.259  1.00  0.00    -0.124 OA 
HETATM   12  C   UNL     1     -10.420  15.122  68.102  1.00  0.00    -0.245 C  
HETATM   13  C   UNL     1      -6.458  14.186  69.205  1.00  0.00    -0.111 C  
HETATM   14  O   UNL     1     -11.326  14.634  68.772  1.00  0.00    -0.254 OA 
HETATM   15  C   UNL     1     -10.659  16.176  67.086  1.00  0.00    -0.294 C  
HETATM   16  C   UNL     1     -10.360  17.420  67.934  1.00  0.00    -0.369 C  
HETATM   17  C   UNL     1     -11.002  18.610  67.256  1.00  0.00    -0.221 C  
HETATM   18  C   UNL     1     -10.179  19.124  66.110  1.00  0.00    -0.463 C  
HETATM   19  C   UNL     1      -8.673  19.116  66.242  1.00  0.00    -0.304 C  
HETATM   20  O   UNL     1     -10.725  19.691  65.162  1.00  0.00    -0.330 OA 
HETATM   21  C   UNL     1      -8.045  17.943  67.028  1.00  0.00    -0.238 C  
HETATM   22  C   UNL     1      -8.813  17.488  68.307  1.00  0.00    -0.274 C  
HETATM   23  C   UNL     1      -8.636  18.592  69.375  1.00  0.00     0.332 C  
HETATM   24  C   UNL     1      -8.284  16.040  68.988  1.00  0.00    -0.235 C  
HETATM   25  C   UNL     1      -6.778  15.674  68.854  1.00  0.00    -0.123 C  
ENDROOT
BRANCH   4  26
HETATM   26  C   UNL     1      -8.958   9.669  64.004  1.00  0.00    -0.261 C  
HETATM   27  O   UNL     1      -8.988   7.926  62.346  1.00  0.00     0.179 OA 
HETATM   28  C   UNL     1      -8.249   8.913  62.876  1.00  0.00    -0.190 C  
HETATM   29  O   UNL     1      -7.157   9.226  62.417  1.00  0.00    -0.102 OA 
ENDBRANCH   4  26
TORSDOF 1
ENDMDL
MODEL       70
REMARK 921   NORMALIZED FREE ENERGY PREDICTED BY IDOCK:   -3.68 KCAL/MOL
REMARK 922        TOTAL FREE ENERGY PREDICTED BY IDOCK:   -4.01 KCAL/MOL
REMARK 923 INTER-LIGAND FREE ENERGY PREDICTED BY IDOCK:   -3.78 KCAL/MOL
REMARK 924 INTRA-LIGAND FREE ENERGY PREDICTED BY IDOCK:   -0.22 KCAL/MOL
REMARK 927      BINDING AFFINITY PREDICTED BY RF-SCORE:    0.00 PKD
ROOT
HETATM    1  C   UNL     1      -7.739   7.360  70.647  1.00  0.00    -0.091 C  
HETATM    2  C   UNL     1      -8.417   7.231  72.217  1.00  0.00    -0.129 C  
HETATM    3  C   UNL     1      -8.538   6.194  70.104  1.00  0.00    -0.133 C  
HETATM    4  C   UNL     1      -8.072   5.798  72.908  1.00  0.00    -0.115 C  
HETATM    5  C   UNL     1      -9.805   6.927  69.649  1.00  0.00    -0.171 C  
HETATM    6  C   UNL     1      -8.171   8.285  73.282  1.00  0.00    -0.238 C  
HETATM    7  C   UNL     1      -9.263   7.793  68.555  1.00  0.00    -0.137 C  
HETATM    8  C   UNL     1      -8.182   9.871  69.963  1.00  0.00    -0.187 C  
HETATM    9  C   UNL     1      -8.030   8.464  69.299  1.00  0.00    -0.113 C  
HETATM   10  C   UNL     1      -8.896   6.746  67.441  1.00  0.00    -0.117 C  
HETATM   11  O   UNL     1      -7.092  10.062  67.584  1.00  0.00    -0.085 OA 
HETATM   12  C   UNL     1     -10.018   5.785  67.158  1.00  0.00    -0.159 C  
HETATM   13  C   UNL     1      -7.233   8.866  67.893  1.00  0.00    -0.083 C  
HETATM   14  O   UNL     1     -11.209   6.086  67.150  1.00  0.00    -0.236 OA 
HETATM   15  C   UNL     1      -9.529   4.458  66.710  1.00  0.00    -0.194 C  
HETATM   16  C   UNL     1      -9.175   4.795  65.255  1.00  0.00    -0.155 C  
HETATM   17  C   UNL     1      -9.117   3.498  64.479  1.00  0.00    -0.130 C  
HETATM   18  C   UNL     1      -7.821   2.768  64.687  1.00  0.00    -0.078 C  
HETATM   19  C   UNL     1      -6.548   3.576  64.803  1.00  0.00    -0.036 C  
HETATM   20  O   UNL     1      -7.781   1.540  64.592  1.00  0.00    -0.061 OA 
HETATM   21  C   UNL     1      -6.652   4.946  65.511  1.00  0.00    -0.041 C  
HETATM   22  C   UNL     1      -7.929   5.784  65.195  1.00  0.00    -0.119 C  
HETATM   23  C   UNL     1      -7.805   6.293  63.739  1.00  0.00    -0.111 C  
HETATM   24  C   UNL     1      -8.169   7.131  66.180  1.00  0.00    -0.128 C  
HETATM   25  C   UNL     1      -6.915   7.865  66.736  1.00  0.00    -0.073 C  
ENDROOT
BRANCH   4  26
HETATM   26  C   UNL     1      -9.002   5.295  74.042  1.00  0.00    -0.119 C  
HETATM   27  O   UNL     1     -11.061   4.110  74.425  1.00  0.00    -0.172 OA 
HETATM   28  C   UNL     1     -10.252   4.611  73.479  1.00  0.00    -0.174 C  
HETATM   29  O   UNL     1     -10.555   4.599  72.291  1.00  0.00    -0.196 OA 
ENDBRANCH   4  26
TORSDOF 1
ENDMDL
MODEL       71
REMARK 921   NORMALIZED FREE ENERGY PREDICTED BY IDOCK:   -3.65 KCAL/MOL
REMARK 922        TOTAL FREE ENERGY PREDICTED BY IDOCK:   -3.97 KCAL/MOL
REMARK 923 INTER-LIGAND FREE ENERGY PREDICTED BY IDOCK:   -3.82 KCAL/MOL
REMARK 924 INTRA-LIGAND FREE ENERGY PREDICTED BY IDOCK:   -0.15 KCAL/MOL
REMARK 927      BINDING AFFINITY PREDICTED BY RF-SCORE:    0.00 PKD
ROOT
HETATM    1  C   UNL     1      -8.225   8.735  66.227  1.00  0.00    -0.115 C  
HETATM    2  C   UNL     1      -9.495   9.812  65.816  1.00  0.00    -0.300 C  
HETATM    3  C   UNL     1      -8.996   8.114  67.372  1.00  0.00    -0.145 C  
HETATM    4  C   UNL     1      -9.836  10.837  67.034  1.00  0.00    -0.221 C  
HETATM    5  C   UNL     1      -9.737   7.001  66.622  1.00  0.00    -0.226 C  
HETATM    6  C   UNL     1      -9.450  10.655  64.552  1.00  0.00    -0.313 C  
HETATM    7  C   UNL     1      -8.595   6.138  66.181  1.00  0.00    -0.141 C  
HETATM    8  C   UNL     1      -7.702   7.471  63.969  1.00  0.00    -0.125 C  
HETATM    9  C   UNL     1      -7.650   7.225  65.512  1.00  0.00    -0.097 C  
HETATM   10  C   UNL     1      -8.081   5.533  67.538  1.00  0.00    -0.101 C  
HETATM   11  O   UNL     1      -5.723   5.869  64.605  1.00  0.00    -0.023 OA 
HETATM   12  C   UNL     1      -9.190   4.951  68.369  1.00  0.00    -0.124 C  
HETATM   13  C   UNL     1      -6.274   6.295  65.635  1.00  0.00    -0.037 C  
HETATM   14  O   UNL     1     -10.156   4.342  67.916  1.00  0.00    -0.046 OA 
HETATM   15  C   UNL     1      -8.912   5.033  69.824  1.00  0.00    -0.141 C  
HETATM   16  C   UNL     1      -7.921   3.869  69.960  1.00  0.00    -0.053 C  
HETATM   17  C   UNL     1      -7.878   3.462  71.416  1.00  0.00    -0.056 C  
HETATM   18  C   UNL     1      -7.010   4.373  72.236  1.00  0.00    -0.059 C  
HETATM   19  C   UNL     1      -5.739   4.909  71.617  1.00  0.00    -0.012 C  
HETATM   20  O   UNL     1      -7.245   4.538  73.435  1.00  0.00    -0.075 OA 
HETATM   21  C   UNL     1      -5.775   5.221  70.104  1.00  0.00    -0.016 C  
HETATM   22  C   UNL     1      -6.555   4.204  69.214  1.00  0.00    -0.040 C  
HETATM   23  C   UNL     1      -5.722   2.903  69.154  1.00  0.00    -0.022 C  
HETATM   24  C   UNL     1      -6.830   4.700  67.627  1.00  0.00    -0.059 C  
HETATM   25  C   UNL     1      -5.773   5.622  66.954  1.00  0.00    -0.017 C  
ENDROOT
BRANCH   4  26
HETATM   26  C   UNL     1     -11.242  11.489  67.063  1.00  0.00    -0.365 C  
HETATM   27  O   UNL     1     -12.353  13.617  66.893  1.00  0.00    -0.365 OA 
HETATM   28  C   UNL     1     -11.155  13.012  66.928  1.00  0.00    -0.277 C  
HETATM   29  O   UNL     1     -10.108  13.647  66.951  1.00  0.00    -0.251 OA 
ENDBRANCH   4  26
TORSDOF 1
ENDMDL
MODEL       72
REMARK 921   NORMALIZED FREE ENERGY PREDICTED BY IDOCK:   -3.58 KCAL/MOL
REMARK 922        TOTAL FREE ENERGY PREDICTED BY IDOCK:   -3.90 KCAL/MOL
REMARK 923 INTER-LIGAND FREE ENERGY PREDICTED BY IDOCK:   -3.82 KCAL/MOL
REMARK 924 INTRA-LIGAND FREE ENERGY PREDICTED BY IDOCK:   -0.08 KCAL/MOL
REMARK 927      BINDING AFFINITY PREDICTED BY RF-SCORE:    0.00 PKD
ROOT
HETATM    1  C   UNL     1      -9.537   9.088  67.353  1.00  0.00    -0.195 C  
HETATM    2  C   UNL     1     -10.485  10.401  66.791  1.00  0.00    -0.287 C  
HETATM    3  C   UNL     1      -9.516   9.593  68.781  1.00  0.00    -0.148 C  
HETATM    4  C   UNL     1      -9.724  11.826  66.990  1.00  0.00    -0.198 C  
HETATM    5  C   UNL     1     -10.794   8.937  69.315  1.00  0.00    -0.113 C  
HETATM    6  C   UNL     1     -11.065  10.424  65.386  1.00  0.00     0.649 C  
HETATM    7  C   UNL     1     -10.434   7.486  69.227  1.00  0.00    -0.216 C  
HETATM    8  C   UNL     1     -10.883   6.951  66.585  1.00  0.00    -0.096 C  
HETATM    9  C   UNL     1      -9.917   7.404  67.728  1.00  0.00    -0.208 C  
HETATM   10  C   UNL     1      -9.329   7.341  70.336  1.00  0.00    -0.158 C  
HETATM   11  O   UNL     1      -9.391   4.955  67.408  1.00  0.00    -0.121 OA 
HETATM   12  C   UNL     1      -9.748   7.937  71.652  1.00  0.00    -0.163 C  
HETATM   13  C   UNL     1      -9.040   6.008  67.969  1.00  0.00    -0.117 C  
HETATM   14  O   UNL     1     -10.886   7.888  72.110  1.00  0.00    -0.234 OA 
HETATM   15  C   UNL     1      -8.596   8.448  72.435  1.00  0.00    -0.261 C  
HETATM   16  C   UNL     1      -8.048   7.121  72.977  1.00  0.00    -0.121 C  
HETATM   17  C   UNL     1      -7.181   7.431  74.177  1.00  0.00    -0.117 C  
HETATM   18  C   UNL     1      -5.810   7.902  73.781  1.00  0.00    -0.067 C  
HETATM   19  C   UNL     1      -5.148   7.269  72.579  1.00  0.00    -0.036 C  
HETATM   20  O   UNL     1      -5.181   8.661  74.521  1.00  0.00    -0.086 OA 
HETATM   21  C   UNL     1      -6.068   6.865  71.405  1.00  0.00    -0.037 C  
HETATM   22  C   UNL     1      -7.442   6.240  71.797  1.00  0.00    -0.094 C  
HETATM   23  C   UNL     1      -7.167   4.826  72.361  1.00  0.00    -0.081 C  
HETATM   24  C   UNL     1      -8.544   6.071  70.532  1.00  0.00    -0.137 C  
HETATM   25  C   UNL     1      -7.985   5.808  69.104  1.00  0.00    -0.097 C  
ENDROOT
BRANCH   4  26
HETATM   26  C   UNL     1     -10.590  13.111  67.049  1.00  0.00    -0.259 C  
HETATM   27  O   UNL     1     -11.321  14.971  65.708  1.00  0.00    -0.337 OA 
HETATM   28  C   UNL     1     -10.542  13.878  65.724  1.00  0.00    -0.297 C  
HETATM   29  O   UNL     1      -9.795  13.599  64.793  1.00  0.00    -0.187 OA 
ENDBRANCH   4  26
TORSDOF 1
ENDMDL
MODEL       73
REMARK 921   NORMALIZED FREE ENERGY PREDICTED BY IDOCK:   -3.53 KCAL/MOL
REMARK 922        TOTAL FREE ENERGY PREDICTED BY IDOCK:   -3.84 KCAL/MOL
REMARK 923 INTER-LIGAND FREE ENERGY PREDICTED BY IDOCK:   -4.22 KCAL/MOL
REMARK 924 INTRA-LIGAND FREE ENERGY PREDICTED BY IDOCK:    0.39 KCAL/MOL
REMARK 927      BINDING AFFINITY PREDICTED BY RF-SCORE:    0.00 PKD
ROOT
HETATM    1  C   UNL     1      -8.506  10.361  66.718  1.00  0.00    -0.125 C  
HETATM    2  C   UNL     1      -9.311  11.871  66.839  1.00  0.00    -0.198 C  
HETATM    3  C   UNL     1      -9.223   9.777  67.917  1.00  0.00    -0.133 C  
HETATM    4  C   UNL     1      -8.986  12.618  68.248  1.00  0.00    -0.176 C  
HETATM    5  C   UNL     1     -10.467   9.202  67.231  1.00  0.00    -0.335 C  
HETATM    6  C   UNL     1      -9.186  12.931  65.758  1.00  0.00     0.219 C  
HETATM    7  C   UNL     1      -9.859   8.140  66.369  1.00  0.00    -0.261 C  
HETATM    8  C   UNL     1      -8.961   9.591  64.235  1.00  0.00    -0.248 C  
HETATM    9  C   UNL     1      -8.713   8.971  65.648  1.00  0.00    -0.205 C  
HETATM   10  C   UNL     1      -9.369   7.083  67.425  1.00  0.00    -0.141 C  
HETATM   11  O   UNL     1      -7.679   7.308  64.054  1.00  0.00    -0.110 OA 
HETATM   12  C   UNL     1     -10.436   6.726  68.424  1.00  0.00    -0.205 C  
HETATM   13  C   UNL     1      -7.811   7.629  65.248  1.00  0.00    -0.122 C  
HETATM   14  O   UNL     1     -11.630   6.612  68.159  1.00  0.00     0.038 OA 
HETATM   15  C   UNL     1      -9.873   6.349  69.744  1.00  0.00    -0.189 C  
HETATM   16  C   UNL     1      -9.407   4.922  69.423  1.00  0.00    -0.186 C  
HETATM   17  C   UNL     1      -9.246   4.181  70.732  1.00  0.00    -0.197 C  
HETATM   18  C   UNL     1      -7.952   4.512  71.418  1.00  0.00    -0.087 C  
HETATM   19  C   UNL     1      -6.718   4.718  70.571  1.00  0.00    -0.036 C  
HETATM   20  O   UNL     1      -7.870   4.446  72.646  1.00  0.00    -0.083 OA 
HETATM   21  C   UNL     1      -6.920   5.386  69.191  1.00  0.00    -0.056 C  
HETATM   22  C   UNL     1      -8.189   4.946  68.398  1.00  0.00    -0.084 C  
HETATM   23  C   UNL     1      -7.956   3.496  67.912  1.00  0.00    -0.079 C  
HETATM   24  C   UNL     1      -8.549   5.879  67.042  1.00  0.00    -0.110 C  
HETATM   25  C   UNL     1      -7.368   6.524  66.260  1.00  0.00    -0.073 C  
ENDROOT
BRANCH   4  26
HETATM   26  C   UNL     1      -9.994  13.680  68.758  1.00  0.00    -0.095 C  
HETATM   27  O   UNL     1     -12.347  14.060  69.089  1.00  0.00    -0.313 OA 
HETATM   28  C   UNL     1     -11.439  13.195  68.610  1.00  0.00    -0.305 C  
HETATM   29  O   UNL     1     -11.765  12.170  68.023  1.00  0.00    -0.331 OA 
ENDBRANCH   4  26
TORSDOF 1
ENDMDL
MODEL       74
REMARK 921   NORMALIZED FREE ENERGY PREDICTED BY IDOCK:   -3.32 KCAL/MOL
REMARK 922        TOTAL FREE ENERGY PREDICTED BY IDOCK:   -3.62 KCAL/MOL
REMARK 923 INTER-LIGAND FREE ENERGY PREDICTED BY IDOCK:   -3.61 KCAL/MOL
REMARK 924 INTRA-LIGAND FREE ENERGY PREDICTED BY IDOCK:   -0.01 KCAL/MOL
REMARK 927      BINDING AFFINITY PREDICTED BY RF-SCORE:    0.00 PKD
ROOT
HETATM    1  C   UNL     1      -9.602   6.943  71.287  1.00  0.00    -0.165 C  
HETATM    2  C   UNL     1     -10.098   5.942  72.589  1.00  0.00    -0.201 C  
HETATM    3  C   UNL     1      -9.377   5.774  70.352  1.00  0.00    -0.186 C  
HETATM    4  C   UNL     1      -8.914   4.926  73.054  1.00  0.00    -0.113 C  
HETATM    5  C   UNL     1     -10.781   5.637  69.752  1.00  0.00    -0.401 C  
HETATM    6  C   UNL     1     -10.682   6.524  73.865  1.00  0.00    -0.135 C  
HETATM    7  C   UNL     1     -10.907   6.932  69.011  1.00  0.00    -0.247 C  
HETATM    8  C   UNL     1     -11.585   8.664  71.013  1.00  0.00    -0.325 C  
HETATM    9  C   UNL     1     -10.490   7.960  70.148  1.00  0.00    -0.231 C  
HETATM   10  C   UNL     1      -9.873   6.758  67.840  1.00  0.00    -0.146 C  
HETATM   11  O   UNL     1     -10.785  10.217  69.054  1.00  0.00    -0.201 OA 
HETATM   12  C   UNL     1     -10.039   5.452  67.112  1.00  0.00    -0.198 C  
HETATM   13  C   UNL     1     -10.099   9.180  69.083  1.00  0.00    -0.194 C  
HETATM   14  O   UNL     1     -11.118   4.918  66.872  1.00  0.00     0.322 OA 
HETATM   15  C   UNL     1      -8.760   4.950  66.550  1.00  0.00    -0.112 C  
HETATM   16  C   UNL     1      -8.650   5.859  65.318  1.00  0.00    -0.119 C  
HETATM   17  C   UNL     1      -7.692   5.208  64.344  1.00  0.00    -0.087 C  
HETATM   18  C   UNL     1      -6.256   5.441  64.717  1.00  0.00    -0.029 C  
HETATM   19  C   UNL     1      -5.869   6.783  65.294  1.00  0.00    -0.035 C  
HETATM   20  O   UNL     1      -5.395   4.619  64.401  1.00  0.00    -0.012 OA 
HETATM   21  C   UNL     1      -6.905   7.479  66.205  1.00  0.00    -0.061 C  
HETATM   22  C   UNL     1      -8.395   7.369  65.755  1.00  0.00    -0.141 C  
HETATM   23  C   UNL     1      -8.569   8.256  64.500  1.00  0.00     0.033 C  
HETATM   24  C   UNL     1      -9.530   7.877  66.892  1.00  0.00    -0.243 C  
HETATM   25  C   UNL     1      -9.129   9.020  67.868  1.00  0.00    -0.141 C  
ENDROOT
BRANCH   4  26
HETATM   26  C   UNL     1      -9.321   3.633  73.808  1.00  0.00    -0.111 C  
HETATM   27  O   UNL     1     -10.434   1.523  73.497  1.00  0.00    -0.089 OA 
HETATM   28  C   UNL     1     -10.107   2.681  72.902  1.00  0.00    -0.142 C  
HETATM   29  O   UNL     1     -10.499   2.967  71.777  1.00  0.00     0.096 OA 
ENDBRANCH   4  26
TORSDOF 1
ENDMDL
MODEL       75
REMARK 921   NORMALIZED FREE ENERGY PREDICTED BY IDOCK:   -3.26 KCAL/MOL
REMARK 922        TOTAL FREE ENERGY PREDICTED BY IDOCK:   -3.56 KCAL/MOL
REMARK 923 INTER-LIGAND FREE ENERGY PREDICTED BY IDOCK:   -3.57 KCAL/MOL
REMARK 924 INTRA-LIGAND FREE ENERGY PREDICTED BY IDOCK:    0.02 KCAL/MOL
REMARK 927      BINDING AFFINITY PREDICTED BY RF-SCORE:    0.00 PKD
ROOT
HETATM    1  C   UNL     1      -7.416   8.796  67.012  1.00  0.00    -0.091 C  
HETATM    2  C   UNL     1      -8.272  10.282  66.987  1.00  0.00    -0.122 C  
HETATM    3  C   UNL     1      -8.582   8.027  67.598  1.00  0.00    -0.130 C  
HETATM    4  C   UNL     1      -8.708  10.754  68.482  1.00  0.00    -0.149 C  
HETATM    5  C   UNL     1      -9.307   7.620  66.310  1.00  0.00    -0.189 C  
HETATM    6  C   UNL     1      -7.711  11.515  66.299  1.00  0.00     0.070 C  
HETATM    7  C   UNL     1      -8.296   6.713  65.681  1.00  0.00    -0.144 C  
HETATM    8  C   UNL     1      -6.577   8.497  64.527  1.00  0.00    -0.066 C  
HETATM    9  C   UNL     1      -6.999   7.627  65.755  1.00  0.00    -0.060 C  
HETATM   10  C   UNL     1      -8.307   5.470  66.644  1.00  0.00    -0.109 C  
HETATM   11  O   UNL     1      -5.227   6.248  64.600  1.00  0.00    -0.016 OA 
HETATM   12  C   UNL     1      -9.697   4.970  66.927  1.00  0.00    -0.168 C  
HETATM   13  C   UNL     1      -5.934   6.353  65.617  1.00  0.00    -0.029 C  
HETATM   14  O   UNL     1     -10.609   4.940  66.105  1.00  0.00    -0.309 OA 
HETATM   15  C   UNL     1      -9.813   4.346  68.268  1.00  0.00    -0.132 C  
HETATM   16  C   UNL     1      -9.163   2.987  67.973  1.00  0.00    -0.248 C  
HETATM   17  C   UNL     1      -9.603   2.019  69.048  1.00  0.00    -0.078 C  
HETATM   18  C   UNL     1      -8.819   2.184  70.319  1.00  0.00    -0.072 C  
HETATM   19  C   UNL     1      -7.345   2.504  70.221  1.00  0.00    -0.036 C  
HETATM   20  O   UNL     1      -9.331   1.897  71.402  1.00  0.00    -0.091 OA 
HETATM   21  C   UNL     1      -6.903   3.414  69.052  1.00  0.00    -0.045 C  
HETATM   22  C   UNL     1      -7.607   3.161  67.683  1.00  0.00    -0.061 C  
HETATM   23  C   UNL     1      -7.081   1.815  67.130  1.00  0.00    -0.043 C  
HETATM   24  C   UNL     1      -7.331   4.332  66.504  1.00  0.00    -0.080 C  
HETATM   25  C   UNL     1      -5.962   5.072  66.512  1.00  0.00    -0.023 C  
ENDROOT
BRANCH   4  26
HETATM   26  C   UNL     1      -9.901  11.736  68.615  1.00  0.00    -0.153 C  
HETATM   27  O   UNL     1     -12.282  11.886  68.301  1.00  0.00    -0.447 OA 
HETATM   28  C   UNL     1     -11.211  11.091  68.152  1.00  0.00    -0.302 C  
HETATM   29  O   UNL     1     -11.284   9.998  67.603  1.00  0.00    -0.248 OA 
ENDBRANCH   4  26
TORSDOF 1
ENDMDL
MODEL       76
REMARK 921   NORMALIZED FREE ENERGY PREDICTED BY IDOCK:   -3.20 KCAL/MOL
REMARK 922        TOTAL FREE ENERGY PREDICTED BY IDOCK:   -3.50 KCAL/MOL
REMARK 923 INTER-LIGAND FREE ENERGY PREDICTED BY IDOCK:   -3.38 KCAL/MOL
REMARK 924 INTRA-LIGAND FREE ENERGY PREDICTED BY IDOCK:   -0.11 KCAL/MOL
REMARK 927      BINDING AFFINITY PREDICTED BY RF-SCORE:    0.00 PKD
ROOT
HETATM    1  C   UNL     1      -8.562   9.128  67.255  1.00  0.00    -0.118 C  
HETATM    2  C   UNL     1      -9.069  10.755  67.062  1.00  0.00    -0.155 C  
HETATM    3  C   UNL     1      -9.125   8.696  65.917  1.00  0.00    -0.259 C  
HETATM    4  C   UNL     1     -10.688  10.874  66.943  1.00  0.00    -0.318 C  
HETATM    5  C   UNL     1      -7.925   8.994  65.012  1.00  0.00    -0.123 C  
HETATM    6  C   UNL     1      -8.633  11.847  68.025  1.00  0.00    -0.168 C  
HETATM    7  C   UNL     1      -6.917   8.020  65.537  1.00  0.00    -0.059 C  
HETATM    8  C   UNL     1      -5.976   9.318  67.751  1.00  0.00    -0.053 C  
HETATM    9  C   UNL     1      -6.994   8.331  67.093  1.00  0.00    -0.075 C  
HETATM   10  C   UNL     1      -7.514   6.636  65.090  1.00  0.00    -0.087 C  
HETATM   11  O   UNL     1      -5.231   6.825  68.094  1.00  0.00    -0.010 OA 
HETATM   12  C   UNL     1      -7.899   6.615  63.637  1.00  0.00    -0.109 C  
HETATM   13  C   UNL     1      -6.349   6.865  67.551  1.00  0.00    -0.045 C  
HETATM   14  O   UNL     1      -7.270   7.170  62.740  1.00  0.00    -0.060 OA 
HETATM   15  C   UNL     1      -9.034   5.699  63.364  1.00  0.00     0.430 C  
HETATM   16  C   UNL     1      -8.291   4.356  63.399  1.00  0.00    -0.104 C  
HETATM   17  C   UNL     1      -9.142   3.336  62.676  1.00  0.00    -0.091 C  
HETATM   18  C   UNL     1     -10.254   2.809  63.537  1.00  0.00    -0.171 C  
HETATM   19  C   UNL     1      -9.984   2.586  65.008  1.00  0.00     0.349 C  
HETATM   20  O   UNL     1     -11.300   2.412  63.021  1.00  0.00    -0.272 OA 
HETATM   21  C   UNL     1      -9.030   3.582  65.703  1.00  0.00    -0.139 C  
HETATM   22  C   UNL     1      -7.787   4.032  64.874  1.00  0.00    -0.089 C  
HETATM   23  C   UNL     1      -6.824   2.825  64.785  1.00  0.00    -0.041 C  
HETATM   24  C   UNL     1      -6.918   5.322  65.522  1.00  0.00    -0.065 C  
HETATM   25  C   UNL     1      -6.876   5.475  67.070  1.00  0.00    -0.064 C  
ENDROOT
BRANCH   4  26
HETATM   26  C   UNL     1     -11.276  12.131  66.251  1.00  0.00    -0.382 C  
HETATM   27  O   UNL     1     -12.347  14.233  66.724  1.00  0.00    -0.429 OA 
HETATM   28  C   UNL     1     -11.874  13.103  67.273  1.00  0.00    -0.367 C  
HETATM   29  O   UNL     1     -12.012  12.852  68.464  1.00  0.00    -0.309 OA 
ENDBRANCH   4  26
TORSDOF 1
ENDMDL
MODEL       77
REMARK 921   NORMALIZED FREE ENERGY PREDICTED BY IDOCK:   -2.99 KCAL/MOL
REMARK 922        TOTAL FREE ENERGY PREDICTED BY IDOCK:   -3.28 KCAL/MOL
REMARK 923 INTER-LIGAND FREE ENERGY PREDICTED BY IDOCK:   -3.03 KCAL/MOL
REMARK 924 INTRA-LIGAND FREE ENERGY PREDICTED BY IDOCK:   -0.25 KCAL/MOL
REMARK 927      BINDING AFFINITY PREDICTED BY RF-SCORE:    0.00 PKD
ROOT
HETATM    1  C   UNL     1      -8.941   7.224  67.103  1.00  0.00    -0.132 C  
HETATM    2  C   UNL     1      -9.568   8.746  66.620  1.00  0.00    -0.283 C  
HETATM    3  C   UNL     1      -9.011   7.558  68.578  1.00  0.00    -0.128 C  
HETATM    4  C   UNL     1      -8.600   9.971  67.080  1.00  0.00    -0.128 C  
HETATM    5  C   UNL     1     -10.441   7.100  68.888  1.00  0.00    -0.218 C  
HETATM    6  C   UNL     1      -9.954   9.029  65.178  1.00  0.00     0.705 C  
HETATM    7  C   UNL     1     -10.332   5.626  68.651  1.00  0.00    -0.277 C  
HETATM    8  C   UNL     1     -10.533   5.475  65.930  1.00  0.00     0.063 C  
HETATM    9  C   UNL     1      -9.654   5.611  67.215  1.00  0.00    -0.125 C  
HETATM   10  C   UNL     1      -9.416   5.156  69.840  1.00  0.00    -0.221 C  
HETATM   11  O   UNL     1      -9.528   3.156  66.636  1.00  0.00    -0.152 OA 
HETATM   12  C   UNL     1      -9.886   5.674  71.171  1.00  0.00    -0.177 C  
HETATM   13  C   UNL     1      -9.071   4.058  67.362  1.00  0.00    -0.150 C  
HETATM   14  O   UNL     1     -11.064   5.791  71.499  1.00  0.00    -0.265 OA 
HETATM   15  C   UNL     1      -8.770   5.871  72.129  1.00  0.00    -0.136 C  
HETATM   16  C   UNL     1      -8.535   4.413  72.548  1.00  0.00    -0.109 C  
HETATM   17  C   UNL     1      -7.783   4.422  73.860  1.00  0.00    -0.085 C  
HETATM   18  C   UNL     1      -6.313   4.666  73.673  1.00  0.00    -0.047 C  
HETATM   19  C   UNL     1      -5.627   4.054  72.474  1.00  0.00     0.000 C  
HETATM   20  O   UNL     1      -5.658   5.208  74.565  1.00  0.00    -0.031 OA 
HETATM   21  C   UNL     1      -6.449   3.961  71.168  1.00  0.00    -0.026 C  
HETATM   22  C   UNL     1      -7.949   3.567  71.332  1.00  0.00    -0.060 C  
HETATM   23  C   UNL     1      -7.998   2.074  71.733  1.00  0.00    -0.044 C  
HETATM   24  C   UNL     1      -8.896   3.747  69.949  1.00  0.00    -0.147 C  
HETATM   25  C   UNL     1      -8.218   3.540  68.564  1.00  0.00    -0.084 C  
ENDROOT
BRANCH   4  26
HETATM   26  C   UNL     1      -9.229  11.382  67.215  1.00  0.00    -0.167 C  
HETATM   27  O   UNL     1     -10.355  12.818  68.783  1.00  0.00    -0.208 OA 
HETATM   28  C   UNL     1      -9.846  11.589  68.601  1.00  0.00    -0.177 C  
HETATM   29  O   UNL     1      -9.968  10.705  69.440  1.00  0.00    -0.216 OA 
ENDBRANCH   4  26
TORSDOF 1
ENDMDL
MODEL       78
REMARK 921   NORMALIZED FREE ENERGY PREDICTED BY IDOCK:   -2.98 KCAL/MOL
REMARK 922        TOTAL FREE ENERGY PREDICTED BY IDOCK:   -3.26 KCAL/MOL
REMARK 923 INTER-LIGAND FREE ENERGY PREDICTED BY IDOCK:   -3.12 KCAL/MOL
REMARK 924 INTRA-LIGAND FREE ENERGY PREDICTED BY IDOCK:   -0.14 KCAL/MOL
REMARK 927      BINDING AFFINITY PREDICTED BY RF-SCORE:    0.00 PKD
ROOT
HETATM    1  C   UNL     1      -9.593   9.467  68.369  1.00  0.00    -0.152 C  
HETATM    2  C   UNL     1      -9.829  11.020  67.681  1.00  0.00    -0.192 C  
HETATM    3  C   UNL     1      -9.140   8.853  67.061  1.00  0.00    -0.161 C  
HETATM    4  C   UNL     1     -10.966  10.999  66.517  1.00  0.00    -0.228 C  
HETATM    5  C   UNL     1      -7.637   9.147  67.135  1.00  0.00    -0.091 C  
HETATM    6  C   UNL     1     -10.124  12.238  68.541  1.00  0.00    -0.192 C  
HETATM    7  C   UNL     1      -7.236   8.315  68.313  1.00  0.00    -0.093 C  
HETATM    8  C   UNL     1      -7.973   9.909  70.406  1.00  0.00    -0.044 C  
HETATM    9  C   UNL     1      -8.316   8.781  69.380  1.00  0.00    -0.117 C  
HETATM   10  C   UNL     1      -7.407   6.849  67.770  1.00  0.00    -0.097 C  
HETATM   11  O   UNL     1      -7.667   7.533  71.476  1.00  0.00    -0.083 OA 
HETATM   12  C   UNL     1      -6.738   6.644  66.438  1.00  0.00    -0.053 C  
HETATM   13  C   UNL     1      -8.149   7.427  70.335  1.00  0.00    -0.108 C  
HETATM   14  O   UNL     1      -5.667   7.149  66.109  1.00  0.00    -0.029 OA 
HETATM   15  C   UNL     1      -7.422   5.619  65.612  1.00  0.00    -0.074 C  
HETATM   16  C   UNL     1      -6.902   4.349  66.300  1.00  0.00    -0.058 C  
HETATM   17  C   UNL     1      -7.076   3.195  65.339  1.00  0.00    -0.062 C  
HETATM   18  C   UNL     1      -8.486   2.678  65.321  1.00  0.00    -0.099 C  
HETATM   19  C   UNL     1      -9.255   2.632  66.622  1.00  0.00    -0.094 C  
HETATM   20  O   UNL     1      -8.937   2.148  64.304  1.00  0.00    -0.098 OA 
HETATM   21  C   UNL     1      -8.984   3.768  67.634  1.00  0.00    -0.158 C  
HETATM   22  C   UNL     1      -7.499   4.223  67.771  1.00  0.00    -0.069 C  
HETATM   23  C   UNL     1      -6.729   3.092  68.494  1.00  0.00    -0.044 C  
HETATM   24  C   UNL     1      -7.257   5.639  68.653  1.00  0.00    -0.078 C  
HETATM   25  C   UNL     1      -8.244   5.957  69.814  1.00  0.00    -0.113 C  
ENDROOT
BRANCH   4  26
HETATM   26  C   UNL     1     -10.939  12.126  65.453  1.00  0.00    -0.346 C  
HETATM   27  O   UNL     1     -12.257  13.932  64.564  1.00  0.00    -0.429 OA 
HETATM   28  C   UNL     1     -12.254  12.910  65.434  1.00  0.00    -0.478 C  
HETATM   29  O   UNL     1     -13.255  12.592  66.066  1.00  0.00     0.723 OA 
ENDBRANCH   4  26
TORSDOF 1
ENDMDL
MODEL       79
REMARK 921   NORMALIZED FREE ENERGY PREDICTED BY IDOCK:   -2.45 KCAL/MOL
REMARK 922        TOTAL FREE ENERGY PREDICTED BY IDOCK:   -2.69 KCAL/MOL
REMARK 923 INTER-LIGAND FREE ENERGY PREDICTED BY IDOCK:   -2.44 KCAL/MOL
REMARK 924 INTRA-LIGAND FREE ENERGY PREDICTED BY IDOCK:   -0.26 KCAL/MOL
REMARK 927      BINDING AFFINITY PREDICTED BY RF-SCORE:    0.00 PKD
ROOT
HETATM    1  C   UNL     1      -6.319   8.537  69.734  1.00  0.00    -0.035 C  
HETATM    2  C   UNL     1      -7.011   8.037  71.222  1.00  0.00    -0.056 C  
HETATM    3  C   UNL     1      -7.193   7.615  68.910  1.00  0.00    -0.081 C  
HETATM    4  C   UNL     1      -6.767   6.452  71.499  1.00  0.00    -0.055 C  
HETATM    5  C   UNL     1      -8.405   8.526  68.686  1.00  0.00    -0.123 C  
HETATM    6  C   UNL     1      -6.698   8.749  72.527  1.00  0.00     0.017 C  
HETATM    7  C   UNL     1      -7.800   9.615  67.856  1.00  0.00    -0.087 C  
HETATM    8  C   UNL     1      -6.587  11.163  69.754  1.00  0.00    -0.138 C  
HETATM    9  C   UNL     1      -6.528   9.979  68.735  1.00  0.00    -0.045 C  
HETATM   10  C   UNL     1      -7.500   8.883  66.498  1.00  0.00    -0.088 C  
HETATM   11  O   UNL     1      -5.476  11.912  67.497  1.00  0.00    -0.063 OA 
HETATM   12  C   UNL     1      -8.684   8.111  65.983  1.00  0.00    -0.156 C  
HETATM   13  C   UNL     1      -5.699  10.688  67.477  1.00  0.00    -0.044 C  
HETATM   14  O   UNL     1      -9.852   8.481  66.074  1.00  0.00    -0.212 OA 
HETATM   15  C   UNL     1      -8.285   6.922  65.190  1.00  0.00    -0.115 C  
HETATM   16  C   UNL     1      -7.903   7.612  63.874  1.00  0.00    -0.122 C  
HETATM   17  C   UNL     1      -7.929   6.570  62.778  1.00  0.00    -0.092 C  
HETATM   18  C   UNL     1      -6.686   5.726  62.765  1.00  0.00    -0.036 C  
HETATM   19  C   UNL     1      -5.363   6.386  63.076  1.00  0.00    -0.018 C  
HETATM   20  O   UNL     1      -6.730   4.568  62.344  1.00  0.00    -0.026 OA 
HETATM   21  C   UNL     1      -5.376   7.520  64.125  1.00  0.00    -0.029 C  
HETATM   22  C   UNL     1      -6.591   8.496  64.063  1.00  0.00    -0.075 C  
HETATM   23  C   UNL     1      -6.426   9.367  62.795  1.00  0.00    -0.097 C  
HETATM   24  C   UNL     1      -6.743   9.542  65.375  1.00  0.00    -0.081 C  
HETATM   25  C   UNL     1      -5.444  10.015  66.090  1.00  0.00    -0.050 C  
ENDROOT
BRANCH   4  26
HETATM   26  C   UNL     1      -7.735   5.727  72.471  1.00  0.00    -0.102 C  
HETATM   27  O   UNL     1      -9.799   4.493  72.525  1.00  0.00    -0.149 OA 
HETATM   28  C   UNL     1      -8.959   5.177  71.733  1.00  0.00    -0.134 C  
HETATM   29  O   UNL     1      -9.219   5.412  70.559  1.00  0.00    -0.141 OA 
ENDBRANCH   4  26
TORSDOF 1
ENDMDL
MODEL       80
REMARK 921   NORMALIZED FREE ENERGY PREDICTED BY IDOCK:   -2.40 KCAL/MOL
REMARK 922        TOTAL FREE ENERGY PREDICTED BY IDOCK:   -2.64 KCAL/MOL
REMARK 923 INTER-LIGAND FREE ENERGY PREDICTED BY IDOCK:   -2.64 KCAL/MOL
REMARK 924 INTRA-LIGAND FREE ENERGY PREDICTED BY IDOCK:   -0.01 KCAL/MOL
REMARK 927      BINDING AFFINITY PREDICTED BY RF-SCORE:    0.00 PKD
ROOT
HETATM    1  C   UNL     1      -7.645   9.815  68.815  1.00  0.00    -0.076 C  
HETATM    2  C   UNL     1      -7.631  10.384  67.198  1.00  0.00    -0.096 C  
HETATM    3  C   UNL     1      -7.729   8.361  68.402  1.00  0.00    -0.105 C  
HETATM    4  C   UNL     1      -8.997   9.987  66.405  1.00  0.00    -0.164 C  
HETATM    5  C   UNL     1      -6.238   8.034  68.268  1.00  0.00    -0.049 C  
HETATM    6  C   UNL     1      -7.358  11.842  66.866  1.00  0.00    -0.104 C  
HETATM    7  C   UNL     1      -5.779   8.188  69.685  1.00  0.00    -0.026 C  
HETATM    8  C   UNL     1      -5.493  10.898  69.893  1.00  0.00    -0.050 C  
HETATM    9  C   UNL     1      -6.379   9.618  70.032  1.00  0.00    -0.059 C  
HETATM   10  C   UNL     1      -6.468   6.970  70.402  1.00  0.00    -0.043 C  
HETATM   11  O   UNL     1      -5.561  10.059  72.379  1.00  0.00    -0.294 OA 
HETATM   12  C   UNL     1      -6.250   5.672  69.674  1.00  0.00    -0.029 C  
HETATM   13  C   UNL     1      -6.335   9.382  71.680  1.00  0.00     0.060 C  
HETATM   14  O   UNL     1      -5.208   5.358  69.104  1.00  0.00     0.000 OA 
HETATM   15  C   UNL     1      -7.372   4.721  69.863  1.00  0.00    -0.055 C  
HETATM   16  C   UNL     1      -7.047   4.221  71.277  1.00  0.00    -0.039 C  
HETATM   17  C   UNL     1      -7.767   2.906  71.482  1.00  0.00    -0.048 C  
HETATM   18  C   UNL     1      -9.217   3.099  71.821  1.00  0.00    -0.113 C  
HETATM   19  C   UNL     1      -9.603   4.258  72.710  1.00  0.00    -0.167 C  
HETATM   20  O   UNL     1     -10.042   2.234  71.520  1.00  0.00    -0.126 OA 
HETATM   21  C   UNL     1      -8.786   5.561  72.556  1.00  0.00    -0.130 C  
HETATM   22  C   UNL     1      -7.251   5.384  72.345  1.00  0.00    -0.093 C  
HETATM   23  C   UNL     1      -6.649   4.901  73.685  1.00  0.00    -0.067 C  
HETATM   24  C   UNL     1      -6.420   6.780  71.895  1.00  0.00    -0.049 C  
HETATM   25  C   UNL     1      -6.949   8.148  72.416  1.00  0.00    -0.098 C  
ENDROOT
BRANCH   4  26
HETATM   26  C   UNL     1      -8.949   9.935  64.856  1.00  0.00    -0.246 C  
HETATM   27  O   UNL     1      -8.024   8.676  63.026  1.00  0.00    -0.145 OA 
HETATM   28  C   UNL     1      -8.053   8.795  64.363  1.00  0.00    -0.155 C  
HETATM   29  O   UNL     1      -7.342   8.112  65.092  1.00  0.00    -0.073 OA 
ENDBRANCH   4  26
TORSDOF 1
ENDMDL
MODEL       81
REMARK 921   NORMALIZED FREE ENERGY PREDICTED BY IDOCK:   -2.06 KCAL/MOL
REMARK 922        TOTAL FREE ENERGY PREDICTED BY IDOCK:   -2.29 KCAL/MOL
REMARK 923 INTER-LIGAND FREE ENERGY PREDICTED BY IDOCK:   -2.19 KCAL/MOL
REMARK 924 INTRA-LIGAND FREE ENERGY PREDICTED BY IDOCK:   -0.09 KCAL/MOL
REMARK 927      BINDING AFFINITY PREDICTED BY RF-SCORE:    0.00 PKD
ROOT
HETATM    1  C   UNL     1      -7.699  10.281  68.721  1.00  0.00    -0.096 C  
HETATM    2  C   UNL     1      -7.390  10.581  67.061  1.00  0.00    -0.099 C  
HETATM    3  C   UNL     1      -8.736   9.216  68.432  1.00  0.00    -0.129 C  
HETATM    4  C   UNL     1      -8.716  11.124  66.288  1.00  0.00    -0.183 C  
HETATM    5  C   UNL     1      -7.833   7.981  68.346  1.00  0.00    -0.122 C  
HETATM    6  C   UNL     1      -6.243  11.470  66.610  1.00  0.00    -0.113 C  
HETATM    7  C   UNL     1      -7.320   7.898  69.750  1.00  0.00    -0.078 C  
HETATM    8  C   UNL     1      -5.317   9.756  69.730  1.00  0.00    -0.033 C  
HETATM    9  C   UNL     1      -6.818   9.389  69.966  1.00  0.00    -0.067 C  
HETATM   10  C   UNL     1      -8.605   7.490  70.559  1.00  0.00    -0.138 C  
HETATM   11  O   UNL     1      -5.802   9.352  72.277  1.00  0.00    -0.219 OA 
HETATM   12  C   UNL     1      -9.326   6.320  69.949  1.00  0.00    -0.150 C  
HETATM   13  C   UNL     1      -6.862   9.302  71.628  1.00  0.00     0.132 C  
HETATM   14  O   UNL     1      -8.775   5.358  69.421  1.00  0.00    -0.104 OA 
HETATM   15  C   UNL     1     -10.788   6.359  70.204  1.00  0.00    -0.355 C  
HETATM   16  C   UNL     1     -10.805   5.873  71.659  1.00  0.00    -0.321 C  
HETATM   17  C   UNL     1     -12.199   5.376  71.967  1.00  0.00     0.732 C  
HETATM   18  C   UNL     1     -13.150   6.498  72.270  1.00  0.00     0.212 C  
HETATM   19  C   UNL     1     -12.638   7.687  73.052  1.00  0.00     0.820 C  
HETATM   20  O   UNL     1     -14.353   6.371  72.033  1.00  0.00    -0.103 OA 
HETATM   21  C   UNL     1     -11.175   8.114  72.796  1.00  0.00    -0.407 C  
HETATM   22  C   UNL     1     -10.144   6.957  72.621  1.00  0.00    -0.195 C  
HETATM   23  C   UNL     1      -9.945   6.296  74.005  1.00  0.00    -0.274 C  
HETATM   24  C   UNL     1      -8.624   7.424  72.064  1.00  0.00    -0.120 C  
HETATM   25  C   UNL     1      -8.100   8.835  72.459  1.00  0.00     0.090 C  
ENDROOT
BRANCH   4  26
HETATM   26  C   UNL     1      -8.788  10.941  64.750  1.00  0.00    -0.111 C  
HETATM   27  O   UNL     1      -9.963  11.714  62.798  1.00  0.00    -0.263 OA 
HETATM   28  C   UNL     1      -9.899  11.798  64.136  1.00  0.00    -0.223 C  
HETATM   29  O   UNL     1     -10.725  12.426  64.788  1.00  0.00    -0.276 OA 
ENDBRANCH   4  26
TORSDOF 1
ENDMDL
MODEL       82
REMARK 921   NORMALIZED FREE ENERGY PREDICTED BY IDOCK:   -1.93 KCAL/MOL
REMARK 922        TOTAL FREE ENERGY PREDICTED BY IDOCK:   -2.15 KCAL/MOL
REMARK 923 INTER-LIGAND FREE ENERGY PREDICTED BY IDOCK:   -2.04 KCAL/MOL
REMARK 924 INTRA-LIGAND FREE ENERGY PREDICTED BY IDOCK:   -0.10 KCAL/MOL
REMARK 927      BINDING AFFINITY PREDICTED BY RF-SCORE:    0.00 PKD
ROOT
HETATM    1  C   UNL     1      -6.298  10.253  67.328  1.00  0.00    -0.066 C  
HETATM    2  C   UNL     1      -6.113  11.952  67.471  1.00  0.00    -0.100 C  
HETATM    3  C   UNL     1      -7.502  10.212  68.246  1.00  0.00    -0.082 C  
HETATM    4  C   UNL     1      -5.806  12.399  69.006  1.00  0.00    -0.070 C  
HETATM    5  C   UNL     1      -8.623  10.450  67.227  1.00  0.00    -0.126 C  
HETATM    6  C   UNL     1      -5.137  12.726  66.601  1.00  0.00     0.988 C  
HETATM    7  C   UNL     1      -8.517   9.216  66.386  1.00  0.00    -0.129 C  
HETATM    8  C   UNL     1      -6.440   9.843  64.724  1.00  0.00    -0.120 C  
HETATM    9  C   UNL     1      -6.963   9.219  66.059  1.00  0.00    -0.089 C  
HETATM   10  C   UNL     1      -9.002   8.090  67.370  1.00  0.00    -0.141 C  
HETATM   11  O   UNL     1      -6.669   7.236  64.524  1.00  0.00    -0.042 OA 
HETATM   12  C   UNL     1     -10.300   8.433  68.047  1.00  0.00    -0.215 C  
HETATM   13  C   UNL     1      -6.904   7.596  65.691  1.00  0.00    -0.049 C  
HETATM   14  O   UNL     1     -11.233   9.025  67.511  1.00  0.00     0.118 OA 
HETATM   15  C   UNL     1     -10.415   7.824  69.396  1.00  0.00    -0.221 C  
HETATM   16  C   UNL     1     -10.767   6.385  68.995  1.00  0.00    -0.339 C  
HETATM   17  C   UNL     1     -11.398   5.710  70.193  1.00  0.00     0.149 C  
HETATM   18  C   UNL     1     -10.375   5.245  71.189  1.00  0.00    -0.221 C  
HETATM   19  C   UNL     1      -9.069   4.685  70.675  1.00  0.00    -0.181 C  
HETATM   20  O   UNL     1     -10.667   5.166  72.384  1.00  0.00    -0.215 OA 
HETATM   21  C   UNL     1      -8.493   5.322  69.390  1.00  0.00    -0.094 C  
HETATM   22  C   UNL     1      -9.529   5.682  68.280  1.00  0.00    -0.132 C  
HETATM   23  C   UNL     1     -10.034   4.356  67.666  1.00  0.00    -0.111 C  
HETATM   24  C   UNL     1      -8.934   6.627  67.018  1.00  0.00    -0.120 C  
HETATM   25  C   UNL     1      -7.441   6.456  66.616  1.00  0.00    -0.083 C  
ENDROOT
BRANCH   4  26
HETATM   26  C   UNL     1      -6.134  13.858  69.418  1.00  0.00    -0.104 C  
HETATM   27  O   UNL     1      -5.823  15.443  71.201  1.00  0.00     0.078 OA 
HETATM   28  C   UNL     1      -5.610  14.173  70.822  1.00  0.00    -0.173 C  
HETATM   29  O   UNL     1      -5.133  13.339  71.583  1.00  0.00    -0.155 OA 
ENDBRANCH   4  26
TORSDOF 1
ENDMDL
MODEL       83
REMARK 921   NORMALIZED FREE ENERGY PREDICTED BY IDOCK:   -1.78 KCAL/MOL
REMARK 922        TOTAL FREE ENERGY PREDICTED BY IDOCK:   -1.98 KCAL/MOL
REMARK 923 INTER-LIGAND FREE ENERGY PREDICTED BY IDOCK:   -2.01 KCAL/MOL
REMARK 924 INTRA-LIGAND FREE ENERGY PREDICTED BY IDOCK:    0.02 KCAL/MOL
REMARK 927      BINDING AFFINITY PREDICTED BY RF-SCORE:    0.00 PKD
ROOT
HETATM    1  C   UNL     1     -10.473   9.302  68.078  1.00  0.00    -0.275 C  
HETATM    2  C   UNL     1     -10.731  10.719  67.148  1.00  0.00    -0.324 C  
HETATM    3  C   UNL     1      -9.388   8.783  67.159  1.00  0.00    -0.188 C  
HETATM    4  C   UNL     1     -11.236  10.369  65.640  1.00  0.00     0.757 C  
HETATM    5  C   UNL     1      -8.162   9.455  67.787  1.00  0.00    -0.114 C  
HETATM    6  C   UNL     1     -11.621  11.848  67.641  1.00  0.00    -0.382 C  
HETATM    7  C   UNL     1      -8.124   8.793  69.129  1.00  0.00    -0.118 C  
HETATM    8  C   UNL     1     -10.006  10.212  70.512  1.00  0.00     0.122 C  
HETATM    9  C   UNL     1      -9.626   9.001  69.600  1.00  0.00    -0.175 C  
HETATM   10  C   UNL     1      -7.722   7.315  68.770  1.00  0.00    -0.119 C  
HETATM   11  O   UNL     1      -9.666   8.030  71.930  1.00  0.00    -0.166 OA 
HETATM   12  C   UNL     1      -6.527   7.246  67.860  1.00  0.00    -0.049 C  
HETATM   13  C   UNL     1      -9.585   7.766  70.717  1.00  0.00    -0.165 C  
HETATM   14  O   UNL     1      -5.558   7.998  67.922  1.00  0.00    -0.032 OA 
HETATM   15  C   UNL     1      -6.555   6.053  66.978  1.00  0.00    -0.056 C  
HETATM   16  C   UNL     1      -6.109   4.983  67.984  1.00  0.00    -0.027 C  
HETATM   17  C   UNL     1      -5.603   3.792  67.201  1.00  0.00    -0.021 C  
HETATM   18  C   UNL     1      -6.722   2.929  66.691  1.00  0.00    -0.041 C  
HETATM   19  C   UNL     1      -7.937   2.730  67.568  1.00  0.00    -0.068 C  
HETATM   20  O   UNL     1      -6.572   2.268  65.662  1.00  0.00    -0.030 OA 
HETATM   21  C   UNL     1      -8.376   3.930  68.438  1.00  0.00    -0.101 C  
HETATM   22  C   UNL     1      -7.227   4.755  69.095  1.00  0.00    -0.053 C  
HETATM   23  C   UNL     1      -6.607   3.884  70.212  1.00  0.00    -0.033 C  
HETATM   24  C   UNL     1      -7.698   6.213  69.796  1.00  0.00    -0.097 C  
HETATM   25  C   UNL     1      -9.125   6.305  70.409  1.00  0.00    -0.157 C  
ENDROOT
BRANCH   4  26
HETATM   26  C   UNL     1     -11.010  11.430  64.532  1.00  0.00    -0.346 C  
HETATM   27  O   UNL     1      -9.272  12.527  63.280  1.00  0.00     0.299 OA 
HETATM   28  C   UNL     1      -9.517  11.655  64.271  1.00  0.00    -0.024 C  
HETATM   29  O   UNL     1      -8.618  11.177  64.953  1.00  0.00    -0.022 OA 
ENDBRANCH   4  26
TORSDOF 1
ENDMDL
MODEL       84
REMARK 921   NORMALIZED FREE ENERGY PREDICTED BY IDOCK:   -1.23 KCAL/MOL
REMARK 922        TOTAL FREE ENERGY PREDICTED BY IDOCK:   -1.40 KCAL/MOL
REMARK 923 INTER-LIGAND FREE ENERGY PREDICTED BY IDOCK:   -1.47 KCAL/MOL
REMARK 924 INTRA-LIGAND FREE ENERGY PREDICTED BY IDOCK:    0.06 KCAL/MOL
REMARK 927      BINDING AFFINITY PREDICTED BY RF-SCORE:    0.00 PKD
ROOT
HETATM    1  C   UNL     1      -7.002   7.078  66.766  1.00  0.00    -0.073 C  
HETATM    2  C   UNL     1      -7.107   5.567  65.962  1.00  0.00    -0.068 C  
HETATM    3  C   UNL     1      -8.183   7.662  66.020  1.00  0.00    -0.128 C  
HETATM    4  C   UNL     1      -6.881   5.719  64.357  1.00  0.00    -0.050 C  
HETATM    5  C   UNL     1      -9.326   7.219  66.939  1.00  0.00    -0.192 C  
HETATM    6  C   UNL     1      -6.274   4.372  66.395  1.00  0.00    -0.032 C  
HETATM    7  C   UNL     1      -9.013   7.989  68.184  1.00  0.00    -0.135 C  
HETATM    8  C   UNL     1      -7.069   6.445  69.328  1.00  0.00    -0.080 C  
HETATM    9  C   UNL     1      -7.481   7.617  68.379  1.00  0.00    -0.104 C  
HETATM   10  C   UNL     1      -9.303   9.472  67.751  1.00  0.00    -0.143 C  
HETATM   11  O   UNL     1      -6.855   8.763  70.540  1.00  0.00    -0.038 OA 
HETATM   12  C   UNL     1     -10.641   9.628  67.083  1.00  0.00    -0.228 C  
HETATM   13  C   UNL     1      -7.149   8.933  69.344  1.00  0.00    -0.057 C  
HETATM   14  O   UNL     1     -11.659   9.024  67.409  1.00  0.00     1.082 OA 
HETATM   15  C   UNL     1     -10.653  10.729  66.088  1.00  0.00    -0.241 C  
HETATM   16  C   UNL     1     -10.757  11.930  67.039  1.00  0.00    -0.280 C  
HETATM   17  C   UNL     1     -11.267  13.110  66.243  1.00  0.00    -0.328 C  
HETATM   18  C   UNL     1     -10.182  13.767  65.439  1.00  0.00    -0.326 C  
HETATM   19  C   UNL     1      -8.799  13.869  66.041  1.00  0.00     0.530 C  
HETATM   20  O   UNL     1     -10.459  14.354  64.391  1.00  0.00    -0.228 OA 
HETATM   21  C   UNL     1      -8.337  12.697  66.935  1.00  0.00    -0.078 C  
HETATM   22  C   UNL     1      -9.417  12.093  67.885  1.00  0.00    -0.195 C  
HETATM   23  C   UNL     1      -9.691  13.131  68.999  1.00  0.00     0.310 C  
HETATM   24  C   UNL     1      -8.989  10.648  68.637  1.00  0.00    -0.170 C  
HETATM   25  C   UNL     1      -7.487  10.413  68.972  1.00  0.00    -0.106 C  
ENDROOT
BRANCH   4  26
HETATM   26  C   UNL     1      -7.451   4.611  63.434  1.00  0.00    -0.054 C  
HETATM   27  O   UNL     1      -6.845   2.558  62.335  1.00  0.00    -0.024 OA 
HETATM   28  C   UNL     1      -6.383   3.568  63.088  1.00  0.00    -0.022 C  
HETATM   29  O   UNL     1      -5.196   3.676  63.373  1.00  0.00    -0.008 OA 
ENDBRANCH   4  26
TORSDOF 1
ENDMDL
MODEL       85
REMARK 921   NORMALIZED FREE ENERGY PREDICTED BY IDOCK:    1.54 KCAL/MOL
REMARK 922        TOTAL FREE ENERGY PREDICTED BY IDOCK:    1.53 KCAL/MOL
REMARK 923 INTER-LIGAND FREE ENERGY PREDICTED BY IDOCK:    0.80 KCAL/MOL
REMARK 924 INTRA-LIGAND FREE ENERGY PREDICTED BY IDOCK:    0.73 KCAL/MOL
REMARK 927      BINDING AFFINITY PREDICTED BY RF-SCORE:    0.00 PKD
ROOT
HETATM    1  C   UNL     1      -9.597   9.970  66.855  1.00  0.00    -0.219 C  
HETATM    2  C   UNL     1     -10.693  10.805  67.876  1.00  0.00    -0.282 C  
HETATM    3  C   UNL     1      -9.677   8.689  67.659  1.00  0.00    -0.201 C  
HETATM    4  C   UNL     1     -10.127  10.928  69.397  1.00  0.00    -0.116 C  
HETATM    5  C   UNL     1     -10.873   8.018  66.974  1.00  0.00    -0.113 C  
HETATM    6  C   UNL     1     -11.235  12.177  67.513  1.00  0.00    -0.357 C  
HETATM    7  C   UNL     1     -10.327   7.784  65.600  1.00  0.00     2.012 C  
HETATM    8  C   UNL     1     -10.636  10.240  64.444  1.00  0.00     0.537 C  
HETATM    9  C   UNL     1      -9.766   9.230  65.259  1.00  0.00    -0.088 C  
HETATM   10  C   UNL     1      -9.240   6.675  65.849  1.00  0.00    -0.010 C  
HETATM   11  O   UNL     1      -8.920   9.003  62.891  1.00  0.00    -0.146 OA 
HETATM   12  C   UNL     1      -9.766   5.522  66.660  1.00  0.00    -0.159 C  
HETATM   13  C   UNL     1      -8.722   8.690  64.079  1.00  0.00     0.092 C  
HETATM   14  O   UNL     1     -10.899   5.060  66.563  1.00  0.00    -0.226 OA 
HETATM   15  C   UNL     1      -8.709   4.876  67.477  1.00  0.00    -0.103 C  
HETATM   16  C   UNL     1      -8.009   4.056  66.385  1.00  0.00    -0.097 C  
HETATM   17  C   UNL     1      -7.219   2.958  67.062  1.00  0.00    -0.058 C  
HETATM   18  C   UNL     1      -5.912   3.453  67.611  1.00  0.00    -0.027 C  
HETATM   19  C   UNL     1      -5.143   4.489  66.822  1.00  0.00    -0.008 C  
HETATM   20  O   UNL     1      -5.404   2.903  68.590  1.00  0.00    -0.012 OA 
HETATM   21  C   UNL     1      -5.973   5.541  66.053  1.00  0.00    -0.022 C  
HETATM   22  C   UNL     1      -7.265   5.015  65.353  1.00  0.00    -0.068 C  
HETATM   23  C   UNL     1      -6.824   4.153  64.147  1.00  0.00    -0.045 C  
HETATM   24  C   UNL     1      -8.303   6.206  64.768  1.00  0.00    -0.070 C  
HETATM   25  C   UNL     1      -7.679   7.543  64.273  1.00  0.00    -0.128 C  
ENDROOT
BRANCH   4  26
HETATM   26  C   UNL     1     -11.153  11.152  70.539  1.00  0.00     0.340 C  
HETATM   27  O   UNL     1     -12.507  12.854  71.568  1.00  0.00    -0.223 OA 
HETATM   28  C   UNL     1     -11.577  12.621  70.628  1.00  0.00     0.551 C  
HETATM   29  O   UNL     1     -11.060  13.528  69.987  1.00  0.00     0.047 OA 
ENDBRANCH   4  26
TORSDOF 1
ENDMDL
MODEL       86
REMARK 921   NORMALIZED FREE ENERGY PREDICTED BY IDOCK:    1.82 KCAL/MOL
REMARK 922        TOTAL FREE ENERGY PREDICTED BY IDOCK:    1.82 KCAL/MOL
REMARK 923 INTER-LIGAND FREE ENERGY PREDICTED BY IDOCK:    1.94 KCAL/MOL
REMARK 924 INTRA-LIGAND FREE ENERGY PREDICTED BY IDOCK:   -0.12 KCAL/MOL
REMARK 927      BINDING AFFINITY PREDICTED BY RF-SCORE:    0.00 PKD
ROOT
HETATM    1  C   UNL     1      -7.380   8.508  68.012  1.00  0.00    -0.092 C  
HETATM    2  C   UNL     1      -8.113   7.181  67.208  1.00  0.00    -0.115 C  
HETATM    3  C   UNL     1      -8.345   9.516  67.425  1.00  0.00    -0.125 C  
HETATM    4  C   UNL     1      -8.027   7.333  65.590  1.00  0.00    -0.123 C  
HETATM    5  C   UNL     1      -9.462   9.459  68.474  1.00  0.00    -0.150 C  
HETATM    6  C   UNL     1      -7.725   5.746  67.520  1.00  0.00    -0.097 C  
HETATM    7  C   UNL     1      -8.755   9.995  69.680  1.00  0.00    -0.210 C  
HETATM    8  C   UNL     1      -7.385   7.798  70.554  1.00  0.00    -0.072 C  
HETATM    9  C   UNL     1      -7.449   9.091  69.678  1.00  0.00    -0.076 C  
HETATM   10  C   UNL     1      -8.535  11.506  69.304  1.00  0.00     0.359 C  
HETATM   11  O   UNL     1      -6.215   9.815  71.759  1.00  0.00    -0.300 OA 
HETATM   12  C   UNL     1      -9.792  12.168  68.809  1.00  0.00    -0.021 C  
HETATM   13  C   UNL     1      -6.559  10.146  70.610  1.00  0.00    -0.064 C  
HETATM   14  O   UNL     1     -10.917  11.949  69.252  1.00  0.00    -0.220 OA 
HETATM   15  C   UNL     1      -9.517  13.254  67.837  1.00  0.00    -0.214 C  
HETATM   16  C   UNL     1      -9.073  14.357  68.808  1.00  0.00    -0.133 C  
HETATM   17  C   UNL     1      -9.208  15.685  68.096  1.00  0.00    -0.185 C  
HETATM   18  C   UNL     1      -8.056  15.954  67.171  1.00  0.00    -0.207 C  
HETATM   19  C   UNL     1      -6.671  15.523  67.598  1.00  0.00    -0.205 C  
HETATM   20  O   UNL     1      -8.216  16.660  66.174  1.00  0.00    -0.315 OA 
HETATM   21  C   UNL     1      -6.567  14.214  68.414  1.00  0.00    -0.106 C  
HETATM   22  C   UNL     1      -7.680  13.984  69.483  1.00  0.00     0.359 C  
HETATM   23  C   UNL     1      -7.434  14.986  70.635  1.00  0.00     0.986 C  
HETATM   24  C   UNL     1      -7.721  12.441  70.159  1.00  0.00     2.562 C  
HETATM   25  C   UNL     1      -6.379  11.667  70.302  1.00  0.00     0.020 C  
ENDROOT
BRANCH   4  26
HETATM   26  C   UNL     1      -9.058   6.555  64.731  1.00  0.00     0.712 C  
HETATM   27  O   UNL     1      -9.228   5.112  62.813  1.00  0.00    -0.001 OA 
HETATM   28  C   UNL     1      -8.382   5.844  63.555  1.00  0.00     0.020 C  
HETATM   29  O   UNL     1      -7.207   5.996  63.241  1.00  0.00    -0.048 OA 
ENDBRANCH   4  26
TORSDOF 1
ENDMDL
MODEL       87
REMARK 921   NORMALIZED FREE ENERGY PREDICTED BY IDOCK:    3.16 KCAL/MOL
REMARK 922        TOTAL FREE ENERGY PREDICTED BY IDOCK:    3.23 KCAL/MOL
REMARK 923 INTER-LIGAND FREE ENERGY PREDICTED BY IDOCK:    3.33 KCAL/MOL
REMARK 924 INTRA-LIGAND FREE ENERGY PREDICTED BY IDOCK:   -0.10 KCAL/MOL
REMARK 927      BINDING AFFINITY PREDICTED BY RF-SCORE:    0.00 PKD
ROOT
HETATM    1  C   UNL     1      -9.452   7.809  66.195  1.00  0.00    -0.135 C  
HETATM    2  C   UNL     1      -8.906   6.190  66.336  1.00  0.00    -0.144 C  
HETATM    3  C   UNL     1      -8.299   8.367  67.002  1.00  0.00    -0.114 C  
HETATM    4  C   UNL     1      -8.868   5.697  67.887  1.00  0.00    -0.105 C  
HETATM    5  C   UNL     1      -7.272   8.586  65.885  1.00  0.00    -0.076 C  
HETATM    6  C   UNL     1      -9.546   5.060  65.548  1.00  0.00    -0.105 C  
HETATM    7  C   UNL     1      -7.950   9.643  65.071  1.00  0.00    -0.122 C  
HETATM    8  C   UNL     1      -9.717   8.172  63.594  1.00  0.00     3.713 C  
HETATM    9  C   UNL     1      -9.386   8.991  64.883  1.00  0.00     0.047 C  
HETATM   10  C   UNL     1      -7.891  10.896  66.020  1.00  0.00    -0.121 C  
HETATM   11  O   UNL     1     -10.603  10.634  63.403  1.00  0.00    -0.067 OA 
HETATM   12  C   UNL     1      -6.514  11.136  66.574  1.00  0.00    -0.129 C  
HETATM   13  C   UNL     1     -10.141  10.435  64.540  1.00  0.00    -0.295 C  
HETATM   14  O   UNL     1      -5.470  10.967  65.949  1.00  0.00    -0.120 OA 
HETATM   15  C   UNL     1      -6.545  11.775  67.913  1.00  0.00    -0.068 C  
HETATM   16  C   UNL     1      -6.855  13.220  67.499  1.00  0.00    -0.155 C  
HETATM   17  C   UNL     1      -6.458  14.126  68.643  1.00  0.00    -0.090 C  
HETATM   18  C   UNL     1      -7.492  14.155  69.731  1.00  0.00     0.341 C  
HETATM   19  C   UNL     1      -8.952  14.113  69.342  1.00  0.00     0.508 C  
HETATM   20  O   UNL     1      -7.157  14.380  70.896  1.00  0.00     0.522 OA 
HETATM   21  C   UNL     1      -9.322  13.261  68.107  1.00  0.00    -0.220 C  
HETATM   22  C   UNL     1      -8.329  13.330  66.906  1.00  0.00    -0.018 C  
HETATM   23  C   UNL     1      -8.472  14.730  66.263  1.00  0.00     0.351 C  
HETATM   24  C   UNL     1      -8.587  12.190  65.691  1.00  0.00     0.602 C  
HETATM   25  C   UNL     1     -10.046  11.719  65.426  1.00  0.00    -0.291 C  
ENDROOT
BRANCH   4  26
HETATM   26  C   UNL     1      -7.933   4.515  68.252  1.00  0.00    -0.080 C  
HETATM   27  O   UNL     1      -7.794   2.568  69.658  1.00  0.00    -0.043 OA 
HETATM   28  C   UNL     1      -8.544   3.636  69.347  1.00  0.00    -0.068 C  
HETATM   29  O   UNL     1      -9.565   3.915  69.965  1.00  0.00    -0.183 OA 
ENDBRANCH   4  26
TORSDOF 1
ENDMDL
MODEL       88
REMARK 921   NORMALIZED FREE ENERGY PREDICTED BY IDOCK:    6.06 KCAL/MOL
REMARK 922        TOTAL FREE ENERGY PREDICTED BY IDOCK:    6.31 KCAL/MOL
REMARK 923 INTER-LIGAND FREE ENERGY PREDICTED BY IDOCK:    6.56 KCAL/MOL
REMARK 924 INTRA-LIGAND FREE ENERGY PREDICTED BY IDOCK:   -0.25 KCAL/MOL
REMARK 927      BINDING AFFINITY PREDICTED BY RF-SCORE:    0.00 PKD
ROOT
HETATM    1  C   UNL     1     -12.603  11.663  70.783  1.00  0.00    -0.365 C  
HETATM    2  C   UNL     1     -12.793  12.969  71.878  1.00  0.00    -0.316 C  
HETATM    3  C   UNL     1     -11.376  12.266  70.132  1.00  0.00     0.129 C  
HETATM    4  C   UNL     1     -13.064  14.374  71.102  1.00  0.00    -0.419 C  
HETATM    5  C   UNL     1     -10.283  11.698  71.044  1.00  0.00     5.485 C  
HETATM    6  C   UNL     1     -13.796  12.915  73.019  1.00  0.00     1.165 C  
HETATM    7  C   UNL     1     -10.404  10.233  70.765  1.00  0.00     0.336 C  
HETATM    8  C   UNL     1     -12.526   9.531  72.337  1.00  0.00    -0.196 C  
HETATM    9  C   UNL     1     -11.966  10.025  70.964  1.00  0.00    -0.469 C  
HETATM   10  C   UNL     1      -9.887  10.124  69.283  1.00  0.00    -0.235 C  
HETATM   11  O   UNL     1     -12.288   7.542  70.642  1.00  0.00    -0.141 OA 
HETATM   12  C   UNL     1      -8.574  10.826  69.076  1.00  0.00    -0.138 C  
HETATM   13  C   UNL     1     -12.025   8.618  70.076  1.00  0.00     0.552 C  
HETATM   14  O   UNL     1      -7.659  10.853  69.895  1.00  0.00    -0.007 OA 
HETATM   15  C   UNL     1      -8.422  11.346  67.695  1.00  0.00    -0.130 C  
HETATM   16  C   UNL     1      -8.072  10.040  66.968  1.00  0.00    -0.117 C  
HETATM   17  C   UNL     1      -7.406  10.400  65.659  1.00  0.00    -0.148 C  
HETATM   18  C   UNL     1      -8.401  10.790  64.603  1.00  0.00     0.021 C  
HETATM   19  C   UNL     1      -9.717  10.049  64.542  1.00  0.00    -0.310 C  
HETATM   20  O   UNL     1      -8.078  11.574  63.709  1.00  0.00     0.804 OA 
HETATM   21  C   UNL     1     -10.329   9.600  65.888  1.00  0.00    -0.103 C  
HETATM   22  C   UNL     1      -9.324   9.056  66.950  1.00  0.00    -0.203 C  
HETATM   23  C   UNL     1      -8.828   7.676  66.458  1.00  0.00    -0.167 C  
HETATM   24  C   UNL     1      -9.957   8.841  68.497  1.00  0.00    -0.200 C  
HETATM   25  C   UNL     1     -11.459   8.458  68.628  1.00  0.00     1.002 C  
ENDROOT
BRANCH   4  26
HETATM   26  C   UNL     1     -12.733  15.693  71.849  1.00  0.00    -0.513 C  
HETATM   27  O   UNL     1     -10.952  17.265  72.229  1.00  0.00     1.235 OA 
HETATM   28  C   UNL     1     -11.271  16.099  71.645  1.00  0.00     0.019 C  
HETATM   29  O   UNL     1     -10.430  15.396  71.095  1.00  0.00    -0.014 OA 
ENDBRANCH   4  26
TORSDOF 1
ENDMDL
MODEL       89
REMARK 921   NORMALIZED FREE ENERGY PREDICTED BY IDOCK:   11.73 KCAL/MOL
REMARK 922        TOTAL FREE ENERGY PREDICTED BY IDOCK:   12.31 KCAL/MOL
REMARK 923 INTER-LIGAND FREE ENERGY PREDICTED BY IDOCK:   12.41 KCAL/MOL
REMARK 924 INTRA-LIGAND FREE ENERGY PREDICTED BY IDOCK:   -0.10 KCAL/MOL
REMARK 927      BINDING AFFINITY PREDICTED BY RF-SCORE:    0.00 PKD
ROOT
HETATM    1  C   UNL     1      -9.324   9.463  68.797  1.00  0.00    -0.146 C  
HETATM    2  C   UNL     1      -9.028   8.239  69.962  1.00  0.00    -0.142 C  
HETATM    3  C   UNL     1      -9.775  10.471  69.834  1.00  0.00     0.098 C  
HETATM    4  C   UNL     1     -10.385   7.824  70.760  1.00  0.00    -0.206 C  
HETATM    5  C   UNL     1      -8.425  11.101  70.197  1.00  0.00     1.871 C  
HETATM    6  C   UNL     1      -8.338   6.937  69.594  1.00  0.00    -0.133 C  
HETATM    7  C   UNL     1      -8.053  11.756  68.903  1.00  0.00     0.029 C  
HETATM    8  C   UNL     1      -7.046   9.653  67.477  1.00  0.00    -0.088 C  
HETATM    9  C   UNL     1      -8.259  10.546  67.895  1.00  0.00    -0.107 C  
HETATM   10  C   UNL     1      -9.105  12.919  68.794  1.00  0.00     0.171 C  
HETATM   11  O   UNL     1      -7.535  11.491  65.668  1.00  0.00     0.373 OA 
HETATM   12  C   UNL     1      -9.198  13.735  70.053  1.00  0.00     2.344 C  
HETATM   13  C   UNL     1      -8.410  11.520  66.552  1.00  0.00    -0.147 C  
HETATM   14  O   UNL     1      -8.243  14.028  70.768  1.00  0.00     2.692 OA 
HETATM   15  C   UNL     1     -10.551  14.309  70.259  1.00  0.00     0.552 C  
HETATM   16  C   UNL     1     -10.487  15.475  69.263  1.00  0.00    -0.245 C  
HETATM   17  C   UNL     1     -11.555  16.474  69.648  1.00  0.00     0.139 C  
HETATM   18  C   UNL     1     -12.918  16.063  69.168  1.00  0.00     1.680 C  
HETATM   19  C   UNL     1     -13.036  15.391  67.819  1.00  0.00     3.169 C  
HETATM   20  O   UNL     1     -13.924  16.420  69.784  1.00  0.00     2.773 OA 
HETATM   21  C   UNL     1     -11.882  14.453  67.401  1.00  0.00    -0.430 C  
HETATM   22  C   UNL     1     -10.443  14.934  67.766  1.00  0.00    -0.255 C  
HETATM   23  C   UNL     1     -10.103  16.129  66.845  1.00  0.00    -0.273 C  
HETATM   24  C   UNL     1      -9.227  13.784  67.567  1.00  0.00    -0.216 C  
HETATM   25  C   UNL     1      -9.396  12.727  66.437  1.00  0.00    -0.196 C  
ENDROOT
BRANCH   4  26
HETATM   26  C   UNL     1     -10.234   7.165  72.156  1.00  0.00    -0.207 C  
HETATM   27  O   UNL     1     -11.278   5.571  73.626  1.00  0.00    -0.194 OA 
HETATM   28  C   UNL     1     -11.394   6.208  72.450  1.00  0.00    -0.296 C  
HETATM   29  O   UNL     1     -12.390   6.095  71.745  1.00  0.00    -0.201 OA 
ENDBRANCH   4  26
TORSDOF 1
ENDMDL
MODEL       90
REMARK 921   NORMALIZED FREE ENERGY PREDICTED BY IDOCK:   12.28 KCAL/MOL
REMARK 922        TOTAL FREE ENERGY PREDICTED BY IDOCK:   12.89 KCAL/MOL
REMARK 923 INTER-LIGAND FREE ENERGY PREDICTED BY IDOCK:    9.32 KCAL/MOL
REMARK 924 INTRA-LIGAND FREE ENERGY PREDICTED BY IDOCK:    3.57 KCAL/MOL
REMARK 927      BINDING AFFINITY PREDICTED BY RF-SCORE:    0.00 PKD
ROOT
HETATM    1  C   UNL     1      -9.474  12.755  67.956  1.00  0.00    -0.213 C  
HETATM    2  C   UNL     1      -8.771  14.286  68.277  1.00  0.00    -0.179 C  
HETATM    3  C   UNL     1      -9.445  12.333  69.410  1.00  0.00     1.032 C  
HETATM    4  C   UNL     1      -7.277  14.145  68.908  1.00  0.00    -0.118 C  
HETATM    5  C   UNL     1     -10.796  12.888  69.877  1.00  0.00     0.609 C  
HETATM    6  C   UNL     1      -8.680  15.363  67.208  1.00  0.00    -0.215 C  
HETATM    7  C   UNL     1     -11.745  12.058  69.071  1.00  0.00    -0.382 C  
HETATM    8  C   UNL     1     -11.696  13.331  66.653  1.00  0.00    -0.425 C  
HETATM    9  C   UNL     1     -11.130  12.239  67.617  1.00  0.00    -0.318 C  
HETATM   10  C   UNL     1     -11.575  10.630  69.707  1.00  0.00    -0.385 C  
HETATM   11  O   UNL     1     -12.729  10.977  66.126  1.00  0.00     3.223 OA 
HETATM   12  C   UNL     1     -11.676  10.650  71.207  1.00  0.00    -0.047 C  
HETATM   13  C   UNL     1     -11.849  10.870  66.999  1.00  0.00     0.917 C  
HETATM   14  O   UNL     1     -12.445  11.364  71.846  1.00  0.00    -0.117 OA 
HETATM   15  C   UNL     1     -10.866   9.582  71.844  1.00  0.00     0.103 C  
HETATM   16  C   UNL     1     -11.788   8.380  71.593  1.00  0.00    -0.357 C  
HETATM   17  C   UNL     1     -11.404   7.288  72.566  1.00  0.00    -0.338 C  
HETATM   18  C   UNL     1     -10.191   6.526  72.116  1.00  0.00    -0.185 C  
HETATM   19  C   UNL     1     -10.021   6.245  70.640  1.00  0.00    -0.221 C  
HETATM   20  O   UNL     1      -9.448   6.000  72.947  1.00  0.00    -0.151 OA 
HETATM   21  C   UNL     1     -10.515   7.332  69.660  1.00  0.00    -0.239 C  
HETATM   22  C   UNL     1     -11.854   8.038  70.039  1.00  0.00     0.400 C  
HETATM   23  C   UNL     1     -12.995   7.016  69.832  1.00  0.00     1.977 C  
HETATM   24  C   UNL     1     -12.231   9.405  69.127  1.00  0.00     1.593 C  
HETATM   25  C   UNL     1     -11.758   9.451  67.645  1.00  0.00     2.046 C  
ENDROOT
BRANCH   4  26
HETATM   26  C   UNL     1      -6.721  15.335  69.733  1.00  0.00    -0.176 C  
HETATM   27  O   UNL     1      -7.216  17.603  70.365  1.00  0.00     1.462 OA 
HETATM   28  C   UNL     1      -7.629  16.564  69.623  1.00  0.00     0.273 C  
HETATM   29  O   UNL     1      -8.584  16.649  68.860  1.00  0.00    -0.247 OA 
ENDBRANCH   4  26
TORSDOF 1
ENDMDL
MODEL       91
REMARK 921   NORMALIZED FREE ENERGY PREDICTED BY IDOCK:   14.08 KCAL/MOL
REMARK 922        TOTAL FREE ENERGY PREDICTED BY IDOCK:   14.80 KCAL/MOL
REMARK 923 INTER-LIGAND FREE ENERGY PREDICTED BY IDOCK:   15.07 KCAL/MOL
REMARK 924 INTRA-LIGAND FREE ENERGY PREDICTED BY IDOCK:   -0.27 KCAL/MOL
REMARK 927      BINDING AFFINITY PREDICTED BY RF-SCORE:    0.00 PKD
ROOT
HETATM    1  C   UNL     1      -9.534  13.425  68.843  1.00  0.00     0.186 C  
HETATM    2  C   UNL     1      -9.441  15.137  68.864  1.00  0.00    -0.213 C  
HETATM    3  C   UNL     1      -8.723  13.302  67.571  1.00  0.00    -0.202 C  
HETATM    4  C   UNL     1     -10.143  15.796  67.551  1.00  0.00    -0.245 C  
HETATM    5  C   UNL     1      -7.309  13.248  68.160  1.00  0.00    -0.120 C  
HETATM    6  C   UNL     1      -9.923  15.949  70.054  1.00  0.00    -0.042 C  
HETATM    7  C   UNL     1      -7.360  11.958  68.919  1.00  0.00    -0.080 C  
HETATM    8  C   UNL     1      -8.634  12.707  71.218  1.00  0.00    13.215 C  
HETATM    9  C   UNL     1      -8.696  12.164  69.754  1.00  0.00     2.218 C  
HETATM   10  C   UNL     1      -7.435  10.888  67.769  1.00  0.00    -0.094 C  
HETATM   11  O   UNL     1      -8.833  10.090  71.187  1.00  0.00     0.397 OA 
HETATM   12  C   UNL     1      -6.387  11.101  66.712  1.00  0.00    -0.125 C  
HETATM   13  C   UNL     1      -8.928  10.538  70.031  1.00  0.00     0.490 C  
HETATM   14  O   UNL     1      -5.239  11.479  66.933  1.00  0.00    -0.086 OA 
HETATM   15  C   UNL     1      -6.829  10.638  65.374  1.00  0.00    -0.020 C  
HETATM   16  C   UNL     1      -6.636   9.126  65.552  1.00  0.00    -0.068 C  
HETATM   17  C   UNL     1      -6.562   8.501  64.176  1.00  0.00    -0.071 C  
HETATM   18  C   UNL     1      -7.919   8.314  63.562  1.00  0.00    -0.154 C  
HETATM   19  C   UNL     1      -9.067   7.908  64.457  1.00  0.00     0.921 C  
HETATM   20  O   UNL     1      -8.050   8.326  62.337  1.00  0.00    -0.154 OA 
HETATM   21  C   UNL     1      -9.069   8.477  65.894  1.00  0.00    -0.237 C  
HETATM   22  C   UNL     1      -7.682   8.546  66.605  1.00  0.00    -0.090 C  
HETATM   23  C   UNL     1      -7.256   7.097  66.939  1.00  0.00    -0.087 C  
HETATM   24  C   UNL     1      -7.652   9.424  68.043  1.00  0.00    -0.083 C  
HETATM   25  C   UNL     1      -8.938   9.441  68.918  1.00  0.00    -0.136 C  
ENDROOT
BRANCH   4  26
HETATM   26  C   UNL     1      -9.705  17.224  67.132  1.00  0.00    -0.259 C  
HETATM   27  O   UNL     1      -8.352  18.401  65.528  1.00  0.00    -0.167 OA 
HETATM   28  C   UNL     1      -8.718  17.185  65.962  1.00  0.00    -0.106 C  
HETATM   29  O   UNL     1      -8.218  16.159  65.515  1.00  0.00     0.477 OA 
ENDBRANCH   4  26
TORSDOF 1
ENDMDL
MODEL       92
REMARK 921   NORMALIZED FREE ENERGY PREDICTED BY IDOCK:   15.98 KCAL/MOL
REMARK 922        TOTAL FREE ENERGY PREDICTED BY IDOCK:   16.81 KCAL/MOL
REMARK 923 INTER-LIGAND FREE ENERGY PREDICTED BY IDOCK:   13.59 KCAL/MOL
REMARK 924 INTRA-LIGAND FREE ENERGY PREDICTED BY IDOCK:    3.23 KCAL/MOL
REMARK 927      BINDING AFFINITY PREDICTED BY RF-SCORE:    0.00 PKD
ROOT
HETATM    1  C   UNL     1      -9.396   9.588  70.834  1.00  0.00    -0.157 C  
HETATM    2  C   UNL     1     -10.500  10.896  70.722  1.00  0.00     1.551 C  
HETATM    3  C   UNL     1     -10.023   8.837  69.678  1.00  0.00    -0.191 C  
HETATM    4  C   UNL     1     -12.034  10.416  70.982  1.00  0.00    -0.481 C  
HETATM    5  C   UNL     1      -9.235   9.440  68.510  1.00  0.00    -0.131 C  
HETATM    6  C   UNL     1     -10.313  12.171  71.526  1.00  0.00     9.208 C  
HETATM    7  C   UNL     1      -7.852   8.953  68.811  1.00  0.00    -0.101 C  
HETATM    8  C   UNL     1      -7.025  10.740  70.707  1.00  0.00     0.951 C  
HETATM    9  C   UNL     1      -7.714   9.388  70.333  1.00  0.00    -0.163 C  
HETATM   10  C   UNL     1      -7.970   7.407  68.554  1.00  0.00    -0.124 C  
HETATM   11  O   UNL     1      -5.352   8.731  70.934  1.00  0.00    -0.027 OA 
HETATM   12  C   UNL     1      -8.612   7.088  67.231  1.00  0.00    -0.121 C  
HETATM   13  C   UNL     1      -6.491   8.308  70.666  1.00  0.00    -0.036 C  
HETATM   14  O   UNL     1      -8.435   7.727  66.197  1.00  0.00    -0.123 OA 
HETATM   15  C   UNL     1      -9.355   5.804  67.257  1.00  0.00    -0.113 C  
HETATM   16  C   UNL     1      -8.176   4.826  67.153  1.00  0.00    -0.106 C  
HETATM   17  C   UNL     1      -8.715   3.496  66.678  1.00  0.00    -0.126 C  
HETATM   18  C   UNL     1      -9.347   2.708  67.789  1.00  0.00    -0.181 C  
HETATM   19  C   UNL     1      -8.715   2.760  69.161  1.00  0.00    -0.134 C  
HETATM   20  O   UNL     1     -10.253   1.909  67.543  1.00  0.00     1.012 OA 
HETATM   21  C   UNL     1      -8.078   4.102  69.587  1.00  0.00    -0.060 C  
HETATM   22  C   UNL     1      -7.293   4.869  68.478  1.00  0.00    -0.066 C  
HETATM   23  C   UNL     1      -5.991   4.082  68.199  1.00  0.00    -0.027 C  
HETATM   24  C   UNL     1      -6.852   6.448  68.869  1.00  0.00    -0.066 C  
HETATM   25  C   UNL     1      -6.550   6.777  70.359  1.00  0.00    -0.048 C  
ENDROOT
BRANCH   4  26
HETATM   26  C   UNL     1     -13.177  11.296  70.413  1.00  0.00     0.384 C  
HETATM   27  O   UNL     1     -13.580  13.324  69.182  1.00  0.00     2.978 OA 
HETATM   28  C   UNL     1     -12.629  12.557  69.738  1.00  0.00     0.311 C  
HETATM   29  O   UNL     1     -11.455  12.905  69.778  1.00  0.00    -0.228 OA 
ENDBRANCH   4  26
TORSDOF 1
ENDMDL
MODEL       93
REMARK 921   NORMALIZED FREE ENERGY PREDICTED BY IDOCK:   18.21 KCAL/MOL
REMARK 922        TOTAL FREE ENERGY PREDICTED BY IDOCK:   19.17 KCAL/MOL
REMARK 923 INTER-LIGAND FREE ENERGY PREDICTED BY IDOCK:   19.28 KCAL/MOL
REMARK 924 INTRA-LIGAND FREE ENERGY PREDICTED BY IDOCK:   -0.12 KCAL/MOL
REMARK 927      BINDING AFFINITY PREDICTED BY RF-SCORE:    0.00 PKD
ROOT
HETATM    1  C   UNL     1     -10.567  12.532  70.030  1.00  0.00     1.316 C  
HETATM    2  C   UNL     1     -11.946  12.048  70.927  1.00  0.00    -0.025 C  
HETATM    3  C   UNL     1     -10.865  11.587  68.885  1.00  0.00    -0.263 C  
HETATM    4  C   UNL     1     -11.887  10.470  71.323  1.00  0.00    -0.323 C  
HETATM    5  C   UNL     1     -11.771  12.480  68.030  1.00  0.00    -0.410 C  
HETATM    6  C   UNL     1     -12.379  12.785  72.184  1.00  0.00     0.666 C  
HETATM    7  C   UNL     1     -10.817  13.562  67.630  1.00  0.00    -0.273 C  
HETATM    8  C   UNL     1     -10.806  15.154  69.851  1.00  0.00    -0.287 C  
HETATM    9  C   UNL     1     -10.211  13.955  69.045  1.00  0.00    -0.071 C  
HETATM   10  C   UNL     1      -9.838  12.812  66.656  1.00  0.00    -0.250 C  
HETATM   11  O   UNL     1      -8.662  15.879  68.522  1.00  0.00    -0.179 OA 
HETATM   12  C   UNL     1     -10.564  12.018  65.604  1.00  0.00    -0.265 C  
HETATM   13  C   UNL     1      -8.839  14.653  68.410  1.00  0.00    -0.181 C  
HETATM   14  O   UNL     1     -11.599  12.377  65.050  1.00  0.00    -0.322 OA 
HETATM   15  C   UNL     1      -9.801  10.821  65.170  1.00  0.00    -0.333 C  
HETATM   16  C   UNL     1      -8.776  11.494  64.248  1.00  0.00     0.544 C  
HETATM   17  C   UNL     1      -8.212  10.434  63.328  1.00  0.00    -0.148 C  
HETATM   18  C   UNL     1      -7.154   9.604  63.997  1.00  0.00    -0.116 C  
HETATM   19  C   UNL     1      -6.201  10.284  64.953  1.00  0.00    -0.125 C  
HETATM   20  O   UNL     1      -6.965   8.439  63.641  1.00  0.00    -0.083 OA 
HETATM   21  C   UNL     1      -6.773  11.435  65.811  1.00  0.00     0.468 C  
HETATM   22  C   UNL     1      -7.769  12.396  65.090  1.00  0.00     3.623 C  
HETATM   23  C   UNL     1      -6.953  13.247  64.090  1.00  0.00    17.207 C  
HETATM   24  C   UNL     1      -8.599  13.461  66.098  1.00  0.00     0.709 C  
HETATM   25  C   UNL     1      -7.883  13.960  67.387  1.00  0.00    -0.177 C  
ENDROOT
BRANCH   4  26
HETATM   26  C   UNL     1     -13.223   9.751  71.642  1.00  0.00    -0.514 C  
HETATM   27  O   UNL     1     -14.222   7.565  71.756  1.00  0.00    -0.403 OA 
HETATM   28  C   UNL     1     -13.105   8.237  71.439  1.00  0.00    -0.221 C  
HETATM   29  O   UNL     1     -12.132   7.682  70.941  1.00  0.00    -0.284 OA 
ENDBRANCH   4  26
TORSDOF 1
ENDMDL
MODEL       94
REMARK 921   NORMALIZED FREE ENERGY PREDICTED BY IDOCK:   18.48 KCAL/MOL
REMARK 922        TOTAL FREE ENERGY PREDICTED BY IDOCK:   19.45 KCAL/MOL
REMARK 923 INTER-LIGAND FREE ENERGY PREDICTED BY IDOCK:   15.47 KCAL/MOL
REMARK 924 INTRA-LIGAND FREE ENERGY PREDICTED BY IDOCK:    3.98 KCAL/MOL
REMARK 927      BINDING AFFINITY PREDICTED BY RF-SCORE:    0.00 PKD
ROOT
HETATM    1  C   UNL     1     -10.113   7.867  65.504  1.00  0.00     1.563 C  
HETATM    2  C   UNL     1     -10.132   6.166  65.282  1.00  0.00     1.396 C  
HETATM    3  C   UNL     1      -8.969   7.818  66.495  1.00  0.00    -0.191 C  
HETATM    4  C   UNL     1     -10.473   5.380  66.666  1.00  0.00    -0.356 C  
HETATM    5  C   UNL     1      -7.778   7.900  65.533  1.00  0.00    -0.101 C  
HETATM    6  C   UNL     1     -10.979   5.511  64.204  1.00  0.00     3.619 C  
HETATM    7  C   UNL     1      -7.964   9.270  64.957  1.00  0.00    -0.118 C  
HETATM    8  C   UNL     1      -9.878   8.828  63.057  1.00  0.00     3.077 C  
HETATM    9  C   UNL     1      -9.491   9.200  64.525  1.00  0.00     0.330 C  
HETATM   10  C   UNL     1      -7.647  10.202  66.183  1.00  0.00    -0.114 C  
HETATM   11  O   UNL     1      -9.903  11.428  63.412  1.00  0.00    -0.321 OA 
HETATM   12  C   UNL     1      -6.358   9.839  66.868  1.00  0.00    -0.065 C  
HETATM   13  C   UNL     1      -9.694  10.852  64.494  1.00  0.00    -0.282 C  
HETATM   14  O   UNL     1      -5.344   9.457  66.289  1.00  0.00    -0.039 OA 
HETATM   15  C   UNL     1      -6.376  10.157  68.317  1.00  0.00    -0.049 C  
HETATM   16  C   UNL     1      -6.151  11.674  68.246  1.00  0.00    -0.049 C  
HETATM   17  C   UNL     1      -5.653  12.133  69.599  1.00  0.00    -0.090 C  
HETATM   18  C   UNL     1      -6.769  12.286  70.593  1.00  0.00     1.553 C  
HETATM   19  C   UNL     1      -8.096  12.825  70.112  1.00  0.00     3.329 C  
HETATM   20  O   UNL     1      -6.549  12.136  71.797  1.00  0.00     2.463 OA 
HETATM   21  C   UNL     1      -8.538  12.426  68.685  1.00  0.00     0.032 C  
HETATM   22  C   UNL     1      -7.414  12.400  67.604  1.00  0.00    -0.138 C  
HETATM   23  C   UNL     1      -7.014  13.865  67.312  1.00  0.00     0.108 C  
HETATM   24  C   UNL     1      -7.844  11.694  66.135  1.00  0.00     0.208 C  
HETATM   25  C   UNL     1      -9.324  11.814  65.670  1.00  0.00    -0.165 C  
ENDROOT
BRANCH   4  26
HETATM   26  C   UNL     1     -10.021   3.902  66.793  1.00  0.00     0.009 C  
HETATM   27  O   UNL     1      -9.447   1.972  65.476  1.00  0.00    -0.010 OA 
HETATM   28  C   UNL     1      -9.889   3.238  65.419  1.00  0.00     0.073 C  
HETATM   29  O   UNL     1     -10.243   3.757  64.367  1.00  0.00    -0.204 OA 
ENDBRANCH   4  26
TORSDOF 1
ENDMDL
MODEL       95
REMARK 921   NORMALIZED FREE ENERGY PREDICTED BY IDOCK:   19.01 KCAL/MOL
REMARK 922        TOTAL FREE ENERGY PREDICTED BY IDOCK:   20.02 KCAL/MOL
REMARK 923 INTER-LIGAND FREE ENERGY PREDICTED BY IDOCK:   20.13 KCAL/MOL
REMARK 924 INTRA-LIGAND FREE ENERGY PREDICTED BY IDOCK:   -0.11 KCAL/MOL
REMARK 927      BINDING AFFINITY PREDICTED BY RF-SCORE:    0.00 PKD
ROOT
HETATM    1  C   UNL     1      -9.625  15.984  69.017  1.00  0.00    -0.247 C  
HETATM    2  C   UNL     1      -8.756  17.314  69.665  1.00  0.00     0.906 C  
HETATM    3  C   UNL     1      -8.500  15.004  69.274  1.00  0.00    -0.167 C  
HETATM    4  C   UNL     1      -7.395  17.614  68.824  1.00  0.00    -0.261 C  
HETATM    5  C   UNL     1      -8.844  14.570  70.703  1.00  0.00     2.495 C  
HETATM    6  C   UNL     1      -9.417  18.662  69.898  1.00  0.00     0.981 C  
HETATM    7  C   UNL     1     -10.154  13.877  70.488  1.00  0.00     2.529 C  
HETATM    8  C   UNL     1     -11.893  15.982  70.367  1.00  0.00    -0.286 C  
HETATM    9  C   UNL     1     -10.933  14.979  69.650  1.00  0.00    -0.294 C  
HETATM   10  C   UNL     1      -9.732  12.589  69.692  1.00  0.00     1.625 C  
HETATM   11  O   UNL     1     -13.227  13.977  69.327  1.00  0.00     1.073 OA 
HETATM   12  C   UNL     1      -8.588  11.858  70.339  1.00  0.00     4.873 C  
HETATM   13  C   UNL     1     -12.028  13.902  69.006  1.00  0.00    -0.364 C  
HETATM   14  O   UNL     1      -8.434  11.736  71.551  1.00  0.00     9.792 OA 
HETATM   15  C   UNL     1      -7.745  11.139  69.352  1.00  0.00     0.026 C  
HETATM   16  C   UNL     1      -8.643   9.923  69.089  1.00  0.00    -0.157 C  
HETATM   17  C   UNL     1      -7.782   8.830  68.495  1.00  0.00    -0.099 C  
HETATM   18  C   UNL     1      -7.532   9.036  67.028  1.00  0.00    -0.087 C  
HETATM   19  C   UNL     1      -8.650   9.592  66.176  1.00  0.00    -0.143 C  
HETATM   20  O   UNL     1      -6.501   8.602  66.510  1.00  0.00    -0.057 OA 
HETATM   21  C   UNL     1      -9.582  10.633  66.837  1.00  0.00    -0.200 C  
HETATM   22  C   UNL     1      -9.969  10.359  68.323  1.00  0.00    -0.168 C  
HETATM   23  C   UNL     1     -10.937   9.153  68.337  1.00  0.00    -0.001 C  
HETATM   24  C   UNL     1     -10.741  11.632  69.113  1.00  0.00    -0.188 C  
HETATM   25  C   UNL     1     -11.643  12.579  68.270  1.00  0.00    -0.376 C  
ENDROOT
BRANCH   4  26
HETATM   26  C   UNL     1      -6.254  18.383  69.538  1.00  0.00    -0.262 C  
HETATM   27  O   UNL     1      -5.234  20.557  69.690  1.00  0.00    -0.238 OA 
HETATM   28  C   UNL     1      -6.173  19.836  69.059  1.00  0.00    -0.289 C  
HETATM   29  O   UNL     1      -6.821  20.290  68.123  1.00  0.00    -0.283 OA 
ENDBRANCH   4  26
TORSDOF 1
ENDMDL
MODEL       96
REMARK 921   NORMALIZED FREE ENERGY PREDICTED BY IDOCK:   24.31 KCAL/MOL
REMARK 922        TOTAL FREE ENERGY PREDICTED BY IDOCK:   25.63 KCAL/MOL
REMARK 923 INTER-LIGAND FREE ENERGY PREDICTED BY IDOCK:   25.90 KCAL/MOL
REMARK 924 INTRA-LIGAND FREE ENERGY PREDICTED BY IDOCK:   -0.27 KCAL/MOL
REMARK 927      BINDING AFFINITY PREDICTED BY RF-SCORE:    0.00 PKD
ROOT
HETATM    1  C   UNL     1      -8.286  12.784  69.172  1.00  0.00     0.603 C  
HETATM    2  C   UNL     1      -9.290  11.481  68.686  1.00  0.00    -0.142 C  
HETATM    3  C   UNL     1      -9.025  13.794  68.319  1.00  0.00    -0.186 C  
HETATM    4  C   UNL     1      -9.194  11.209  67.084  1.00  0.00    -0.165 C  
HETATM    5  C   UNL     1     -10.116  14.228  69.304  1.00  0.00     0.014 C  
HETATM    6  C   UNL     1      -9.209  10.118  69.353  1.00  0.00    -0.229 C  
HETATM    7  C   UNL     1      -9.298  14.886  70.371  1.00  0.00     0.995 C  
HETATM    8  C   UNL     1      -8.410  12.738  71.808  1.00  0.00    15.628 C  
HETATM    9  C   UNL     1      -8.211  13.760  70.643  1.00  0.00     3.985 C  
HETATM   10  C   UNL     1      -8.771  16.179  69.649  1.00  0.00     0.201 C  
HETATM   11  O   UNL     1      -6.829  14.702  72.533  1.00  0.00     1.279 OA 
HETATM   12  C   UNL     1      -9.867  16.943  68.958  1.00  0.00    -0.247 C  
HETATM   13  C   UNL     1      -7.109  14.805  71.325  1.00  0.00     1.553 C  
HETATM   14  O   UNL     1     -11.007  17.078  69.395  1.00  0.00    -0.197 OA 
HETATM   15  C   UNL     1      -9.381  17.676  67.763  1.00  0.00    -0.255 C  
HETATM   16  C   UNL     1      -8.704  18.868  68.454  1.00  0.00    -0.380 C  
HETATM   17  C   UNL     1      -8.566  19.979  67.436  1.00  0.00    -0.403 C  
HETATM   18  C   UNL     1      -7.393  19.769  66.521  1.00  0.00    -0.259 C  
HETATM   19  C   UNL     1      -6.125  19.179  67.095  1.00  0.00    -0.171 C  
HETATM   20  O   UNL     1      -7.414  20.224  65.376  1.00  0.00    -0.254 OA 
HETATM   21  C   UNL     1      -6.288  18.119  68.208  1.00  0.00    -0.193 C  
HETATM   22  C   UNL     1      -7.412  18.394  69.255  1.00  0.00    -0.031 C  
HETATM   23  C   UNL     1      -6.948  19.575  70.138  1.00  0.00     0.099 C  
HETATM   24  C   UNL     1      -7.768  17.107  70.283  1.00  0.00     2.444 C  
HETATM   25  C   UNL     1      -6.617  16.132  70.664  1.00  0.00     0.973 C  
ENDROOT
BRANCH   4  26
HETATM   26  C   UNL     1     -10.375  10.473  66.399  1.00  0.00    -0.283 C  
HETATM   27  O   UNL     1     -12.419  10.873  65.194  1.00  0.00     1.840 OA 
HETATM   28  C   UNL     1     -11.404  11.463  65.844  1.00  0.00    -0.020 C  
HETATM   29  O   UNL     1     -11.378  12.671  66.050  1.00  0.00    -0.296 OA 
ENDBRANCH   4  26
TORSDOF 1
ENDMDL
MODEL       97
REMARK 921   NORMALIZED FREE ENERGY PREDICTED BY IDOCK:   25.55 KCAL/MOL
REMARK 922        TOTAL FREE ENERGY PREDICTED BY IDOCK:   26.93 KCAL/MOL
REMARK 923 INTER-LIGAND FREE ENERGY PREDICTED BY IDOCK:   27.19 KCAL/MOL
REMARK 924 INTRA-LIGAND FREE ENERGY PREDICTED BY IDOCK:   -0.25 KCAL/MOL
REMARK 927      BINDING AFFINITY PREDICTED BY RF-SCORE:    0.00 PKD
ROOT
HETATM    1  C   UNL     1      -9.417  12.971  70.895  1.00  0.00     8.691 C  
HETATM    2  C   UNL     1     -10.207  14.488  71.026  1.00  0.00     1.789 C  
HETATM    3  C   UNL     1     -10.082  12.633  69.577  1.00  0.00     0.930 C  
HETATM    4  C   UNL     1     -11.824  14.322  71.109  1.00  0.00    -0.265 C  
HETATM    5  C   UNL     1      -9.084  13.270  68.604  1.00  0.00     0.025 C  
HETATM    6  C   UNL     1      -9.828  15.496  72.098  1.00  0.00     4.022 C  
HETATM    7  C   UNL     1      -7.866  12.434  68.848  1.00  0.00     0.110 C  
HETATM    8  C   UNL     1      -6.855  13.562  71.123  1.00  0.00     2.054 C  
HETATM    9  C   UNL     1      -7.777  12.506  70.433  1.00  0.00     3.652 C  
HETATM   10  C   UNL     1      -8.284  11.040  68.254  1.00  0.00    -0.130 C  
HETATM   11  O   UNL     1      -5.669  11.226  70.974  1.00  0.00    -0.316 OA 
HETATM   12  C   UNL     1      -8.858  11.151  66.868  1.00  0.00    -0.157 C  
HETATM   13  C   UNL     1      -6.843  11.134  70.573  1.00  0.00     0.743 C  
HETATM   14  O   UNL     1      -8.459  11.931  66.007  1.00  0.00     0.010 OA 
HETATM   15  C   UNL     1      -9.853  10.089  66.580  1.00  0.00    -0.267 C  
HETATM   16  C   UNL     1      -8.902   8.914  66.314  1.00  0.00    -0.187 C  
HETATM   17  C   UNL     1      -9.664   7.865  65.536  1.00  0.00     0.754 C  
HETATM   18  C   UNL     1     -10.544   7.028  66.420  1.00  0.00     0.296 C  
HETATM   19  C   UNL     1     -10.040   6.656  67.795  1.00  0.00    -0.180 C  
HETATM   20  O   UNL     1     -11.572   6.521  65.967  1.00  0.00     1.588 OA 
HETATM   21  C   UNL     1      -9.176   7.704  68.531  1.00  0.00    -0.143 C  
HETATM   22  C   UNL     1      -8.151   8.485  67.652  1.00  0.00    -0.107 C  
HETATM   23  C   UNL     1      -7.024   7.500  67.262  1.00  0.00    -0.083 C  
HETATM   24  C   UNL     1      -7.425   9.811  68.398  1.00  0.00    -0.083 C  
HETATM   25  C   UNL     1      -7.195   9.752  69.935  1.00  0.00    -0.116 C  
ENDROOT
BRANCH   4  26
HETATM   26  C   UNL     1     -12.702  15.533  70.700  1.00  0.00    -0.487 C  
HETATM   27  O   UNL     1     -13.791  16.533  68.802  1.00  0.00     4.046 OA 
HETATM   28  C   UNL     1     -12.989  15.532  69.195  1.00  0.00     1.003 C  
HETATM   29  O   UNL     1     -12.467  14.765  68.395  1.00  0.00    -0.004 OA 
ENDBRANCH   4  26
TORSDOF 1
ENDMDL
MODEL       98
REMARK 921   NORMALIZED FREE ENERGY PREDICTED BY IDOCK:   28.55 KCAL/MOL
REMARK 922        TOTAL FREE ENERGY PREDICTED BY IDOCK:   30.11 KCAL/MOL
REMARK 923 INTER-LIGAND FREE ENERGY PREDICTED BY IDOCK:   29.63 KCAL/MOL
REMARK 924 INTRA-LIGAND FREE ENERGY PREDICTED BY IDOCK:    0.48 KCAL/MOL
REMARK 927      BINDING AFFINITY PREDICTED BY RF-SCORE:    0.00 PKD
ROOT
HETATM    1  C   UNL     1     -10.050  15.097  67.775  1.00  0.00    -0.230 C  
HETATM    2  C   UNL     1     -10.655  16.518  68.521  1.00  0.00    -0.318 C  
HETATM    3  C   UNL     1     -10.967  14.182  68.559  1.00  0.00    -0.271 C  
HETATM    4  C   UNL     1     -10.392  16.515  70.128  1.00  0.00     0.172 C  
HETATM    5  C   UNL     1     -12.193  14.180  67.638  1.00  0.00    -0.231 C  
HETATM    6  C   UNL     1     -10.270  17.903  68.031  1.00  0.00    -0.381 C  
HETATM    7  C   UNL     1     -11.639  13.508  66.420  1.00  0.00    -0.381 C  
HETATM    8  C   UNL     1     -10.323  15.565  65.192  1.00  0.00    -0.388 C  
HETATM    9  C   UNL     1     -10.319  14.363  66.191  1.00  0.00    -0.305 C  
HETATM   10  C   UNL     1     -11.415  12.033  66.915  1.00  0.00    -0.402 C  
HETATM   11  O   UNL     1      -9.345  13.405  64.068  1.00  0.00     0.884 OA 
HETATM   12  C   UNL     1     -12.624  11.465  67.605  1.00  0.00     2.388 C  
HETATM   13  C   UNL     1      -9.565  13.195  65.274  1.00  0.00     0.158 C  
HETATM   14  O   UNL     1     -13.786  11.680  67.269  1.00  0.00     8.055 OA 
HETATM   15  C   UNL     1     -12.267  10.465  68.642  1.00  0.00     0.667 C  
HETATM   16  C   UNL     1     -11.963   9.261  67.740  1.00  0.00     3.366 C  
HETATM   17  C   UNL     1     -12.049   8.012  68.588  1.00  0.00     2.973 C  
HETATM   18  C   UNL     1     -10.807   7.790  69.403  1.00  0.00    -0.113 C  
HETATM   19  C   UNL     1      -9.469   8.132  68.787  1.00  0.00    -0.148 C  
HETATM   20  O   UNL     1     -10.871   7.187  70.476  1.00  0.00    -0.233 OA 
HETATM   21  C   UNL     1      -9.425   9.353  67.842  1.00  0.00    -0.150 C  
HETATM   22  C   UNL     1     -10.645   9.521  66.884  1.00  0.00    -0.241 C  
HETATM   23  C   UNL     1     -10.555   8.407  65.814  1.00  0.00     2.011 C  
HETATM   24  C   UNL     1     -10.725  10.995  66.070  1.00  0.00    -0.242 C  
HETATM   25  C   UNL     1      -9.388  11.704  65.707  1.00  0.00    -0.220 C  
ENDROOT
BRANCH   4  26
HETATM   26  C   UNL     1     -11.301  17.406  71.014  1.00  0.00     1.778 C  
HETATM   27  O   UNL     1     -11.564  19.666  71.796  1.00  0.00     6.935 OA 
HETATM   28  C   UNL     1     -10.778  18.844  71.083  1.00  0.00     3.131 C  
HETATM   29  O   UNL     1      -9.701  19.208  70.627  1.00  0.00     1.367 OA 
ENDBRANCH   4  26
TORSDOF 1
ENDMDL
MODEL       99
REMARK 921   NORMALIZED FREE ENERGY PREDICTED BY IDOCK:   44.22 KCAL/MOL
REMARK 922        TOTAL FREE ENERGY PREDICTED BY IDOCK:   46.69 KCAL/MOL
REMARK 923 INTER-LIGAND FREE ENERGY PREDICTED BY IDOCK:   46.95 KCAL/MOL
REMARK 924 INTRA-LIGAND FREE ENERGY PREDICTED BY IDOCK:   -0.26 KCAL/MOL
REMARK 927      BINDING AFFINITY PREDICTED BY RF-SCORE:    0.00 PKD
ROOT
HETATM    1  C   UNL     1     -10.743  14.095  70.655  1.00  0.00     1.035 C  
HETATM    2  C   UNL     1      -9.423  14.552  71.650  1.00  0.00     4.901 C  
HETATM    3  C   UNL     1      -9.925  14.150  69.383  1.00  0.00     0.230 C  
HETATM    4  C   UNL     1      -8.865  16.034  71.270  1.00  0.00     4.857 C  
HETATM    5  C   UNL     1      -9.373  12.720  69.359  1.00  0.00     1.199 C  
HETATM    6  C   UNL     1      -9.513  14.509  73.166  1.00  0.00     8.286 C  
HETATM    7  C   UNL     1     -10.631  11.927  69.183  1.00  0.00    -0.085 C  
HETATM    8  C   UNL     1     -11.608  11.847  71.734  1.00  0.00     2.890 C  
HETATM    9  C   UNL     1     -11.529  12.545  70.338  1.00  0.00     0.294 C  
HETATM   10  C   UNL     1     -11.063  12.292  67.716  1.00  0.00    -0.304 C  
HETATM   11  O   UNL     1     -13.659  11.193  70.232  1.00  0.00     0.718 OA 
HETATM   12  C   UNL     1      -9.937  12.151  66.729  1.00  0.00    -0.203 C  
HETATM   13  C   UNL     1     -12.969  12.055  69.659  1.00  0.00     1.077 C  
HETATM   14  O   UNL     1      -9.084  11.267  66.764  1.00  0.00    -0.165 OA 
HETATM   15  C   UNL     1     -10.059  13.094  65.591  1.00  0.00    -0.279 C  
HETATM   16  C   UNL     1     -11.139  12.370  64.775  1.00  0.00    -0.345 C  
HETATM   17  C   UNL     1     -11.075  12.888  63.355  1.00  0.00    -0.159 C  
HETATM   18  C   UNL     1     -11.765  14.213  63.202  1.00  0.00     1.263 C  
HETATM   19  C   UNL     1     -13.034  14.462  63.985  1.00  0.00     0.838 C  
HETATM   20  O   UNL     1     -11.396  15.005  62.332  1.00  0.00     4.459 OA 
HETATM   21  C   UNL     1     -13.120  13.836  65.395  1.00  0.00    -0.217 C  
HETATM   22  C   UNL     1     -12.535  12.397  65.542  1.00  0.00    -0.086 C  
HETATM   23  C   UNL     1     -13.491  11.427  64.808  1.00  0.00     3.831 C  
HETATM   24  C   UNL     1     -12.373  11.843  67.125  1.00  0.00     0.942 C  
HETATM   25  C   UNL     1     -13.398  12.342  68.184  1.00  0.00     5.475 C  
ENDROOT
BRANCH   4  26
HETATM   26  C   UNL     1      -7.406  16.383  71.663  1.00  0.00     6.363 C  
HETATM   27  O   UNL     1      -5.214  16.711  70.727  1.00  0.00    -0.209 OA 
HETATM   28  C   UNL     1      -6.478  16.361  70.445  1.00  0.00     0.524 C  
HETATM   29  O   UNL     1      -6.810  15.966  69.333  1.00  0.00    -0.179 OA 
ENDBRANCH   4  26
TORSDOF 1
ENDMDL
MODEL      100
REMARK 921   NORMALIZED FREE ENERGY PREDICTED BY IDOCK:   47.96 KCAL/MOL
REMARK 922        TOTAL FREE ENERGY PREDICTED BY IDOCK:   50.66 KCAL/MOL
REMARK 923 INTER-LIGAND FREE ENERGY PREDICTED BY IDOCK:   48.12 KCAL/MOL
REMARK 924 INTRA-LIGAND FREE ENERGY PREDICTED BY IDOCK:    2.54 KCAL/MOL
REMARK 927      BINDING AFFINITY PREDICTED BY RF-SCORE:    0.00 PKD
ROOT
HETATM    1  C   UNL     1      -9.911  12.880  64.698  1.00  0.00    -0.040 C  
HETATM    2  C   UNL     1     -10.037  11.463  63.739  1.00  0.00    -0.408 C  
HETATM    3  C   UNL     1     -10.615  12.254  65.883  1.00  0.00    -0.290 C  
HETATM    4  C   UNL     1     -11.589  11.057  63.463  1.00  0.00     0.677 C  
HETATM    5  C   UNL     1      -9.418  11.624  66.603  1.00  0.00    -0.213 C  
HETATM    6  C   UNL     1      -9.322  11.336  62.405  1.00  0.00    -0.110 C  
HETATM    7  C   UNL     1      -8.640  12.842  66.993  1.00  0.00    -0.171 C  
HETATM    8  C   UNL     1      -7.332  13.444  64.669  1.00  0.00    13.023 C  
HETATM    9  C   UNL     1      -8.577  13.606  65.601  1.00  0.00     1.777 C  
HETATM   10  C   UNL     1      -9.559  13.499  68.087  1.00  0.00    -0.215 C  
HETATM   11  O   UNL     1      -7.167  15.641  66.095  1.00  0.00     0.605 OA 
HETATM   12  C   UNL     1      -9.999  12.517  69.137  1.00  0.00     0.387 C  
HETATM   13  C   UNL     1      -8.268  15.094  66.282  1.00  0.00     0.451 C  
HETATM   14  O   UNL     1      -9.298  11.615  69.588  1.00  0.00     0.767 OA 
HETATM   15  C   UNL     1     -11.325  12.856  69.710  1.00  0.00    -0.107 C  
HETATM   16  C   UNL     1     -10.911  13.993  70.654  1.00  0.00     0.760 C  
HETATM   17  C   UNL     1     -12.004  14.162  71.686  1.00  0.00    -0.066 C  
HETATM   18  C   UNL     1     -13.170  14.947  71.157  1.00  0.00    -0.414 C  
HETATM   19  C   UNL     1     -12.896  16.106  70.225  1.00  0.00     0.902 C  
HETATM   20  O   UNL     1     -14.300  14.755  71.608  1.00  0.00    -0.469 OA 
HETATM   21  C   UNL     1     -11.709  15.954  69.248  1.00  0.00    -0.360 C  
HETATM   22  C   UNL     1     -10.433  15.266  69.824  1.00  0.00    -0.287 C  
HETATM   23  C   UNL     1      -9.778  16.254  70.817  1.00  0.00     2.041 C  
HETATM   24  C   UNL     1      -9.263  14.849  68.685  1.00  0.00    -0.193 C  
HETATM   25  C   UNL     1      -9.121  15.743  67.419  1.00  0.00    -0.206 C  
ENDROOT
BRANCH   4  26
HETATM   26  C   UNL     1     -11.901   9.582  63.100  1.00  0.00    10.734 C  
HETATM   27  O   UNL     1     -10.891   7.401  62.983  1.00  0.00    10.736 OA 
HETATM   28  C   UNL     1     -10.657   8.698  63.235  1.00  0.00     8.393 C  
HETATM   29  O   UNL     1      -9.528   9.125  63.449  1.00  0.00     0.419 OA 
ENDBRANCH   4  26
TORSDOF 1
ENDMDL
MODEL      101
REMARK 921   NORMALIZED FREE ENERGY PREDICTED BY IDOCK:   68.49 KCAL/MOL
REMARK 922        TOTAL FREE ENERGY PREDICTED BY IDOCK:   72.38 KCAL/MOL
REMARK 923 INTER-LIGAND FREE ENERGY PREDICTED BY IDOCK:   68.40 KCAL/MOL
REMARK 924 INTRA-LIGAND FREE ENERGY PREDICTED BY IDOCK:    3.98 KCAL/MOL
REMARK 927      BINDING AFFINITY PREDICTED BY RF-SCORE:    0.00 PKD
ROOT
HETATM    1  C   UNL     1     -11.025   7.211  67.861  1.00  0.00    -0.154 C  
HETATM    2  C   UNL     1     -10.110   5.788  67.578  1.00  0.00    -0.204 C  
HETATM    3  C   UNL     1      -9.801   8.046  68.175  1.00  0.00    -0.195 C  
HETATM    4  C   UNL     1      -9.297   5.318  68.907  1.00  0.00    -0.163 C  
HETATM    5  C   UNL     1      -9.436   8.526  66.766  1.00  0.00    -0.253 C  
HETATM    6  C   UNL     1     -10.745   4.532  67.004  1.00  0.00     0.583 C  
HETATM    7  C   UNL     1     -10.623   9.374  66.431  1.00  0.00    -0.065 C  
HETATM    8  C   UNL     1     -12.457   7.499  65.663  1.00  0.00    12.461 C  
HETATM    9  C   UNL     1     -11.805   8.373  66.783  1.00  0.00     4.769 C  
HETATM   10  C   UNL     1     -10.455  10.597  67.405  1.00  0.00    -0.280 C  
HETATM   11  O   UNL     1     -13.886   9.649  66.137  1.00  0.00    18.460 OA 
HETATM   12  C   UNL     1      -9.072  11.184  67.363  1.00  0.00    -0.142 C  
HETATM   13  C   UNL     1     -12.948   9.573  66.950  1.00  0.00    13.998 C  
HETATM   14  O   UNL     1      -8.390  11.292  66.347  1.00  0.00    -0.165 OA 
HETATM   15  C   UNL     1      -8.672  11.789  68.658  1.00  0.00    -0.059 C  
HETATM   16  C   UNL     1      -9.457  13.106  68.576  1.00  0.00    -0.104 C  
HETATM   17  C   UNL     1      -8.830  14.081  69.546  1.00  0.00     0.792 C  
HETATM   18  C   UNL     1      -9.271  13.839  70.962  1.00  0.00     6.735 C  
HETATM   19  C   UNL     1     -10.702  13.421  71.210  1.00  0.00     4.413 C  
HETATM   20  O   UNL     1      -8.530  14.139  71.900  1.00  0.00     5.441 OA 
HETATM   21  C   UNL     1     -11.357  12.506  70.152  1.00  0.00     0.170 C  
HETATM   22  C   UNL     1     -11.023  12.832  68.663  1.00  0.00    -0.295 C  
HETATM   23  C   UNL     1     -11.750  14.149  68.301  1.00  0.00    -0.383 C  
HETATM   24  C   UNL     1     -11.505  11.668  67.544  1.00  0.00    -0.360 C  
HETATM   25  C   UNL     1     -12.782  10.836  67.856  1.00  0.00     3.760 C  
ENDROOT
BRANCH   4  26
HETATM   26  C   UNL     1      -8.049   4.417  68.715  1.00  0.00    -0.077 C  
HETATM   27  O   UNL     1      -7.044   2.869  67.172  1.00  0.00    -0.052 OA 
HETATM   28  C   UNL     1      -8.129   3.623  67.408  1.00  0.00    -0.090 C  
HETATM   29  O   UNL     1      -9.118   3.583  66.685  1.00  0.00    -0.140 OA 
ENDBRANCH   4  26
TORSDOF 1
ENDMDL
MODEL      102
REMARK 921   NORMALIZED FREE ENERGY PREDICTED BY IDOCK:   76.93 KCAL/MOL
REMARK 922        TOTAL FREE ENERGY PREDICTED BY IDOCK:   81.33 KCAL/MOL
REMARK 923 INTER-LIGAND FREE ENERGY PREDICTED BY IDOCK:   80.31 KCAL/MOL
REMARK 924 INTRA-LIGAND FREE ENERGY PREDICTED BY IDOCK:    1.02 KCAL/MOL
REMARK 927      BINDING AFFINITY PREDICTED BY RF-SCORE:    0.00 PKD
ROOT
HETATM    1  C   UNL     1      -9.321  10.141  70.664  1.00  0.00     0.640 C  
HETATM    2  C   UNL     1      -9.573  11.682  71.373  1.00  0.00    10.574 C  
HETATM    3  C   UNL     1     -10.089   9.413  71.748  1.00  0.00     0.085 C  
HETATM    4  C   UNL     1      -8.904  11.782  72.854  1.00  0.00    23.615 C  
HETATM    5  C   UNL     1     -11.505   9.483  71.165  1.00  0.00    -0.430 C  
HETATM    6  C   UNL     1      -9.196  12.965  70.651  1.00  0.00     7.411 C  
HETATM    7  C   UNL     1     -11.352   8.650  69.931  1.00  0.00     0.043 C  
HETATM    8  C   UNL     1     -10.207  10.421  68.193  1.00  0.00    -0.187 C  
HETATM    9  C   UNL     1     -10.061   9.315  69.288  1.00  0.00    -0.201 C  
HETATM   10  C   UNL     1     -11.152   7.205  70.516  1.00  0.00    -0.299 C  
HETATM   11  O   UNL     1      -9.766   8.072  67.110  1.00  0.00    -0.165 OA 
HETATM   12  C   UNL     1     -12.190   6.848  71.544  1.00  0.00    -0.371 C  
HETATM   13  C   UNL     1      -9.686   7.992  68.349  1.00  0.00    -0.158 C  
HETATM   14  O   UNL     1     -13.373   7.175  71.485  1.00  0.00    -0.383 OA 
HETATM   15  C   UNL     1     -11.676   5.903  72.566  1.00  0.00    -0.288 C  
HETATM   16  C   UNL     1     -11.733   4.600  71.757  1.00  0.00     1.603 C  
HETATM   17  C   UNL     1     -11.717   3.445  72.734  1.00  0.00     0.697 C  
HETATM   18  C   UNL     1     -10.334   3.142  73.235  1.00  0.00    -0.156 C  
HETATM   19  C   UNL     1      -9.174   3.266  72.273  1.00  0.00    -0.156 C  
HETATM   20  O   UNL     1     -10.176   2.644  74.351  1.00  0.00    -0.120 OA 
HETATM   21  C   UNL     1      -9.259   4.389  71.215  1.00  0.00    -0.196 C  
HETATM   22  C   UNL     1     -10.663   4.624  70.577  1.00  0.00     0.443 C  
HETATM   23  C   UNL     1     -10.960   3.422  69.650  1.00  0.00     4.714 C  
HETATM   24  C   UNL     1     -10.807   6.023  69.649  1.00  0.00    -0.439 C  
HETATM   25  C   UNL     1      -9.549   6.532  68.889  1.00  0.00    -0.128 C  
ENDROOT
BRANCH   4  26
HETATM   26  C   UNL     1      -9.462  12.848  73.833  1.00  0.00    18.093 C  
HETATM   27  O   UNL     1     -11.482  14.019  74.415  1.00  0.00     1.525 OA 
HETATM   28  C   UNL     1     -10.940  13.142  73.556  1.00  0.00    10.518 C  
HETATM   29  O   UNL     1     -11.560  12.709  72.591  1.00  0.00     4.023 OA 
ENDBRANCH   4  26
TORSDOF 1
ENDMDL
MODEL      103
REMARK 921   NORMALIZED FREE ENERGY PREDICTED BY IDOCK:   81.31 KCAL/MOL
REMARK 922        TOTAL FREE ENERGY PREDICTED BY IDOCK:   85.96 KCAL/MOL
REMARK 923 INTER-LIGAND FREE ENERGY PREDICTED BY IDOCK:   85.76 KCAL/MOL
REMARK 924 INTRA-LIGAND FREE ENERGY PREDICTED BY IDOCK:    0.19 KCAL/MOL
REMARK 927      BINDING AFFINITY PREDICTED BY RF-SCORE:    0.00 PKD
ROOT
HETATM    1  C   UNL     1     -10.781  11.430  65.239  1.00  0.00    -0.326 C  
HETATM    2  C   UNL     1     -11.052  10.101  64.190  1.00  0.00     2.703 C  
HETATM    3  C   UNL     1     -11.333  10.707  66.450  1.00  0.00     0.397 C  
HETATM    4  C   UNL     1     -12.632   9.723  64.088  1.00  0.00    11.558 C  
HETATM    5  C   UNL     1     -10.059  10.015  66.950  1.00  0.00    -0.287 C  
HETATM    6  C   UNL     1     -10.520  10.086  62.767  1.00  0.00     1.743 C  
HETATM    7  C   UNL     1      -9.221  11.194  67.335  1.00  0.00    -0.157 C  
HETATM    8  C   UNL     1      -8.222  11.988  64.919  1.00  0.00     1.867 C  
HETATM    9  C   UNL     1      -9.331  12.073  66.017  1.00  0.00    -0.196 C  
HETATM   10  C   UNL     1      -9.979  11.757  68.592  1.00  0.00    -0.181 C  
HETATM   11  O   UNL     1      -7.841  14.055  66.490  1.00  0.00     0.564 OA 
HETATM   12  C   UNL     1     -10.291  10.690  69.605  1.00  0.00    -0.145 C  
HETATM   13  C   UNL     1      -8.915  13.497  66.774  1.00  0.00    -0.176 C  
HETATM   14  O   UNL     1      -9.549   9.751  69.882  1.00  0.00    -0.211 OA 
HETATM   15  C   UNL     1     -11.526  10.982  70.374  1.00  0.00    -0.316 C  
HETATM   16  C   UNL     1     -10.976  12.034  71.348  1.00  0.00     4.638 C  
HETATM   17  C   UNL     1     -11.921  12.117  72.526  1.00  0.00     3.873 C  
HETATM   18  C   UNL     1     -13.135  12.947  72.223  1.00  0.00    -0.316 C  
HETATM   19  C   UNL     1     -12.971  14.181  71.365  1.00  0.00    -0.422 C  
HETATM   20  O   UNL     1     -14.199  12.719  72.802  1.00  0.00    -0.329 OA 
HETATM   21  C   UNL     1     -11.925  14.109  70.230  1.00  0.00    -0.404 C  
HETATM   22  C   UNL     1     -10.593  13.371  70.572  1.00  0.00     2.324 C  
HETATM   23  C   UNL     1      -9.801  14.270  71.550  1.00  0.00     4.833 C  
HETATM   24  C   UNL     1      -9.589  13.051  69.258  1.00  0.00     0.761 C  
HETATM   25  C   UNL     1      -9.602  14.049  68.064  1.00  0.00    -0.217 C  
ENDROOT
BRANCH   4  26
HETATM   26  C   UNL     1     -13.008   8.285  63.647  1.00  0.00    23.332 C  
HETATM   27  O   UNL     1     -12.672   5.973  64.222  1.00  0.00     6.657 OA 
HETATM   28  C   UNL     1     -12.332   7.234  64.532  1.00  0.00    18.061 C  
HETATM   29  O   UNL     1     -11.483   7.488  65.378  1.00  0.00     6.137 OA 
ENDBRANCH   4  26
TORSDOF 1
ENDMDL
