MODEL        1
REMARK 921   NORMALIZED FREE ENERGY PREDICTED BY IDOCK:   -7.79 KCAL/MOL
REMARK 922        TOTAL FREE ENERGY PREDICTED BY IDOCK:  -11.01 KCAL/MOL
REMARK 923 INTER-LIGAND FREE ENERGY PREDICTED BY IDOCK:  -10.53 KCAL/MOL
REMARK 924 INTRA-LIGAND FREE ENERGY PREDICTED BY IDOCK:   -0.48 KCAL/MOL
REMARK 927      BINDING AFFINITY PREDICTED BY RF-SCORE:    0.00 PKD
ROOT
HETATM    1  C   UNL     1      -6.265  19.809  69.502  1.00  0.00    -0.359 C  
HETATM    2  C   UNL     1      -6.673  18.552  68.731  1.00  0.00    -0.266 C  
HETATM    3  C   UNL     1      -6.078  17.320  69.422  1.00  0.00    -0.236 C  
ENDROOT
BRANCH   2   4
HETATM    4  N   UNL     1      -8.120  18.383  68.751  1.00  0.00    -0.283 NA 
HETATM    5  H   UNL     1      -8.526  18.049  69.624  1.00  0.00     0.000 HD 
BRANCH   4   6
HETATM    6  C   UNL     1      -9.012  18.629  67.706  1.00  0.00    -0.282 A  
HETATM    7  C   UNL     1      -9.704  17.703  66.877  1.00  0.00    -0.292 A  
HETATM    8  N   UNL     1     -10.581  18.128  65.920  1.00  0.00    -0.494 NA 
HETATM    9  C   UNL     1      -9.281  19.996  67.464  1.00  0.00    -0.475 A  
HETATM   10  C   UNL     1     -10.156  20.414  66.468  1.00  0.00    -0.419 A  
HETATM   11  C   UNL     1     -10.785  19.444  65.731  1.00  0.00    -0.365 A  
BRANCH   7  12
HETATM   12  N   UNL     1      -9.501  16.303  66.945  1.00  0.00    -0.224 NA 
HETATM   13  C   UNL     1     -10.419  15.603  66.006  1.00  0.00    -0.331 C  
HETATM   14  N   UNL     1     -10.169  13.509  67.291  1.00  0.00    -0.240 N  
HETATM   15  C   UNL     1     -10.052  14.118  65.961  1.00  0.00    -0.316 C  
HETATM   16  C   UNL     1      -9.408  14.225  68.335  1.00  0.00    -0.208 C  
HETATM   17  C   UNL     1     -11.165  12.556  67.481  1.00  0.00    -0.291 C  
HETATM   18  O   UNL     1     -12.042  12.390  66.631  1.00  0.00    -0.592 OA 
HETATM   19  C   UNL     1      -9.664  15.768  68.321  1.00  0.00    -0.201 C  
BRANCH  17  20
HETATM   20  C   UNL     1     -11.163  11.702  68.653  1.00  0.00    -0.250 A  
HETATM   21  C   UNL     1     -10.332  10.693  69.104  1.00  0.00    -0.242 A  
HETATM   22  C   UNL     1     -10.934  10.079  70.240  1.00  0.00    -0.377 A  
HETATM   23  C   UNL     1     -12.145  10.729  70.465  1.00  0.00    -0.366 A  
HETATM   24  N   UNL     1     -12.246  11.712  69.512  1.00  0.00    -0.239 NA 
HETATM   25  C   UNL     1     -13.034  10.351  71.477  1.00  0.00    -0.562 A  
HETATM   26  C   UNL     1     -12.664   9.279  72.298  1.00  0.00    -0.435 A  
HETATM   27  H   UNL     1     -13.023  12.368  69.445  1.00  0.00     0.000 HD 
HETATM   28  C   UNL     1     -11.443   8.635  72.118  1.00  0.00    -0.373 A  
HETATM   29  C   UNL     1     -10.576   9.005  71.081  1.00  0.00    -0.361 A  
BRANCH  28  30
HETATM   30  N   UNL     1     -11.078   7.578  73.005  1.00  0.00    -0.476 N  
HETATM   31  H   UNL     1     -11.122   7.701  74.016  1.00  0.00     0.000 HD 
BRANCH  30  32
HETATM   32  S   UNL     1     -10.568   6.114  72.327  1.00  0.00    -0.226 S  
HETATM   33  O   UNL     1     -11.244   5.871  71.078  1.00  0.00    -0.279 OA 
HETATM   34  O   UNL     1      -9.122   6.145  72.409  1.00  0.00    -0.137 OA 
HETATM   35  C   UNL     1     -11.144   4.954  73.545  1.00  0.00    -0.332 C  
ENDBRANCH  30  32
ENDBRANCH  28  30
ENDBRANCH  17  20
ENDBRANCH   7  12
ENDBRANCH   4   6
ENDBRANCH   2   4
TORSDOF 6
ENDMDL
MODEL        2
REMARK 921   NORMALIZED FREE ENERGY PREDICTED BY IDOCK:   -7.15 KCAL/MOL
REMARK 922        TOTAL FREE ENERGY PREDICTED BY IDOCK:  -10.13 KCAL/MOL
REMARK 923 INTER-LIGAND FREE ENERGY PREDICTED BY IDOCK:   -9.46 KCAL/MOL
REMARK 924 INTRA-LIGAND FREE ENERGY PREDICTED BY IDOCK:   -0.68 KCAL/MOL
REMARK 927      BINDING AFFINITY PREDICTED BY RF-SCORE:    0.00 PKD
ROOT
HETATM    1  C   UNL     1      -5.351  17.298  68.912  1.00  0.00    -0.149 C  
HETATM    2  C   UNL     1      -6.160  18.005  67.822  1.00  0.00    -0.160 C  
HETATM    3  C   UNL     1      -5.817  17.391  66.461  1.00  0.00    -0.243 C  
ENDROOT
BRANCH   2   4
HETATM    4  N   UNL     1      -7.588  17.800  68.026  1.00  0.00    -0.229 NA 
HETATM    5  H   UNL     1      -7.853  17.199  68.807  1.00  0.00     0.000 HD 
BRANCH   4   6
HETATM    6  C   UNL     1      -8.633  18.333  67.271  1.00  0.00    -0.254 A  
HETATM    7  C   UNL     1      -9.584  17.665  66.453  1.00  0.00    -0.274 A  
HETATM    8  N   UNL     1     -10.575  18.353  65.812  1.00  0.00    -0.579 NA 
HETATM    9  C   UNL     1      -8.774  19.738  67.361  1.00  0.00    -0.385 A  
HETATM   10  C   UNL     1      -9.772  20.427  66.683  1.00  0.00    -0.498 A  
HETATM   11  C   UNL     1     -10.649  19.690  65.930  1.00  0.00    -0.466 A  
BRANCH   7  12
HETATM   12  N   UNL     1      -9.546  16.270  66.204  1.00  0.00    -0.310 NA 
HETATM   13  C   UNL     1     -10.659  15.878  65.297  1.00  0.00    -0.419 C  
HETATM   14  N   UNL     1     -10.496  13.541  66.077  1.00  0.00    -0.293 N  
HETATM   15  C   UNL     1     -10.485  14.412  64.896  1.00  0.00    -0.423 C  
HETATM   16  C   UNL     1      -9.521  13.940  67.112  1.00  0.00    -0.246 C  
HETATM   17  C   UNL     1     -11.566  12.663  66.223  1.00  0.00    -0.386 C  
HETATM   18  O   UNL     1     -12.562  12.767  65.505  1.00  0.00    -0.611 OA 
HETATM   19  C   UNL     1      -9.588  15.466  67.451  1.00  0.00    -0.210 C  
BRANCH  17  20
HETATM   20  C   UNL     1     -11.511  11.578  67.183  1.00  0.00    -0.237 A  
HETATM   21  C   UNL     1     -11.900  11.443  68.503  1.00  0.00    -0.364 A  
HETATM   22  C   UNL     1     -11.425  10.192  68.994  1.00  0.00    -0.138 A  
HETATM   23  C   UNL     1     -10.739   9.576  67.951  1.00  0.00    -0.228 A  
HETATM   24  N   UNL     1     -10.825  10.419  66.871  1.00  0.00    -0.206 NA 
HETATM   25  C   UNL     1     -10.089   8.344  68.091  1.00  0.00    -0.239 A  
HETATM   26  C   UNL     1     -10.157   7.715  69.340  1.00  0.00    -0.196 A  
HETATM   27  H   UNL     1     -10.432  10.216  65.953  1.00  0.00     0.000 HD 
HETATM   28  C   UNL     1     -10.867   8.291  70.389  1.00  0.00    -0.235 A  
HETATM   29  C   UNL     1     -11.487   9.539  70.242  1.00  0.00    -0.256 A  
BRANCH  28  30
HETATM   30  N   UNL     1     -10.955   7.597  71.633  1.00  0.00    -0.231 N  
HETATM   31  H   UNL     1     -11.789   7.063  71.878  1.00  0.00     0.000 HD 
BRANCH  30  32
HETATM   32  S   UNL     1      -9.636   7.688  72.687  1.00  0.00    -0.202 S  
HETATM   33  O   UNL     1      -8.851   8.865  72.418  1.00  0.00    -0.396 OA 
HETATM   34  O   UNL     1     -10.188   7.434  74.004  1.00  0.00    -0.262 OA 
HETATM   35  C   UNL     1      -8.716   6.242  72.210  1.00  0.00    -0.132 C  
ENDBRANCH  30  32
ENDBRANCH  28  30
ENDBRANCH  17  20
ENDBRANCH   7  12
ENDBRANCH   4   6
ENDBRANCH   2   4
TORSDOF 6
ENDMDL
MODEL        3
REMARK 921   NORMALIZED FREE ENERGY PREDICTED BY IDOCK:   -7.08 KCAL/MOL
REMARK 922        TOTAL FREE ENERGY PREDICTED BY IDOCK:  -10.05 KCAL/MOL
REMARK 923 INTER-LIGAND FREE ENERGY PREDICTED BY IDOCK:   -9.19 KCAL/MOL
REMARK 924 INTRA-LIGAND FREE ENERGY PREDICTED BY IDOCK:   -0.86 KCAL/MOL
REMARK 927      BINDING AFFINITY PREDICTED BY RF-SCORE:    0.00 PKD
ROOT
HETATM    1  C   UNL     1     -12.104   8.469  72.367  1.00  0.00    -0.436 C  
HETATM    2  C   UNL     1     -12.979   7.372  71.757  1.00  0.00    -0.325 C  
HETATM    3  C   UNL     1     -14.348   7.960  71.397  1.00  0.00    -0.502 C  
ENDROOT
BRANCH   2   4
HETATM    4  N   UNL     1     -12.396   6.880  70.515  1.00  0.00    -0.601 NA 
HETATM    5  H   UNL     1     -13.005   6.879  69.697  1.00  0.00     0.000 HD 
BRANCH   4   6
HETATM    6  C   UNL     1     -11.096   6.411  70.322  1.00  0.00    -0.354 A  
HETATM    7  C   UNL     1     -10.126   6.815  69.364  1.00  0.00    -0.171 A  
HETATM    8  N   UNL     1      -8.875   6.267  69.348  1.00  0.00    -0.127 NA 
HETATM    9  C   UNL     1     -10.685   5.409  71.232  1.00  0.00    -0.249 A  
HETATM   10  C   UNL     1      -9.417   4.843  71.187  1.00  0.00    -0.216 A  
HETATM   11  C   UNL     1      -8.549   5.311  70.235  1.00  0.00    -0.121 A  
BRANCH   7  12
HETATM   12  N   UNL     1     -10.396   7.758  68.342  1.00  0.00    -0.201 NA 
HETATM   13  C   UNL     1      -9.391   7.638  67.251  1.00  0.00    -0.144 C  
HETATM   14  N   UNL     1      -9.900   9.935  66.501  1.00  0.00    -0.202 N  
HETATM   15  C   UNL     1      -9.811   8.531  66.082  1.00  0.00    -0.157 C  
HETATM   16  C   UNL     1     -10.763  10.143  67.681  1.00  0.00    -0.285 C  
HETATM   17  C   UNL     1      -8.980  10.830  65.964  1.00  0.00    -0.181 C  
HETATM   18  O   UNL     1      -8.004  10.420  65.331  1.00  0.00    -0.146 OA 
HETATM   19  C   UNL     1     -10.442   9.153  68.849  1.00  0.00    -0.218 C  
BRANCH  17  20
HETATM   20  C   UNL     1      -9.176  12.261  66.088  1.00  0.00    -0.132 A  
HETATM   21  C   UNL     1      -8.931  13.180  67.090  1.00  0.00    -0.228 A  
HETATM   22  C   UNL     1      -9.502  14.431  66.715  1.00  0.00    -0.280 A  
HETATM   23  C   UNL     1     -10.103  14.251  65.472  1.00  0.00    -0.345 A  
HETATM   24  N   UNL     1      -9.872  12.946  65.110  1.00  0.00    -0.496 NA 
HETATM   25  C   UNL     1     -10.812  15.263  64.816  1.00  0.00    -0.379 A  
HETATM   26  C   UNL     1     -10.897  16.508  65.449  1.00  0.00    -0.216 A  
HETATM   27  H   UNL     1     -10.178  12.534  64.229  1.00  0.00     0.000 HD 
HETATM   28  C   UNL     1     -10.276  16.726  66.676  1.00  0.00    -0.309 A  
HETATM   29  C   UNL     1      -9.594  15.694  67.334  1.00  0.00    -0.217 A  
BRANCH  28  30
HETATM   30  N   UNL     1     -10.343  18.023  67.268  1.00  0.00    -0.364 N  
HETATM   31  H   UNL     1     -10.839  18.174  68.147  1.00  0.00     0.000 HD 
BRANCH  30  32
HETATM   32  S   UNL     1      -9.576  19.301  66.469  1.00  0.00    -0.381 S  
HETATM   33  O   UNL     1      -8.337  18.861  65.881  1.00  0.00    -0.483 OA 
HETATM   34  O   UNL     1     -10.613  19.922  65.669  1.00  0.00    -0.495 OA 
HETATM   35  C   UNL     1      -9.229  20.396  67.828  1.00  0.00    -0.226 C  
ENDBRANCH  30  32
ENDBRANCH  28  30
ENDBRANCH  17  20
ENDBRANCH   7  12
ENDBRANCH   4   6
ENDBRANCH   2   4
TORSDOF 6
ENDMDL
MODEL        4
REMARK 921   NORMALIZED FREE ENERGY PREDICTED BY IDOCK:   -7.05 KCAL/MOL
REMARK 922        TOTAL FREE ENERGY PREDICTED BY IDOCK:  -10.00 KCAL/MOL
REMARK 923 INTER-LIGAND FREE ENERGY PREDICTED BY IDOCK:   -9.70 KCAL/MOL
REMARK 924 INTRA-LIGAND FREE ENERGY PREDICTED BY IDOCK:   -0.30 KCAL/MOL
REMARK 927      BINDING AFFINITY PREDICTED BY RF-SCORE:    0.00 PKD
ROOT
HETATM    1  C   UNL     1     -10.522   1.845  73.479  1.00  0.00    -0.202 C  
HETATM    2  C   UNL     1     -10.615   3.293  72.994  1.00  0.00    -0.147 C  
HETATM    3  C   UNL     1     -10.483   4.237  74.194  1.00  0.00    -0.307 C  
ENDROOT
BRANCH   2   4
HETATM    4  N   UNL     1      -9.513   3.606  72.094  1.00  0.00    -0.125 NA 
HETATM    5  H   UNL     1      -8.574   3.531  72.484  1.00  0.00     0.000 HD 
BRANCH   4   6
HETATM    6  C   UNL     1      -9.600   3.996  70.757  1.00  0.00    -0.193 A  
HETATM    7  C   UNL     1      -9.937   5.265  70.210  1.00  0.00    -0.240 A  
HETATM    8  N   UNL     1      -9.931   5.478  68.861  1.00  0.00    -0.160 NA 
HETATM    9  C   UNL     1      -9.279   2.985  69.821  1.00  0.00    -0.219 A  
HETATM   10  C   UNL     1      -9.303   3.211  68.450  1.00  0.00    -0.244 A  
HETATM   11  C   UNL     1      -9.627   4.472  68.023  1.00  0.00    -0.154 A  
BRANCH   7  12
HETATM   12  N   UNL     1     -10.345   6.365  71.004  1.00  0.00    -0.202 NA 
HETATM   13  C   UNL     1     -11.776   6.223  71.385  1.00  0.00    -0.254 C  
HETATM   14  N   UNL     1     -11.924   8.650  71.813  1.00  0.00    -0.313 N  
HETATM   15  C   UNL     1     -12.138   7.318  72.390  1.00  0.00    -0.117 C  
HETATM   16  C   UNL     1     -10.567   8.843  71.265  1.00  0.00    -0.281 C  
HETATM   17  C   UNL     1     -13.044   9.442  71.582  1.00  0.00    -0.394 C  
HETATM   18  O   UNL     1     -14.178   8.962  71.661  1.00  0.00    -0.361 OA 
HETATM   19  C   UNL     1     -10.117   7.670  70.333  1.00  0.00    -0.190 C  
BRANCH  17  20
HETATM   20  C   UNL     1     -12.908  10.858  71.298  1.00  0.00    -0.433 A  
HETATM   21  C   UNL     1     -12.231  11.583  70.336  1.00  0.00    -0.442 A  
HETATM   22  C   UNL     1     -12.313  12.967  70.665  1.00  0.00    -0.391 A  
HETATM   23  C   UNL     1     -13.045  13.066  71.844  1.00  0.00    -0.384 A  
HETATM   24  N   UNL     1     -13.409  11.788  72.190  1.00  0.00    -0.551 NA 
HETATM   25  C   UNL     1     -13.282  14.284  72.494  1.00  0.00    -0.581 A  
HETATM   26  C   UNL     1     -12.761  15.442  71.905  1.00  0.00    -0.462 A  
HETATM   27  H   UNL     1     -13.977  11.554  73.003  1.00  0.00     0.000 HD 
HETATM   28  C   UNL     1     -12.056  15.376  70.707  1.00  0.00    -0.366 A  
HETATM   29  C   UNL     1     -11.802  14.147  70.085  1.00  0.00    -0.382 A  
BRANCH  28  30
HETATM   30  N   UNL     1     -11.582  16.584  70.112  1.00  0.00    -0.337 N  
HETATM   31  H   UNL     1     -11.921  17.493  70.426  1.00  0.00     0.000 HD 
BRANCH  30  32
HETATM   32  S   UNL     1     -10.442  16.461  68.868  1.00  0.00    -0.307 S  
HETATM   33  O   UNL     1      -9.214  15.892  69.360  1.00  0.00    -0.252 OA 
HETATM   34  O   UNL     1     -11.159  15.865  67.758  1.00  0.00    -0.325 OA 
HETATM   35  C   UNL     1     -10.182  18.175  68.472  1.00  0.00    -0.384 C  
ENDBRANCH  30  32
ENDBRANCH  28  30
ENDBRANCH  17  20
ENDBRANCH   7  12
ENDBRANCH   4   6
ENDBRANCH   2   4
TORSDOF 6
ENDMDL
MODEL        5
REMARK 921   NORMALIZED FREE ENERGY PREDICTED BY IDOCK:   -7.04 KCAL/MOL
REMARK 922        TOTAL FREE ENERGY PREDICTED BY IDOCK:   -9.99 KCAL/MOL
REMARK 923 INTER-LIGAND FREE ENERGY PREDICTED BY IDOCK:  -10.23 KCAL/MOL
REMARK 924 INTRA-LIGAND FREE ENERGY PREDICTED BY IDOCK:    0.24 KCAL/MOL
REMARK 927      BINDING AFFINITY PREDICTED BY RF-SCORE:    0.00 PKD
ROOT
HETATM    1  C   UNL     1     -10.365  20.057  68.210  1.00  0.00    -0.494 C  
HETATM    2  C   UNL     1     -10.428  19.194  66.948  1.00  0.00    -0.437 C  
HETATM    3  C   UNL     1     -10.734  20.086  65.740  1.00  0.00    -0.357 C  
ENDROOT
BRANCH   2   4
HETATM    4  N   UNL     1      -9.138  18.568  66.688  1.00  0.00    -0.298 NA 
HETATM    5  H   UNL     1      -8.854  18.502  65.711  1.00  0.00     0.000 HD 
BRANCH   4   6
HETATM    6  C   UNL     1      -8.248  18.048  67.629  1.00  0.00    -0.241 A  
HETATM    7  C   UNL     1      -8.343  16.852  68.392  1.00  0.00    -0.238 A  
HETATM    8  N   UNL     1      -7.345  16.476  69.246  1.00  0.00    -0.232 NA 
HETATM    9  C   UNL     1      -7.076  18.815  67.825  1.00  0.00    -0.237 A  
HETATM   10  C   UNL     1      -6.081  18.432  68.716  1.00  0.00    -0.208 A  
HETATM   11  C   UNL     1      -6.259  17.254  69.395  1.00  0.00    -0.245 A  
BRANCH   7  12
HETATM   12  N   UNL     1      -9.478  16.004  68.364  1.00  0.00    -0.203 NA 
HETATM   13  C   UNL     1     -10.527  16.518  69.285  1.00  0.00    -0.326 C  
HETATM   14  N   UNL     1     -11.563  14.278  69.384  1.00  0.00    -0.287 N  
HETATM   15  C   UNL     1     -11.805  15.697  69.096  1.00  0.00    -0.362 C  
HETATM   16  C   UNL     1     -10.434  13.707  68.624  1.00  0.00    -0.234 C  
HETATM   17  C   UNL     1     -12.190  13.729  70.498  1.00  0.00    -0.369 C  
HETATM   18  O   UNL     1     -12.750  14.455  71.322  1.00  0.00    -0.304 OA 
HETATM   19  C   UNL     1      -9.147  14.594  68.692  1.00  0.00    -0.189 C  
BRANCH  17  20
HETATM   20  C   UNL     1     -12.247  12.292  70.686  1.00  0.00    -0.287 A  
HETATM   21  C   UNL     1     -12.911  11.467  71.574  1.00  0.00    -0.508 A  
HETATM   22  C   UNL     1     -12.438  10.133  71.399  1.00  0.00    -0.524 A  
HETATM   23  C   UNL     1     -11.473  10.168  70.396  1.00  0.00    -0.322 A  
HETATM   24  N   UNL     1     -11.395  11.472  69.971  1.00  0.00    -0.492 NA 
HETATM   25  C   UNL     1     -10.752   9.038  69.994  1.00  0.00    -0.247 A  
HETATM   26  C   UNL     1     -11.039   7.826  70.632  1.00  0.00    -0.264 A  
HETATM   27  H   UNL     1     -10.785  11.795  69.221  1.00  0.00     0.000 HD 
HETATM   28  C   UNL     1     -12.024   7.756  71.614  1.00  0.00    -0.297 A  
HETATM   29  C   UNL     1     -12.717   8.901  72.026  1.00  0.00    -0.456 A  
BRANCH  28  30
HETATM   30  N   UNL     1     -12.323   6.493  72.209  1.00  0.00    -0.541 N  
HETATM   31  H   UNL     1     -13.276   6.129  72.216  1.00  0.00     0.000 HD 
BRANCH  30  32
HETATM   32  S   UNL     1     -11.051   5.621  72.902  1.00  0.00    -0.289 S  
HETATM   33  O   UNL     1     -11.554   4.631  73.819  1.00  0.00    -0.182 OA 
HETATM   34  O   UNL     1     -10.196   5.255  71.790  1.00  0.00    -0.196 OA 
HETATM   35  C   UNL     1     -10.215   6.900  73.812  1.00  0.00    -0.363 C  
ENDBRANCH  30  32
ENDBRANCH  28  30
ENDBRANCH  17  20
ENDBRANCH   7  12
ENDBRANCH   4   6
ENDBRANCH   2   4
TORSDOF 6
ENDMDL
MODEL        6
REMARK 921   NORMALIZED FREE ENERGY PREDICTED BY IDOCK:   -6.93 KCAL/MOL
REMARK 922        TOTAL FREE ENERGY PREDICTED BY IDOCK:   -9.84 KCAL/MOL
REMARK 923 INTER-LIGAND FREE ENERGY PREDICTED BY IDOCK:   -9.61 KCAL/MOL
REMARK 924 INTRA-LIGAND FREE ENERGY PREDICTED BY IDOCK:   -0.23 KCAL/MOL
REMARK 927      BINDING AFFINITY PREDICTED BY RF-SCORE:    0.00 PKD
ROOT
HETATM    1  C   UNL     1     -10.775  19.555  65.584  1.00  0.00    -0.420 C  
HETATM    2  C   UNL     1      -9.642  19.795  66.584  1.00  0.00    -0.392 C  
HETATM    3  C   UNL     1     -10.222  19.849  68.001  1.00  0.00    -0.572 C  
ENDROOT
BRANCH   2   4
HETATM    4  N   UNL     1      -8.694  18.689  66.563  1.00  0.00    -0.302 NA 
HETATM    5  H   UNL     1      -8.632  18.162  65.692  1.00  0.00     0.000 HD 
BRANCH   4   6
HETATM    6  C   UNL     1      -7.862  18.271  67.602  1.00  0.00    -0.229 A  
HETATM    7  C   UNL     1      -7.900  17.066  68.356  1.00  0.00    -0.233 A  
HETATM    8  N   UNL     1      -6.969  16.804  69.320  1.00  0.00    -0.231 NA 
HETATM    9  C   UNL     1      -6.818  19.169  67.925  1.00  0.00    -0.247 A  
HETATM   10  C   UNL     1      -5.893  18.900  68.927  1.00  0.00    -0.228 A  
HETATM   11  C   UNL     1      -6.007  17.704  69.588  1.00  0.00    -0.254 A  
BRANCH   7  12
HETATM   12  N   UNL     1      -8.916  16.090  68.203  1.00  0.00    -0.181 NA 
HETATM   13  C   UNL     1     -10.219  16.623  68.685  1.00  0.00    -0.284 C  
HETATM   14  N   UNL     1     -11.077  14.325  68.966  1.00  0.00    -0.250 N  
HETATM   15  C   UNL     1     -11.327  15.627  68.337  1.00  0.00    -0.364 C  
HETATM   16  C   UNL     1      -9.740  13.775  68.670  1.00  0.00    -0.140 C  
HETATM   17  C   UNL     1     -11.955  13.909  69.962  1.00  0.00    -0.336 C  
HETATM   18  O   UNL     1     -12.778  14.694  70.439  1.00  0.00    -0.348 OA 
HETATM   19  C   UNL     1      -8.593  14.815  68.893  1.00  0.00    -0.160 C  
BRANCH  17  20
HETATM   20  C   UNL     1     -11.960  12.533  70.422  1.00  0.00    -0.251 A  
HETATM   21  C   UNL     1     -11.326  11.380  70.004  1.00  0.00    -0.260 A  
HETATM   22  C   UNL     1     -11.859  10.275  70.729  1.00  0.00    -0.459 A  
HETATM   23  C   UNL     1     -12.832  10.780  71.588  1.00  0.00    -0.457 A  
HETATM   24  N   UNL     1     -12.856  12.140  71.399  1.00  0.00    -0.342 NA 
HETATM   25  C   UNL     1     -13.607   9.966  72.422  1.00  0.00    -0.258 A  
HETATM   26  C   UNL     1     -13.367   8.587  72.386  1.00  0.00    -0.321 A  
HETATM   27  H   UNL     1     -13.459  12.780  71.915  1.00  0.00     0.000 HD 
HETATM   28  C   UNL     1     -12.376   8.059  71.563  1.00  0.00    -0.308 A  
HETATM   29  C   UNL     1     -11.629   8.884  70.711  1.00  0.00    -0.301 A  
BRANCH  28  30
HETATM   30  N   UNL     1     -12.127   6.654  71.588  1.00  0.00    -0.346 N  
HETATM   31  H   UNL     1     -12.607   6.024  70.945  1.00  0.00     0.000 HD 
BRANCH  30  32
HETATM   32  S   UNL     1     -11.014   6.066  72.717  1.00  0.00    -0.272 S  
HETATM   33  O   UNL     1     -10.591   7.116  73.607  1.00  0.00    -0.372 OA 
HETATM   34  O   UNL     1     -11.601   4.840  73.221  1.00  0.00    -0.333 OA 
HETATM   35  C   UNL     1      -9.661   5.608  71.657  1.00  0.00    -0.159 C  
ENDBRANCH  30  32
ENDBRANCH  28  30
ENDBRANCH  17  20
ENDBRANCH   7  12
ENDBRANCH   4   6
ENDBRANCH   2   4
TORSDOF 6
ENDMDL
MODEL        7
REMARK 921   NORMALIZED FREE ENERGY PREDICTED BY IDOCK:   -6.85 KCAL/MOL
REMARK 922        TOTAL FREE ENERGY PREDICTED BY IDOCK:   -9.73 KCAL/MOL
REMARK 923 INTER-LIGAND FREE ENERGY PREDICTED BY IDOCK:   -9.30 KCAL/MOL
REMARK 924 INTRA-LIGAND FREE ENERGY PREDICTED BY IDOCK:   -0.43 KCAL/MOL
REMARK 927      BINDING AFFINITY PREDICTED BY RF-SCORE:    0.00 PKD
ROOT
HETATM    1  C   UNL     1     -10.684  17.441  69.067  1.00  0.00    -0.085 C  
HETATM    2  C   UNL     1      -9.953  18.595  68.377  1.00  0.00    -0.387 C  
HETATM    3  C   UNL     1     -10.197  19.888  69.162  1.00  0.00    -0.281 C  
ENDROOT
BRANCH   2   4
HETATM    4  N   UNL     1      -8.514  18.368  68.383  1.00  0.00    -0.319 NA 
HETATM    5  H   UNL     1      -8.100  18.101  69.276  1.00  0.00     0.000 HD 
BRANCH   4   6
HETATM    6  C   UNL     1      -7.639  18.476  67.302  1.00  0.00    -0.222 A  
HETATM    7  C   UNL     1      -7.381  17.548  66.256  1.00  0.00    -0.320 A  
HETATM    8  N   UNL     1      -6.511  17.843  65.245  1.00  0.00    -0.205 NA 
HETATM    9  C   UNL     1      -6.932  19.700  67.229  1.00  0.00    -0.233 A  
HETATM   10  C   UNL     1      -6.031  19.975  66.208  1.00  0.00    -0.183 A  
HETATM   11  C   UNL     1      -5.862  19.020  65.239  1.00  0.00    -0.229 A  
BRANCH   7  12
HETATM   12  N   UNL     1      -7.955  16.253  66.213  1.00  0.00    -0.263 NA 
HETATM   13  C   UNL     1      -9.363  16.329  65.737  1.00  0.00    -0.159 C  
HETATM   14  N   UNL     1      -9.850  14.139  66.768  1.00  0.00    -0.264 N  
HETATM   15  C   UNL     1      -9.896  14.912  65.521  1.00  0.00    -0.313 C  
HETATM   16  C   UNL     1      -8.518  14.127  67.404  1.00  0.00    -0.203 C  
HETATM   17  C   UNL     1     -11.062  13.772  67.347  1.00  0.00    -0.296 C  
HETATM   18  O   UNL     1     -12.121  14.258  66.943  1.00  0.00    -0.431 OA 
HETATM   19  C   UNL     1      -7.889  15.555  67.522  1.00  0.00    -0.168 C  
BRANCH  17  20
HETATM   20  C   UNL     1     -11.112  12.773  68.397  1.00  0.00    -0.262 A  
HETATM   21  C   UNL     1     -10.469  11.568  68.605  1.00  0.00    -0.224 A  
HETATM   22  C   UNL     1     -11.059  10.924  69.732  1.00  0.00    -0.328 A  
HETATM   23  C   UNL     1     -12.072  11.758  70.197  1.00  0.00    -0.317 A  
HETATM   24  N   UNL     1     -12.067  12.870  69.391  1.00  0.00    -0.245 NA 
HETATM   25  C   UNL     1     -12.905  11.419  71.269  1.00  0.00    -0.481 A  
HETATM   26  C   UNL     1     -12.682  10.188  71.898  1.00  0.00    -0.493 A  
HETATM   27  H   UNL     1     -12.691  13.668  69.511  1.00  0.00     0.000 HD 
HETATM   28  C   UNL     1     -11.653   9.351  71.476  1.00  0.00    -0.397 A  
HETATM   29  C   UNL     1     -10.847   9.691  70.382  1.00  0.00    -0.353 A  
BRANCH  28  30
HETATM   30  N   UNL     1     -11.425   8.125  72.172  1.00  0.00    -0.323 N  
HETATM   31  H   UNL     1     -10.781   8.081  72.962  1.00  0.00     0.000 HD 
BRANCH  30  32
HETATM   32  S   UNL     1     -12.254   6.748  71.645  1.00  0.00    -0.359 S  
HETATM   33  O   UNL     1     -13.659   6.856  71.945  1.00  0.00    -0.277 OA 
HETATM   34  O   UNL     1     -11.786   6.521  70.292  1.00  0.00    -0.404 OA 
HETATM   35  C   UNL     1     -11.524   5.495  72.675  1.00  0.00    -0.272 C  
ENDBRANCH  30  32
ENDBRANCH  28  30
ENDBRANCH  17  20
ENDBRANCH   7  12
ENDBRANCH   4   6
ENDBRANCH   2   4
TORSDOF 6
ENDMDL
MODEL        8
REMARK 921   NORMALIZED FREE ENERGY PREDICTED BY IDOCK:   -6.84 KCAL/MOL
REMARK 922        TOTAL FREE ENERGY PREDICTED BY IDOCK:   -9.72 KCAL/MOL
REMARK 923 INTER-LIGAND FREE ENERGY PREDICTED BY IDOCK:   -9.28 KCAL/MOL
REMARK 924 INTRA-LIGAND FREE ENERGY PREDICTED BY IDOCK:   -0.44 KCAL/MOL
REMARK 927      BINDING AFFINITY PREDICTED BY RF-SCORE:    0.00 PKD
ROOT
HETATM    1  C   UNL     1     -11.736  14.444  69.279  1.00  0.00    -0.358 C  
HETATM    2  C   UNL     1     -11.655  15.942  69.585  1.00  0.00    -0.336 C  
HETATM    3  C   UNL     1     -11.746  16.153  71.100  1.00  0.00    -0.454 C  
ENDROOT
BRANCH   2   4
HETATM    4  N   UNL     1     -10.369  16.483  69.164  1.00  0.00    -0.296 NA 
HETATM    5  H   UNL     1      -9.541  16.076  69.600  1.00  0.00     0.000 HD 
BRANCH   4   6
HETATM    6  C   UNL     1     -10.145  17.497  68.232  1.00  0.00    -0.346 A  
HETATM    7  C   UNL     1      -9.971  17.403  66.824  1.00  0.00    -0.307 A  
HETATM    8  N   UNL     1      -9.801  18.519  66.055  1.00  0.00    -0.529 NA 
HETATM    9  C   UNL     1     -10.116  18.804  68.772  1.00  0.00    -0.407 A  
HETATM   10  C   UNL     1      -9.917  19.928  67.980  1.00  0.00    -0.556 A  
HETATM   11  C   UNL     1      -9.773  19.734  66.630  1.00  0.00    -0.407 A  
BRANCH   7  12
HETATM   12  N   UNL     1      -9.909  16.167  66.134  1.00  0.00    -0.310 NA 
HETATM   13  C   UNL     1     -11.270  15.754  65.694  1.00  0.00    -0.055 C  
HETATM   14  N   UNL     1     -10.520  13.409  65.512  1.00  0.00    -0.285 N  
HETATM   15  C   UNL     1     -11.153  14.522  64.794  1.00  0.00    -0.391 C  
HETATM   16  C   UNL     1      -9.223  13.762  66.120  1.00  0.00     0.005 C  
HETATM   17  C   UNL     1     -11.301  12.290  65.786  1.00  0.00    -0.355 C  
HETATM   18  O   UNL     1     -12.523  12.323  65.622  1.00  0.00    -0.591 OA 
HETATM   19  C   UNL     1      -9.280  15.091  66.942  1.00  0.00    -0.246 C  
BRANCH  17  20
HETATM   20  C   UNL     1     -10.692  11.046  66.217  1.00  0.00    -0.212 A  
HETATM   21  C   UNL     1     -10.013  10.034  65.566  1.00  0.00    -0.367 A  
HETATM   22  C   UNL     1      -9.806   8.960  66.479  1.00  0.00    -0.344 A  
HETATM   23  C   UNL     1     -10.377   9.337  67.692  1.00  0.00    -0.253 A  
HETATM   24  N   UNL     1     -10.882  10.602  67.512  1.00  0.00    -0.276 NA 
HETATM   25  C   UNL     1     -10.408   8.499  68.812  1.00  0.00    -0.233 A  
HETATM   26  C   UNL     1      -9.819   7.234  68.690  1.00  0.00    -0.161 A  
HETATM   27  H   UNL     1     -11.340  11.145  68.243  1.00  0.00     0.000 HD 
HETATM   28  C   UNL     1      -9.210   6.845  67.501  1.00  0.00    -0.123 A  
HETATM   29  C   UNL     1      -9.213   7.684  66.379  1.00  0.00    -0.223 A  
BRANCH  28  30
HETATM   30  N   UNL     1      -8.578   5.567  67.429  1.00  0.00    -0.109 N  
HETATM   31  H   UNL     1      -7.730   5.370  67.961  1.00  0.00     0.000 HD 
BRANCH  30  32
HETATM   32  S   UNL     1      -9.277   4.392  66.434  1.00  0.00    -0.154 S  
HETATM   33  O   UNL     1     -10.657   4.707  66.167  1.00  0.00    -0.295 OA 
HETATM   34  O   UNL     1      -8.326   4.195  65.358  1.00  0.00    -0.108 OA 
HETATM   35  C   UNL     1      -9.191   2.959  67.485  1.00  0.00    -0.193 C  
ENDBRANCH  30  32
ENDBRANCH  28  30
ENDBRANCH  17  20
ENDBRANCH   7  12
ENDBRANCH   4   6
ENDBRANCH   2   4
TORSDOF 6
ENDMDL
MODEL        9
REMARK 921   NORMALIZED FREE ENERGY PREDICTED BY IDOCK:   -6.78 KCAL/MOL
REMARK 922        TOTAL FREE ENERGY PREDICTED BY IDOCK:   -9.64 KCAL/MOL
REMARK 923 INTER-LIGAND FREE ENERGY PREDICTED BY IDOCK:   -9.28 KCAL/MOL
REMARK 924 INTRA-LIGAND FREE ENERGY PREDICTED BY IDOCK:   -0.37 KCAL/MOL
REMARK 927      BINDING AFFINITY PREDICTED BY RF-SCORE:    0.00 PKD
ROOT
HETATM    1  C   UNL     1     -10.655   5.509  66.614  1.00  0.00    -0.365 C  
HETATM    2  C   UNL     1      -9.759   4.880  67.683  1.00  0.00    -0.159 C  
HETATM    3  C   UNL     1      -8.347   5.465  67.566  1.00  0.00    -0.103 C  
ENDROOT
BRANCH   2   4
HETATM    4  N   UNL     1     -10.240   5.213  69.018  1.00  0.00    -0.195 NA 
HETATM    5  H   UNL     1     -10.921   5.969  69.079  1.00  0.00     0.000 HD 
BRANCH   4   6
HETATM    6  C   UNL     1      -9.870   4.612  70.222  1.00  0.00    -0.243 A  
HETATM    7  C   UNL     1      -9.839   5.166  71.531  1.00  0.00    -0.176 A  
HETATM    8  N   UNL     1      -9.485   4.409  72.612  1.00  0.00    -0.132 NA 
HETATM    9  C   UNL     1      -9.502   3.251  70.117  1.00  0.00    -0.233 A  
HETATM   10  C   UNL     1      -9.119   2.500  71.223  1.00  0.00    -0.173 A  
HETATM   11  C   UNL     1      -9.135   3.121  72.445  1.00  0.00    -0.096 A  
BRANCH   7  12
HETATM   12  N   UNL     1     -10.116   6.529  71.802  1.00  0.00    -0.184 NA 
HETATM   13  C   UNL     1     -11.559   6.709  72.115  1.00  0.00    -0.298 C  
HETATM   14  N   UNL     1     -11.403   9.106  71.545  1.00  0.00    -0.342 N  
HETATM   15  C   UNL     1     -11.795   8.146  72.584  1.00  0.00    -0.326 C  
HETATM   16  C   UNL     1     -10.025   8.914  71.055  1.00  0.00    -0.256 C  
HETATM   17  C   UNL     1     -12.410   9.860  70.950  1.00  0.00    -0.310 C  
HETATM   18  O   UNL     1     -13.596   9.580  71.137  1.00  0.00    -0.337 OA 
HETATM   19  C   UNL     1      -9.713   7.425  70.689  1.00  0.00    -0.175 C  
BRANCH  17  20
HETATM   20  C   UNL     1     -12.091  11.022  70.143  1.00  0.00    -0.356 A  
HETATM   21  C   UNL     1     -11.916  12.364  70.420  1.00  0.00    -0.342 A  
HETATM   22  C   UNL     1     -11.796  13.074  69.190  1.00  0.00    -0.360 A  
HETATM   23  C   UNL     1     -11.908  12.140  68.165  1.00  0.00    -0.299 A  
HETATM   24  N   UNL     1     -12.062  10.914  68.765  1.00  0.00    -0.763 NA 
HETATM   25  C   UNL     1     -11.889  12.490  66.810  1.00  0.00    -0.416 A  
HETATM   26  C   UNL     1     -11.735  13.846  66.494  1.00  0.00    -0.414 A  
HETATM   27  H   UNL     1     -12.145  10.034  68.257  1.00  0.00     0.000 HD 
HETATM   28  C   UNL     1     -11.585  14.797  67.500  1.00  0.00    -0.361 A  
HETATM   29  C   UNL     1     -11.636  14.434  68.852  1.00  0.00    -0.340 A  
BRANCH  28  30
HETATM   30  N   UNL     1     -11.382  16.163  67.139  1.00  0.00     0.054 N  
HETATM   31  H   UNL     1     -12.034  16.888  67.438  1.00  0.00     0.000 HD 
BRANCH  30  32
HETATM   32  S   UNL     1     -10.027  16.543  66.201  1.00  0.00    -0.349 S  
HETATM   33  O   UNL     1      -8.896  15.741  66.594  1.00  0.00    -0.235 OA 
HETATM   34  O   UNL     1     -10.506  16.552  64.833  1.00  0.00    -0.653 OA 
HETATM   35  C   UNL     1      -9.745  18.234  66.675  1.00  0.00    -0.339 C  
ENDBRANCH  30  32
ENDBRANCH  28  30
ENDBRANCH  17  20
ENDBRANCH   7  12
ENDBRANCH   4   6
ENDBRANCH   2   4
TORSDOF 6
ENDMDL
MODEL       10
REMARK 921   NORMALIZED FREE ENERGY PREDICTED BY IDOCK:   -6.74 KCAL/MOL
REMARK 922        TOTAL FREE ENERGY PREDICTED BY IDOCK:   -9.58 KCAL/MOL
REMARK 923 INTER-LIGAND FREE ENERGY PREDICTED BY IDOCK:   -8.74 KCAL/MOL
REMARK 924 INTRA-LIGAND FREE ENERGY PREDICTED BY IDOCK:   -0.84 KCAL/MOL
REMARK 927      BINDING AFFINITY PREDICTED BY RF-SCORE:    0.00 PKD
ROOT
HETATM    1  C   UNL     1      -9.466   2.967  73.591  1.00  0.00    -0.116 C  
HETATM    2  C   UNL     1     -10.323   3.719  72.570  1.00  0.00    -0.132 C  
HETATM    3  C   UNL     1     -11.310   4.627  73.311  1.00  0.00    -0.393 C  
ENDROOT
BRANCH   2   4
HETATM    4  N   UNL     1      -9.495   4.588  71.744  1.00  0.00    -0.142 NA 
HETATM    5  H   UNL     1      -8.762   5.108  72.226  1.00  0.00     0.000 HD 
BRANCH   4   6
HETATM    6  C   UNL     1      -9.595   4.789  70.367  1.00  0.00    -0.197 A  
HETATM    7  C   UNL     1      -9.777   6.001  69.645  1.00  0.00    -0.152 A  
HETATM    8  N   UNL     1      -9.811   6.014  68.280  1.00  0.00    -0.127 NA 
HETATM    9  C   UNL     1      -9.469   3.617  69.585  1.00  0.00    -0.245 A  
HETATM   10  C   UNL     1      -9.532   3.643  68.197  1.00  0.00    -0.215 A  
HETATM   11  C   UNL     1      -9.696   4.863  67.594  1.00  0.00    -0.159 A  
BRANCH   7  12
HETATM   12  N   UNL     1      -9.984   7.253  70.276  1.00  0.00    -0.187 NA 
HETATM   13  C   UNL     1     -11.348   7.312  70.868  1.00  0.00    -0.280 C  
HETATM   14  N   UNL     1     -11.263   9.779  70.867  1.00  0.00    -0.332 N  
HETATM   15  C   UNL     1     -11.478   8.590  71.699  1.00  0.00    -0.298 C  
HETATM   16  C   UNL     1      -9.994   9.749  70.113  1.00  0.00    -0.263 C  
HETATM   17  C   UNL     1     -12.348  10.623  70.652  1.00  0.00    -0.369 C  
HETATM   18  O   UNL     1     -13.487  10.272  70.970  1.00  0.00    -0.318 OA 
HETATM   19  C   UNL     1      -9.771   8.399  69.356  1.00  0.00    -0.177 C  
BRANCH  17  20
HETATM   20  C   UNL     1     -12.160  11.952  70.102  1.00  0.00    -0.302 A  
HETATM   21  C   UNL     1     -11.920  12.438  68.831  1.00  0.00    -0.289 A  
HETATM   22  C   UNL     1     -11.637  13.832  68.921  1.00  0.00    -0.358 A  
HETATM   23  C   UNL     1     -11.704  14.179  70.268  1.00  0.00    -0.258 A  
HETATM   24  N   UNL     1     -12.041  13.036  70.951  1.00  0.00    -0.465 NA 
HETATM   25  C   UNL     1     -11.428  15.468  70.737  1.00  0.00    -0.396 A  
HETATM   26  C   UNL     1     -11.086  16.441  69.790  1.00  0.00    -0.305 A  
HETATM   27  H   UNL     1     -12.185  12.993  71.959  1.00  0.00     0.000 HD 
HETATM   28  C   UNL     1     -11.047  16.132  68.434  1.00  0.00    -0.359 A  
HETATM   29  C   UNL     1     -11.296  14.829  67.983  1.00  0.00    -0.332 A  
BRANCH  28  30
HETATM   30  N   UNL     1     -10.742  17.162  67.494  1.00  0.00    -0.318 N  
HETATM   31  H   UNL     1     -11.473  17.587  66.925  1.00  0.00     0.000 HD 
BRANCH  30  32
HETATM   32  S   UNL     1      -9.130  17.653  67.352  1.00  0.00    -0.241 S  
HETATM   33  O   UNL     1      -8.252  16.710  67.997  1.00  0.00    -0.178 OA 
HETATM   34  O   UNL     1      -8.965  18.005  65.956  1.00  0.00    -0.502 OA 
HETATM   35  C   UNL     1      -9.152  19.170  68.281  1.00  0.00    -0.338 C  
ENDBRANCH  30  32
ENDBRANCH  28  30
ENDBRANCH  17  20
ENDBRANCH   7  12
ENDBRANCH   4   6
ENDBRANCH   2   4
TORSDOF 6
ENDMDL
MODEL       11
REMARK 921   NORMALIZED FREE ENERGY PREDICTED BY IDOCK:   -6.65 KCAL/MOL
REMARK 922        TOTAL FREE ENERGY PREDICTED BY IDOCK:   -9.46 KCAL/MOL
REMARK 923 INTER-LIGAND FREE ENERGY PREDICTED BY IDOCK:   -8.56 KCAL/MOL
REMARK 924 INTRA-LIGAND FREE ENERGY PREDICTED BY IDOCK:   -0.90 KCAL/MOL
REMARK 927      BINDING AFFINITY PREDICTED BY RF-SCORE:    0.00 PKD
ROOT
HETATM    1  C   UNL     1     -10.075   6.094  74.506  1.00  0.00    -0.345 C  
HETATM    2  C   UNL     1      -9.900   4.674  73.961  1.00  0.00    -0.150 C  
HETATM    3  C   UNL     1     -11.242   4.174  73.416  1.00  0.00    -0.339 C  
ENDROOT
BRANCH   2   4
HETATM    4  N   UNL     1      -8.965   4.664  72.844  1.00  0.00    -0.118 NA 
HETATM    5  H   UNL     1      -7.974   4.691  73.082  1.00  0.00     0.000 HD 
BRANCH   4   6
HETATM    6  C   UNL     1      -9.276   4.622  71.485  1.00  0.00    -0.139 A  
HETATM    7  C   UNL     1      -9.750   5.661  70.637  1.00  0.00    -0.180 A  
HETATM    8  N   UNL     1      -9.964   5.446  69.305  1.00  0.00    -0.188 NA 
HETATM    9  C   UNL     1      -9.059   3.369  70.864  1.00  0.00    -0.184 A  
HETATM   10  C   UNL     1      -9.306   3.159  69.513  1.00  0.00    -0.228 A  
HETATM   11  C   UNL     1      -9.749   4.229  68.777  1.00  0.00    -0.114 A  
BRANCH   7  12
HETATM   12  N   UNL     1     -10.079   6.955  71.111  1.00  0.00    -0.192 NA 
HETATM   13  C   UNL     1     -11.553   7.087  71.268  1.00  0.00    -0.303 C  
HETATM   14  N   UNL     1     -11.363   9.547  71.162  1.00  0.00    -0.339 N  
HETATM   15  C   UNL     1     -11.867   8.418  71.954  1.00  0.00    -0.336 C  
HETATM   16  C   UNL     1      -9.931   9.435  70.821  1.00  0.00    -0.289 C  
HETATM   17  C   UNL     1     -12.299  10.403  70.590  1.00  0.00    -0.346 C  
HETATM   18  O   UNL     1     -13.495  10.103  70.574  1.00  0.00    -0.185 OA 
HETATM   19  C   UNL     1      -9.555   8.034  70.236  1.00  0.00    -0.171 C  
BRANCH  17  20
HETATM   20  C   UNL     1     -11.899  11.689  70.051  1.00  0.00    -0.355 A  
HETATM   21  C   UNL     1     -12.057  12.996  70.471  1.00  0.00    -0.373 A  
HETATM   22  C   UNL     1     -11.612  13.866  69.434  1.00  0.00    -0.350 A  
HETATM   23  C   UNL     1     -11.190  13.064  68.377  1.00  0.00    -0.269 A  
HETATM   24  N   UNL     1     -11.353  11.762  68.784  1.00  0.00    -0.241 NA 
HETATM   25  C   UNL     1     -10.735  13.584  67.161  1.00  0.00    -0.282 A  
HETATM   26  C   UNL     1     -10.697  14.977  67.026  1.00  0.00    -0.304 A  
HETATM   27  H   UNL     1     -11.102  10.950  68.221  1.00  0.00     0.000 HD 
HETATM   28  C   UNL     1     -11.080  15.803  68.079  1.00  0.00    -0.337 A  
HETATM   29  C   UNL     1     -11.561  15.267  69.280  1.00  0.00    -0.350 A  
BRANCH  28  30
HETATM   30  N   UNL     1     -10.982  17.219  67.922  1.00  0.00    -0.275 N  
HETATM   31  H   UNL     1     -11.811  17.786  67.746  1.00  0.00     0.000 HD 
BRANCH  30  32
HETATM   32  S   UNL     1      -9.450  17.926  68.038  1.00  0.00    -0.289 S  
HETATM   33  O   UNL     1      -8.569  17.102  68.826  1.00  0.00    -0.268 OA 
HETATM   34  O   UNL     1      -9.110  18.311  66.682  1.00  0.00    -0.274 OA 
HETATM   35  C   UNL     1      -9.826  19.415  68.934  1.00  0.00    -0.453 C  
ENDBRANCH  30  32
ENDBRANCH  28  30
ENDBRANCH  17  20
ENDBRANCH   7  12
ENDBRANCH   4   6
ENDBRANCH   2   4
TORSDOF 6
ENDMDL
MODEL       12
REMARK 921   NORMALIZED FREE ENERGY PREDICTED BY IDOCK:   -6.65 KCAL/MOL
REMARK 922        TOTAL FREE ENERGY PREDICTED BY IDOCK:   -9.46 KCAL/MOL
REMARK 923 INTER-LIGAND FREE ENERGY PREDICTED BY IDOCK:   -9.47 KCAL/MOL
REMARK 924 INTRA-LIGAND FREE ENERGY PREDICTED BY IDOCK:    0.01 KCAL/MOL
REMARK 927      BINDING AFFINITY PREDICTED BY RF-SCORE:    0.00 PKD
ROOT
HETATM    1  C   UNL     1     -11.953  14.637  69.161  1.00  0.00    -0.329 C  
HETATM    2  C   UNL     1     -11.698  16.074  69.624  1.00  0.00    -0.276 C  
HETATM    3  C   UNL     1     -11.683  16.115  71.155  1.00  0.00    -0.454 C  
ENDROOT
BRANCH   2   4
HETATM    4  N   UNL     1     -10.388  16.532  69.181  1.00  0.00    -0.296 NA 
HETATM    5  H   UNL     1      -9.581  16.097  69.627  1.00  0.00     0.000 HD 
BRANCH   4   6
HETATM    6  C   UNL     1     -10.116  17.500  68.214  1.00  0.00    -0.346 A  
HETATM    7  C   UNL     1      -9.893  17.340  66.818  1.00  0.00    -0.294 A  
HETATM    8  N   UNL     1      -9.680  18.418  66.007  1.00  0.00    -0.515 NA 
HETATM    9  C   UNL     1     -10.087  18.829  68.696  1.00  0.00    -0.432 A  
HETATM   10  C   UNL     1      -9.843  19.914  67.862  1.00  0.00    -0.529 A  
HETATM   11  C   UNL     1      -9.654  19.657  66.529  1.00  0.00    -0.389 A  
BRANCH   7  12
HETATM   12  N   UNL     1      -9.825  16.074  66.186  1.00  0.00    -0.301 NA 
HETATM   13  C   UNL     1     -11.139  15.730  65.578  1.00  0.00    -0.190 C  
HETATM   14  N   UNL     1     -10.536  13.336  65.582  1.00  0.00    -0.278 N  
HETATM   15  C   UNL     1     -10.988  14.455  64.746  1.00  0.00    -0.397 C  
HETATM   16  C   UNL     1      -9.311  13.631  66.350  1.00  0.00    -0.186 C  
HETATM   17  C   UNL     1     -11.423  12.282  65.785  1.00  0.00    -0.367 C  
HETATM   18  O   UNL     1     -12.606  12.387  65.453  1.00  0.00    -0.637 OA 
HETATM   19  C   UNL     1      -9.386  14.997  67.109  1.00  0.00    -0.215 C  
BRANCH  17  20
HETATM   20  C   UNL     1     -10.965  11.022  66.338  1.00  0.00    -0.137 A  
HETATM   21  C   UNL     1     -11.037  10.442  67.590  1.00  0.00    -0.361 A  
HETATM   22  C   UNL     1     -10.244   9.258  67.591  1.00  0.00    -0.285 A  
HETATM   23  C   UNL     1      -9.686   9.136  66.321  1.00  0.00    -0.274 A  
HETATM   24  N   UNL     1     -10.154  10.196  65.583  1.00  0.00    -0.272 NA 
HETATM   25  C   UNL     1      -8.801   8.109  65.974  1.00  0.00    -0.206 A  
HETATM   26  C   UNL     1      -8.487   7.164  66.958  1.00  0.00    -0.122 A  
HETATM   27  H   UNL     1      -9.930  10.353  64.601  1.00  0.00     0.000 HD 
HETATM   28  C   UNL     1      -9.058   7.242  68.226  1.00  0.00    -0.134 A  
HETATM   29  C   UNL     1      -9.919   8.293  68.567  1.00  0.00    -0.206 A  
BRANCH  28  30
HETATM   30  N   UNL     1      -8.752   6.234  69.189  1.00  0.00    -0.123 N  
HETATM   31  H   UNL     1      -7.826   6.176  69.612  1.00  0.00     0.000 HD 
BRANCH  30  32
HETATM   32  S   UNL     1      -9.972   5.139  69.605  1.00  0.00    -0.262 S  
HETATM   33  O   UNL     1     -11.271   5.736  69.434  1.00  0.00    -0.321 OA 
HETATM   34  O   UNL     1      -9.615   3.904  68.934  1.00  0.00    -0.171 OA 
HETATM   35  C   UNL     1      -9.650   4.910  71.339  1.00  0.00    -0.166 C  
ENDBRANCH  30  32
ENDBRANCH  28  30
ENDBRANCH  17  20
ENDBRANCH   7  12
ENDBRANCH   4   6
ENDBRANCH   2   4
TORSDOF 6
ENDMDL
MODEL       13
REMARK 921   NORMALIZED FREE ENERGY PREDICTED BY IDOCK:   -6.64 KCAL/MOL
REMARK 922        TOTAL FREE ENERGY PREDICTED BY IDOCK:   -9.45 KCAL/MOL
REMARK 923 INTER-LIGAND FREE ENERGY PREDICTED BY IDOCK:   -8.90 KCAL/MOL
REMARK 924 INTRA-LIGAND FREE ENERGY PREDICTED BY IDOCK:   -0.56 KCAL/MOL
REMARK 927      BINDING AFFINITY PREDICTED BY RF-SCORE:    0.00 PKD
ROOT
HETATM    1  C   UNL     1     -13.885   9.710  71.544  1.00  0.00    -0.216 C  
HETATM    2  C   UNL     1     -13.560   8.475  72.388  1.00  0.00    -0.279 C  
HETATM    3  C   UNL     1     -13.647   7.225  71.506  1.00  0.00    -0.442 C  
ENDROOT
BRANCH   2   4
HETATM    4  N   UNL     1     -12.192   8.540  72.887  1.00  0.00    -0.489 NA 
HETATM    5  H   UNL     1     -11.992   9.272  73.568  1.00  0.00     0.000 HD 
BRANCH   4   6
HETATM    6  C   UNL     1     -11.126   7.711  72.535  1.00  0.00    -0.336 A  
HETATM    7  C   UNL     1     -10.435   7.612  71.296  1.00  0.00    -0.206 A  
HETATM    8  N   UNL     1      -9.375   6.764  71.143  1.00  0.00    -0.159 NA 
HETATM    9  C   UNL     1     -10.656   6.875  73.574  1.00  0.00    -0.378 A  
HETATM   10  C   UNL     1      -9.592   5.999  73.395  1.00  0.00    -0.144 A  
HETATM   11  C   UNL     1      -8.982   5.986  72.168  1.00  0.00    -0.142 A  
BRANCH   7  12
HETATM   12  N   UNL     1     -10.818   8.331  70.137  1.00  0.00    -0.241 NA 
HETATM   13  C   UNL     1     -10.188   7.733  68.928  1.00  0.00    -0.211 C  
HETATM   14  N   UNL     1     -10.500   9.849  67.695  1.00  0.00    -0.227 N  
HETATM   15  C   UNL     1     -10.762   8.405  67.680  1.00  0.00    -0.121 C  
HETATM   16  C   UNL     1     -10.956  10.517  68.930  1.00  0.00    -0.246 C  
HETATM   17  C   UNL     1      -9.630  10.358  66.736  1.00  0.00    -0.171 C  
HETATM   18  O   UNL     1      -8.949   9.599  66.043  1.00  0.00    -0.148 OA 
HETATM   19  C   UNL     1     -10.492   9.776  70.227  1.00  0.00    -0.288 C  
BRANCH  17  20
HETATM   20  C   UNL     1      -9.546  11.785  66.491  1.00  0.00    -0.210 A  
HETATM   21  C   UNL     1      -8.826  12.816  67.064  1.00  0.00    -0.213 A  
HETATM   22  C   UNL     1      -9.291  14.052  66.530  1.00  0.00    -0.274 A  
HETATM   23  C   UNL     1     -10.310  13.752  65.629  1.00  0.00    -0.311 A  
HETATM   24  N   UNL     1     -10.426  12.384  65.609  1.00  0.00    -0.255 NA 
HETATM   25  C   UNL     1     -11.038  14.735  64.949  1.00  0.00    -0.416 A  
HETATM   26  C   UNL     1     -10.702  16.072  65.189  1.00  0.00    -0.429 A  
HETATM   27  H   UNL     1     -11.081  11.873  65.018  1.00  0.00     0.000 HD 
HETATM   28  C   UNL     1      -9.664  16.399  66.057  1.00  0.00    -0.326 A  
HETATM   29  C   UNL     1      -8.964  15.406  66.753  1.00  0.00    -0.288 A  
BRANCH  28  30
HETATM   30  N   UNL     1      -9.318  17.772  66.241  1.00  0.00    -0.241 N  
HETATM   31  H   UNL     1      -8.557  18.197  65.711  1.00  0.00     0.000 HD 
BRANCH  30  32
HETATM   32  S   UNL     1     -10.207  18.671  67.364  1.00  0.00    -0.406 S  
HETATM   33  O   UNL     1     -11.020  19.655  66.697  1.00  0.00    -0.424 OA 
HETATM   34  O   UNL     1     -10.790  17.689  68.256  1.00  0.00    -0.324 OA 
HETATM   35  C   UNL     1      -8.903  19.489  68.256  1.00  0.00    -0.335 C  
ENDBRANCH  30  32
ENDBRANCH  28  30
ENDBRANCH  17  20
ENDBRANCH   7  12
ENDBRANCH   4   6
ENDBRANCH   2   4
TORSDOF 6
ENDMDL
MODEL       14
REMARK 921   NORMALIZED FREE ENERGY PREDICTED BY IDOCK:   -6.48 KCAL/MOL
REMARK 922        TOTAL FREE ENERGY PREDICTED BY IDOCK:   -9.23 KCAL/MOL
REMARK 923 INTER-LIGAND FREE ENERGY PREDICTED BY IDOCK:   -8.45 KCAL/MOL
REMARK 924 INTRA-LIGAND FREE ENERGY PREDICTED BY IDOCK:   -0.78 KCAL/MOL
REMARK 927      BINDING AFFINITY PREDICTED BY RF-SCORE:    0.00 PKD
ROOT
HETATM    1  C   UNL     1      -9.398   3.060  69.601  1.00  0.00    -0.214 C  
HETATM    2  C   UNL     1      -9.491   4.506  69.107  1.00  0.00    -0.164 C  
HETATM    3  C   UNL     1      -9.691   4.508  67.588  1.00  0.00    -0.206 C  
ENDROOT
BRANCH   2   4
HETATM    4  N   UNL     1     -10.653   5.171  69.683  1.00  0.00    -0.200 NA 
HETATM    5  H   UNL     1     -11.552   4.972  69.245  1.00  0.00     0.000 HD 
BRANCH   4   6
HETATM    6  C   UNL     1     -10.670   6.051  70.765  1.00  0.00    -0.276 A  
HETATM    7  C   UNL     1     -10.709   7.472  70.770  1.00  0.00    -0.229 A  
HETATM    8  N   UNL     1     -10.764   8.176  71.939  1.00  0.00    -0.247 NA 
HETATM    9  C   UNL     1     -10.679   5.429  72.036  1.00  0.00    -0.281 A  
HETATM   10  C   UNL     1     -10.709   6.159  73.218  1.00  0.00    -0.282 A  
HETATM   11  C   UNL     1     -10.759   7.525  73.116  1.00  0.00    -0.398 A  
BRANCH   7  12
HETATM   12  N   UNL     1     -10.642   8.251  69.588  1.00  0.00    -0.229 NA 
HETATM   13  C   UNL     1      -9.313   8.088  68.938  1.00  0.00    -0.150 C  
HETATM   14  N   UNL     1      -9.623  10.215  67.724  1.00  0.00    -0.147 N  
HETATM   15  C   UNL     1      -9.332   8.784  67.576  1.00  0.00    -0.136 C  
HETATM   16  C   UNL     1     -10.854  10.490  68.492  1.00  0.00    -0.234 C  
HETATM   17  C   UNL     1      -8.612  11.117  67.406  1.00  0.00    -0.137 C  
HETATM   18  O   UNL     1      -7.459  10.722  67.215  1.00  0.00    -0.095 OA 
HETATM   19  C   UNL     1     -10.923   9.689  69.834  1.00  0.00    -0.252 C  
BRANCH  17  20
HETATM   20  C   UNL     1      -8.900  12.528  67.239  1.00  0.00    -0.195 A  
HETATM   21  C   UNL     1      -8.852  13.623  68.081  1.00  0.00    -0.189 A  
HETATM   22  C   UNL     1      -9.428  14.741  67.411  1.00  0.00    -0.207 A  
HETATM   23  C   UNL     1      -9.832  14.302  66.153  1.00  0.00    -0.316 A  
HETATM   24  N   UNL     1      -9.482  12.976  66.069  1.00  0.00    -0.454 NA 
HETATM   25  C   UNL     1     -10.491  15.126  65.235  1.00  0.00    -0.434 A  
HETATM   26  C   UNL     1     -10.734  16.452  65.613  1.00  0.00    -0.280 A  
HETATM   27  H   UNL     1      -9.634  12.395  65.245  1.00  0.00     0.000 HD 
HETATM   28  C   UNL     1     -10.309  16.928  66.850  1.00  0.00    -0.304 A  
HETATM   29  C   UNL     1      -9.677  16.082  67.771  1.00  0.00    -0.221 A  
BRANCH  28  30
HETATM   30  N   UNL     1     -10.531  18.298  67.182  1.00  0.00    -0.395 N  
HETATM   31  H   UNL     1     -11.424  18.608  67.565  1.00  0.00     0.000 HD 
BRANCH  30  32
HETATM   32  S   UNL     1      -9.267  19.392  66.920  1.00  0.00    -0.340 S  
HETATM   33  O   UNL     1      -8.379  18.905  65.896  1.00  0.00    -0.483 OA 
HETATM   34  O   UNL     1      -9.908  20.687  66.810  1.00  0.00    -0.392 OA 
HETATM   35  C   UNL     1      -8.439  19.342  68.493  1.00  0.00    -0.366 C  
ENDBRANCH  30  32
ENDBRANCH  28  30
ENDBRANCH  17  20
ENDBRANCH   7  12
ENDBRANCH   4   6
ENDBRANCH   2   4
TORSDOF 6
ENDMDL
MODEL       15
REMARK 921   NORMALIZED FREE ENERGY PREDICTED BY IDOCK:   -6.47 KCAL/MOL
REMARK 922        TOTAL FREE ENERGY PREDICTED BY IDOCK:   -9.21 KCAL/MOL
REMARK 923 INTER-LIGAND FREE ENERGY PREDICTED BY IDOCK:   -8.90 KCAL/MOL
REMARK 924 INTRA-LIGAND FREE ENERGY PREDICTED BY IDOCK:   -0.32 KCAL/MOL
REMARK 927      BINDING AFFINITY PREDICTED BY RF-SCORE:    0.00 PKD
ROOT
HETATM    1  C   UNL     1      -8.285   3.162  74.472  1.00  0.00    -0.069 C  
HETATM    2  C   UNL     1      -9.217   4.374  74.541  1.00  0.00    -0.105 C  
HETATM    3  C   UNL     1      -8.403   5.650  74.300  1.00  0.00    -0.110 C  
ENDROOT
BRANCH   2   4
HETATM    4  N   UNL     1     -10.219   4.312  73.485  1.00  0.00    -0.148 NA 
HETATM    5  H   UNL     1     -11.194   4.317  73.784  1.00  0.00     0.000 HD 
BRANCH   4   6
HETATM    6  C   UNL     1      -9.992   4.245  72.110  1.00  0.00    -0.179 A  
HETATM    7  C   UNL     1      -9.942   5.297  71.154  1.00  0.00    -0.201 A  
HETATM    8  N   UNL     1      -9.663   5.048  69.840  1.00  0.00    -0.176 NA 
HETATM    9  C   UNL     1      -9.751   2.944  71.610  1.00  0.00    -0.226 A  
HETATM   10  C   UNL     1      -9.494   2.703  70.265  1.00  0.00    -0.171 A  
HETATM   11  C   UNL     1      -9.453   3.786  69.425  1.00  0.00    -0.187 A  
BRANCH   7  12
HETATM   12  N   UNL     1     -10.223   6.648  71.476  1.00  0.00    -0.197 NA 
HETATM   13  C   UNL     1     -11.679   6.827  71.724  1.00  0.00    -0.312 C  
HETATM   14  N   UNL     1     -11.478   9.247  71.280  1.00  0.00    -0.317 N  
HETATM   15  C   UNL     1     -11.928   8.242  72.250  1.00  0.00    -0.386 C  
HETATM   16  C   UNL     1     -10.077   9.066  70.851  1.00  0.00    -0.262 C  
HETATM   17  C   UNL     1     -12.448  10.039  70.672  1.00  0.00    -0.236 C  
HETATM   18  O   UNL     1     -13.644   9.760  70.785  1.00  0.00    -0.227 OA 
HETATM   19  C   UNL     1      -9.758   7.594  70.429  1.00  0.00    -0.179 C  
BRANCH  17  20
HETATM   20  C   UNL     1     -12.079  11.235  69.940  1.00  0.00    -0.341 A  
HETATM   21  C   UNL     1     -11.855  12.550  70.301  1.00  0.00    -0.305 A  
HETATM   22  C   UNL     1     -11.701  13.329  69.117  1.00  0.00    -0.379 A  
HETATM   23  C   UNL     1     -11.842  12.464  68.035  1.00  0.00    -0.316 A  
HETATM   24  N   UNL     1     -12.046  11.211  68.558  1.00  0.00    -0.710 NA 
HETATM   25  C   UNL     1     -11.802  12.897  66.705  1.00  0.00    -0.461 A  
HETATM   26  C   UNL     1     -11.595  14.262  66.474  1.00  0.00    -0.390 A  
HETATM   27  H   UNL     1     -12.159  10.367  67.997  1.00  0.00     0.000 HD 
HETATM   28  C   UNL     1     -11.415  15.143  67.537  1.00  0.00    -0.298 A  
HETATM   29  C   UNL     1     -11.488  14.700  68.864  1.00  0.00    -0.323 A  
BRANCH  28  30
HETATM   30  N   UNL     1     -11.158  16.520  67.262  1.00  0.00    -0.074 N  
HETATM   31  H   UNL     1     -11.553  17.256  67.848  1.00  0.00     0.000 HD 
BRANCH  30  32
HETATM   32  S   UNL     1     -10.178  16.895  65.936  1.00  0.00    -0.262 S  
HETATM   33  O   UNL     1      -8.938  16.164  65.997  1.00  0.00    -0.330 OA 
HETATM   34  O   UNL     1     -11.052  16.802  64.783  1.00  0.00    -0.678 OA 
HETATM   35  C   UNL     1      -9.860  18.622  66.221  1.00  0.00    -0.342 C  
ENDBRANCH  30  32
ENDBRANCH  28  30
ENDBRANCH  17  20
ENDBRANCH   7  12
ENDBRANCH   4   6
ENDBRANCH   2   4
TORSDOF 6
ENDMDL
MODEL       16
REMARK 921   NORMALIZED FREE ENERGY PREDICTED BY IDOCK:   -6.44 KCAL/MOL
REMARK 922        TOTAL FREE ENERGY PREDICTED BY IDOCK:   -9.18 KCAL/MOL
REMARK 923 INTER-LIGAND FREE ENERGY PREDICTED BY IDOCK:   -8.62 KCAL/MOL
REMARK 924 INTRA-LIGAND FREE ENERGY PREDICTED BY IDOCK:   -0.56 KCAL/MOL
REMARK 927      BINDING AFFINITY PREDICTED BY RF-SCORE:    0.00 PKD
ROOT
HETATM    1  C   UNL     1     -12.001  14.125  70.667  1.00  0.00    -0.385 C  
HETATM    2  C   UNL     1     -11.863  15.649  70.642  1.00  0.00    -0.376 C  
HETATM    3  C   UNL     1     -11.804  16.173  72.081  1.00  0.00    -0.626 C  
ENDROOT
BRANCH   2   4
HETATM    4  N   UNL     1     -10.613  16.041  70.003  1.00  0.00    -0.308 NA 
HETATM    5  H   UNL     1      -9.757  15.838  70.519  1.00  0.00     0.000 HD 
BRANCH   4   6
HETATM    6  C   UNL     1     -10.459  16.664  68.764  1.00  0.00    -0.324 A  
HETATM    7  C   UNL     1     -10.383  16.084  67.468  1.00  0.00    -0.287 A  
HETATM    8  N   UNL     1     -10.272  16.860  66.350  1.00  0.00    -0.313 NA 
HETATM    9  C   UNL     1     -10.401  18.076  68.813  1.00  0.00    -0.294 A  
HETATM   10  C   UNL     1     -10.262  18.852  67.668  1.00  0.00    -0.459 A  
HETATM   11  C   UNL     1     -10.211  18.198  66.464  1.00  0.00    -0.391 A  
BRANCH   7  12
HETATM   12  N   UNL     1     -10.362  14.684  67.248  1.00  0.00    -0.255 NA 
HETATM   13  C   UNL     1     -11.742  14.131  67.320  1.00  0.00    -0.392 C  
HETATM   14  N   UNL     1     -10.836  11.879  67.773  1.00  0.00    -0.202 N  
HETATM   15  C   UNL     1     -11.715  12.661  66.895  1.00  0.00    -0.383 C  
HETATM   16  C   UNL     1      -9.474  12.435  67.889  1.00  0.00    -0.198 C  
HETATM   17  C   UNL     1     -11.427  10.923  68.593  1.00  0.00    -0.311 C  
HETATM   18  O   UNL     1     -12.652  10.886  68.729  1.00  0.00    -0.317 OA 
HETATM   19  C   UNL     1      -9.470  13.969  68.196  1.00  0.00    -0.215 C  
BRANCH  17  20
HETATM   20  C   UNL     1     -10.624   9.917  69.260  1.00  0.00    -0.224 A  
HETATM   21  C   UNL     1     -10.108   8.693  68.879  1.00  0.00    -0.213 A  
HETATM   22  C   UNL     1      -9.547   8.056  70.024  1.00  0.00    -0.171 A  
HETATM   23  C   UNL     1      -9.738   8.913  71.105  1.00  0.00    -0.274 A  
HETATM   24  N   UNL     1     -10.367  10.031  70.614  1.00  0.00    -0.389 NA 
HETATM   25  C   UNL     1      -9.356   8.587  72.411  1.00  0.00    -0.349 A  
HETATM   26  C   UNL     1      -8.742   7.346  72.615  1.00  0.00    -0.155 A  
HETATM   27  H   UNL     1     -10.613  10.844  71.177  1.00  0.00     0.000 HD 
HETATM   28  C   UNL     1      -8.506   6.485  71.547  1.00  0.00    -0.125 A  
HETATM   29  C   UNL     1      -8.922   6.812  70.250  1.00  0.00    -0.152 A  
BRANCH  28  30
HETATM   30  N   UNL     1      -7.835   5.248  71.786  1.00  0.00    -0.108 N  
HETATM   31  H   UNL     1      -6.819   5.180  71.719  1.00  0.00     0.000 HD 
BRANCH  30  32
HETATM   32  S   UNL     1      -8.775   3.899  72.182  1.00  0.00    -0.106 S  
HETATM   33  O   UNL     1     -10.169   4.161  71.935  1.00  0.00    -0.175 OA 
HETATM   34  O   UNL     1      -8.097   2.775  71.567  1.00  0.00    -0.054 OA 
HETATM   35  C   UNL     1      -8.496   3.790  73.935  1.00  0.00    -0.090 C  
ENDBRANCH  30  32
ENDBRANCH  28  30
ENDBRANCH  17  20
ENDBRANCH   7  12
ENDBRANCH   4   6
ENDBRANCH   2   4
TORSDOF 6
ENDMDL
MODEL       17
REMARK 921   NORMALIZED FREE ENERGY PREDICTED BY IDOCK:   -6.39 KCAL/MOL
REMARK 922        TOTAL FREE ENERGY PREDICTED BY IDOCK:   -9.12 KCAL/MOL
REMARK 923 INTER-LIGAND FREE ENERGY PREDICTED BY IDOCK:   -8.22 KCAL/MOL
REMARK 924 INTRA-LIGAND FREE ENERGY PREDICTED BY IDOCK:   -0.90 KCAL/MOL
REMARK 927      BINDING AFFINITY PREDICTED BY RF-SCORE:    0.00 PKD
ROOT
HETATM    1  C   UNL     1     -10.198  19.609  65.841  1.00  0.00    -0.536 C  
HETATM    2  C   UNL     1      -9.664  20.463  66.993  1.00  0.00    -0.447 C  
HETATM    3  C   UNL     1     -10.096  19.841  68.325  1.00  0.00    -0.575 C  
ENDROOT
BRANCH   2   4
HETATM    4  N   UNL     1      -8.207  20.475  66.992  1.00  0.00    -0.501 NA 
HETATM    5  H   UNL     1      -7.755  20.870  67.816  1.00  0.00     0.000 HD 
BRANCH   4   6
HETATM    6  C   UNL     1      -7.361  20.006  65.986  1.00  0.00    -0.306 A  
HETATM    7  C   UNL     1      -6.825  18.703  65.796  1.00  0.00    -0.272 A  
HETATM    8  N   UNL     1      -6.038  18.411  64.718  1.00  0.00    -0.284 NA 
HETATM    9  C   UNL     1      -7.016  20.965  65.005  1.00  0.00     0.089 A  
HETATM   10  C   UNL     1      -6.193  20.660  63.928  1.00  0.00    -0.311 A  
HETATM   11  C   UNL     1      -5.737  19.371  63.826  1.00  0.00    -0.285 A  
BRANCH   7  12
HETATM   12  N   UNL     1      -7.019  17.645  66.718  1.00  0.00    -0.182 NA 
HETATM   13  C   UNL     1      -5.728  16.958  66.994  1.00  0.00    -0.170 C  
HETATM   14  N   UNL     1      -6.940  14.948  67.762  1.00  0.00    -0.159 N  
HETATM   15  C   UNL     1      -5.930  15.949  68.127  1.00  0.00    -0.124 C  
HETATM   16  C   UNL     1      -8.221  15.536  67.324  1.00  0.00    -0.197 C  
HETATM   17  C   UNL     1      -6.513  13.635  67.588  1.00  0.00    -0.153 C  
HETATM   18  O   UNL     1      -5.310  13.369  67.533  1.00  0.00    -0.304 OA 
HETATM   19  C   UNL     1      -8.036  16.665  66.257  1.00  0.00    -0.326 C  
BRANCH  17  20
HETATM   20  C   UNL     1      -7.469  12.546  67.521  1.00  0.00    -0.151 A  
HETATM   21  C   UNL     1      -8.270  11.915  68.453  1.00  0.00    -0.160 A  
HETATM   22  C   UNL     1      -8.873  10.777  67.842  1.00  0.00    -0.132 A  
HETATM   23  C   UNL     1      -8.417  10.727  66.527  1.00  0.00    -0.147 A  
HETATM   24  N   UNL     1      -7.594  11.813  66.356  1.00  0.00    -0.378 NA 
HETATM   25  C   UNL     1      -8.765   9.703  65.640  1.00  0.00    -0.163 A  
HETATM   26  C   UNL     1      -9.622   8.701  66.110  1.00  0.00    -0.305 A  
HETATM   27  H   UNL     1      -7.132  12.049  65.478  1.00  0.00     0.000 HD 
HETATM   28  C   UNL     1     -10.121   8.745  67.409  1.00  0.00    -0.226 A  
HETATM   29  C   UNL     1      -9.740   9.761  68.295  1.00  0.00    -0.160 A  
BRANCH  28  30
HETATM   30  N   UNL     1     -11.031   7.733  67.839  1.00  0.00    -0.484 N  
HETATM   31  H   UNL     1     -12.031   7.814  67.656  1.00  0.00     0.000 HD 
BRANCH  30  32
HETATM   32  S   UNL     1     -10.400   6.397  68.662  1.00  0.00    -0.223 S  
HETATM   33  O   UNL     1      -9.033   6.638  69.049  1.00  0.00    -0.131 OA 
HETATM   34  O   UNL     1     -11.410   6.046  69.641  1.00  0.00    -0.411 OA 
HETATM   35  C   UNL     1     -10.444   5.158  67.387  1.00  0.00    -0.105 C  
ENDBRANCH  30  32
ENDBRANCH  28  30
ENDBRANCH  17  20
ENDBRANCH   7  12
ENDBRANCH   4   6
ENDBRANCH   2   4
TORSDOF 6
ENDMDL
MODEL       18
REMARK 921   NORMALIZED FREE ENERGY PREDICTED BY IDOCK:   -6.37 KCAL/MOL
REMARK 922        TOTAL FREE ENERGY PREDICTED BY IDOCK:   -9.09 KCAL/MOL
REMARK 923 INTER-LIGAND FREE ENERGY PREDICTED BY IDOCK:   -8.25 KCAL/MOL
REMARK 924 INTRA-LIGAND FREE ENERGY PREDICTED BY IDOCK:   -0.84 KCAL/MOL
REMARK 927      BINDING AFFINITY PREDICTED BY RF-SCORE:    0.00 PKD
ROOT
HETATM    1  C   UNL     1     -10.392   6.057  71.336  1.00  0.00    -0.269 C  
HETATM    2  C   UNL     1     -10.762   7.421  70.749  1.00  0.00    -0.232 C  
HETATM    3  C   UNL     1     -11.281   8.328  71.870  1.00  0.00    -0.365 C  
ENDROOT
BRANCH   2   4
HETATM    4  N   UNL     1      -9.586   8.077  70.192  1.00  0.00    -0.174 NA 
HETATM    5  H   UNL     1      -8.945   8.502  70.861  1.00  0.00     0.000 HD 
BRANCH   4   6
HETATM    6  C   UNL     1      -9.242   8.187  68.844  1.00  0.00    -0.147 A  
HETATM    7  C   UNL     1      -9.295   9.324  67.992  1.00  0.00    -0.133 A  
HETATM    8  N   UNL     1      -8.873   9.258  66.695  1.00  0.00    -0.126 NA 
HETATM    9  C   UNL     1      -8.745   6.999  68.259  1.00  0.00    -0.127 A  
HETATM   10  C   UNL     1      -8.344   6.940  66.930  1.00  0.00    -0.114 A  
HETATM   11  C   UNL     1      -8.420   8.095  66.194  1.00  0.00    -0.136 A  
BRANCH   7  12
HETATM   12  N   UNL     1      -9.825  10.573  68.401  1.00  0.00    -0.156 NA 
HETATM   13  C   UNL     1     -11.205  10.745  67.870  1.00  0.00    -0.318 C  
HETATM   14  N   UNL     1     -11.024  13.193  68.142  1.00  0.00    -0.242 N  
HETATM   15  C   UNL     1     -11.821  12.007  68.477  1.00  0.00    -0.311 C  
HETATM   16  C   UNL     1      -9.597  13.062  68.495  1.00  0.00    -0.111 C  
HETATM   17  C   UNL     1     -11.598  14.142  67.301  1.00  0.00    -0.373 C  
HETATM   18  O   UNL     1     -12.644  13.892  66.698  1.00  0.00    -0.351 OA 
HETATM   19  C   UNL     1      -8.970  11.718  67.998  1.00  0.00    -0.176 C  
BRANCH  17  20
HETATM   20  C   UNL     1     -11.012  15.461  67.159  1.00  0.00    -0.317 A  
HETATM   21  C   UNL     1     -10.332  16.103  66.142  1.00  0.00    -0.350 A  
HETATM   22  C   UNL     1      -9.828  17.340  66.639  1.00  0.00    -0.299 A  
HETATM   23  C   UNL     1     -10.208  17.431  67.975  1.00  0.00    -0.345 A  
HETATM   24  N   UNL     1     -10.937  16.300  68.254  1.00  0.00    -0.338 NA 
HETATM   25  C   UNL     1      -9.838  18.498  68.801  1.00  0.00    -0.411 A  
HETATM   26  C   UNL     1      -9.062  19.516  68.234  1.00  0.00    -0.398 A  
HETATM   27  H   UNL     1     -11.368  16.105  69.157  1.00  0.00     0.000 HD 
HETATM   28  C   UNL     1      -8.698  19.469  66.891  1.00  0.00    -0.311 A  
HETATM   29  C   UNL     1      -9.051  18.379  66.085  1.00  0.00    -0.123 A  
BRANCH  28  30
HETATM   30  N   UNL     1      -7.948  20.548  66.336  1.00  0.00    -0.527 N  
HETATM   31  H   UNL     1      -8.411  21.397  66.010  1.00  0.00     0.000 HD 
BRANCH  30  32
HETATM   32  S   UNL     1      -6.268  20.377  66.233  1.00  0.00    -0.216 S  
HETATM   33  O   UNL     1      -5.885  19.001  66.420  1.00  0.00    -0.160 OA 
HETATM   34  O   UNL     1      -5.887  21.111  65.043  1.00  0.00    -0.247 OA 
HETATM   35  C   UNL     1      -5.740  21.334  67.637  1.00  0.00    -0.349 C  
ENDBRANCH  30  32
ENDBRANCH  28  30
ENDBRANCH  17  20
ENDBRANCH   7  12
ENDBRANCH   4   6
ENDBRANCH   2   4
TORSDOF 6
ENDMDL
MODEL       19
REMARK 921   NORMALIZED FREE ENERGY PREDICTED BY IDOCK:   -6.36 KCAL/MOL
REMARK 922        TOTAL FREE ENERGY PREDICTED BY IDOCK:   -9.07 KCAL/MOL
REMARK 923 INTER-LIGAND FREE ENERGY PREDICTED BY IDOCK:   -8.80 KCAL/MOL
REMARK 924 INTRA-LIGAND FREE ENERGY PREDICTED BY IDOCK:   -0.26 KCAL/MOL
REMARK 927      BINDING AFFINITY PREDICTED BY RF-SCORE:    0.00 PKD
ROOT
HETATM    1  C   UNL     1     -11.925  14.773  69.266  1.00  0.00    -0.329 C  
HETATM    2  C   UNL     1     -11.666  16.190  69.783  1.00  0.00    -0.189 C  
HETATM    3  C   UNL     1     -11.686  16.180  71.315  1.00  0.00    -0.480 C  
ENDROOT
BRANCH   2   4
HETATM    4  N   UNL     1     -10.341  16.647  69.385  1.00  0.00    -0.307 NA 
HETATM    5  H   UNL     1      -9.557  16.299  69.937  1.00  0.00     0.000 HD 
BRANCH   4   6
HETATM    6  C   UNL     1     -10.026  17.509  68.335  1.00  0.00    -0.335 A  
HETATM    7  C   UNL     1      -9.734  17.204  66.977  1.00  0.00    -0.265 A  
HETATM    8  N   UNL     1      -9.486  18.192  66.066  1.00  0.00    -0.519 NA 
HETATM    9  C   UNL     1     -10.028  18.883  68.672  1.00  0.00    -0.470 A  
HETATM   10  C   UNL     1      -9.749  19.875  67.740  1.00  0.00    -0.516 A  
HETATM   11  C   UNL     1      -9.493  19.479  66.453  1.00  0.00    -0.386 A  
BRANCH   7  12
HETATM   12  N   UNL     1      -9.629  15.878  66.488  1.00  0.00    -0.249 NA 
HETATM   13  C   UNL     1     -10.966  15.373  66.076  1.00  0.00    -0.286 C  
HETATM   14  N   UNL     1     -10.172  13.045  66.281  1.00  0.00    -0.281 N  
HETATM   15  C   UNL     1     -10.799  14.020  65.382  1.00  0.00    -0.328 C  
HETATM   16  C   UNL     1      -8.901  13.515  66.867  1.00  0.00    -0.182 C  
HETATM   17  C   UNL     1     -10.942  11.964  66.701  1.00  0.00    -0.291 C  
HETATM   18  O   UNL     1     -12.158  11.946  66.497  1.00  0.00    -0.568 OA 
HETATM   19  C   UNL     1      -9.008  14.954  67.471  1.00  0.00    -0.185 C  
BRANCH  17  20
HETATM   20  C   UNL     1     -10.327  10.815  67.337  1.00  0.00    -0.211 A  
HETATM   21  C   UNL     1     -10.249   9.472  67.022  1.00  0.00    -0.321 A  
HETATM   22  C   UNL     1      -9.667   8.777  68.123  1.00  0.00    -0.177 A  
HETATM   23  C   UNL     1      -9.402   9.722  69.110  1.00  0.00    -0.182 A  
HETATM   24  N   UNL     1      -9.787  10.939  68.604  1.00  0.00    -0.184 NA 
HETATM   25  C   UNL     1      -8.873   9.387  70.362  1.00  0.00    -0.290 A  
HETATM   26  C   UNL     1      -8.593   8.037  70.605  1.00  0.00    -0.130 A  
HETATM   27  H   UNL     1      -9.687  11.824  69.100  1.00  0.00     0.000 HD 
HETATM   28  C   UNL     1      -8.815   7.076  69.623  1.00  0.00    -0.141 A  
HETATM   29  C   UNL     1      -9.372   7.424  68.386  1.00  0.00    -0.144 A  
BRANCH  28  30
HETATM   30  N   UNL     1      -8.471   5.717  69.890  1.00  0.00    -0.119 N  
HETATM   31  H   UNL     1      -7.522   5.375  69.738  1.00  0.00     0.000 HD 
BRANCH  30  32
HETATM   32  S   UNL     1      -9.686   4.690  70.464  1.00  0.00    -0.230 S  
HETATM   33  O   UNL     1     -10.846   5.447  70.860  1.00  0.00    -0.218 OA 
HETATM   34  O   UNL     1      -9.777   3.628  69.482  1.00  0.00    -0.177 OA 
HETATM   35  C   UNL     1      -8.904   4.009  71.909  1.00  0.00    -0.113 C  
ENDBRANCH  30  32
ENDBRANCH  28  30
ENDBRANCH  17  20
ENDBRANCH   7  12
ENDBRANCH   4   6
ENDBRANCH   2   4
TORSDOF 6
ENDMDL
MODEL       20
REMARK 921   NORMALIZED FREE ENERGY PREDICTED BY IDOCK:   -6.35 KCAL/MOL
REMARK 922        TOTAL FREE ENERGY PREDICTED BY IDOCK:   -9.06 KCAL/MOL
REMARK 923 INTER-LIGAND FREE ENERGY PREDICTED BY IDOCK:   -8.87 KCAL/MOL
REMARK 924 INTRA-LIGAND FREE ENERGY PREDICTED BY IDOCK:   -0.19 KCAL/MOL
REMARK 927      BINDING AFFINITY PREDICTED BY RF-SCORE:    0.00 PKD
ROOT
HETATM    1  C   UNL     1      -8.777   6.343  67.460  1.00  0.00    -0.113 C  
HETATM    2  C   UNL     1     -10.296   6.161  67.502  1.00  0.00    -0.208 C  
HETATM    3  C   UNL     1     -10.713   5.152  66.427  1.00  0.00    -0.275 C  
ENDROOT
BRANCH   2   4
HETATM    4  N   UNL     1     -10.712   5.604  68.783  1.00  0.00    -0.229 NA 
HETATM    5  H   UNL     1     -11.709   5.646  68.993  1.00  0.00     0.000 HD 
BRANCH   4   6
HETATM    6  C   UNL     1      -9.897   5.021  69.753  1.00  0.00    -0.216 A  
HETATM    7  C   UNL     1      -9.575   5.487  71.057  1.00  0.00    -0.170 A  
HETATM    8  N   UNL     1      -8.784   4.755  71.896  1.00  0.00    -0.122 NA 
HETATM    9  C   UNL     1      -9.338   3.774  69.388  1.00  0.00    -0.245 A  
HETATM   10  C   UNL     1      -8.514   3.052  70.243  1.00  0.00    -0.097 A  
HETATM   11  C   UNL     1      -8.274   3.581  71.485  1.00  0.00    -0.065 A  
BRANCH   7  12
HETATM   12  N   UNL     1      -9.998   6.745  71.555  1.00  0.00    -0.178 NA 
HETATM   13  C   UNL     1     -11.445   6.701  71.899  1.00  0.00    -0.291 C  
HETATM   14  N   UNL     1     -11.576   9.162  71.742  1.00  0.00    -0.371 N  
HETATM   15  C   UNL     1     -11.831   8.003  72.605  1.00  0.00    -0.321 C  
HETATM   16  C   UNL     1     -10.196   9.216  71.221  1.00  0.00    -0.329 C  
HETATM   17  C   UNL     1     -12.675   9.884  71.286  1.00  0.00    -0.383 C  
HETATM   18  O   UNL     1     -13.817   9.440  71.427  1.00  0.00    -0.336 OA 
HETATM   19  C   UNL     1      -9.726   7.856  70.608  1.00  0.00    -0.173 C  
BRANCH  17  20
HETATM   20  C   UNL     1     -12.508  11.193  70.686  1.00  0.00    -0.356 A  
HETATM   21  C   UNL     1     -11.928  11.645  69.516  1.00  0.00    -0.383 A  
HETATM   22  C   UNL     1     -11.899  13.070  69.541  1.00  0.00    -0.385 A  
HETATM   23  C   UNL     1     -12.464  13.471  70.748  1.00  0.00    -0.353 A  
HETATM   24  N   UNL     1     -12.841  12.325  71.405  1.00  0.00    -0.339 NA 
HETATM   25  C   UNL     1     -12.553  14.812  71.139  1.00  0.00    -0.407 A  
HETATM   26  C   UNL     1     -12.058  15.778  70.255  1.00  0.00    -0.371 A  
HETATM   27  H   UNL     1     -13.308  12.312  72.311  1.00  0.00     0.000 HD 
HETATM   28  C   UNL     1     -11.520  15.407  69.025  1.00  0.00    -0.337 A  
HETATM   29  C   UNL     1     -11.411  14.059  68.661  1.00  0.00    -0.337 A  
BRANCH  28  30
HETATM   30  N   UNL     1     -11.070  16.423  68.129  1.00  0.00    -0.346 N  
HETATM   31  H   UNL     1     -11.594  16.647  67.283  1.00  0.00     0.000 HD 
BRANCH  30  32
HETATM   32  S   UNL     1      -9.640  17.241  68.511  1.00  0.00    -0.301 S  
HETATM   33  O   UNL     1      -9.931  18.506  69.138  1.00  0.00    -0.335 OA 
HETATM   34  O   UNL     1      -8.802  16.252  69.160  1.00  0.00    -0.249 OA 
HETATM   35  C   UNL     1      -8.965  17.526  66.891  1.00  0.00    -0.251 C  
ENDBRANCH  30  32
ENDBRANCH  28  30
ENDBRANCH  17  20
ENDBRANCH   7  12
ENDBRANCH   4   6
ENDBRANCH   2   4
TORSDOF 6
ENDMDL
MODEL       21
REMARK 921   NORMALIZED FREE ENERGY PREDICTED BY IDOCK:   -6.33 KCAL/MOL
REMARK 922        TOTAL FREE ENERGY PREDICTED BY IDOCK:   -9.03 KCAL/MOL
REMARK 923 INTER-LIGAND FREE ENERGY PREDICTED BY IDOCK:   -8.53 KCAL/MOL
REMARK 924 INTRA-LIGAND FREE ENERGY PREDICTED BY IDOCK:   -0.50 KCAL/MOL
REMARK 927      BINDING AFFINITY PREDICTED BY RF-SCORE:    0.00 PKD
ROOT
HETATM    1  C   UNL     1      -9.494   2.853  69.583  1.00  0.00    -0.164 C  
HETATM    2  C   UNL     1      -9.325   4.358  69.363  1.00  0.00    -0.156 C  
HETATM    3  C   UNL     1      -9.268   4.646  67.859  1.00  0.00    -0.154 C  
ENDROOT
BRANCH   2   4
HETATM    4  N   UNL     1     -10.474   5.086  69.885  1.00  0.00    -0.238 NA 
HETATM    5  H   UNL     1     -11.320   5.066  69.316  1.00  0.00     0.000 HD 
BRANCH   4   6
HETATM    6  C   UNL     1     -10.545   5.808  71.077  1.00  0.00    -0.253 A  
HETATM    7  C   UNL     1     -10.877   7.176  71.282  1.00  0.00    -0.233 A  
HETATM    8  N   UNL     1     -10.938   7.709  72.538  1.00  0.00    -0.294 NA 
HETATM    9  C   UNL     1     -10.273   5.057  72.244  1.00  0.00    -0.257 A  
HETATM   10  C   UNL     1     -10.313   5.620  73.513  1.00  0.00    -0.254 A  
HETATM   11  C   UNL     1     -10.657   6.944  73.607  1.00  0.00    -0.340 A  
BRANCH   7  12
HETATM   12  N   UNL     1     -11.114   8.082  70.219  1.00  0.00    -0.250 NA 
HETATM   13  C   UNL     1     -10.031   7.980  69.204  1.00  0.00    -0.188 C  
HETATM   14  N   UNL     1     -10.584  10.233  68.359  1.00  0.00    -0.202 N  
HETATM   15  C   UNL     1     -10.406   8.825  67.985  1.00  0.00    -0.220 C  
HETATM   16  C   UNL     1     -11.536  10.431  69.470  1.00  0.00    -0.246 C  
HETATM   17  C   UNL     1      -9.668  11.155  67.862  1.00  0.00    -0.174 C  
HETATM   18  O   UNL     1      -8.633  10.774  67.310  1.00  0.00    -0.129 OA 
HETATM   19  C   UNL     1     -11.256   9.485  70.684  1.00  0.00    -0.302 C  
BRANCH  17  20
HETATM   20  C   UNL     1      -9.933  12.579  67.934  1.00  0.00    -0.212 A  
HETATM   21  C   UNL     1     -10.723  13.446  67.203  1.00  0.00    -0.268 A  
HETATM   22  C   UNL     1     -10.443  14.780  67.617  1.00  0.00    -0.254 A  
HETATM   23  C   UNL     1      -9.465  14.706  68.606  1.00  0.00    -0.211 A  
HETATM   24  N   UNL     1      -9.194  13.373  68.791  1.00  0.00    -0.392 NA 
HETATM   25  C   UNL     1      -8.906  15.838  69.209  1.00  0.00    -0.262 A  
HETATM   26  C   UNL     1      -9.375  17.091  68.795  1.00  0.00    -0.257 A  
HETATM   27  H   UNL     1      -8.530  13.013  69.476  1.00  0.00     0.000 HD 
HETATM   28  C   UNL     1     -10.377  17.193  67.834  1.00  0.00    -0.350 A  
HETATM   29  C   UNL     1     -10.906  16.051  67.218  1.00  0.00    -0.255 A  
BRANCH  28  30
HETATM   30  N   UNL     1     -10.864  18.485  67.473  1.00  0.00    -0.376 N  
HETATM   31  H   UNL     1     -11.692  18.878  67.920  1.00  0.00     0.000 HD 
BRANCH  30  32
HETATM   32  S   UNL     1     -10.028  19.342  66.278  1.00  0.00    -0.448 S  
HETATM   33  O   UNL     1      -8.846  18.625  65.872  1.00  0.00    -0.475 OA 
HETATM   34  O   UNL     1     -11.040  19.734  65.318  1.00  0.00    -0.395 OA 
HETATM   35  C   UNL     1      -9.554  20.803  67.175  1.00  0.00    -0.325 C  
ENDBRANCH  30  32
ENDBRANCH  28  30
ENDBRANCH  17  20
ENDBRANCH   7  12
ENDBRANCH   4   6
ENDBRANCH   2   4
TORSDOF 6
ENDMDL
MODEL       22
REMARK 921   NORMALIZED FREE ENERGY PREDICTED BY IDOCK:   -6.33 KCAL/MOL
REMARK 922        TOTAL FREE ENERGY PREDICTED BY IDOCK:   -9.03 KCAL/MOL
REMARK 923 INTER-LIGAND FREE ENERGY PREDICTED BY IDOCK:   -8.73 KCAL/MOL
REMARK 924 INTRA-LIGAND FREE ENERGY PREDICTED BY IDOCK:   -0.30 KCAL/MOL
REMARK 927      BINDING AFFINITY PREDICTED BY RF-SCORE:    0.00 PKD
ROOT
HETATM    1  C   UNL     1      -5.872   4.398  72.247  1.00  0.00    -0.015 C  
HETATM    2  C   UNL     1      -6.463   5.002  70.971  1.00  0.00    -0.027 C  
HETATM    3  C   UNL     1      -5.447   4.870  69.832  1.00  0.00    -0.008 C  
ENDROOT
BRANCH   2   4
HETATM    4  N   UNL     1      -7.652   4.268  70.557  1.00  0.00    -0.051 NA 
HETATM    5  H   UNL     1      -7.738   4.069  69.561  1.00  0.00     0.000 HD 
BRANCH   4   6
HETATM    6  C   UNL     1      -8.685   3.807  71.374  1.00  0.00    -0.093 A  
HETATM    7  C   UNL     1      -9.676   4.548  72.076  1.00  0.00    -0.170 A  
HETATM    8  N   UNL     1     -10.647   3.920  72.803  1.00  0.00    -0.155 NA 
HETATM    9  C   UNL     1      -8.767   2.400  71.492  1.00  0.00    -0.107 A  
HETATM   10  C   UNL     1      -9.746   1.777  72.257  1.00  0.00    -0.178 A  
HETATM   11  C   UNL     1     -10.664   2.578  72.884  1.00  0.00    -0.106 A  
BRANCH   7  12
HETATM   12  N   UNL     1      -9.698   5.964  72.116  1.00  0.00    -0.156 NA 
HETATM   13  C   UNL     1     -10.825   6.438  72.965  1.00  0.00    -0.259 C  
HETATM   14  N   UNL     1     -10.768   8.638  71.846  1.00  0.00    -0.318 N  
HETATM   15  C   UNL     1     -10.715   7.953  73.143  1.00  0.00    -0.264 C  
HETATM   16  C   UNL     1      -9.781   8.133  70.873  1.00  0.00    -0.166 C  
HETATM   17  C   UNL     1     -11.877   9.437  71.583  1.00  0.00    -0.394 C  
HETATM   18  O   UNL     1     -12.866   9.398  72.319  1.00  0.00    -0.392 OA 
HETATM   19  C   UNL     1      -9.780   6.573  70.764  1.00  0.00    -0.179 C  
BRANCH  17  20
HETATM   20  C   UNL     1     -11.874  10.370  70.472  1.00  0.00    -0.337 A  
HETATM   21  C   UNL     1     -11.525  10.273  69.139  1.00  0.00    -0.210 A  
HETATM   22  C   UNL     1     -11.554  11.576  68.563  1.00  0.00    -0.377 A  
HETATM   23  C   UNL     1     -11.921  12.463  69.571  1.00  0.00    -0.261 A  
HETATM   24  N   UNL     1     -12.128  11.709  70.701  1.00  0.00    -0.401 NA 
HETATM   25  C   UNL     1     -12.001  13.846  69.376  1.00  0.00    -0.402 A  
HETATM   26  C   UNL     1     -11.709  14.338  68.099  1.00  0.00    -0.385 A  
HETATM   27  H   UNL     1     -12.432  12.090  71.596  1.00  0.00     0.000 HD 
HETATM   28  C   UNL     1     -11.375  13.471  67.063  1.00  0.00    -0.324 A  
HETATM   29  C   UNL     1     -11.270  12.091  67.281  1.00  0.00    -0.371 A  
BRANCH  28  30
HETATM   30  N   UNL     1     -11.131  14.004  65.761  1.00  0.00    -0.301 N  
HETATM   31  H   UNL     1     -10.306  14.574  65.573  1.00  0.00     0.000 HD 
BRANCH  30  32
HETATM   32  S   UNL     1     -12.251  13.662  64.541  1.00  0.00    -0.385 S  
HETATM   33  O   UNL     1     -13.382  12.947  65.076  1.00  0.00    -0.682 OA 
HETATM   34  O   UNL     1     -12.419  14.910  63.824  1.00  0.00    -0.768 OA 
HETATM   35  C   UNL     1     -11.303  12.575  63.500  1.00  0.00    -0.486 C  
ENDBRANCH  30  32
ENDBRANCH  28  30
ENDBRANCH  17  20
ENDBRANCH   7  12
ENDBRANCH   4   6
ENDBRANCH   2   4
TORSDOF 6
ENDMDL
MODEL       23
REMARK 921   NORMALIZED FREE ENERGY PREDICTED BY IDOCK:   -6.28 KCAL/MOL
REMARK 922        TOTAL FREE ENERGY PREDICTED BY IDOCK:   -8.96 KCAL/MOL
REMARK 923 INTER-LIGAND FREE ENERGY PREDICTED BY IDOCK:   -8.52 KCAL/MOL
REMARK 924 INTRA-LIGAND FREE ENERGY PREDICTED BY IDOCK:   -0.44 KCAL/MOL
REMARK 927      BINDING AFFINITY PREDICTED BY RF-SCORE:    0.00 PKD
ROOT
HETATM    1  C   UNL     1     -10.912   6.152  67.609  1.00  0.00    -0.400 C  
HETATM    2  C   UNL     1     -10.430   7.598  67.754  1.00  0.00    -0.216 C  
HETATM    3  C   UNL     1     -10.289   7.936  69.242  1.00  0.00    -0.222 C  
ENDROOT
BRANCH   2   4
HETATM    4  N   UNL     1      -9.109   7.761  67.161  1.00  0.00    -0.130 NA 
HETATM    5  H   UNL     1      -8.313   7.637  67.787  1.00  0.00     0.000 HD 
BRANCH   4   6
HETATM    6  C   UNL     1      -8.813   8.067  65.833  1.00  0.00    -0.153 A  
HETATM    7  C   UNL     1      -8.981   9.293  65.133  1.00  0.00    -0.209 A  
HETATM    8  N   UNL     1      -8.593   9.424  63.830  1.00  0.00    -0.206 NA 
HETATM    9  C   UNL     1      -8.237   7.007  65.093  1.00  0.00    -0.113 A  
HETATM   10  C   UNL     1      -7.870   7.148  63.760  1.00  0.00    -0.110 A  
HETATM   11  C   UNL     1      -8.061   8.375  63.178  1.00  0.00    -0.159 A  
BRANCH   7  12
HETATM   12  N   UNL     1      -9.600  10.432  65.706  1.00  0.00    -0.201 NA 
HETATM   13  C   UNL     1     -10.520  11.067  64.724  1.00  0.00    -0.316 C  
HETATM   14  N   UNL     1     -10.411  13.195  65.970  1.00  0.00    -0.279 N  
HETATM   15  C   UNL     1     -11.312  12.174  65.423  1.00  0.00    -0.338 C  
HETATM   16  C   UNL     1      -9.359  12.645  66.847  1.00  0.00    -0.228 C  
HETATM   17  C   UNL     1     -10.453  14.465  65.402  1.00  0.00    -0.373 C  
HETATM   18  O   UNL     1     -11.065  14.660  64.349  1.00  0.00    -0.285 OA 
HETATM   19  C   UNL     1      -8.617  11.424  66.209  1.00  0.00    -0.156 C  
BRANCH  17  20
HETATM   20  C   UNL     1      -9.827  15.596  66.061  1.00  0.00    -0.333 A  
HETATM   21  C   UNL     1      -9.063  15.737  67.203  1.00  0.00    -0.228 A  
HETATM   22  C   UNL     1      -8.878  17.127  67.461  1.00  0.00    -0.218 A  
HETATM   23  C   UNL     1      -9.549  17.822  66.459  1.00  0.00    -0.308 A  
HETATM   24  N   UNL     1     -10.091  16.879  65.620  1.00  0.00    -0.586 NA 
HETATM   25  C   UNL     1      -9.626  19.219  66.423  1.00  0.00    -0.425 A  
HETATM   26  C   UNL     1      -8.980  19.930  67.441  1.00  0.00    -0.422 A  
HETATM   27  H   UNL     1     -10.621  17.098  64.778  1.00  0.00     0.000 HD 
HETATM   28  C   UNL     1      -8.272  19.261  68.436  1.00  0.00    -0.347 A  
HETATM   29  C   UNL     1      -8.229  17.861  68.475  1.00  0.00    -0.300 A  
BRANCH  28  30
HETATM   30  N   UNL     1      -7.586  20.020  69.431  1.00  0.00    -0.027 N  
HETATM   31  H   UNL     1      -8.099  20.524  70.154  1.00  0.00     0.000 HD 
BRANCH  30  32
HETATM   32  S   UNL     1      -5.896  20.058  69.373  1.00  0.00    -0.314 S  
HETATM   33  O   UNL     1      -5.423  19.682  68.065  1.00  0.00    -0.189 OA 
HETATM   34  O   UNL     1      -5.527  21.326  69.972  1.00  0.00    -0.496 OA 
HETATM   35  C   UNL     1      -5.484  18.781  70.540  1.00  0.00    -0.228 C  
ENDBRANCH  30  32
ENDBRANCH  28  30
ENDBRANCH  17  20
ENDBRANCH   7  12
ENDBRANCH   4   6
ENDBRANCH   2   4
TORSDOF 6
ENDMDL
MODEL       24
REMARK 921   NORMALIZED FREE ENERGY PREDICTED BY IDOCK:   -6.27 KCAL/MOL
REMARK 922        TOTAL FREE ENERGY PREDICTED BY IDOCK:   -8.95 KCAL/MOL
REMARK 923 INTER-LIGAND FREE ENERGY PREDICTED BY IDOCK:   -8.32 KCAL/MOL
REMARK 924 INTRA-LIGAND FREE ENERGY PREDICTED BY IDOCK:   -0.64 KCAL/MOL
REMARK 927      BINDING AFFINITY PREDICTED BY RF-SCORE:    0.00 PKD
ROOT
HETATM    1  C   UNL     1     -14.201   7.142  71.666  1.00  0.00    -0.502 C  
HETATM    2  C   UNL     1     -13.109   8.176  71.385  1.00  0.00    -0.225 C  
HETATM    3  C   UNL     1     -13.544   9.534  71.945  1.00  0.00    -0.468 C  
ENDROOT
BRANCH   2   4
HETATM    4  N   UNL     1     -11.874   7.818  72.071  1.00  0.00    -0.293 NA 
HETATM    5  H   UNL     1     -11.829   8.032  73.067  1.00  0.00     0.000 HD 
BRANCH   4   6
HETATM    6  C   UNL     1     -10.745   7.214  71.515  1.00  0.00    -0.223 A  
HETATM    7  C   UNL     1     -10.043   7.544  70.323  1.00  0.00    -0.194 A  
HETATM    8  N   UNL     1      -8.920   6.862  69.951  1.00  0.00    -0.142 NA 
HETATM    9  C   UNL     1     -10.216   6.139  72.266  1.00  0.00    -0.210 A  
HETATM   10  C   UNL     1      -9.087   5.437  71.861  1.00  0.00    -0.151 A  
HETATM   11  C   UNL     1      -8.473   5.841  70.703  1.00  0.00    -0.128 A  
BRANCH   7  12
HETATM   12  N   UNL     1     -10.476   8.551  69.424  1.00  0.00    -0.220 NA 
HETATM   13  C   UNL     1      -9.989   8.257  68.049  1.00  0.00    -0.185 C  
HETATM   14  N   UNL     1     -10.269  10.629  67.424  1.00  0.00    -0.194 N  
HETATM   15  C   UNL     1     -10.623   9.249  67.071  1.00  0.00    -0.193 C  
HETATM   16  C   UNL     1     -10.577  10.977  68.825  1.00  0.00    -0.202 C  
HETATM   17  C   UNL     1      -9.453  11.332  66.542  1.00  0.00    -0.193 C  
HETATM   18  O   UNL     1      -8.882  10.750  65.618  1.00  0.00    -0.180 OA 
HETATM   19  C   UNL     1     -10.053   9.911  69.843  1.00  0.00    -0.257 C  
BRANCH  17  20
HETATM   20  C   UNL     1      -9.300  12.770  66.657  1.00  0.00    -0.242 A  
HETATM   21  C   UNL     1     -10.088  13.850  66.307  1.00  0.00    -0.306 A  
HETATM   22  C   UNL     1      -9.335  15.045  66.495  1.00  0.00    -0.309 A  
HETATM   23  C   UNL     1      -8.077  14.670  66.958  1.00  0.00    -0.120 A  
HETATM   24  N   UNL     1      -8.091  13.301  67.067  1.00  0.00    -0.385 NA 
HETATM   25  C   UNL     1      -7.051  15.589  67.202  1.00  0.00    -0.171 A  
HETATM   26  C   UNL     1      -7.327  16.943  66.979  1.00  0.00    -0.228 A  
HETATM   27  H   UNL     1      -7.307  12.745  67.407  1.00  0.00     0.000 HD 
HETATM   28  C   UNL     1      -8.588  17.350  66.550  1.00  0.00    -0.261 A  
HETATM   29  C   UNL     1      -9.596  16.415  66.281  1.00  0.00    -0.338 A  
BRANCH  28  30
HETATM   30  N   UNL     1      -8.848  18.743  66.380  1.00  0.00    -0.310 N  
HETATM   31  H   UNL     1      -8.962  19.146  65.450  1.00  0.00     0.000 HD 
BRANCH  30  32
HETATM   32  S   UNL     1      -8.960  19.704  67.767  1.00  0.00    -0.327 S  
HETATM   33  O   UNL     1      -7.663  19.883  68.367  1.00  0.00    -0.311 OA 
HETATM   34  O   UNL     1      -9.772  20.839  67.374  1.00  0.00    -0.465 OA 
HETATM   35  C   UNL     1      -9.960  18.675  68.817  1.00  0.00    -0.383 C  
ENDBRANCH  30  32
ENDBRANCH  28  30
ENDBRANCH  17  20
ENDBRANCH   7  12
ENDBRANCH   4   6
ENDBRANCH   2   4
TORSDOF 6
ENDMDL
MODEL       25
REMARK 921   NORMALIZED FREE ENERGY PREDICTED BY IDOCK:   -6.21 KCAL/MOL
REMARK 922        TOTAL FREE ENERGY PREDICTED BY IDOCK:   -8.86 KCAL/MOL
REMARK 923 INTER-LIGAND FREE ENERGY PREDICTED BY IDOCK:   -7.89 KCAL/MOL
REMARK 924 INTRA-LIGAND FREE ENERGY PREDICTED BY IDOCK:   -0.98 KCAL/MOL
REMARK 927      BINDING AFFINITY PREDICTED BY RF-SCORE:    0.00 PKD
ROOT
HETATM    1  C   UNL     1     -12.088  15.076  64.379  1.00  0.00    -0.373 C  
HETATM    2  C   UNL     1     -11.706  13.721  64.977  1.00  0.00    -0.345 C  
HETATM    3  C   UNL     1     -11.978  12.619  63.948  1.00  0.00    -0.558 C  
ENDROOT
BRANCH   2   4
HETATM    4  N   UNL     1     -10.279  13.674  65.272  1.00  0.00    -0.421 NA 
HETATM    5  H   UNL     1      -9.678  13.290  64.544  1.00  0.00     0.000 HD 
BRANCH   4   6
HETATM    6  C   UNL     1      -9.646  14.096  66.442  1.00  0.00    -0.293 A  
HETATM    7  C   UNL     1      -9.613  13.476  67.721  1.00  0.00    -0.219 A  
HETATM    8  N   UNL     1      -8.899  14.017  68.752  1.00  0.00    -0.094 NA 
HETATM    9  C   UNL     1      -8.911  15.298  66.318  1.00  0.00    -0.314 A  
HETATM   10  C   UNL     1      -8.211  15.850  67.384  1.00  0.00    -0.190 A  
HETATM   11  C   UNL     1      -8.229  15.169  68.574  1.00  0.00    -0.148 A  
BRANCH   7  12
HETATM   12  N   UNL     1     -10.345  12.303  68.031  1.00  0.00    -0.208 NA 
HETATM   13  C   UNL     1     -11.539  12.643  68.852  1.00  0.00    -0.317 C  
HETATM   14  N   UNL     1     -11.660  10.317  69.673  1.00  0.00    -0.228 N  
HETATM   15  C   UNL     1     -12.408  11.394  69.013  1.00  0.00     0.033 C  
HETATM   16  C   UNL     1     -10.376  10.004  69.016  1.00  0.00    -0.206 C  
HETATM   17  C   UNL     1     -12.069   9.932  70.946  1.00  0.00    -0.341 C  
HETATM   18  O   UNL     1     -12.886  10.611  71.573  1.00  0.00    -0.395 OA 
HETATM   19  C   UNL     1      -9.519  11.279  68.720  1.00  0.00    -0.139 C  
BRANCH  17  20
HETATM   20  C   UNL     1     -11.588   8.700  71.541  1.00  0.00    -0.302 A  
HETATM   21  C   UNL     1     -12.026   7.390  71.521  1.00  0.00    -0.337 A  
HETATM   22  C   UNL     1     -11.251   6.634  72.448  1.00  0.00    -0.302 A  
HETATM   23  C   UNL     1     -10.341   7.510  73.033  1.00  0.00    -0.322 A  
HETATM   24  N   UNL     1     -10.551   8.738  72.454  1.00  0.00    -0.248 NA 
HETATM   25  C   UNL     1      -9.448   7.121  74.037  1.00  0.00    -0.303 A  
HETATM   26  C   UNL     1      -9.477   5.782  74.446  1.00  0.00    -0.159 A  
HETATM   27  H   UNL     1     -10.008   9.573  72.671  1.00  0.00     0.000 HD 
HETATM   28  C   UNL     1     -10.352   4.877  73.853  1.00  0.00    -0.244 A  
HETATM   29  C   UNL     1     -11.261   5.288  72.870  1.00  0.00    -0.375 A  
BRANCH  28  30
HETATM   30  N   UNL     1     -10.320   3.509  74.262  1.00  0.00    -0.178 N  
HETATM   31  H   UNL     1     -10.803   3.202  75.106  1.00  0.00     0.000 HD 
BRANCH  30  32
HETATM   32  S   UNL     1      -9.456   2.415  73.305  1.00  0.00    -0.088 S  
HETATM   33  O   UNL     1      -8.685   3.112  72.307  1.00  0.00    -0.077 OA 
HETATM   34  O   UNL     1      -8.829   1.506  74.244  1.00  0.00    -0.053 OA 
HETATM   35  C   UNL     1     -10.782   1.530  72.516  1.00  0.00    -0.140 C  
ENDBRANCH  30  32
ENDBRANCH  28  30
ENDBRANCH  17  20
ENDBRANCH   7  12
ENDBRANCH   4   6
ENDBRANCH   2   4
TORSDOF 6
ENDMDL
MODEL       26
REMARK 921   NORMALIZED FREE ENERGY PREDICTED BY IDOCK:   -6.17 KCAL/MOL
REMARK 922        TOTAL FREE ENERGY PREDICTED BY IDOCK:   -8.81 KCAL/MOL
REMARK 923 INTER-LIGAND FREE ENERGY PREDICTED BY IDOCK:   -7.95 KCAL/MOL
REMARK 924 INTRA-LIGAND FREE ENERGY PREDICTED BY IDOCK:   -0.86 KCAL/MOL
REMARK 927      BINDING AFFINITY PREDICTED BY RF-SCORE:    0.00 PKD
ROOT
HETATM    1  C   UNL     1      -5.303  19.342  65.602  1.00  0.00    -0.178 C  
HETATM    2  C   UNL     1      -6.091  18.032  65.530  1.00  0.00    -0.171 C  
HETATM    3  C   UNL     1      -5.803  17.200  66.784  1.00  0.00    -0.234 C  
ENDROOT
BRANCH   2   4
HETATM    4  N   UNL     1      -7.524  18.294  65.523  1.00  0.00    -0.512 NA 
HETATM    5  H   UNL     1      -7.931  18.564  64.628  1.00  0.00     0.000 HD 
BRANCH   4   6
HETATM    6  C   UNL     1      -8.400  18.218  66.606  1.00  0.00    -0.264 A  
HETATM    7  C   UNL     1      -9.160  17.110  67.073  1.00  0.00    -0.230 A  
HETATM    8  N   UNL     1      -9.943  17.207  68.188  1.00  0.00    -0.282 NA 
HETATM    9  C   UNL     1      -8.522  19.410  67.357  1.00  0.00    -0.330 A  
HETATM   10  C   UNL     1      -9.343  19.501  68.475  1.00  0.00    -0.435 A  
HETATM   11  C   UNL     1     -10.024  18.373  68.852  1.00  0.00    -0.345 A  
BRANCH   7  12
HETATM   12  N   UNL     1      -9.202  15.863  66.401  1.00  0.00    -0.279 NA 
HETATM   13  C   UNL     1     -10.562  15.621  65.848  1.00  0.00    -0.343 C  
HETATM   14  N   UNL     1     -10.112  13.195  65.751  1.00  0.00    -0.289 N  
HETATM   15  C   UNL     1     -10.531  14.367  64.972  1.00  0.00    -0.430 C  
HETATM   16  C   UNL     1      -8.835  13.390  66.466  1.00  0.00     0.024 C  
HETATM   17  C   UNL     1     -11.052  12.192  65.965  1.00  0.00    -0.313 C  
HETATM   18  O   UNL     1     -12.240  12.380  65.695  1.00  0.00    -0.599 OA 
HETATM   19  C   UNL     1      -8.789  14.732  67.269  1.00  0.00    -0.204 C  
BRANCH  17  20
HETATM   20  C   UNL     1     -10.649  10.889  66.458  1.00  0.00    -0.237 A  
HETATM   21  C   UNL     1     -10.154   9.747  65.856  1.00  0.00    -0.314 A  
HETATM   22  C   UNL     1     -10.112   8.702  66.824  1.00  0.00    -0.366 A  
HETATM   23  C   UNL     1     -10.596   9.229  68.018  1.00  0.00    -0.208 A  
HETATM   24  N   UNL     1     -10.890  10.548  67.775  1.00  0.00    -0.272 NA 
HETATM   25  C   UNL     1     -10.748   8.465  69.181  1.00  0.00    -0.123 A  
HETATM   26  C   UNL     1     -10.377   7.117  69.123  1.00  0.00    -0.205 A  
HETATM   27  H   UNL     1     -11.242  11.196  68.479  1.00  0.00     0.000 HD 
HETATM   28  C   UNL     1      -9.856   6.572  67.952  1.00  0.00    -0.123 A  
HETATM   29  C   UNL     1      -9.739   7.342  66.788  1.00  0.00    -0.271 A  
BRANCH  28  30
HETATM   30  N   UNL     1      -9.443   5.206  67.944  1.00  0.00    -0.124 N  
HETATM   31  H   UNL     1     -10.128   4.450  67.969  1.00  0.00     0.000 HD 
BRANCH  30  32
HETATM   32  S   UNL     1      -7.785   4.879  67.893  1.00  0.00    -0.083 S  
HETATM   33  O   UNL     1      -7.366   4.591  66.545  1.00  0.00    -0.078 OA 
HETATM   34  O   UNL     1      -7.168   5.940  68.664  1.00  0.00    -0.078 OA 
HETATM   35  C   UNL     1      -7.698   3.395  68.869  1.00  0.00    -0.051 C  
ENDBRANCH  30  32
ENDBRANCH  28  30
ENDBRANCH  17  20
ENDBRANCH   7  12
ENDBRANCH   4   6
ENDBRANCH   2   4
TORSDOF 6
ENDMDL
MODEL       27
REMARK 921   NORMALIZED FREE ENERGY PREDICTED BY IDOCK:   -6.11 KCAL/MOL
REMARK 922        TOTAL FREE ENERGY PREDICTED BY IDOCK:   -8.73 KCAL/MOL
REMARK 923 INTER-LIGAND FREE ENERGY PREDICTED BY IDOCK:   -7.78 KCAL/MOL
REMARK 924 INTRA-LIGAND FREE ENERGY PREDICTED BY IDOCK:   -0.96 KCAL/MOL
REMARK 927      BINDING AFFINITY PREDICTED BY RF-SCORE:    0.00 PKD
ROOT
HETATM    1  C   UNL     1     -10.396  17.651  66.132  1.00  0.00    -0.334 C  
HETATM    2  C   UNL     1     -10.165  16.162  66.399  1.00  0.00    -0.306 C  
HETATM    3  C   UNL     1      -9.761  15.969  67.864  1.00  0.00    -0.220 C  
ENDROOT
BRANCH   2   4
HETATM    4  N   UNL     1     -11.396  15.408  66.203  1.00  0.00    -0.165 NA 
HETATM    5  H   UNL     1     -12.230  15.773  66.662  1.00  0.00     0.000 HD 
BRANCH   4   6
HETATM    6  C   UNL     1     -11.560  14.241  65.456  1.00  0.00    -0.338 A  
HETATM    7  C   UNL     1     -11.349  12.888  65.841  1.00  0.00    -0.312 A  
HETATM    8  N   UNL     1     -11.603  11.859  64.981  1.00  0.00    -0.262 NA 
HETATM    9  C   UNL     1     -12.029  14.441  64.136  1.00  0.00    -0.373 A  
HETATM   10  C   UNL     1     -12.258  13.384  63.263  1.00  0.00    -0.314 A  
HETATM   11  C   UNL     1     -12.038  12.116  63.735  1.00  0.00    -0.525 A  
BRANCH   7  12
HETATM   12  N   UNL     1     -10.822  12.518  67.103  1.00  0.00    -0.244 NA 
HETATM   13  C   UNL     1      -9.348  12.336  67.012  1.00  0.00    -0.205 C  
HETATM   14  N   UNL     1      -9.375  10.936  69.046  1.00  0.00    -0.169 N  
HETATM   15  C   UNL     1      -8.782  12.123  68.418  1.00  0.00    -0.141 C  
HETATM   16  C   UNL     1     -10.851  10.949  69.051  1.00  0.00    -0.230 C  
HETATM   17  C   UNL     1      -8.542   9.847  69.286  1.00  0.00    -0.167 C  
HETATM   18  O   UNL     1      -7.411   9.805  68.798  1.00  0.00    -0.071 OA 
HETATM   19  C   UNL     1     -11.459  11.294  67.652  1.00  0.00    -0.264 C  
BRANCH  17  20
HETATM   20  C   UNL     1      -8.964   8.767  70.157  1.00  0.00    -0.166 A  
HETATM   21  C   UNL     1      -9.583   7.550  69.944  1.00  0.00    -0.160 A  
HETATM   22  C   UNL     1      -9.919   6.981  71.207  1.00  0.00    -0.196 A  
HETATM   23  C   UNL     1      -9.499   7.878  72.186  1.00  0.00    -0.177 A  
HETATM   24  N   UNL     1      -8.909   8.930  71.528  1.00  0.00    -0.298 NA 
HETATM   25  C   UNL     1      -9.715   7.669  73.553  1.00  0.00    -0.358 A  
HETATM   26  C   UNL     1     -10.371   6.492  73.932  1.00  0.00    -0.356 A  
HETATM   27  H   UNL     1      -8.485   9.731  71.994  1.00  0.00     0.000 HD 
HETATM   28  C   UNL     1     -10.770   5.561  72.977  1.00  0.00    -0.256 A  
HETATM   29  C   UNL     1     -10.573   5.798  71.610  1.00  0.00    -0.302 A  
BRANCH  28  30
HETATM   30  N   UNL     1     -11.394   4.350  73.404  1.00  0.00    -0.300 N  
HETATM   31  H   UNL     1     -12.359   4.344  73.733  1.00  0.00     0.000 HD 
BRANCH  30  32
HETATM   32  S   UNL     1     -10.482   2.926  73.348  1.00  0.00    -0.168 S  
HETATM   33  O   UNL     1     -10.043   2.657  72.003  1.00  0.00    -0.165 OA 
HETATM   34  O   UNL     1      -9.538   3.041  74.441  1.00  0.00    -0.089 OA 
HETATM   35  C   UNL     1     -11.700   1.721  73.825  1.00  0.00    -0.146 C  
ENDBRANCH  30  32
ENDBRANCH  28  30
ENDBRANCH  17  20
ENDBRANCH   7  12
ENDBRANCH   4   6
ENDBRANCH   2   4
TORSDOF 6
ENDMDL
MODEL       28
REMARK 921   NORMALIZED FREE ENERGY PREDICTED BY IDOCK:   -6.11 KCAL/MOL
REMARK 922        TOTAL FREE ENERGY PREDICTED BY IDOCK:   -8.73 KCAL/MOL
REMARK 923 INTER-LIGAND FREE ENERGY PREDICTED BY IDOCK:   -8.26 KCAL/MOL
REMARK 924 INTRA-LIGAND FREE ENERGY PREDICTED BY IDOCK:   -0.48 KCAL/MOL
REMARK 927      BINDING AFFINITY PREDICTED BY RF-SCORE:    0.00 PKD
ROOT
HETATM    1  C   UNL     1      -7.190  10.010  70.256  1.00  0.00    -0.155 C  
HETATM    2  C   UNL     1      -7.437   8.760  71.104  1.00  0.00    -0.101 C  
HETATM    3  C   UNL     1      -6.299   8.607  72.119  1.00  0.00    -0.073 C  
ENDROOT
BRANCH   2   4
HETATM    4  N   UNL     1      -8.667   8.896  71.874  1.00  0.00    -0.370 NA 
HETATM    5  H   UNL     1      -8.787   9.769  72.387  1.00  0.00     0.000 HD 
BRANCH   4   6
HETATM    6  C   UNL     1      -9.699   7.964  71.986  1.00  0.00    -0.187 A  
HETATM    7  C   UNL     1     -10.754   7.676  71.077  1.00  0.00    -0.228 A  
HETATM    8  N   UNL     1     -11.662   6.689  71.336  1.00  0.00    -0.309 NA 
HETATM    9  C   UNL     1      -9.665   7.179  73.162  1.00  0.00    -0.232 A  
HETATM   10  C   UNL     1     -10.611   6.195  73.423  1.00  0.00    -0.288 A  
HETATM   11  C   UNL     1     -11.582   5.984  72.478  1.00  0.00    -0.267 A  
BRANCH   7  12
HETATM   12  N   UNL     1     -10.970   8.411  69.885  1.00  0.00    -0.212 NA 
HETATM   13  C   UNL     1      -9.964   8.031  68.857  1.00  0.00    -0.195 C  
HETATM   14  N   UNL     1     -10.356  10.156  67.662  1.00  0.00    -0.203 N  
HETATM   15  C   UNL     1     -10.331   8.695  67.528  1.00  0.00    -0.269 C  
HETATM   16  C   UNL     1     -11.216  10.632  68.762  1.00  0.00    -0.279 C  
HETATM   17  C   UNL     1      -9.389  10.884  66.974  1.00  0.00    -0.163 C  
HETATM   18  O   UNL     1      -8.429  10.313  66.451  1.00  0.00    -0.126 OA 
HETATM   19  C   UNL     1     -10.952   9.879  70.107  1.00  0.00    -0.301 C  
BRANCH  17  20
HETATM   20  C   UNL     1      -9.516  12.320  66.811  1.00  0.00    -0.222 A  
HETATM   21  C   UNL     1      -9.380  13.398  67.664  1.00  0.00    -0.217 A  
HETATM   22  C   UNL     1      -9.808  14.576  66.985  1.00  0.00    -0.249 A  
HETATM   23  C   UNL     1     -10.211  14.190  65.709  1.00  0.00    -0.332 A  
HETATM   24  N   UNL     1     -10.004  12.835  65.625  1.00  0.00    -0.338 NA 
HETATM   25  C   UNL     1     -10.744  15.086  64.776  1.00  0.00    -0.354 A  
HETATM   26  C   UNL     1     -10.855  16.429  65.158  1.00  0.00    -0.289 A  
HETATM   27  H   UNL     1     -10.188  12.278  64.791  1.00  0.00     0.000 HD 
HETATM   28  C   UNL     1     -10.427  16.848  66.414  1.00  0.00    -0.252 A  
HETATM   29  C   UNL     1      -9.923  15.933  67.348  1.00  0.00    -0.239 A  
BRANCH  28  30
HETATM   30  N   UNL     1     -10.510  18.233  66.751  1.00  0.00    -0.377 N  
HETATM   31  H   UNL     1     -11.412  18.706  66.806  1.00  0.00     0.000 HD 
BRANCH  30  32
HETATM   32  S   UNL     1      -9.069  19.063  67.054  1.00  0.00    -0.303 S  
HETATM   33  O   UNL     1      -8.532  18.697  68.339  1.00  0.00    -0.319 OA 
HETATM   34  O   UNL     1      -8.288  18.919  65.841  1.00  0.00    -0.483 OA 
HETATM   35  C   UNL     1      -9.648  20.744  67.113  1.00  0.00    -0.325 C  
ENDBRANCH  30  32
ENDBRANCH  28  30
ENDBRANCH  17  20
ENDBRANCH   7  12
ENDBRANCH   4   6
ENDBRANCH   2   4
TORSDOF 6
ENDMDL
MODEL       29
REMARK 921   NORMALIZED FREE ENERGY PREDICTED BY IDOCK:   -6.09 KCAL/MOL
REMARK 922        TOTAL FREE ENERGY PREDICTED BY IDOCK:   -8.71 KCAL/MOL
REMARK 923 INTER-LIGAND FREE ENERGY PREDICTED BY IDOCK:   -7.93 KCAL/MOL
REMARK 924 INTRA-LIGAND FREE ENERGY PREDICTED BY IDOCK:   -0.78 KCAL/MOL
REMARK 927      BINDING AFFINITY PREDICTED BY RF-SCORE:    0.00 PKD
ROOT
HETATM    1  C   UNL     1     -12.653  11.980  63.570  1.00  0.00    -0.625 C  
HETATM    2  C   UNL     1     -11.496  11.945  64.573  1.00  0.00    -0.294 C  
HETATM    3  C   UNL     1     -10.170  11.856  63.810  1.00  0.00    -0.442 C  
ENDROOT
BRANCH   2   4
HETATM    4  N   UNL     1     -11.451  13.178  65.347  1.00  0.00    -0.298 NA 
HETATM    5  H   UNL     1     -12.248  13.806  65.247  1.00  0.00     0.000 HD 
BRANCH   4   6
HETATM    6  C   UNL     1     -10.437  13.594  66.210  1.00  0.00    -0.291 A  
HETATM    7  C   UNL     1      -9.945  12.969  67.389  1.00  0.00    -0.228 A  
HETATM    8  N   UNL     1      -8.906  13.505  68.095  1.00  0.00    -0.175 NA 
HETATM    9  C   UNL     1      -9.793  14.797  65.835  1.00  0.00    -0.363 A  
HETATM   10  C   UNL     1      -8.753  15.344  66.577  1.00  0.00    -0.335 A  
HETATM   11  C   UNL     1      -8.343  14.658  67.691  1.00  0.00    -0.177 A  
BRANCH   7  12
HETATM   12  N   UNL     1     -10.519  11.796  67.939  1.00  0.00    -0.191 NA 
HETATM   13  C   UNL     1     -11.682  12.145  68.799  1.00  0.00    -0.321 C  
HETATM   14  N   UNL     1     -11.485   9.983  69.975  1.00  0.00    -0.256 N  
HETATM   15  C   UNL     1     -12.393  10.860  69.226  1.00  0.00    -0.037 C  
HETATM   16  C   UNL     1     -10.224   9.695  69.264  1.00  0.00    -0.205 C  
HETATM   17  C   UNL     1     -11.758   9.771  71.323  1.00  0.00    -0.394 C  
HETATM   18  O   UNL     1     -12.599  10.458  71.907  1.00  0.00    -0.397 OA 
HETATM   19  C   UNL     1      -9.538  10.983  68.702  1.00  0.00    -0.195 C  
BRANCH  17  20
HETATM   20  C   UNL     1     -11.102   8.704  72.055  1.00  0.00    -0.367 A  
HETATM   21  C   UNL     1      -9.796   8.465  72.437  1.00  0.00    -0.378 A  
HETATM   22  C   UNL     1      -9.712   7.152  72.983  1.00  0.00    -0.216 A  
HETATM   23  C   UNL     1     -10.988   6.599  72.920  1.00  0.00    -0.253 A  
HETATM   24  N   UNL     1     -11.807   7.560  72.379  1.00  0.00    -0.444 NA 
HETATM   25  C   UNL     1     -11.271   5.289  73.325  1.00  0.00    -0.359 A  
HETATM   26  C   UNL     1     -10.212   4.524  73.826  1.00  0.00    -0.233 A  
HETATM   27  H   UNL     1     -12.809   7.444  72.235  1.00  0.00     0.000 HD 
HETATM   28  C   UNL     1      -8.933   5.063  73.934  1.00  0.00    -0.113 A  
HETATM   29  C   UNL     1      -8.659   6.366  73.497  1.00  0.00    -0.128 A  
BRANCH  28  30
HETATM   30  N   UNL     1      -7.888   4.269  74.495  1.00  0.00    -0.086 N  
HETATM   31  H   UNL     1      -7.574   4.416  75.454  1.00  0.00     0.000 HD 
BRANCH  30  32
HETATM   32  S   UNL     1      -7.188   3.077  73.520  1.00  0.00    -0.043 S  
HETATM   33  O   UNL     1      -7.701   1.775  73.862  1.00  0.00    -0.036 OA 
HETATM   34  O   UNL     1      -7.280   3.593  72.169  1.00  0.00    -0.047 OA 
HETATM   35  C   UNL     1      -5.483   3.189  74.015  1.00  0.00     0.000 C  
ENDBRANCH  30  32
ENDBRANCH  28  30
ENDBRANCH  17  20
ENDBRANCH   7  12
ENDBRANCH   4   6
ENDBRANCH   2   4
TORSDOF 6
ENDMDL
MODEL       30
REMARK 921   NORMALIZED FREE ENERGY PREDICTED BY IDOCK:   -6.09 KCAL/MOL
REMARK 922        TOTAL FREE ENERGY PREDICTED BY IDOCK:   -8.70 KCAL/MOL
REMARK 923 INTER-LIGAND FREE ENERGY PREDICTED BY IDOCK:   -8.06 KCAL/MOL
REMARK 924 INTRA-LIGAND FREE ENERGY PREDICTED BY IDOCK:   -0.64 KCAL/MOL
REMARK 927      BINDING AFFINITY PREDICTED BY RF-SCORE:    0.00 PKD
ROOT
HETATM    1  C   UNL     1     -11.803  14.099  67.114  1.00  0.00    -0.454 C  
HETATM    2  C   UNL     1     -11.464  14.749  68.458  1.00  0.00    -0.308 C  
HETATM    3  C   UNL     1     -11.032  16.200  68.222  1.00  0.00    -0.340 C  
ENDROOT
BRANCH   2   4
HETATM    4  N   UNL     1     -12.640  14.797  69.317  1.00  0.00    -0.562 NA 
HETATM    5  H   UNL     1     -13.540  14.898  68.848  1.00  0.00     0.000 HD 
BRANCH   4   6
HETATM    6  C   UNL     1     -12.671  14.720  70.710  1.00  0.00    -0.362 A  
HETATM    7  C   UNL     1     -12.764  13.574  71.546  1.00  0.00    -0.322 A  
HETATM    8  N   UNL     1     -12.738  13.686  72.907  1.00  0.00    -0.129 NA 
HETATM    9  C   UNL     1     -12.565  15.964  71.375  1.00  0.00    -0.437 A  
HETATM   10  C   UNL     1     -12.566  16.064  72.762  1.00  0.00    -0.565 A  
HETATM   11  C   UNL     1     -12.646  14.899  73.480  1.00  0.00    -0.493 A  
BRANCH   7  12
HETATM   12  N   UNL     1     -12.940  12.261  71.041  1.00  0.00    -0.145 NA 
HETATM   13  C   UNL     1     -13.151  11.303  72.160  1.00  0.00    -0.167 C  
HETATM   14  N   UNL     1     -12.459   9.428  70.711  1.00  0.00    -0.153 N  
HETATM   15  C   UNL     1     -13.523   9.935  71.585  1.00  0.00    -0.336 C  
HETATM   16  C   UNL     1     -12.068  10.375  69.648  1.00  0.00    -0.097 C  
HETATM   17  C   UNL     1     -11.760   8.300  71.130  1.00  0.00    -0.280 C  
HETATM   18  O   UNL     1     -11.888   7.877  72.282  1.00  0.00    -0.319 OA 
HETATM   19  C   UNL     1     -11.806  11.819  70.190  1.00  0.00    -0.324 C  
BRANCH  17  20
HETATM   20  C   UNL     1     -10.912   7.566  70.211  1.00  0.00    -0.250 A  
HETATM   21  C   UNL     1      -9.555   7.567  69.951  1.00  0.00    -0.160 A  
HETATM   22  C   UNL     1      -9.310   6.762  68.800  1.00  0.00    -0.132 A  
HETATM   23  C   UNL     1     -10.542   6.281  68.366  1.00  0.00    -0.260 A  
HETATM   24  N   UNL     1     -11.483   6.761  69.244  1.00  0.00    -0.596 NA 
HETATM   25  C   UNL     1     -10.690   5.492  67.220  1.00  0.00    -0.243 A  
HETATM   26  C   UNL     1      -9.532   5.172  66.500  1.00  0.00    -0.153 A  
HETATM   27  H   UNL     1     -12.478   6.550  69.189  1.00  0.00     0.000 HD 
HETATM   28  C   UNL     1      -8.283   5.609  66.932  1.00  0.00    -0.105 A  
HETATM   29  C   UNL     1      -8.155   6.423  68.065  1.00  0.00    -0.116 A  
BRANCH  28  30
HETATM   30  N   UNL     1      -7.120   5.223  66.200  1.00  0.00    -0.070 N  
HETATM   31  H   UNL     1      -6.556   4.426  66.494  1.00  0.00     0.000 HD 
BRANCH  30  32
HETATM   32  S   UNL     1      -6.707   6.128  64.833  1.00  0.00    -0.044 S  
HETATM   33  O   UNL     1      -7.430   7.374  64.810  1.00  0.00    -0.076 OA 
HETATM   34  O   UNL     1      -5.258   6.096  64.784  1.00  0.00    -0.016 OA 
HETATM   35  C   UNL     1      -7.304   5.074  63.531  1.00  0.00    -0.050 C  
ENDBRANCH  30  32
ENDBRANCH  28  30
ENDBRANCH  17  20
ENDBRANCH   7  12
ENDBRANCH   4   6
ENDBRANCH   2   4
TORSDOF 6
ENDMDL
MODEL       31
REMARK 921   NORMALIZED FREE ENERGY PREDICTED BY IDOCK:   -6.08 KCAL/MOL
REMARK 922        TOTAL FREE ENERGY PREDICTED BY IDOCK:   -8.69 KCAL/MOL
REMARK 923 INTER-LIGAND FREE ENERGY PREDICTED BY IDOCK:   -7.82 KCAL/MOL
REMARK 924 INTRA-LIGAND FREE ENERGY PREDICTED BY IDOCK:   -0.88 KCAL/MOL
REMARK 927      BINDING AFFINITY PREDICTED BY RF-SCORE:    0.00 PKD
ROOT
HETATM    1  C   UNL     1      -9.807  20.728  67.290  1.00  0.00    -0.433 C  
HETATM    2  C   UNL     1      -9.709  19.201  67.242  1.00  0.00    -0.319 C  
HETATM    3  C   UNL     1     -10.427  18.689  65.988  1.00  0.00    -0.456 C  
ENDROOT
BRANCH   2   4
HETATM    4  N   UNL     1      -8.320  18.779  67.129  1.00  0.00    -0.266 NA 
HETATM    5  H   UNL     1      -7.857  18.975  66.242  1.00  0.00     0.000 HD 
BRANCH   4   6
HETATM    6  C   UNL     1      -7.553  18.136  68.101  1.00  0.00    -0.265 A  
HETATM    7  C   UNL     1      -7.575  16.774  68.509  1.00  0.00    -0.217 A  
HETATM    8  N   UNL     1      -6.713  16.305  69.459  1.00  0.00    -0.208 NA 
HETATM    9  C   UNL     1      -6.601  18.959  68.747  1.00  0.00    -0.296 A  
HETATM   10  C   UNL     1      -5.748  18.473  69.731  1.00  0.00    -0.250 A  
HETATM   11  C   UNL     1      -5.837  17.141  70.044  1.00  0.00    -0.225 A  
BRANCH   7  12
HETATM   12  N   UNL     1      -8.508  15.832  68.010  1.00  0.00    -0.159 NA 
HETATM   13  C   UNL     1      -9.736  15.827  68.851  1.00  0.00    -0.225 C  
HETATM   14  N   UNL     1     -10.310  13.569  68.034  1.00  0.00    -0.235 N  
HETATM   15  C   UNL     1     -10.795  14.946  68.187  1.00  0.00    -0.256 C  
HETATM   16  C   UNL     1      -9.012  13.476  67.337  1.00  0.00    -0.219 C  
HETATM   17  C   UNL     1     -10.936  12.576  68.781  1.00  0.00    -0.253 C  
HETATM   18  O   UNL     1     -11.718  12.874  69.687  1.00  0.00    -0.300 OA 
HETATM   19  C   UNL     1      -7.943  14.462  67.913  1.00  0.00    -0.147 C  
BRANCH  17  20
HETATM   20  C   UNL     1     -10.727  11.173  68.478  1.00  0.00    -0.201 A  
HETATM   21  C   UNL     1     -10.609  10.453  67.305  1.00  0.00    -0.322 A  
HETATM   22  C   UNL     1     -10.599   9.063  67.620  1.00  0.00    -0.298 A  
HETATM   23  C   UNL     1     -10.719   8.956  69.003  1.00  0.00    -0.126 A  
HETATM   24  N   UNL     1     -10.772  10.238  69.494  1.00  0.00    -0.232 NA 
HETATM   25  C   UNL     1     -10.797   7.726  69.667  1.00  0.00    -0.185 A  
HETATM   26  C   UNL     1     -10.736   6.565  68.888  1.00  0.00    -0.318 A  
HETATM   27  H   UNL     1     -10.836  10.470  70.484  1.00  0.00     0.000 HD 
HETATM   28  C   UNL     1     -10.580   6.643  67.507  1.00  0.00    -0.281 A  
HETATM   29  C   UNL     1     -10.533   7.881  66.854  1.00  0.00    -0.388 A  
BRANCH  28  30
HETATM   30  N   UNL     1     -10.472   5.437  66.750  1.00  0.00    -0.272 N  
HETATM   31  H   UNL     1     -11.278   5.051  66.259  1.00  0.00     0.000 HD 
BRANCH  30  32
HETATM   32  S   UNL     1      -8.966   4.669  66.693  1.00  0.00    -0.116 S  
HETATM   33  O   UNL     1      -7.914   5.628  66.476  1.00  0.00    -0.100 OA 
HETATM   34  O   UNL     1      -8.953   3.781  67.839  1.00  0.00    -0.106 OA 
HETATM   35  C   UNL     1      -9.153   3.658  65.242  1.00  0.00    -0.145 C  
ENDBRANCH  30  32
ENDBRANCH  28  30
ENDBRANCH  17  20
ENDBRANCH   7  12
ENDBRANCH   4   6
ENDBRANCH   2   4
TORSDOF 6
ENDMDL
MODEL       32
REMARK 921   NORMALIZED FREE ENERGY PREDICTED BY IDOCK:   -6.03 KCAL/MOL
REMARK 922        TOTAL FREE ENERGY PREDICTED BY IDOCK:   -8.62 KCAL/MOL
REMARK 923 INTER-LIGAND FREE ENERGY PREDICTED BY IDOCK:   -8.77 KCAL/MOL
REMARK 924 INTRA-LIGAND FREE ENERGY PREDICTED BY IDOCK:    0.15 KCAL/MOL
REMARK 927      BINDING AFFINITY PREDICTED BY RF-SCORE:    0.00 PKD
ROOT
HETATM    1  C   UNL     1     -10.706  19.894  65.742  1.00  0.00    -0.423 C  
HETATM    2  C   UNL     1      -9.343  19.592  66.368  1.00  0.00    -0.379 C  
HETATM    3  C   UNL     1      -9.512  19.402  67.879  1.00  0.00    -0.407 C  
ENDROOT
BRANCH   2   4
HETATM    4  N   UNL     1      -8.804  18.341  65.848  1.00  0.00    -0.467 NA 
HETATM    5  H   UNL     1      -9.285  17.941  65.042  1.00  0.00     0.000 HD 
BRANCH   4   6
HETATM    6  C   UNL     1      -7.705  17.631  66.331  1.00  0.00    -0.290 A  
HETATM    7  C   UNL     1      -7.606  16.258  66.686  1.00  0.00    -0.232 A  
HETATM    8  N   UNL     1      -6.424  15.718  67.107  1.00  0.00    -0.309 NA 
HETATM    9  C   UNL     1      -6.517  18.388  66.455  1.00  0.00    -0.235 A  
HETATM   10  C   UNL     1      -5.327  17.831  66.909  1.00  0.00    -0.172 A  
HETATM   11  C   UNL     1      -5.331  16.494  67.213  1.00  0.00    -0.124 A  
BRANCH   7  12
HETATM   12  N   UNL     1      -8.715  15.376  66.681  1.00  0.00    -0.278 NA 
HETATM   13  C   UNL     1      -9.852  15.974  67.432  1.00  0.00    -0.236 C  
HETATM   14  N   UNL     1     -10.842  13.735  67.753  1.00  0.00    -0.247 N  
HETATM   15  C   UNL     1     -11.090  15.092  67.253  1.00  0.00    -0.332 C  
HETATM   16  C   UNL     1      -9.639  13.105  67.176  1.00  0.00    -0.235 C  
HETATM   17  C   UNL     1     -11.552  13.321  68.877  1.00  0.00    -0.314 C  
HETATM   18  O   UNL     1     -12.197  14.133  69.544  1.00  0.00    -0.326 OA 
HETATM   19  C   UNL     1      -8.383  14.036  67.228  1.00  0.00    -0.194 C  
BRANCH  17  20
HETATM   20  C   UNL     1     -11.593  11.922  69.256  1.00  0.00    -0.315 A  
HETATM   21  C   UNL     1     -11.954  11.251  70.409  1.00  0.00    -0.471 A  
HETATM   22  C   UNL     1     -11.611   9.875  70.264  1.00  0.00    -0.319 A  
HETATM   23  C   UNL     1     -11.031   9.727  69.007  1.00  0.00    -0.163 A  
HETATM   24  N   UNL     1     -11.053  10.967  68.416  1.00  0.00    -0.240 NA 
HETATM   25  C   UNL     1     -10.522   8.509  68.543  1.00  0.00    -0.205 A  
HETATM   26  C   UNL     1     -10.624   7.400  69.390  1.00  0.00    -0.231 A  
HETATM   27  H   UNL     1     -10.713  11.158  67.474  1.00  0.00     0.000 HD 
HETATM   28  C   UNL     1     -11.232   7.511  70.637  1.00  0.00    -0.268 A  
HETATM   29  C   UNL     1     -11.710   8.744  71.100  1.00  0.00    -0.344 A  
BRANCH  28  30
HETATM   30  N   UNL     1     -11.362   6.347  71.454  1.00  0.00    -0.289 N  
HETATM   31  H   UNL     1     -12.260   5.875  71.555  1.00  0.00     0.000 HD 
BRANCH  30  32
HETATM   32  S   UNL     1      -9.982   5.778  72.248  1.00  0.00    -0.173 S  
HETATM   33  O   UNL     1      -9.525   4.547  71.655  1.00  0.00    -0.137 OA 
HETATM   34  O   UNL     1      -9.109   6.931  72.360  1.00  0.00    -0.134 OA 
HETATM   35  C   UNL     1     -10.632   5.447  73.870  1.00  0.00    -0.285 C  
ENDBRANCH  30  32
ENDBRANCH  28  30
ENDBRANCH  17  20
ENDBRANCH   7  12
ENDBRANCH   4   6
ENDBRANCH   2   4
TORSDOF 6
ENDMDL
MODEL       33
REMARK 921   NORMALIZED FREE ENERGY PREDICTED BY IDOCK:   -5.97 KCAL/MOL
REMARK 922        TOTAL FREE ENERGY PREDICTED BY IDOCK:   -8.54 KCAL/MOL
REMARK 923 INTER-LIGAND FREE ENERGY PREDICTED BY IDOCK:   -7.98 KCAL/MOL
REMARK 924 INTRA-LIGAND FREE ENERGY PREDICTED BY IDOCK:   -0.56 KCAL/MOL
REMARK 927      BINDING AFFINITY PREDICTED BY RF-SCORE:    0.00 PKD
ROOT
HETATM    1  C   UNL     1      -9.610   4.443  71.291  1.00  0.00    -0.242 C  
HETATM    2  C   UNL     1     -10.752   4.486  72.310  1.00  0.00    -0.042 C  
HETATM    3  C   UNL     1     -10.500   3.433  73.395  1.00  0.00    -0.261 C  
ENDROOT
BRANCH   2   4
HETATM    4  N   UNL     1     -10.791   5.778  72.984  1.00  0.00    -0.254 NA 
HETATM    5  H   UNL     1     -11.687   6.051  73.388  1.00  0.00     0.000 HD 
BRANCH   4   6
HETATM    6  C   UNL     1      -9.739   6.681  73.137  1.00  0.00    -0.160 A  
HETATM    7  C   UNL     1      -9.406   7.816  72.347  1.00  0.00    -0.169 A  
HETATM    8  N   UNL     1      -8.352   8.621  72.674  1.00  0.00    -0.408 NA 
HETATM    9  C   UNL     1      -8.909   6.442  74.256  1.00  0.00    -0.158 A  
HETATM   10  C   UNL     1      -7.824   7.255  74.561  1.00  0.00    -0.180 A  
HETATM   11  C   UNL     1      -7.593   8.333  73.746  1.00  0.00    -0.149 A  
BRANCH   7  12
HETATM   12  N   UNL     1     -10.095   8.160  71.158  1.00  0.00    -0.181 NA 
HETATM   13  C   UNL     1      -9.521   7.424  69.999  1.00  0.00    -0.161 C  
HETATM   14  N   UNL     1     -10.462   9.097  68.446  1.00  0.00    -0.209 N  
HETATM   15  C   UNL     1     -10.397   7.667  68.768  1.00  0.00    -0.204 C  
HETATM   16  C   UNL     1     -10.880   9.939  69.585  1.00  0.00    -0.253 C  
HETATM   17  C   UNL     1      -9.868   9.521  67.261  1.00  0.00    -0.177 C  
HETATM   18  O   UNL     1      -9.137   8.762  66.621  1.00  0.00    -0.142 OA 
HETATM   19  C   UNL     1     -10.088   9.621  70.896  1.00  0.00    -0.186 C  
BRANCH  17  20
HETATM   20  C   UNL     1     -10.137  10.842  66.725  1.00  0.00    -0.222 A  
HETATM   21  C   UNL     1      -9.385  11.992  66.587  1.00  0.00    -0.221 A  
HETATM   22  C   UNL     1     -10.239  13.048  66.154  1.00  0.00    -0.288 A  
HETATM   23  C   UNL     1     -11.521  12.517  66.039  1.00  0.00    -0.377 A  
HETATM   24  N   UNL     1     -11.426  11.187  66.366  1.00  0.00    -0.196 NA 
HETATM   25  C   UNL     1     -12.634  13.287  65.683  1.00  0.00    -0.469 A  
HETATM   26  C   UNL     1     -12.424  14.646  65.422  1.00  0.00    -0.163 A  
HETATM   27  H   UNL     1     -12.210  10.535  66.347  1.00  0.00     0.000 HD 
HETATM   28  C   UNL     1     -11.147  15.196  65.495  1.00  0.00    -0.345 A  
HETATM   29  C   UNL     1     -10.047  14.418  65.881  1.00  0.00    -0.344 A  
BRANCH  28  30
HETATM   30  N   UNL     1     -10.964  16.574  65.174  1.00  0.00    -0.281 N  
HETATM   31  H   UNL     1     -11.339  16.967  64.311  1.00  0.00     0.000 HD 
BRANCH  30  32
HETATM   32  S   UNL     1     -10.105  17.536  66.269  1.00  0.00    -0.315 S  
HETATM   33  O   UNL     1     -10.575  17.317  67.614  1.00  0.00    -0.358 OA 
HETATM   34  O   UNL     1      -8.711  17.353  65.918  1.00  0.00    -0.522 OA 
HETATM   35  C   UNL     1     -10.577  19.166  65.736  1.00  0.00    -0.341 C  
ENDBRANCH  30  32
ENDBRANCH  28  30
ENDBRANCH  17  20
ENDBRANCH   7  12
ENDBRANCH   4   6
ENDBRANCH   2   4
TORSDOF 6
ENDMDL
MODEL       34
REMARK 921   NORMALIZED FREE ENERGY PREDICTED BY IDOCK:   -5.96 KCAL/MOL
REMARK 922        TOTAL FREE ENERGY PREDICTED BY IDOCK:   -8.54 KCAL/MOL
REMARK 923 INTER-LIGAND FREE ENERGY PREDICTED BY IDOCK:   -8.20 KCAL/MOL
REMARK 924 INTRA-LIGAND FREE ENERGY PREDICTED BY IDOCK:   -0.33 KCAL/MOL
REMARK 927      BINDING AFFINITY PREDICTED BY RF-SCORE:    0.00 PKD
ROOT
HETATM    1  C   UNL     1     -11.183   5.493  73.363  1.00  0.00    -0.212 C  
HETATM    2  C   UNL     1     -10.234   4.568  74.129  1.00  0.00    -0.217 C  
HETATM    3  C   UNL     1     -10.281   3.169  73.505  1.00  0.00    -0.207 C  
ENDROOT
BRANCH   2   4
HETATM    4  N   UNL     1      -8.858   5.032  74.011  1.00  0.00    -0.114 NA 
HETATM    5  H   UNL     1      -8.532   5.673  74.734  1.00  0.00     0.000 HD 
BRANCH   4   6
HETATM    6  C   UNL     1      -7.937   4.696  73.018  1.00  0.00    -0.100 A  
HETATM    7  C   UNL     1      -7.880   5.121  71.662  1.00  0.00    -0.109 A  
HETATM    8  N   UNL     1      -6.871   4.718  70.835  1.00  0.00    -0.035 NA 
HETATM    9  C   UNL     1      -6.900   3.830  73.438  1.00  0.00    -0.044 A  
HETATM   10  C   UNL     1      -5.894   3.408  72.578  1.00  0.00    -0.008 A  
HETATM   11  C   UNL     1      -5.919   3.885  71.292  1.00  0.00    -0.014 A  
BRANCH   7  12
HETATM   12  N   UNL     1      -8.874   5.935  71.065  1.00  0.00    -0.138 NA 
HETATM   13  C   UNL     1      -9.640   5.156  70.054  1.00  0.00    -0.181 C  
HETATM   14  N   UNL     1     -10.354   7.249  68.955  1.00  0.00    -0.201 N  
HETATM   15  C   UNL     1     -10.820   5.997  69.563  1.00  0.00    -0.369 C  
HETATM   16  C   UNL     1      -9.458   8.031  69.829  1.00  0.00    -0.159 C  
HETATM   17  C   UNL     1     -10.549   7.415  67.587  1.00  0.00    -0.239 C  
HETATM   18  O   UNL     1     -10.903   6.465  66.885  1.00  0.00    -0.333 OA 
HETATM   19  C   UNL     1      -8.312   7.166  70.452  1.00  0.00    -0.128 C  
BRANCH  17  20
HETATM   20  C   UNL     1     -10.395   8.717  66.967  1.00  0.00    -0.298 A  
HETATM   21  C   UNL     1     -10.846   9.986  67.274  1.00  0.00    -0.284 A  
HETATM   22  C   UNL     1     -10.532  10.858  66.192  1.00  0.00    -0.290 A  
HETATM   23  C   UNL     1      -9.889  10.094  65.222  1.00  0.00    -0.319 A  
HETATM   24  N   UNL     1      -9.800   8.818  65.723  1.00  0.00    -0.458 NA 
HETATM   25  C   UNL     1      -9.481  10.615  63.989  1.00  0.00    -0.329 A  
HETATM   26  C   UNL     1      -9.726  11.972  63.747  1.00  0.00    -0.197 A  
HETATM   27  H   UNL     1      -9.352   8.042  65.237  1.00  0.00     0.000 HD 
HETATM   28  C   UNL     1     -10.335  12.768  64.713  1.00  0.00    -0.322 A  
HETATM   29  C   UNL     1     -10.765  12.224  65.931  1.00  0.00    -0.294 A  
BRANCH  28  30
HETATM   30  N   UNL     1     -10.526  14.158  64.450  1.00  0.00    -0.544 N  
HETATM   31  H   UNL     1      -9.743  14.810  64.480  1.00  0.00     0.000 HD 
BRANCH  30  32
HETATM   32  S   UNL     1     -12.090  14.689  64.088  1.00  0.00    -0.179 S  
HETATM   33  O   UNL     1     -12.087  16.092  63.759  1.00  0.00    -0.882 OA 
HETATM   34  O   UNL     1     -12.620  13.700  63.169  1.00  0.00    -0.792 OA 
HETATM   35  C   UNL     1     -12.904  14.450  65.651  1.00  0.00    -0.204 C  
ENDBRANCH  30  32
ENDBRANCH  28  30
ENDBRANCH  17  20
ENDBRANCH   7  12
ENDBRANCH   4   6
ENDBRANCH   2   4
TORSDOF 6
ENDMDL
MODEL       35
REMARK 921   NORMALIZED FREE ENERGY PREDICTED BY IDOCK:   -5.91 KCAL/MOL
REMARK 922        TOTAL FREE ENERGY PREDICTED BY IDOCK:   -8.47 KCAL/MOL
REMARK 923 INTER-LIGAND FREE ENERGY PREDICTED BY IDOCK:   -7.92 KCAL/MOL
REMARK 924 INTRA-LIGAND FREE ENERGY PREDICTED BY IDOCK:   -0.55 KCAL/MOL
REMARK 927      BINDING AFFINITY PREDICTED BY RF-SCORE:    0.00 PKD
ROOT
HETATM    1  C   UNL     1     -10.078  14.899  68.756  1.00  0.00    -0.241 C  
HETATM    2  C   UNL     1     -11.507  15.080  68.239  1.00  0.00    -0.332 C  
HETATM    3  C   UNL     1     -11.596  14.544  66.806  1.00  0.00    -0.388 C  
ENDROOT
BRANCH   2   4
HETATM    4  N   UNL     1     -12.445  14.299  69.036  1.00  0.00    -0.538 NA 
HETATM    5  H   UNL     1     -13.009  13.616  68.531  1.00  0.00     0.000 HD 
BRANCH   4   6
HETATM    6  C   UNL     1     -12.656  14.385  70.412  1.00  0.00    -0.345 A  
HETATM    7  C   UNL     1     -12.869  13.343  71.356  1.00  0.00    -0.333 A  
HETATM    8  N   UNL     1     -13.019  13.612  72.687  1.00  0.00    -0.337 NA 
HETATM    9  C   UNL     1     -12.624  15.697  70.938  1.00  0.00    -0.503 A  
HETATM   10  C   UNL     1     -12.803  15.958  72.291  1.00  0.00    -0.503 A  
HETATM   11  C   UNL     1     -12.989  14.884  73.123  1.00  0.00    -0.519 A  
BRANCH   7  12
HETATM   12  N   UNL     1     -12.993  11.980  70.988  1.00  0.00    -0.170 NA 
HETATM   13  C   UNL     1     -13.183  11.135  72.199  1.00  0.00    -0.192 C  
HETATM   14  N   UNL     1     -12.409   9.147  70.955  1.00  0.00    -0.259 N  
HETATM   15  C   UNL     1     -13.500   9.702  71.764  1.00  0.00    -0.394 C  
HETATM   16  C   UNL     1     -12.039   9.994  69.804  1.00  0.00     0.112 C  
HETATM   17  C   UNL     1     -11.676   8.094  71.495  1.00  0.00    -0.286 C  
HETATM   18  O   UNL     1     -11.801   7.787  72.682  1.00  0.00    -0.330 OA 
HETATM   19  C   UNL     1     -11.835  11.494  70.196  1.00  0.00    -0.356 C  
BRANCH  17  20
HETATM   20  C   UNL     1     -10.791   7.301  70.663  1.00  0.00    -0.242 A  
HETATM   21  C   UNL     1     -10.967   6.186  69.866  1.00  0.00    -0.458 A  
HETATM   22  C   UNL     1      -9.689   5.731  69.428  1.00  0.00    -0.200 A  
HETATM   23  C   UNL     1      -8.738   6.585  69.979  1.00  0.00    -0.140 A  
HETATM   24  N   UNL     1      -9.428   7.531  70.697  1.00  0.00    -0.164 NA 
HETATM   25  C   UNL     1      -7.361   6.406  69.801  1.00  0.00    -0.080 A  
HETATM   26  C   UNL     1      -6.945   5.322  69.020  1.00  0.00    -0.056 A  
HETATM   27  H   UNL     1      -8.990   8.306  71.193  1.00  0.00     0.000 HD 
HETATM   28  C   UNL     1      -7.875   4.473  68.428  1.00  0.00    -0.079 A  
HETATM   29  C   UNL     1      -9.249   4.647  68.639  1.00  0.00    -0.173 A  
BRANCH  28  30
HETATM   30  N   UNL     1      -7.415   3.407  67.598  1.00  0.00    -0.058 N  
HETATM   31  H   UNL     1      -6.763   2.708  67.955  1.00  0.00     0.000 HD 
BRANCH  30  32
HETATM   32  S   UNL     1      -7.981   3.340  66.006  1.00  0.00    -0.089 S  
HETATM   33  O   UNL     1      -9.157   2.512  65.920  1.00  0.00    -0.141 OA 
HETATM   34  O   UNL     1      -7.992   4.716  65.552  1.00  0.00    -0.093 OA 
HETATM   35  C   UNL     1      -6.624   2.525  65.194  1.00  0.00    -0.035 C  
ENDBRANCH  30  32
ENDBRANCH  28  30
ENDBRANCH  17  20
ENDBRANCH   7  12
ENDBRANCH   4   6
ENDBRANCH   2   4
TORSDOF 6
ENDMDL
MODEL       36
REMARK 921   NORMALIZED FREE ENERGY PREDICTED BY IDOCK:   -5.90 KCAL/MOL
REMARK 922        TOTAL FREE ENERGY PREDICTED BY IDOCK:   -8.44 KCAL/MOL
REMARK 923 INTER-LIGAND FREE ENERGY PREDICTED BY IDOCK:   -7.67 KCAL/MOL
REMARK 924 INTRA-LIGAND FREE ENERGY PREDICTED BY IDOCK:   -0.78 KCAL/MOL
REMARK 927      BINDING AFFINITY PREDICTED BY RF-SCORE:    0.00 PKD
ROOT
HETATM    1  C   UNL     1      -9.429   3.658  68.641  1.00  0.00    -0.208 C  
HETATM    2  C   UNL     1      -9.722   5.149  68.822  1.00  0.00    -0.154 C  
HETATM    3  C   UNL     1     -10.290   5.714  67.515  1.00  0.00    -0.277 C  
ENDROOT
BRANCH   2   4
HETATM    4  N   UNL     1     -10.741   5.352  69.843  1.00  0.00    -0.290 NA 
HETATM    5  H   UNL     1     -11.629   4.871  69.700  1.00  0.00     0.000 HD 
BRANCH   4   6
HETATM    6  C   UNL     1     -10.637   6.134  70.994  1.00  0.00    -0.246 A  
HETATM    7  C   UNL     1     -10.244   7.494  71.126  1.00  0.00    -0.193 A  
HETATM    8  N   UNL     1     -10.240   8.115  72.342  1.00  0.00    -0.271 NA 
HETATM    9  C   UNL     1     -11.005   5.478  72.192  1.00  0.00    -0.291 A  
HETATM   10  C   UNL     1     -10.972   6.116  73.426  1.00  0.00    -0.181 A  
HETATM   11  C   UNL     1     -10.591   7.433  73.447  1.00  0.00    -0.377 A  
BRANCH   7  12
HETATM   12  N   UNL     1      -9.785   8.275  70.036  1.00  0.00    -0.175 NA 
HETATM   13  C   UNL     1      -8.298   8.272  69.990  1.00  0.00    -0.121 C  
HETATM   14  N   UNL     1      -8.316  10.347  68.652  1.00  0.00    -0.119 N  
HETATM   15  C   UNL     1      -7.835   8.962  68.705  1.00  0.00    -0.102 C  
HETATM   16  C   UNL     1      -9.775  10.472  68.841  1.00  0.00    -0.199 C  
HETATM   17  C   UNL     1      -7.368  11.363  68.728  1.00  0.00    -0.114 C  
HETATM   18  O   UNL     1      -6.202  11.110  69.040  1.00  0.00    -0.042 OA 
HETATM   19  C   UNL     1     -10.297   9.669  70.077  1.00  0.00    -0.257 C  
BRANCH  17  20
HETATM   20  C   UNL     1      -7.715  12.730  68.391  1.00  0.00    -0.132 A  
HETATM   21  C   UNL     1      -8.171  13.349  67.242  1.00  0.00    -0.162 A  
HETATM   22  C   UNL     1      -8.162  14.759  67.447  1.00  0.00    -0.216 A  
HETATM   23  C   UNL     1      -7.687  14.983  68.737  1.00  0.00    -0.141 A  
HETATM   24  N   UNL     1      -7.448  13.748  69.287  1.00  0.00    -0.326 NA 
HETATM   25  C   UNL     1      -7.494  16.265  69.265  1.00  0.00    -0.217 A  
HETATM   26  C   UNL     1      -7.813  17.356  68.448  1.00  0.00    -0.257 A  
HETATM   27  H   UNL     1      -7.114  13.600  70.239  1.00  0.00     0.000 HD 
HETATM   28  C   UNL     1      -8.324  17.160  67.168  1.00  0.00    -0.196 A  
HETATM   29  C   UNL     1      -8.483  15.871  66.642  1.00  0.00    -0.322 A  
BRANCH  28  30
HETATM   30  N   UNL     1      -8.683  18.296  66.382  1.00  0.00    -0.269 N  
HETATM   31  H   UNL     1      -8.020  18.716  65.731  1.00  0.00     0.000 HD 
BRANCH  30  32
HETATM   32  S   UNL     1     -10.242  18.925  66.564  1.00  0.00    -0.440 S  
HETATM   33  O   UNL     1     -10.883  19.073  65.282  1.00  0.00    -0.540 OA 
HETATM   34  O   UNL     1     -10.844  18.139  67.622  1.00  0.00    -0.392 OA 
HETATM   35  C   UNL     1      -9.887  20.534  67.235  1.00  0.00    -0.441 C  
ENDBRANCH  30  32
ENDBRANCH  28  30
ENDBRANCH  17  20
ENDBRANCH   7  12
ENDBRANCH   4   6
ENDBRANCH   2   4
TORSDOF 6
ENDMDL
MODEL       37
REMARK 921   NORMALIZED FREE ENERGY PREDICTED BY IDOCK:   -5.89 KCAL/MOL
REMARK 922        TOTAL FREE ENERGY PREDICTED BY IDOCK:   -8.44 KCAL/MOL
REMARK 923 INTER-LIGAND FREE ENERGY PREDICTED BY IDOCK:   -7.57 KCAL/MOL
REMARK 924 INTRA-LIGAND FREE ENERGY PREDICTED BY IDOCK:   -0.87 KCAL/MOL
REMARK 927      BINDING AFFINITY PREDICTED BY RF-SCORE:    0.00 PKD
ROOT
HETATM    1  C   UNL     1     -10.012  19.445  68.736  1.00  0.00    -0.522 C  
HETATM    2  C   UNL     1     -10.328  18.003  68.333  1.00  0.00    -0.368 C  
HETATM    3  C   UNL     1      -9.296  17.528  67.306  1.00  0.00    -0.244 C  
ENDROOT
BRANCH   2   4
HETATM    4  N   UNL     1     -10.215  17.113  69.481  1.00  0.00    -0.156 NA 
HETATM    5  H   UNL     1      -9.414  17.262  70.094  1.00  0.00     0.000 HD 
BRANCH   4   6
HETATM    6  C   UNL     1     -11.082  16.079  69.835  1.00  0.00    -0.352 A  
HETATM    7  C   UNL     1     -11.293  14.824  69.199  1.00  0.00    -0.282 A  
HETATM    8  N   UNL     1     -12.163  13.906  69.715  1.00  0.00    -0.341 NA 
HETATM    9  C   UNL     1     -11.834  16.310  71.011  1.00  0.00    -0.246 A  
HETATM   10  C   UNL     1     -12.735  15.376  71.509  1.00  0.00    -0.480 A  
HETATM   11  C   UNL     1     -12.856  14.190  70.832  1.00  0.00    -0.334 A  
BRANCH   7  12
HETATM   12  N   UNL     1     -10.669  14.461  67.980  1.00  0.00    -0.239 NA 
HETATM   13  C   UNL     1     -11.665  14.452  66.874  1.00  0.00    -0.402 C  
HETATM   14  N   UNL     1     -10.204  12.970  65.545  1.00  0.00    -0.288 N  
HETATM   15  C   UNL     1     -10.936  14.243  65.546  1.00  0.00    -0.319 C  
HETATM   16  C   UNL     1      -9.292  12.815  66.695  1.00  0.00    -0.242 C  
HETATM   17  C   UNL     1     -10.642  11.974  64.678  1.00  0.00    -0.307 C  
HETATM   18  O   UNL     1     -11.724  12.082  64.095  1.00  0.00    -0.362 OA 
HETATM   19  C   UNL     1      -9.977  13.149  68.061  1.00  0.00    -0.233 C  
BRANCH  17  20
HETATM   20  C   UNL     1      -9.816  10.815  64.399  1.00  0.00    -0.315 A  
HETATM   21  C   UNL     1      -9.596   9.615  65.047  1.00  0.00    -0.284 A  
HETATM   22  C   UNL     1      -8.528   8.932  64.396  1.00  0.00    -0.170 A  
HETATM   23  C   UNL     1      -8.101   9.743  63.348  1.00  0.00    -0.151 A  
HETATM   24  N   UNL     1      -8.906  10.856  63.359  1.00  0.00    -0.331 NA 
HETATM   25  C   UNL     1      -7.024   9.410  62.519  1.00  0.00    -0.097 A  
HETATM   26  C   UNL     1      -6.370   8.197  62.763  1.00  0.00    -0.086 A  
HETATM   27  H   UNL     1      -8.840  11.617  62.685  1.00  0.00     0.000 HD 
HETATM   28  C   UNL     1      -6.798   7.350  63.782  1.00  0.00    -0.053 A  
HETATM   29  C   UNL     1      -7.859   7.711  64.622  1.00  0.00    -0.126 A  
BRANCH  28  30
HETATM   30  N   UNL     1      -6.137   6.099  63.970  1.00  0.00    -0.025 N  
HETATM   31  H   UNL     1      -5.127   6.053  64.099  1.00  0.00     0.000 HD 
BRANCH  30  32
HETATM   32  S   UNL     1      -7.082   4.696  63.971  1.00  0.00    -0.050 S  
HETATM   33  O   UNL     1      -7.624   4.450  65.283  1.00  0.00    -0.082 OA 
HETATM   34  O   UNL     1      -7.941   4.819  62.810  1.00  0.00    -0.066 OA 
HETATM   35  C   UNL     1      -5.859   3.460  63.597  1.00  0.00    -0.014 C  
ENDBRANCH  30  32
ENDBRANCH  28  30
ENDBRANCH  17  20
ENDBRANCH   7  12
ENDBRANCH   4   6
ENDBRANCH   2   4
TORSDOF 6
ENDMDL
MODEL       38
REMARK 921   NORMALIZED FREE ENERGY PREDICTED BY IDOCK:   -5.89 KCAL/MOL
REMARK 922        TOTAL FREE ENERGY PREDICTED BY IDOCK:   -8.43 KCAL/MOL
REMARK 923 INTER-LIGAND FREE ENERGY PREDICTED BY IDOCK:   -7.78 KCAL/MOL
REMARK 924 INTRA-LIGAND FREE ENERGY PREDICTED BY IDOCK:   -0.65 KCAL/MOL
REMARK 927      BINDING AFFINITY PREDICTED BY RF-SCORE:    0.00 PKD
ROOT
HETATM    1  C   UNL     1     -14.023  15.390  72.029  1.00  0.00    -0.640 C  
HETATM    2  C   UNL     1     -12.743  15.796  71.295  1.00  0.00    -0.438 C  
HETATM    3  C   UNL     1     -11.542  15.120  71.965  1.00  0.00    -0.496 C  
ENDROOT
BRANCH   2   4
HETATM    4  N   UNL     1     -12.770  15.327  69.916  1.00  0.00    -0.625 NA 
HETATM    5  H   UNL     1     -13.615  14.838  69.620  1.00  0.00     0.000 HD 
BRANCH   4   6
HETATM    6  C   UNL     1     -11.769  15.474  68.956  1.00  0.00    -0.377 A  
HETATM    7  C   UNL     1     -11.235  14.509  68.057  1.00  0.00    -0.292 A  
HETATM    8  N   UNL     1     -10.275  14.844  67.146  1.00  0.00    -0.244 NA 
HETATM    9  C   UNL     1     -11.234  16.779  68.850  1.00  0.00    -0.113 A  
HETATM   10  C   UNL     1     -10.238  17.099  67.934  1.00  0.00    -0.330 A  
HETATM   11  C   UNL     1      -9.800  16.101  67.102  1.00  0.00    -0.241 A  
BRANCH   7  12
HETATM   12  N   UNL     1     -11.614  13.143  68.075  1.00  0.00    -0.312 NA 
HETATM   13  C   UNL     1     -11.412  12.570  69.433  1.00  0.00    -0.263 C  
HETATM   14  N   UNL     1     -11.351  10.292  68.484  1.00  0.00    -0.213 N  
HETATM   15  C   UNL     1     -12.001  11.159  69.474  1.00  0.00    -0.355 C  
HETATM   16  C   UNL     1     -11.364  10.847  67.116  1.00  0.00    -0.088 C  
HETATM   17  C   UNL     1     -10.570   9.242  68.958  1.00  0.00    -0.205 C  
HETATM   18  O   UNL     1     -10.268   9.176  70.152  1.00  0.00    -0.184 OA 
HETATM   19  C   UNL     1     -10.889  12.336  67.061  1.00  0.00    -0.250 C  
BRANCH  17  20
HETATM   20  C   UNL     1     -10.141   8.176  68.073  1.00  0.00    -0.197 A  
HETATM   21  C   UNL     1     -10.791   7.130  67.446  1.00  0.00    -0.346 A  
HETATM   22  C   UNL     1      -9.817   6.284  66.840  1.00  0.00    -0.196 A  
HETATM   23  C   UNL     1      -8.567   6.833  67.118  1.00  0.00    -0.120 A  
HETATM   24  N   UNL     1      -8.793   7.979  67.840  1.00  0.00    -0.131 NA 
HETATM   25  C   UNL     1      -7.367   6.233  66.720  1.00  0.00    -0.079 A  
HETATM   26  C   UNL     1      -7.450   5.036  65.999  1.00  0.00    -0.082 A  
HETATM   27  H   UNL     1      -8.058   8.606  68.164  1.00  0.00     0.000 HD 
HETATM   28  C   UNL     1      -8.687   4.484  65.676  1.00  0.00    -0.124 A  
HETATM   29  C   UNL     1      -9.879   5.081  66.107  1.00  0.00    -0.214 A  
BRANCH  28  30
HETATM   30  N   UNL     1      -8.734   3.288  64.898  1.00  0.00    -0.107 N  
HETATM   31  H   UNL     1      -8.543   2.380  65.320  1.00  0.00     0.000 HD 
BRANCH  30  32
HETATM   32  S   UNL     1      -9.114   3.425  63.256  1.00  0.00    -0.095 S  
HETATM   33  O   UNL     1      -9.013   4.795  62.823  1.00  0.00    -0.130 OA 
HETATM   34  O   UNL     1      -8.360   2.371  62.606  1.00  0.00    -0.071 OA 
HETATM   35  C   UNL     1     -10.822   2.930  63.258  1.00  0.00    -0.226 C  
ENDBRANCH  30  32
ENDBRANCH  28  30
ENDBRANCH  17  20
ENDBRANCH   7  12
ENDBRANCH   4   6
ENDBRANCH   2   4
TORSDOF 6
ENDMDL
MODEL       39
REMARK 921   NORMALIZED FREE ENERGY PREDICTED BY IDOCK:   -5.82 KCAL/MOL
REMARK 922        TOTAL FREE ENERGY PREDICTED BY IDOCK:   -8.35 KCAL/MOL
REMARK 923 INTER-LIGAND FREE ENERGY PREDICTED BY IDOCK:   -8.74 KCAL/MOL
REMARK 924 INTRA-LIGAND FREE ENERGY PREDICTED BY IDOCK:    0.40 KCAL/MOL
REMARK 927      BINDING AFFINITY PREDICTED BY RF-SCORE:    0.00 PKD
ROOT
HETATM    1  C   UNL     1      -5.515   5.809  70.728  1.00  0.00    -0.013 C  
HETATM    2  C   UNL     1      -6.303   6.854  69.934  1.00  0.00    -0.039 C  
HETATM    3  C   UNL     1      -5.422   7.400  68.805  1.00  0.00    -0.022 C  
ENDROOT
BRANCH   2   4
HETATM    4  N   UNL     1      -7.467   6.249  69.301  1.00  0.00    -0.091 NA 
HETATM    5  H   UNL     1      -7.755   6.647  68.408  1.00  0.00     0.000 HD 
BRANCH   4   6
HETATM    6  C   UNL     1      -8.230   5.185  69.782  1.00  0.00    -0.089 A  
HETATM    7  C   UNL     1      -9.297   5.195  70.723  1.00  0.00    -0.160 A  
HETATM    8  N   UNL     1      -9.965   4.050  71.048  1.00  0.00    -0.155 NA 
HETATM    9  C   UNL     1      -7.908   3.924  69.227  1.00  0.00    -0.052 A  
HETATM   10  C   UNL     1      -8.581   2.763  69.588  1.00  0.00    -0.116 A  
HETATM   11  C   UNL     1      -9.604   2.880  70.493  1.00  0.00    -0.102 A  
BRANCH   7  12
HETATM   12  N   UNL     1      -9.702   6.361  71.419  1.00  0.00    -0.173 NA 
HETATM   13  C   UNL     1     -11.022   6.140  72.069  1.00  0.00    -0.258 C  
HETATM   14  N   UNL     1     -11.399   8.578  72.178  1.00  0.00    -0.352 N  
HETATM   15  C   UNL     1     -11.347   7.339  72.963  1.00  0.00    -0.201 C  
HETATM   16  C   UNL     1     -10.186   8.815  71.371  1.00  0.00    -0.280 C  
HETATM   17  C   UNL     1     -12.632   9.209  72.047  1.00  0.00    -0.390 C  
HETATM   18  O   UNL     1     -13.668   8.638  72.396  1.00  0.00    -0.386 OA 
HETATM   19  C   UNL     1      -9.753   7.560  70.544  1.00  0.00    -0.179 C  
BRANCH  17  20
HETATM   20  C   UNL     1     -12.723  10.569  71.551  1.00  0.00    -0.452 A  
HETATM   21  C   UNL     1     -12.164  11.238  70.478  1.00  0.00    -0.474 A  
HETATM   22  C   UNL     1     -12.469  12.625  70.596  1.00  0.00    -0.323 A  
HETATM   23  C   UNL     1     -13.215  12.784  71.761  1.00  0.00    -0.374 A  
HETATM   24  N   UNL     1     -13.371  11.532  72.301  1.00  0.00    -0.538 NA 
HETATM   25  C   UNL     1     -13.646  14.033  72.223  1.00  0.00    -0.622 A  
HETATM   26  C   UNL     1     -13.315  15.157  71.457  1.00  0.00    -0.533 A  
HETATM   27  H   UNL     1     -13.899  11.336  73.151  1.00  0.00     0.000 HD 
HETATM   28  C   UNL     1     -12.600  15.023  70.270  1.00  0.00    -0.317 A  
HETATM   29  C   UNL     1     -12.150  13.769  69.836  1.00  0.00    -0.412 A  
BRANCH  28  30
HETATM   30  N   UNL     1     -12.322  16.186  69.491  1.00  0.00    -0.394 N  
HETATM   31  H   UNL     1     -13.074  16.801  69.178  1.00  0.00     0.000 HD 
BRANCH  30  32
HETATM   32  S   UNL     1     -10.709  16.512  69.102  1.00  0.00    -0.336 S  
HETATM   33  O   UNL     1     -10.476  17.933  69.054  1.00  0.00    -0.306 OA 
HETATM   34  O   UNL     1      -9.931  15.648  69.967  1.00  0.00    -0.290 OA 
HETATM   35  C   UNL     1     -10.611  15.842  67.457  1.00  0.00    -0.315 C  
ENDBRANCH  30  32
ENDBRANCH  28  30
ENDBRANCH  17  20
ENDBRANCH   7  12
ENDBRANCH   4   6
ENDBRANCH   2   4
TORSDOF 6
ENDMDL
MODEL       40
REMARK 921   NORMALIZED FREE ENERGY PREDICTED BY IDOCK:   -5.82 KCAL/MOL
REMARK 922        TOTAL FREE ENERGY PREDICTED BY IDOCK:   -8.34 KCAL/MOL
REMARK 923 INTER-LIGAND FREE ENERGY PREDICTED BY IDOCK:   -8.85 KCAL/MOL
REMARK 924 INTRA-LIGAND FREE ENERGY PREDICTED BY IDOCK:    0.51 KCAL/MOL
REMARK 927      BINDING AFFINITY PREDICTED BY RF-SCORE:    0.00 PKD
ROOT
HETATM    1  C   UNL     1      -9.681   8.247  72.431  1.00  0.00    -0.373 C  
HETATM    2  C   UNL     1     -11.114   7.783  72.707  1.00  0.00    -0.398 C  
HETATM    3  C   UNL     1     -12.089   8.898  72.315  1.00  0.00    -0.392 C  
ENDROOT
BRANCH   2   4
HETATM    4  N   UNL     1     -11.447   6.628  71.884  1.00  0.00    -0.276 NA 
HETATM    5  H   UNL     1     -12.080   6.796  71.102  1.00  0.00     0.000 HD 
BRANCH   4   6
HETATM    6  C   UNL     1     -10.997   5.318  72.048  1.00  0.00    -0.127 A  
HETATM    7  C   UNL     1     -10.254   4.502  71.150  1.00  0.00    -0.092 A  
HETATM    8  N   UNL     1      -9.859   3.242  71.500  1.00  0.00    -0.162 NA 
HETATM    9  C   UNL     1     -11.305   4.736  73.300  1.00  0.00    -0.408 A  
HETATM   10  C   UNL     1     -10.919   3.443  73.631  1.00  0.00    -0.329 A  
HETATM   11  C   UNL     1     -10.193   2.742  72.703  1.00  0.00    -0.160 A  
BRANCH   7  12
HETATM   12  N   UNL     1      -9.919   4.907  69.835  1.00  0.00    -0.231 NA 
HETATM   13  C   UNL     1      -8.454   5.146  69.726  1.00  0.00    -0.096 C  
HETATM   14  N   UNL     1      -8.813   6.566  67.739  1.00  0.00    -0.114 N  
HETATM   15  C   UNL     1      -8.095   5.397  68.260  1.00  0.00    -0.095 C  
HETATM   16  C   UNL     1     -10.274   6.495  67.935  1.00  0.00    -0.168 C  
HETATM   17  C   UNL     1      -8.062   7.689  67.405  1.00  0.00    -0.119 C  
HETATM   18  O   UNL     1      -6.877   7.771  67.734  1.00  0.00    -0.065 OA 
HETATM   19  C   UNL     1     -10.671   6.111  69.398  1.00  0.00    -0.320 C  
BRANCH  17  20
HETATM   20  C   UNL     1      -8.640   8.762  66.617  1.00  0.00    -0.112 A  
HETATM   21  C   UNL     1      -9.573   9.748  66.877  1.00  0.00    -0.228 A  
HETATM   22  C   UNL     1      -9.888  10.412  65.656  1.00  0.00    -0.321 A  
HETATM   23  C   UNL     1      -9.136   9.807  64.653  1.00  0.00    -0.245 A  
HETATM   24  N   UNL     1      -8.379   8.835  65.262  1.00  0.00    -0.150 NA 
HETATM   25  C   UNL     1      -9.231  10.171  63.306  1.00  0.00    -0.320 A  
HETATM   26  C   UNL     1     -10.118  11.202  62.975  1.00  0.00    -0.311 A  
HETATM   27  H   UNL     1      -7.709   8.242  64.774  1.00  0.00     0.000 HD 
HETATM   28  C   UNL     1     -10.856  11.848  63.962  1.00  0.00    -0.379 A  
HETATM   29  C   UNL     1     -10.772  11.452  65.303  1.00  0.00    -0.326 A  
BRANCH  28  30
HETATM   30  N   UNL     1     -11.715  12.928  63.594  1.00  0.00    -0.508 N  
HETATM   31  H   UNL     1     -12.330  12.856  62.784  1.00  0.00     0.000 HD 
BRANCH  30  32
HETATM   32  S   UNL     1     -11.679  14.328  64.541  1.00  0.00    -0.405 S  
HETATM   33  O   UNL     1     -10.323  14.680  64.877  1.00  0.00    -0.411 OA 
HETATM   34  O   UNL     1     -12.555  15.264  63.863  1.00  0.00    -0.765 OA 
HETATM   35  C   UNL     1     -12.526  13.774  66.003  1.00  0.00    -0.445 C  
ENDBRANCH  30  32
ENDBRANCH  28  30
ENDBRANCH  17  20
ENDBRANCH   7  12
ENDBRANCH   4   6
ENDBRANCH   2   4
TORSDOF 6
ENDMDL
MODEL       41
REMARK 921   NORMALIZED FREE ENERGY PREDICTED BY IDOCK:   -5.80 KCAL/MOL
REMARK 922        TOTAL FREE ENERGY PREDICTED BY IDOCK:   -8.32 KCAL/MOL
REMARK 923 INTER-LIGAND FREE ENERGY PREDICTED BY IDOCK:   -7.47 KCAL/MOL
REMARK 924 INTRA-LIGAND FREE ENERGY PREDICTED BY IDOCK:   -0.84 KCAL/MOL
REMARK 927      BINDING AFFINITY PREDICTED BY RF-SCORE:    0.00 PKD
ROOT
HETATM    1  C   UNL     1     -10.733  17.921  65.583  1.00  0.00    -0.055 C  
HETATM    2  C   UNL     1     -10.785  16.391  65.603  1.00  0.00    -0.270 C  
HETATM    3  C   UNL     1     -11.593  15.897  64.399  1.00  0.00    -0.234 C  
ENDROOT
BRANCH   2   4
HETATM    4  N   UNL     1      -9.447  15.830  65.466  1.00  0.00    -0.340 NA 
HETATM    5  H   UNL     1      -9.189  15.495  64.539  1.00  0.00     0.000 HD 
BRANCH   4   6
HETATM    6  C   UNL     1      -8.480  15.702  66.464  1.00  0.00    -0.276 A  
HETATM    7  C   UNL     1      -8.281  14.643  67.393  1.00  0.00    -0.201 A  
HETATM    8  N   UNL     1      -7.245  14.667  68.283  1.00  0.00    -0.108 NA 
HETATM    9  C   UNL     1      -7.555  16.769  66.536  1.00  0.00    -0.334 A  
HETATM   10  C   UNL     1      -6.521  16.792  67.465  1.00  0.00    -0.178 A  
HETATM   11  C   UNL     1      -6.405  15.717  68.308  1.00  0.00    -0.114 A  
BRANCH   7  12
HETATM   12  N   UNL     1      -9.154  13.532  67.497  1.00  0.00    -0.203 NA 
HETATM   13  C   UNL     1     -10.369  13.902  68.273  1.00  0.00    -0.249 C  
HETATM   14  N   UNL     1     -10.797  11.523  68.774  1.00  0.00    -0.205 N  
HETATM   15  C   UNL     1     -11.373  12.749  68.210  1.00  0.00    -0.296 C  
HETATM   16  C   UNL     1      -9.503  11.148  68.170  1.00  0.00    -0.180 C  
HETATM   17  C   UNL     1     -11.347  11.034  69.956  1.00  0.00    -0.277 C  
HETATM   18  O   UNL     1     -12.137  11.719  70.608  1.00  0.00    -0.368 OA 
HETATM   19  C   UNL     1      -8.498  12.344  68.102  1.00  0.00    -0.180 C  
BRANCH  17  20
HETATM   20  C   UNL     1     -11.046   9.692  70.416  1.00  0.00    -0.290 A  
HETATM   21  C   UNL     1     -10.270   9.180  71.439  1.00  0.00    -0.402 A  
HETATM   22  C   UNL     1     -10.203   7.764  71.298  1.00  0.00    -0.218 A  
HETATM   23  C   UNL     1     -10.946   7.429  70.169  1.00  0.00    -0.255 A  
HETATM   24  N   UNL     1     -11.459   8.603  69.673  1.00  0.00    -0.384 NA 
HETATM   25  C   UNL     1     -11.059   6.117  69.693  1.00  0.00    -0.489 A  
HETATM   26  C   UNL     1     -10.398   5.111  70.408  1.00  0.00    -0.326 A  
HETATM   27  H   UNL     1     -12.067   8.663  68.857  1.00  0.00     0.000 HD 
HETATM   28  C   UNL     1      -9.678   5.413  71.561  1.00  0.00    -0.159 A  
HETATM   29  C   UNL     1      -9.550   6.735  72.007  1.00  0.00    -0.151 A  
BRANCH  28  30
HETATM   30  N   UNL     1      -9.059   4.354  72.291  1.00  0.00    -0.119 N  
HETATM   31  H   UNL     1      -8.096   4.077  72.099  1.00  0.00     0.000 HD 
BRANCH  30  32
HETATM   32  S   UNL     1      -9.970   3.574  73.483  1.00  0.00    -0.121 S  
HETATM   33  O   UNL     1     -10.662   4.534  74.303  1.00  0.00    -0.270 OA 
HETATM   34  O   UNL     1     -10.684   2.524  72.783  1.00  0.00    -0.148 OA 
HETATM   35  C   UNL     1      -8.687   2.796  74.439  1.00  0.00    -0.075 C  
ENDBRANCH  30  32
ENDBRANCH  28  30
ENDBRANCH  17  20
ENDBRANCH   7  12
ENDBRANCH   4   6
ENDBRANCH   2   4
TORSDOF 6
ENDMDL
MODEL       42
REMARK 921   NORMALIZED FREE ENERGY PREDICTED BY IDOCK:   -5.80 KCAL/MOL
REMARK 922        TOTAL FREE ENERGY PREDICTED BY IDOCK:   -8.31 KCAL/MOL
REMARK 923 INTER-LIGAND FREE ENERGY PREDICTED BY IDOCK:   -7.78 KCAL/MOL
REMARK 924 INTRA-LIGAND FREE ENERGY PREDICTED BY IDOCK:   -0.53 KCAL/MOL
REMARK 927      BINDING AFFINITY PREDICTED BY RF-SCORE:    0.00 PKD
ROOT
HETATM    1  C   UNL     1     -10.830   5.178  73.704  1.00  0.00    -0.363 C  
HETATM    2  C   UNL     1     -11.304   5.877  72.428  1.00  0.00    -0.307 C  
HETATM    3  C   UNL     1     -11.248   7.395  72.635  1.00  0.00    -0.379 C  
ENDROOT
BRANCH   2   4
HETATM    4  N   UNL     1     -10.413   5.575  71.315  1.00  0.00    -0.235 NA 
HETATM    5  H   UNL     1     -10.808   5.017  70.558  1.00  0.00     0.000 HD 
BRANCH   4   6
HETATM    6  C   UNL     1      -9.081   5.964  71.171  1.00  0.00    -0.143 A  
HETATM    7  C   UNL     1      -8.543   7.107  70.518  1.00  0.00    -0.144 A  
HETATM    8  N   UNL     1      -7.200   7.353  70.512  1.00  0.00    -0.064 NA 
HETATM    9  C   UNL     1      -8.142   5.107  71.790  1.00  0.00    -0.116 A  
HETATM   10  C   UNL     1      -6.775   5.356  71.752  1.00  0.00    -0.060 A  
HETATM   11  C   UNL     1      -6.357   6.493  71.110  1.00  0.00    -0.048 A  
BRANCH   7  12
HETATM   12  N   UNL     1      -9.339   8.031  69.796  1.00  0.00    -0.159 NA 
HETATM   13  C   UNL     1      -9.521   7.568  68.393  1.00  0.00    -0.148 C  
HETATM   14  N   UNL     1     -10.064   9.870  67.684  1.00  0.00    -0.185 N  
HETATM   15  C   UNL     1     -10.531   8.479  67.693  1.00  0.00    -0.241 C  
HETATM   16  C   UNL     1      -9.711  10.381  69.023  1.00  0.00    -0.206 C  
HETATM   17  C   UNL     1      -9.735  10.434  66.455  1.00  0.00    -0.194 C  
HETATM   18  O   UNL     1      -9.637   9.728  65.449  1.00  0.00    -0.255 OA 
HETATM   19  C   UNL     1      -8.780   9.406  69.818  1.00  0.00    -0.181 C  
BRANCH  17  20
HETATM   20  C   UNL     1      -9.553  11.866  66.319  1.00  0.00    -0.229 A  
HETATM   21  C   UNL     1      -8.698  12.784  66.899  1.00  0.00    -0.169 A  
HETATM   22  C   UNL     1      -9.106  14.095  66.514  1.00  0.00    -0.198 A  
HETATM   23  C   UNL     1     -10.225  13.954  65.698  1.00  0.00    -0.328 A  
HETATM   24  N   UNL     1     -10.457  12.605  65.580  1.00  0.00    -0.270 NA 
HETATM   25  C   UNL     1     -10.928  15.045  65.175  1.00  0.00    -0.417 A  
HETATM   26  C   UNL     1     -10.459  16.327  65.487  1.00  0.00    -0.383 A  
HETATM   27  H   UNL     1     -11.205  12.200  65.017  1.00  0.00     0.000 HD 
HETATM   28  C   UNL     1      -9.321  16.496  66.272  1.00  0.00    -0.302 A  
HETATM   29  C   UNL     1      -8.646  15.394  66.812  1.00  0.00    -0.308 A  
BRANCH  28  30
HETATM   30  N   UNL     1      -8.845  17.817  66.529  1.00  0.00    -0.266 N  
HETATM   31  H   UNL     1      -8.103  18.228  65.962  1.00  0.00     0.000 HD 
BRANCH  30  32
HETATM   32  S   UNL     1      -9.547  18.679  67.804  1.00  0.00    -0.314 S  
HETATM   33  O   UNL     1     -10.313  17.800  68.649  1.00  0.00    -0.363 OA 
HETATM   34  O   UNL     1      -8.476  19.497  68.339  1.00  0.00    -0.343 OA 
HETATM   35  C   UNL     1     -10.649  19.760  66.920  1.00  0.00    -0.466 C  
ENDBRANCH  30  32
ENDBRANCH  28  30
ENDBRANCH  17  20
ENDBRANCH   7  12
ENDBRANCH   4   6
ENDBRANCH   2   4
TORSDOF 6
ENDMDL
MODEL       43
REMARK 921   NORMALIZED FREE ENERGY PREDICTED BY IDOCK:   -5.76 KCAL/MOL
REMARK 922        TOTAL FREE ENERGY PREDICTED BY IDOCK:   -8.25 KCAL/MOL
REMARK 923 INTER-LIGAND FREE ENERGY PREDICTED BY IDOCK:   -7.44 KCAL/MOL
REMARK 924 INTRA-LIGAND FREE ENERGY PREDICTED BY IDOCK:   -0.81 KCAL/MOL
REMARK 927      BINDING AFFINITY PREDICTED BY RF-SCORE:    0.00 PKD
ROOT
HETATM    1  C   UNL     1      -9.752   3.963  71.679  1.00  0.00    -0.240 C  
HETATM    2  C   UNL     1      -8.752   5.079  71.369  1.00  0.00    -0.131 C  
HETATM    3  C   UNL     1      -7.600   5.019  72.379  1.00  0.00    -0.095 C  
ENDROOT
BRANCH   2   4
HETATM    4  N   UNL     1      -8.161   4.888  70.051  1.00  0.00    -0.073 NA 
HETATM    5  H   UNL     1      -7.155   4.722  70.024  1.00  0.00     0.000 HD 
BRANCH   4   6
HETATM    6  C   UNL     1      -8.820   4.907  68.821  1.00  0.00    -0.094 A  
HETATM    7  C   UNL     1      -9.381   6.008  68.118  1.00  0.00    -0.115 A  
HETATM    8  N   UNL     1      -9.958   5.845  66.891  1.00  0.00    -0.156 NA 
HETATM    9  C   UNL     1      -8.914   3.651  68.178  1.00  0.00    -0.171 A  
HETATM   10  C   UNL     1      -9.528   3.496  66.941  1.00  0.00    -0.198 A  
HETATM   11  C   UNL     1     -10.025   4.622  66.337  1.00  0.00    -0.245 A  
BRANCH   7  12
HETATM   12  N   UNL     1      -9.428   7.321  68.648  1.00  0.00    -0.138 NA 
HETATM   13  C   UNL     1     -10.809   7.645  69.099  1.00  0.00    -0.068 C  
HETATM   14  N   UNL     1     -10.309  10.059  68.957  1.00  0.00    -0.194 N  
HETATM   15  C   UNL     1     -10.793   8.987  69.834  1.00  0.00    -0.218 C  
HETATM   16  C   UNL     1      -9.002   9.766  68.336  1.00  0.00    -0.123 C  
HETATM   17  C   UNL     1     -11.214  11.049  68.586  1.00  0.00    -0.263 C  
HETATM   18  O   UNL     1     -12.418  10.912  68.811  1.00  0.00    -0.431 OA 
HETATM   19  C   UNL     1      -8.946   8.344  67.686  1.00  0.00    -0.135 C  
BRANCH  17  20
HETATM   20  C   UNL     1     -10.757  12.284  67.978  1.00  0.00    -0.218 A  
HETATM   21  C   UNL     1      -9.958  13.326  68.408  1.00  0.00    -0.226 A  
HETATM   22  C   UNL     1     -10.006  14.369  67.438  1.00  0.00    -0.242 A  
HETATM   23  C   UNL     1     -10.853  13.943  66.418  1.00  0.00    -0.291 A  
HETATM   24  N   UNL     1     -11.271  12.679  66.758  1.00  0.00    -0.285 NA 
HETATM   25  C   UNL     1     -11.178  14.740  65.315  1.00  0.00    -0.366 A  
HETATM   26  C   UNL     1     -10.604  16.015  65.247  1.00  0.00    -0.424 A  
HETATM   27  H   UNL     1     -11.885  12.105  66.182  1.00  0.00     0.000 HD 
HETATM   28  C   UNL     1      -9.726  16.454  66.234  1.00  0.00    -0.308 A  
HETATM   29  C   UNL     1      -9.433  15.655  67.347  1.00  0.00    -0.217 A  
BRANCH  28  30
HETATM   30  N   UNL     1      -9.122  17.741  66.106  1.00  0.00    -0.165 N  
HETATM   31  H   UNL     1      -8.234  17.858  65.618  1.00  0.00     0.000 HD 
BRANCH  30  32
HETATM   32  S   UNL     1      -9.925  19.064  66.787  1.00  0.00    -0.389 S  
HETATM   33  O   UNL     1     -10.421  19.942  65.759  1.00  0.00    -0.504 OA 
HETATM   34  O   UNL     1     -10.809  18.496  67.786  1.00  0.00    -0.388 OA 
HETATM   35  C   UNL     1      -8.592  19.863  67.653  1.00  0.00    -0.330 C  
ENDBRANCH  30  32
ENDBRANCH  28  30
ENDBRANCH  17  20
ENDBRANCH   7  12
ENDBRANCH   4   6
ENDBRANCH   2   4
TORSDOF 6
ENDMDL
MODEL       44
REMARK 921   NORMALIZED FREE ENERGY PREDICTED BY IDOCK:   -5.75 KCAL/MOL
REMARK 922        TOTAL FREE ENERGY PREDICTED BY IDOCK:   -8.25 KCAL/MOL
REMARK 923 INTER-LIGAND FREE ENERGY PREDICTED BY IDOCK:   -7.95 KCAL/MOL
REMARK 924 INTRA-LIGAND FREE ENERGY PREDICTED BY IDOCK:   -0.30 KCAL/MOL
REMARK 927      BINDING AFFINITY PREDICTED BY RF-SCORE:    0.00 PKD
ROOT
HETATM    1  C   UNL     1     -10.051  15.634  67.975  1.00  0.00    -0.224 C  
HETATM    2  C   UNL     1     -11.378  15.060  68.476  1.00  0.00    -0.303 C  
HETATM    3  C   UNL     1     -11.924  14.073  67.440  1.00  0.00    -0.439 C  
ENDROOT
BRANCH   2   4
HETATM    4  N   UNL     1     -11.180  14.307  69.708  1.00  0.00    -0.394 NA 
HETATM    5  H   UNL     1     -10.427  13.619  69.702  1.00  0.00     0.000 HD 
BRANCH   4   6
HETATM    6  C   UNL     1     -11.908  14.422  70.893  1.00  0.00    -0.283 A  
HETATM    7  C   UNL     1     -12.673  13.438  71.578  1.00  0.00    -0.293 A  
HETATM    8  N   UNL     1     -13.291  13.721  72.763  1.00  0.00    -0.608 NA 
HETATM    9  C   UNL     1     -11.846  15.695  71.506  1.00  0.00    -0.493 A  
HETATM   10  C   UNL     1     -12.503  15.975  72.698  1.00  0.00    -0.572 A  
HETATM   11  C   UNL     1     -13.203  14.955  73.289  1.00  0.00    -0.386 A  
BRANCH   7  12
HETATM   12  N   UNL     1     -12.889  12.134  71.069  1.00  0.00    -0.233 NA 
HETATM   13  C   UNL     1     -13.140  11.181  72.184  1.00  0.00    -0.183 C  
HETATM   14  N   UNL     1     -12.502   9.287  70.735  1.00  0.00    -0.124 N  
HETATM   15  C   UNL     1     -13.555   9.828  71.603  1.00  0.00    -0.291 C  
HETATM   16  C   UNL     1     -12.071  10.223  69.678  1.00  0.00    -0.010 C  
HETATM   17  C   UNL     1     -11.845   8.135  71.157  1.00  0.00    -0.279 C  
HETATM   18  O   UNL     1     -11.995   7.714  72.306  1.00  0.00    -0.304 OA 
HETATM   19  C   UNL     1     -11.765  11.656  70.225  1.00  0.00    -0.266 C  
BRANCH  17  20
HETATM   20  C   UNL     1     -11.015   7.375  70.242  1.00  0.00    -0.255 A  
HETATM   21  C   UNL     1      -9.650   7.253  70.060  1.00  0.00    -0.167 A  
HETATM   22  C   UNL     1      -9.412   6.498  68.876  1.00  0.00    -0.129 A  
HETATM   23  C   UNL     1     -10.655   6.170  68.341  1.00  0.00    -0.265 A  
HETATM   24  N   UNL     1     -11.598   6.691  69.193  1.00  0.00    -0.628 NA 
HETATM   25  C   UNL     1     -10.805   5.470  67.139  1.00  0.00    -0.166 A  
HETATM   26  C   UNL     1      -9.641   5.078  66.468  1.00  0.00    -0.168 A  
HETATM   27  H   UNL     1     -12.604   6.585  69.066  1.00  0.00     0.000 HD 
HETATM   28  C   UNL     1      -8.385   5.361  66.998  1.00  0.00    -0.107 A  
HETATM   29  C   UNL     1      -8.251   6.089  68.188  1.00  0.00    -0.113 A  
BRANCH  28  30
HETATM   30  N   UNL     1      -7.221   4.903  66.311  1.00  0.00    -0.075 N  
HETATM   31  H   UNL     1      -6.576   5.561  65.875  1.00  0.00     0.000 HD 
BRANCH  30  32
HETATM   32  S   UNL     1      -6.946   3.236  66.241  1.00  0.00    -0.058 S  
HETATM   33  O   UNL     1      -7.442   2.589  67.429  1.00  0.00    -0.059 OA 
HETATM   34  O   UNL     1      -7.392   2.835  64.921  1.00  0.00    -0.064 OA 
HETATM   35  C   UNL     1      -5.168   3.182  66.238  1.00  0.00    -0.008 C  
ENDBRANCH  30  32
ENDBRANCH  28  30
ENDBRANCH  17  20
ENDBRANCH   7  12
ENDBRANCH   4   6
ENDBRANCH   2   4
TORSDOF 6
ENDMDL
MODEL       45
REMARK 921   NORMALIZED FREE ENERGY PREDICTED BY IDOCK:   -5.72 KCAL/MOL
REMARK 922        TOTAL FREE ENERGY PREDICTED BY IDOCK:   -8.20 KCAL/MOL
REMARK 923 INTER-LIGAND FREE ENERGY PREDICTED BY IDOCK:   -8.43 KCAL/MOL
REMARK 924 INTRA-LIGAND FREE ENERGY PREDICTED BY IDOCK:    0.23 KCAL/MOL
REMARK 927      BINDING AFFINITY PREDICTED BY RF-SCORE:    0.00 PKD
ROOT
HETATM    1  C   UNL     1     -14.201  15.044  71.732  1.00  0.00    -0.649 C  
HETATM    2  C   UNL     1     -12.906  15.811  72.008  1.00  0.00    -0.442 C  
HETATM    3  C   UNL     1     -12.570  15.715  73.500  1.00  0.00    -0.677 C  
ENDROOT
BRANCH   2   4
HETATM    4  N   UNL     1     -11.789  15.210  71.289  1.00  0.00    -0.321 NA 
HETATM    5  H   UNL     1     -11.188  14.585  71.826  1.00  0.00     0.000 HD 
BRANCH   4   6
HETATM    6  C   UNL     1     -11.452  15.396  69.948  1.00  0.00    -0.312 A  
HETATM    7  C   UNL     1     -11.540  14.482  68.863  1.00  0.00    -0.309 A  
HETATM    8  N   UNL     1     -11.200  14.854  67.594  1.00  0.00    -0.312 NA 
HETATM    9  C   UNL     1     -10.983  16.692  69.628  1.00  0.00    -0.222 A  
HETATM   10  C   UNL     1     -10.617  17.048  68.336  1.00  0.00    -0.375 A  
HETATM   11  C   UNL     1     -10.751  16.099  67.356  1.00  0.00    -0.291 A  
BRANCH   7  12
HETATM   12  N   UNL     1     -11.928  13.128  69.022  1.00  0.00    -0.308 NA 
HETATM   13  C   UNL     1     -11.663  12.676  70.415  1.00  0.00    -0.011 C  
HETATM   14  N   UNL     1     -11.668  10.322  69.672  1.00  0.00    -0.200 N  
HETATM   15  C   UNL     1     -12.260  11.281  70.611  1.00  0.00    -0.393 C  
HETATM   16  C   UNL     1     -11.746  10.752  68.262  1.00  0.00    -0.127 C  
HETATM   17  C   UNL     1     -10.873   9.309  70.199  1.00  0.00    -0.242 C  
HETATM   18  O   UNL     1     -10.511   9.346  71.377  1.00  0.00    -0.333 OA 
HETATM   19  C   UNL     1     -11.262  12.224  68.050  1.00  0.00    -0.269 C  
BRANCH  17  20
HETATM   20  C   UNL     1     -10.497   8.162  69.393  1.00  0.00    -0.220 A  
HETATM   21  C   UNL     1     -10.647   7.838  68.058  1.00  0.00    -0.201 A  
HETATM   22  C   UNL     1     -10.243   6.485  67.869  1.00  0.00    -0.198 A  
HETATM   23  C   UNL     1      -9.853   5.995  69.112  1.00  0.00    -0.148 A  
HETATM   24  N   UNL     1      -9.994   7.029  70.004  1.00  0.00    -0.181 NA 
HETATM   25  C   UNL     1      -9.442   4.672  69.314  1.00  0.00    -0.231 A  
HETATM   26  C   UNL     1      -9.416   3.825  68.200  1.00  0.00    -0.216 A  
HETATM   27  H   UNL     1      -9.758   6.969  70.994  1.00  0.00     0.000 HD 
HETATM   28  C   UNL     1      -9.767   4.298  66.939  1.00  0.00    -0.214 A  
HETATM   29  C   UNL     1     -10.204   5.617  66.758  1.00  0.00    -0.276 A  
BRANCH  28  30
HETATM   30  N   UNL     1      -9.681   3.419  65.817  1.00  0.00    -0.385 N  
HETATM   31  H   UNL     1     -10.352   2.660  65.693  1.00  0.00     0.000 HD 
BRANCH  30  32
HETATM   32  S   UNL     1      -8.435   3.673  64.703  1.00  0.00    -0.097 S  
HETATM   33  O   UNL     1      -8.888   4.498  63.613  1.00  0.00    -0.135 OA 
HETATM   34  O   UNL     1      -7.284   4.044  65.503  1.00  0.00    -0.065 OA 
HETATM   35  C   UNL     1      -8.159   2.017  64.115  1.00  0.00    -0.073 C  
ENDBRANCH  30  32
ENDBRANCH  28  30
ENDBRANCH  17  20
ENDBRANCH   7  12
ENDBRANCH   4   6
ENDBRANCH   2   4
TORSDOF 6
ENDMDL
MODEL       46
REMARK 921   NORMALIZED FREE ENERGY PREDICTED BY IDOCK:   -5.68 KCAL/MOL
REMARK 922        TOTAL FREE ENERGY PREDICTED BY IDOCK:   -8.16 KCAL/MOL
REMARK 923 INTER-LIGAND FREE ENERGY PREDICTED BY IDOCK:   -7.39 KCAL/MOL
REMARK 924 INTRA-LIGAND FREE ENERGY PREDICTED BY IDOCK:   -0.77 KCAL/MOL
REMARK 927      BINDING AFFINITY PREDICTED BY RF-SCORE:    0.00 PKD
ROOT
HETATM    1  C   UNL     1     -10.639  19.417  67.817  1.00  0.00    -0.538 C  
HETATM    2  C   UNL     1     -10.583  19.026  66.338  1.00  0.00    -0.409 C  
HETATM    3  C   UNL     1     -10.495  20.296  65.484  1.00  0.00    -0.129 C  
ENDROOT
BRANCH   2   4
HETATM    4  N   UNL     1      -9.382  18.250  66.056  1.00  0.00    -0.512 NA 
HETATM    5  H   UNL     1      -9.247  17.959  65.088  1.00  0.00     0.000 HD 
BRANCH   4   6
HETATM    6  C   UNL     1      -8.397  17.861  66.965  1.00  0.00    -0.234 A  
HETATM    7  C   UNL     1      -8.147  16.579  67.526  1.00  0.00    -0.154 A  
HETATM    8  N   UNL     1      -7.099  16.371  68.378  1.00  0.00    -0.151 NA 
HETATM    9  C   UNL     1      -7.509  18.891  67.355  1.00  0.00    -0.244 A  
HETATM   10  C   UNL     1      -6.463  18.670  68.243  1.00  0.00    -0.224 A  
HETATM   11  C   UNL     1      -6.297  17.395  68.718  1.00  0.00    -0.188 A  
BRANCH   7  12
HETATM   12  N   UNL     1      -8.978  15.456  67.290  1.00  0.00    -0.190 NA 
HETATM   13  C   UNL     1     -10.182  15.514  68.163  1.00  0.00    -0.227 C  
HETATM   14  N   UNL     1     -10.514  13.082  67.898  1.00  0.00    -0.224 N  
HETATM   15  C   UNL     1     -11.147  14.398  67.759  1.00  0.00    -0.287 C  
HETATM   16  C   UNL     1      -9.227  12.969  67.185  1.00  0.00    -0.226 C  
HETATM   17  C   UNL     1     -11.012  12.225  68.875  1.00  0.00    -0.219 C  
HETATM   18  O   UNL     1     -11.806  12.637  69.723  1.00  0.00    -0.315 OA 
HETATM   19  C   UNL     1      -8.265  14.167  67.479  1.00  0.00    -0.186 C  
BRANCH  17  20
HETATM   20  C   UNL     1     -10.653  10.820  68.884  1.00  0.00    -0.216 A  
HETATM   21  C   UNL     1      -9.742  10.068  69.601  1.00  0.00    -0.255 A  
HETATM   22  C   UNL     1      -9.700   8.754  69.050  1.00  0.00    -0.172 A  
HETATM   23  C   UNL     1     -10.595   8.726  67.985  1.00  0.00    -0.159 A  
HETATM   24  N   UNL     1     -11.170   9.973  67.922  1.00  0.00    -0.497 NA 
HETATM   25  C   UNL     1     -10.777   7.602  67.172  1.00  0.00    -0.361 A  
HETATM   26  C   UNL     1     -10.025   6.459  67.471  1.00  0.00    -0.165 A  
HETATM   27  H   UNL     1     -11.887  10.239  67.249  1.00  0.00     0.000 HD 
HETATM   28  C   UNL     1      -9.149   6.447  68.552  1.00  0.00    -0.126 A  
HETATM   29  C   UNL     1      -8.956   7.591  69.338  1.00  0.00    -0.139 A  
BRANCH  28  30
HETATM   30  N   UNL     1      -8.435   5.249  68.855  1.00  0.00    -0.092 N  
HETATM   31  H   UNL     1      -7.536   5.049  68.418  1.00  0.00     0.000 HD 
BRANCH  30  32
HETATM   32  S   UNL     1      -9.127   4.172  69.960  1.00  0.00    -0.130 S  
HETATM   33  O   UNL     1     -10.212   4.799  70.670  1.00  0.00    -0.230 OA 
HETATM   34  O   UNL     1      -9.323   2.943  69.216  1.00  0.00    -0.143 OA 
HETATM   35  C   UNL     1      -7.767   3.905  71.075  1.00  0.00    -0.048 C  
ENDBRANCH  30  32
ENDBRANCH  28  30
ENDBRANCH  17  20
ENDBRANCH   7  12
ENDBRANCH   4   6
ENDBRANCH   2   4
TORSDOF 6
ENDMDL
MODEL       47
REMARK 921   NORMALIZED FREE ENERGY PREDICTED BY IDOCK:   -5.61 KCAL/MOL
REMARK 922        TOTAL FREE ENERGY PREDICTED BY IDOCK:   -8.06 KCAL/MOL
REMARK 923 INTER-LIGAND FREE ENERGY PREDICTED BY IDOCK:   -7.60 KCAL/MOL
REMARK 924 INTRA-LIGAND FREE ENERGY PREDICTED BY IDOCK:   -0.46 KCAL/MOL
REMARK 927      BINDING AFFINITY PREDICTED BY RF-SCORE:    0.00 PKD
ROOT
HETATM    1  C   UNL     1     -10.660   8.736  69.539  1.00  0.00    -0.224 C  
HETATM    2  C   UNL     1     -10.513   7.269  69.129  1.00  0.00    -0.215 C  
HETATM    3  C   UNL     1     -11.513   6.421  69.922  1.00  0.00    -0.483 C  
ENDROOT
BRANCH   2   4
HETATM    4  N   UNL     1     -10.841   7.094  67.721  1.00  0.00    -0.450 NA 
HETATM    5  H   UNL     1     -11.680   7.567  67.388  1.00  0.00     0.000 HD 
BRANCH   4   6
HETATM    6  C   UNL     1     -10.132   6.350  66.776  1.00  0.00    -0.179 A  
HETATM    7  C   UNL     1      -8.973   6.707  66.035  1.00  0.00    -0.112 A  
HETATM    8  N   UNL     1      -8.383   5.826  65.174  1.00  0.00    -0.144 NA 
HETATM    9  C   UNL     1     -10.631   5.045  66.553  1.00  0.00    -0.289 A  
HETATM   10  C   UNL     1     -10.034   4.168  65.655  1.00  0.00    -0.205 A  
HETATM   11  C   UNL     1      -8.912   4.602  64.998  1.00  0.00    -0.152 A  
BRANCH   7  12
HETATM   12  N   UNL     1      -8.385   7.995  66.092  1.00  0.00    -0.118 NA 
HETATM   13  C   UNL     1      -7.662   8.175  67.380  1.00  0.00    -0.102 C  
HETATM   14  N   UNL     1      -7.790  10.628  67.132  1.00  0.00    -0.115 N  
HETATM   15  C   UNL     1      -6.884   9.492  67.339  1.00  0.00    -0.083 C  
HETATM   16  C   UNL     1      -8.664  10.477  65.953  1.00  0.00    -0.167 C  
HETATM   17  C   UNL     1      -7.934  11.537  68.175  1.00  0.00    -0.136 C  
HETATM   18  O   UNL     1      -7.487  11.281  69.296  1.00  0.00    -0.109 OA 
HETATM   19  C   UNL     1      -9.376   9.085  65.900  1.00  0.00    -0.242 C  
BRANCH  17  20
HETATM   20  C   UNL     1      -8.563  12.826  67.957  1.00  0.00    -0.186 A  
HETATM   21  C   UNL     1      -8.288  13.900  67.133  1.00  0.00    -0.171 A  
HETATM   22  C   UNL     1      -9.151  14.979  67.484  1.00  0.00    -0.189 A  
HETATM   23  C   UNL     1      -9.947  14.541  68.539  1.00  0.00    -0.238 A  
HETATM   24  N   UNL     1      -9.589  13.238  68.787  1.00  0.00    -0.410 NA 
HETATM   25  C   UNL     1     -10.883  15.362  69.178  1.00  0.00    -0.249 A  
HETATM   26  C   UNL     1     -11.018  16.674  68.712  1.00  0.00    -0.309 A  
HETATM   27  H   UNL     1     -10.024  12.649  69.496  1.00  0.00     0.000 HD 
HETATM   28  C   UNL     1     -10.260  17.128  67.636  1.00  0.00    -0.329 A  
HETATM   29  C   UNL     1      -9.306  16.303  67.025  1.00  0.00    -0.235 A  
BRANCH  28  30
HETATM   30  N   UNL     1     -10.460  18.457  67.156  1.00  0.00    -0.398 N  
HETATM   31  H   UNL     1     -11.264  18.690  66.573  1.00  0.00     0.000 HD 
BRANCH  30  32
HETATM   32  S   UNL     1      -9.323  19.634  67.583  1.00  0.00    -0.351 S  
HETATM   33  O   UNL     1      -9.937  20.935  67.647  1.00  0.00    -0.332 OA 
HETATM   34  O   UNL     1      -8.613  19.077  68.718  1.00  0.00    -0.354 OA 
HETATM   35  C   UNL     1      -8.222  19.569  66.187  1.00  0.00    -0.326 C  
ENDBRANCH  30  32
ENDBRANCH  28  30
ENDBRANCH  17  20
ENDBRANCH   7  12
ENDBRANCH   4   6
ENDBRANCH   2   4
TORSDOF 6
ENDMDL
MODEL       48
REMARK 921   NORMALIZED FREE ENERGY PREDICTED BY IDOCK:   -5.59 KCAL/MOL
REMARK 922        TOTAL FREE ENERGY PREDICTED BY IDOCK:   -8.03 KCAL/MOL
REMARK 923 INTER-LIGAND FREE ENERGY PREDICTED BY IDOCK:   -7.81 KCAL/MOL
REMARK 924 INTRA-LIGAND FREE ENERGY PREDICTED BY IDOCK:   -0.22 KCAL/MOL
REMARK 927      BINDING AFFINITY PREDICTED BY RF-SCORE:    0.00 PKD
ROOT
HETATM    1  C   UNL     1      -7.449  15.007  69.582  1.00  0.00    -0.161 C  
HETATM    2  C   UNL     1      -7.538  16.266  68.716  1.00  0.00    -0.199 C  
HETATM    3  C   UNL     1      -6.662  16.085  67.472  1.00  0.00    -0.205 C  
ENDROOT
BRANCH   2   4
HETATM    4  N   UNL     1      -8.901  16.468  68.242  1.00  0.00    -0.203 NA 
HETATM    5  H   UNL     1      -9.596  15.792  68.557  1.00  0.00     0.000 HD 
BRANCH   4   6
HETATM    6  C   UNL     1      -9.359  17.486  67.405  1.00  0.00    -0.249 A  
HETATM    7  C   UNL     1     -10.241  17.406  66.291  1.00  0.00    -0.341 A  
HETATM    8  N   UNL     1     -10.618  18.525  65.605  1.00  0.00    -0.589 NA 
HETATM    9  C   UNL     1      -8.898  18.781  67.736  1.00  0.00    -0.313 A  
HETATM   10  C   UNL     1      -9.270  19.907  67.012  1.00  0.00    -0.472 A  
HETATM   11  C   UNL     1     -10.135  19.728  65.964  1.00  0.00    -0.477 A  
BRANCH   7  12
HETATM   12  N   UNL     1     -10.742  16.180  65.789  1.00  0.00    -0.312 NA 
HETATM   13  C   UNL     1     -11.630  15.536  66.794  1.00  0.00     0.132 C  
HETATM   14  N   UNL     1     -11.303  13.343  65.706  1.00  0.00    -0.302 N  
HETATM   15  C   UNL     1     -12.303  14.317  66.159  1.00  0.00    -0.387 C  
HETATM   16  C   UNL     1     -10.279  13.923  64.815  1.00  0.00    -0.324 C  
HETATM   17  C   UNL     1     -11.250  12.118  66.363  1.00  0.00    -0.331 C  
HETATM   18  O   UNL     1     -11.870  11.943  67.414  1.00  0.00    -0.571 OA 
HETATM   19  C   UNL     1      -9.663  15.246  65.379  1.00  0.00    -0.208 C  
BRANCH  17  20
HETATM   20  C   UNL     1     -10.510  11.004  65.800  1.00  0.00    -0.228 A  
HETATM   21  C   UNL     1      -9.761   9.978  66.344  1.00  0.00    -0.266 A  
HETATM   22  C   UNL     1      -9.110   9.278  65.287  1.00  0.00    -0.271 A  
HETATM   23  C   UNL     1      -9.473   9.902  64.096  1.00  0.00    -0.189 A  
HETATM   24  N   UNL     1     -10.331  10.920  64.433  1.00  0.00    -0.357 NA 
HETATM   25  C   UNL     1      -8.975   9.510  62.849  1.00  0.00    -0.230 A  
HETATM   26  C   UNL     1      -8.084   8.430  62.818  1.00  0.00    -0.170 A  
HETATM   27  H   UNL     1     -10.780  11.538  63.757  1.00  0.00     0.000 HD 
HETATM   28  C   UNL     1      -7.732   7.765  63.989  1.00  0.00    -0.126 A  
HETATM   29  C   UNL     1      -8.216   8.188  65.234  1.00  0.00    -0.150 A  
BRANCH  28  30
HETATM   30  N   UNL     1      -6.859   6.638  63.913  1.00  0.00    -0.047 N  
HETATM   31  H   UNL     1      -5.863   6.756  63.730  1.00  0.00     0.000 HD 
BRANCH  30  32
HETATM   32  S   UNL     1      -7.528   5.101  64.135  1.00  0.00    -0.068 S  
HETATM   33  O   UNL     1      -7.296   4.635  65.479  1.00  0.00    -0.073 OA 
HETATM   34  O   UNL     1      -8.868   5.190  63.589  1.00  0.00    -0.089 OA 
HETATM   35  C   UNL     1      -6.556   4.137  63.000  1.00  0.00    -0.030 C  
ENDBRANCH  30  32
ENDBRANCH  28  30
ENDBRANCH  17  20
ENDBRANCH   7  12
ENDBRANCH   4   6
ENDBRANCH   2   4
TORSDOF 6
ENDMDL
MODEL       49
REMARK 921   NORMALIZED FREE ENERGY PREDICTED BY IDOCK:   -5.57 KCAL/MOL
REMARK 922        TOTAL FREE ENERGY PREDICTED BY IDOCK:   -8.01 KCAL/MOL
REMARK 923 INTER-LIGAND FREE ENERGY PREDICTED BY IDOCK:   -8.37 KCAL/MOL
REMARK 924 INTRA-LIGAND FREE ENERGY PREDICTED BY IDOCK:    0.36 KCAL/MOL
REMARK 927      BINDING AFFINITY PREDICTED BY RF-SCORE:    0.00 PKD
ROOT
HETATM    1  C   UNL     1     -12.075  12.471  63.228  1.00  0.00    -0.525 C  
HETATM    2  C   UNL     1     -12.012  13.733  64.092  1.00  0.00    -0.432 C  
HETATM    3  C   UNL     1     -12.761  13.483  65.405  1.00  0.00    -0.495 C  
ENDROOT
BRANCH   2   4
HETATM    4  N   UNL     1     -10.634  14.043  64.449  1.00  0.00    -0.596 NA 
HETATM    5  H   UNL     1      -9.909  13.614  63.875  1.00  0.00     0.000 HD 
BRANCH   4   6
HETATM    6  C   UNL     1     -10.197  14.863  65.490  1.00  0.00    -0.374 A  
HETATM    7  C   UNL     1      -9.370  14.543  66.602  1.00  0.00    -0.281 A  
HETATM    8  N   UNL     1      -9.006  15.494  67.512  1.00  0.00    -0.186 NA 
HETATM    9  C   UNL     1     -10.620  16.210  65.403  1.00  0.00    -0.399 A  
HETATM   10  C   UNL     1     -10.262  17.162  66.351  1.00  0.00    -0.331 A  
HETATM   11  C   UNL     1      -9.450  16.756  67.379  1.00  0.00    -0.236 A  
BRANCH   7  12
HETATM   12  N   UNL     1      -8.914  13.229  66.873  1.00  0.00    -0.225 NA 
HETATM   13  C   UNL     1      -9.427  12.283  65.844  1.00  0.00    -0.154 C  
HETATM   14  N   UNL     1      -9.074  10.386  67.384  1.00  0.00    -0.135 N  
HETATM   15  C   UNL     1      -8.771  10.916  66.050  1.00  0.00    -0.186 C  
HETATM   16  C   UNL     1      -8.739  11.318  68.478  1.00  0.00    -0.156 C  
HETATM   17  C   UNL     1      -9.876   9.251  67.462  1.00  0.00    -0.175 C  
HETATM   18  O   UNL     1     -10.478   8.840  66.467  1.00  0.00    -0.242 OA 
HETATM   19  C   UNL     1      -9.287  12.763  68.233  1.00  0.00    -0.194 C  
BRANCH  17  20
HETATM   20  C   UNL     1      -9.980   8.498  68.697  1.00  0.00    -0.184 A  
HETATM   21  C   UNL     1      -9.082   7.774  69.457  1.00  0.00    -0.146 A  
HETATM   22  C   UNL     1      -9.797   7.089  70.482  1.00  0.00    -0.184 A  
HETATM   23  C   UNL     1     -11.144   7.406  70.325  1.00  0.00    -0.258 A  
HETATM   24  N   UNL     1     -11.222   8.271  69.260  1.00  0.00    -0.409 NA 
HETATM   25  C   UNL     1     -12.152   6.866  71.130  1.00  0.00    -0.428 A  
HETATM   26  C   UNL     1     -11.766   5.980  72.143  1.00  0.00    -0.335 A  
HETATM   27  H   UNL     1     -12.088   8.692  68.926  1.00  0.00     0.000 HD 
HETATM   28  C   UNL     1     -10.424   5.673  72.346  1.00  0.00    -0.211 A  
HETATM   29  C   UNL     1      -9.428   6.199  71.512  1.00  0.00    -0.161 A  
BRANCH  28  30
HETATM   30  N   UNL     1     -10.064   4.804  73.420  1.00  0.00    -0.154 N  
HETATM   31  H   UNL     1      -9.798   5.177  74.331  1.00  0.00     0.000 HD 
BRANCH  30  32
HETATM   32  S   UNL     1     -10.091   3.137  73.134  1.00  0.00    -0.146 S  
HETATM   33  O   UNL     1     -11.171   2.516  73.855  1.00  0.00    -0.196 OA 
HETATM   34  O   UNL     1      -9.966   3.000  71.696  1.00  0.00    -0.163 OA 
HETATM   35  C   UNL     1      -8.540   2.642  73.850  1.00  0.00    -0.072 C  
ENDBRANCH  30  32
ENDBRANCH  28  30
ENDBRANCH  17  20
ENDBRANCH   7  12
ENDBRANCH   4   6
ENDBRANCH   2   4
TORSDOF 6
ENDMDL
MODEL       50
REMARK 921   NORMALIZED FREE ENERGY PREDICTED BY IDOCK:   -5.55 KCAL/MOL
REMARK 922        TOTAL FREE ENERGY PREDICTED BY IDOCK:   -7.97 KCAL/MOL
REMARK 923 INTER-LIGAND FREE ENERGY PREDICTED BY IDOCK:   -7.18 KCAL/MOL
REMARK 924 INTRA-LIGAND FREE ENERGY PREDICTED BY IDOCK:   -0.79 KCAL/MOL
REMARK 927      BINDING AFFINITY PREDICTED BY RF-SCORE:    0.00 PKD
ROOT
HETATM    1  C   UNL     1      -9.100   4.444  67.761  1.00  0.00    -0.149 C  
HETATM    2  C   UNL     1      -9.687   3.630  68.917  1.00  0.00     0.012 C  
HETATM    3  C   UNL     1      -9.204   2.180  68.810  1.00  0.00    -0.221 C  
ENDROOT
BRANCH   2   4
HETATM    4  N   UNL     1      -9.209   4.137  70.197  1.00  0.00    -0.124 NA 
HETATM    5  H   UNL     1      -8.264   3.866  70.467  1.00  0.00     0.000 HD 
BRANCH   4   6
HETATM    6  C   UNL     1      -9.902   4.951  71.094  1.00  0.00    -0.192 A  
HETATM    7  C   UNL     1     -10.222   6.332  70.992  1.00  0.00    -0.192 A  
HETATM    8  N   UNL     1     -10.952   6.963  71.959  1.00  0.00    -0.229 NA 
HETATM    9  C   UNL     1     -10.372   4.291  72.253  1.00  0.00    -0.214 A  
HETATM   10  C   UNL     1     -11.091   4.953  73.241  1.00  0.00    -0.410 A  
HETATM   11  C   UNL     1     -11.361   6.282  73.044  1.00  0.00    -0.082 A  
BRANCH   7  12
HETATM   12  N   UNL     1      -9.774   7.154  69.928  1.00  0.00    -0.170 NA 
HETATM   13  C   UNL     1      -8.353   7.542  70.140  1.00  0.00    -0.134 C  
HETATM   14  N   UNL     1      -8.633   9.471  68.626  1.00  0.00    -0.118 N  
HETATM   15  C   UNL     1      -7.840   8.266  68.894  1.00  0.00    -0.111 C  
HETATM   16  C   UNL     1     -10.085   9.215  68.546  1.00  0.00    -0.191 C  
HETATM   17  C   UNL     1      -8.003  10.704  68.766  1.00  0.00    -0.135 C  
HETATM   18  O   UNL     1      -6.894  10.783  69.298  1.00  0.00    -0.070 OA 
HETATM   19  C   UNL     1     -10.617   8.362  69.744  1.00  0.00    -0.221 C  
BRANCH  17  20
HETATM   20  C   UNL     1      -8.610  11.913  68.243  1.00  0.00    -0.162 A  
HETATM   21  C   UNL     1      -8.219  12.859  67.314  1.00  0.00    -0.176 A  
HETATM   22  C   UNL     1      -9.149  13.938  67.340  1.00  0.00    -0.217 A  
HETATM   23  C   UNL     1     -10.106  13.632  68.305  1.00  0.00    -0.240 A  
HETATM   24  N   UNL     1      -9.770  12.401  68.814  1.00  0.00    -0.416 NA 
HETATM   25  C   UNL     1     -11.153  14.498  68.640  1.00  0.00    -0.272 A  
HETATM   26  C   UNL     1     -11.231  15.715  67.953  1.00  0.00    -0.328 A  
HETATM   27  H   UNL     1     -10.310  11.909  69.526  1.00  0.00     0.000 HD 
HETATM   28  C   UNL     1     -10.309  16.031  66.959  1.00  0.00    -0.292 A  
HETATM   29  C   UNL     1      -9.249  15.167  66.656  1.00  0.00    -0.298 A  
BRANCH  28  30
HETATM   30  N   UNL     1     -10.449  17.260  66.247  1.00  0.00    -0.307 N  
HETATM   31  H   UNL     1     -11.096  17.341  65.463  1.00  0.00     0.000 HD 
BRANCH  30  32
HETATM   32  S   UNL     1      -9.509  18.575  66.742  1.00  0.00    -0.312 S  
HETATM   33  O   UNL     1      -9.347  18.574  68.173  1.00  0.00    -0.294 OA 
HETATM   34  O   UNL     1      -8.364  18.575  65.853  1.00  0.00    -0.494 OA 
HETATM   35  C   UNL     1     -10.548  19.938  66.266  1.00  0.00    -0.425 C  
ENDBRANCH  30  32
ENDBRANCH  28  30
ENDBRANCH  17  20
ENDBRANCH   7  12
ENDBRANCH   4   6
ENDBRANCH   2   4
TORSDOF 6
ENDMDL
MODEL       51
REMARK 921   NORMALIZED FREE ENERGY PREDICTED BY IDOCK:   -5.49 KCAL/MOL
REMARK 922        TOTAL FREE ENERGY PREDICTED BY IDOCK:   -7.90 KCAL/MOL
REMARK 923 INTER-LIGAND FREE ENERGY PREDICTED BY IDOCK:   -7.37 KCAL/MOL
REMARK 924 INTRA-LIGAND FREE ENERGY PREDICTED BY IDOCK:   -0.53 KCAL/MOL
REMARK 927      BINDING AFFINITY PREDICTED BY RF-SCORE:    0.00 PKD
ROOT
HETATM    1  C   UNL     1     -10.558  19.259  65.769  1.00  0.00    -0.450 C  
HETATM    2  C   UNL     1     -10.372  17.779  66.115  1.00  0.00    -0.340 C  
HETATM    3  C   UNL     1     -10.958  16.921  64.989  1.00  0.00    -0.055 C  
ENDROOT
BRANCH   2   4
HETATM    4  N   UNL     1      -8.956  17.446  66.201  1.00  0.00    -0.486 NA 
HETATM    5  H   UNL     1      -8.395  17.631  65.370  1.00  0.00     0.000 HD 
BRANCH   4   6
HETATM    6  C   UNL     1      -8.284  16.900  67.295  1.00  0.00    -0.184 A  
HETATM    7  C   UNL     1      -8.114  15.535  67.657  1.00  0.00    -0.146 A  
HETATM    8  N   UNL     1      -7.381  15.180  68.754  1.00  0.00    -0.123 NA 
HETATM    9  C   UNL     1      -7.663  17.846  68.143  1.00  0.00    -0.256 A  
HETATM   10  C   UNL     1      -6.941  17.470  69.270  1.00  0.00    -0.172 A  
HETATM   11  C   UNL     1      -6.824  16.128  69.526  1.00  0.00    -0.190 A  
BRANCH   7  12
HETATM   12  N   UNL     1      -8.723  14.467  66.954  1.00  0.00    -0.217 NA 
HETATM   13  C   UNL     1     -10.133  14.295  67.397  1.00  0.00    -0.247 C  
HETATM   14  N   UNL     1     -10.133  11.972  66.561  1.00  0.00    -0.198 N  
HETATM   15  C   UNL     1     -10.820  13.267  66.495  1.00  0.00    -0.281 C  
HETATM   16  C   UNL     1      -8.687  12.057  66.283  1.00  0.00    -0.027 C  
HETATM   17  C   UNL     1     -10.817  10.907  67.141  1.00  0.00    -0.280 C  
HETATM   18  O   UNL     1     -11.865  11.099  67.761  1.00  0.00    -0.608 OA 
HETATM   19  C   UNL     1      -7.978  13.190  67.097  1.00  0.00    -0.073 C  
BRANCH  17  20
HETATM   20  C   UNL     1     -10.343   9.545  66.983  1.00  0.00    -0.250 A  
HETATM   21  C   UNL     1      -9.375   8.952  66.196  1.00  0.00    -0.301 A  
HETATM   22  C   UNL     1      -9.479   7.537  66.333  1.00  0.00    -0.208 A  
HETATM   23  C   UNL     1     -10.530   7.285  67.210  1.00  0.00    -0.310 A  
HETATM   24  N   UNL     1     -11.016   8.509  67.602  1.00  0.00    -0.481 NA 
HETATM   25  C   UNL     1     -10.955   5.993  67.538  1.00  0.00    -0.335 A  
HETATM   26  C   UNL     1     -10.269   4.919  66.958  1.00  0.00    -0.233 A  
HETATM   27  H   UNL     1     -11.779   8.636  68.266  1.00  0.00     0.000 HD 
HETATM   28  C   UNL     1      -9.191   5.142  66.106  1.00  0.00    -0.151 A  
HETATM   29  C   UNL     1      -8.796   6.442  65.764  1.00  0.00    -0.111 A  
BRANCH  28  30
HETATM   30  N   UNL     1      -8.484   4.022  65.572  1.00  0.00    -0.109 N  
HETATM   31  H   UNL     1      -7.528   3.818  65.861  1.00  0.00     0.000 HD 
BRANCH  30  32
HETATM   32  S   UNL     1      -9.282   3.045  64.445  1.00  0.00    -0.142 S  
HETATM   33  O   UNL     1      -9.455   1.712  64.961  1.00  0.00    -0.096 OA 
HETATM   34  O   UNL     1     -10.412   3.834  63.996  1.00  0.00    -0.238 OA 
HETATM   35  C   UNL     1      -8.097   3.016  63.119  1.00  0.00    -0.073 C  
ENDBRANCH  30  32
ENDBRANCH  28  30
ENDBRANCH  17  20
ENDBRANCH   7  12
ENDBRANCH   4   6
ENDBRANCH   2   4
TORSDOF 6
ENDMDL
MODEL       52
REMARK 921   NORMALIZED FREE ENERGY PREDICTED BY IDOCK:   -5.47 KCAL/MOL
REMARK 922        TOTAL FREE ENERGY PREDICTED BY IDOCK:   -7.87 KCAL/MOL
REMARK 923 INTER-LIGAND FREE ENERGY PREDICTED BY IDOCK:   -7.15 KCAL/MOL
REMARK 924 INTRA-LIGAND FREE ENERGY PREDICTED BY IDOCK:   -0.73 KCAL/MOL
REMARK 927      BINDING AFFINITY PREDICTED BY RF-SCORE:    0.00 PKD
ROOT
HETATM    1  C   UNL     1     -11.556   5.428  72.748  1.00  0.00    -0.293 C  
HETATM    2  C   UNL     1     -10.492   4.546  73.407  1.00  0.00    -0.201 C  
HETATM    3  C   UNL     1     -10.037   3.475  72.410  1.00  0.00    -0.232 C  
ENDROOT
BRANCH   2   4
HETATM    4  N   UNL     1      -9.312   5.331  73.745  1.00  0.00    -0.132 NA 
HETATM    5  H   UNL     1      -9.332   5.815  74.642  1.00  0.00     0.000 HD 
BRANCH   4   6
HETATM    6  C   UNL     1      -8.159   5.493  72.978  1.00  0.00    -0.111 A  
HETATM    7  C   UNL     1      -7.934   6.341  71.858  1.00  0.00    -0.102 A  
HETATM    8  N   UNL     1      -6.714   6.401  71.248  1.00  0.00    -0.057 NA 
HETATM    9  C   UNL     1      -7.052   4.719  73.398  1.00  0.00    -0.076 A  
HETATM   10  C   UNL     1      -5.823   4.771  72.751  1.00  0.00    -0.016 A  
HETATM   11  C   UNL     1      -5.703   5.631  71.690  1.00  0.00    -0.021 A  
BRANCH   7  12
HETATM   12  N   UNL     1      -8.953   7.132  71.271  1.00  0.00    -0.146 NA 
HETATM   13  C   UNL     1      -9.463   6.480  70.035  1.00  0.00    -0.156 C  
HETATM   14  N   UNL     1     -10.330   8.646  69.228  1.00  0.00    -0.219 N  
HETATM   15  C   UNL     1     -10.682   7.253  69.528  1.00  0.00    -0.232 C  
HETATM   16  C   UNL     1      -9.674   9.343  70.351  1.00  0.00    -0.261 C  
HETATM   17  C   UNL     1     -10.374   9.052  67.897  1.00  0.00    -0.235 C  
HETATM   18  O   UNL     1     -10.495   8.221  66.993  1.00  0.00    -0.310 OA 
HETATM   19  C   UNL     1      -8.503   8.516  70.977  1.00  0.00    -0.156 C  
BRANCH  17  20
HETATM   20  C   UNL     1     -10.333  10.458  67.547  1.00  0.00    -0.224 A  
HETATM   21  C   UNL     1      -9.351  11.430  67.591  1.00  0.00    -0.159 A  
HETATM   22  C   UNL     1      -9.943  12.692  67.291  1.00  0.00    -0.212 A  
HETATM   23  C   UNL     1     -11.299  12.467  67.071  1.00  0.00    -0.328 A  
HETATM   24  N   UNL     1     -11.501  11.115  67.209  1.00  0.00    -0.501 NA 
HETATM   25  C   UNL     1     -12.207  13.497  66.802  1.00  0.00    -0.392 A  
HETATM   26  C   UNL     1     -11.705  14.803  66.740  1.00  0.00    -0.309 A  
HETATM   27  H   UNL     1     -12.401  10.655  67.079  1.00  0.00     0.000 HD 
HETATM   28  C   UNL     1     -10.347  15.052  66.920  1.00  0.00    -0.266 A  
HETATM   29  C   UNL     1      -9.456  14.013  67.219  1.00  0.00    -0.231 A  
BRANCH  28  30
HETATM   30  N   UNL     1      -9.864  16.390  66.802  1.00  0.00    -0.246 N  
HETATM   31  H   UNL     1      -9.404  16.708  65.949  1.00  0.00     0.000 HD 
BRANCH  30  32
HETATM   32  S   UNL     1     -10.077  17.429  68.119  1.00  0.00    -0.350 S  
HETATM   33  O   UNL     1     -10.900  18.553  67.751  1.00  0.00    -0.388 OA 
HETATM   34  O   UNL     1     -10.432  16.564  69.227  1.00  0.00    -0.285 OA 
HETATM   35  C   UNL     1      -8.409  17.982  68.392  1.00  0.00    -0.298 C  
ENDBRANCH  30  32
ENDBRANCH  28  30
ENDBRANCH  17  20
ENDBRANCH   7  12
ENDBRANCH   4   6
ENDBRANCH   2   4
TORSDOF 6
ENDMDL
MODEL       53
REMARK 921   NORMALIZED FREE ENERGY PREDICTED BY IDOCK:   -5.44 KCAL/MOL
REMARK 922        TOTAL FREE ENERGY PREDICTED BY IDOCK:   -7.82 KCAL/MOL
REMARK 923 INTER-LIGAND FREE ENERGY PREDICTED BY IDOCK:   -7.32 KCAL/MOL
REMARK 924 INTRA-LIGAND FREE ENERGY PREDICTED BY IDOCK:   -0.50 KCAL/MOL
REMARK 927      BINDING AFFINITY PREDICTED BY RF-SCORE:    0.00 PKD
ROOT
HETATM    1  C   UNL     1     -10.704  18.896  65.736  1.00  0.00    -0.310 C  
HETATM    2  C   UNL     1      -9.790  19.941  66.378  1.00  0.00    -0.459 C  
HETATM    3  C   UNL     1     -10.176  20.112  67.852  1.00  0.00    -0.501 C  
ENDROOT
BRANCH   2   4
HETATM    4  N   UNL     1      -8.403  19.492  66.359  1.00  0.00    -0.333 NA 
HETATM    5  H   UNL     1      -7.943  19.483  65.450  1.00  0.00     0.000 HD 
BRANCH   4   6
HETATM    6  C   UNL     1      -7.637  19.074  67.448  1.00  0.00    -0.230 A  
HETATM    7  C   UNL     1      -7.473  17.767  67.983  1.00  0.00    -0.226 A  
HETATM    8  N   UNL     1      -6.640  17.534  69.040  1.00  0.00    -0.233 NA 
HETATM    9  C   UNL     1      -6.902  20.100  68.085  1.00  0.00    -0.326 A  
HETATM   10  C   UNL     1      -6.078  19.852  69.177  1.00  0.00    -0.330 A  
HETATM   11  C   UNL     1      -5.976  18.555  69.610  1.00  0.00    -0.262 A  
BRANCH   7  12
HETATM   12  N   UNL     1      -8.185  16.640  67.503  1.00  0.00    -0.163 NA 
HETATM   13  C   UNL     1      -9.498  16.528  68.194  1.00  0.00    -0.222 C  
HETATM   14  N   UNL     1      -9.624  14.133  67.608  1.00  0.00    -0.212 N  
HETATM   15  C   UNL     1     -10.321  15.422  67.530  1.00  0.00    -0.264 C  
HETATM   16  C   UNL     1      -8.246  14.175  67.081  1.00  0.00    -0.144 C  
HETATM   17  C   UNL     1     -10.192  13.138  68.399  1.00  0.00    -0.247 C  
HETATM   18  O   UNL     1     -11.121  13.402  69.165  1.00  0.00    -0.252 OA 
HETATM   19  C   UNL     1      -7.418  15.376  67.645  1.00  0.00    -0.173 C  
BRANCH  17  20
HETATM   20  C   UNL     1      -9.742  11.763  68.301  1.00  0.00    -0.199 A  
HETATM   21  C   UNL     1     -10.080  10.699  67.486  1.00  0.00    -0.217 A  
HETATM   22  C   UNL     1      -9.434   9.526  67.974  1.00  0.00    -0.147 A  
HETATM   23  C   UNL     1      -8.706   9.897  69.101  1.00  0.00    -0.159 A  
HETATM   24  N   UNL     1      -8.891  11.249  69.261  1.00  0.00    -0.371 NA 
HETATM   25  C   UNL     1      -7.983   8.983  69.875  1.00  0.00    -0.103 A  
HETATM   26  C   UNL     1      -7.994   7.643  69.472  1.00  0.00    -0.125 A  
HETATM   27  H   UNL     1      -8.455  11.804  69.996  1.00  0.00     0.000 HD 
HETATM   28  C   UNL     1      -8.684   7.250  68.328  1.00  0.00    -0.125 A  
HETATM   29  C   UNL     1      -9.428   8.172  67.581  1.00  0.00    -0.172 A  
BRANCH  28  30
HETATM   30  N   UNL     1      -8.632   5.883  67.921  1.00  0.00    -0.106 N  
HETATM   31  H   UNL     1      -7.779   5.482  67.532  1.00  0.00     0.000 HD 
BRANCH  30  32
HETATM   32  S   UNL     1     -10.031   4.948  68.100  1.00  0.00    -0.070 S  
HETATM   33  O   UNL     1     -10.762   4.885  66.861  1.00  0.00    -0.150 OA 
HETATM   34  O   UNL     1      -9.595   3.746  68.782  1.00  0.00    -0.161 OA 
HETATM   35  C   UNL     1     -10.944   5.922  69.276  1.00  0.00    -0.327 C  
ENDBRANCH  30  32
ENDBRANCH  28  30
ENDBRANCH  17  20
ENDBRANCH   7  12
ENDBRANCH   4   6
ENDBRANCH   2   4
TORSDOF 6
ENDMDL
MODEL       54
REMARK 921   NORMALIZED FREE ENERGY PREDICTED BY IDOCK:   -5.42 KCAL/MOL
REMARK 922        TOTAL FREE ENERGY PREDICTED BY IDOCK:   -7.81 KCAL/MOL
REMARK 923 INTER-LIGAND FREE ENERGY PREDICTED BY IDOCK:   -8.25 KCAL/MOL
REMARK 924 INTRA-LIGAND FREE ENERGY PREDICTED BY IDOCK:    0.44 KCAL/MOL
REMARK 927      BINDING AFFINITY PREDICTED BY RF-SCORE:    0.00 PKD
ROOT
HETATM    1  C   UNL     1      -9.477  15.841  69.440  1.00  0.00    -0.275 C  
HETATM    2  C   UNL     1     -10.797  16.612  69.356  1.00  0.00    -0.295 C  
HETATM    3  C   UNL     1     -10.764  17.537  68.134  1.00  0.00    -0.330 C  
ENDROOT
BRANCH   2   4
HETATM    4  N   UNL     1     -11.914  15.698  69.157  1.00  0.00    -0.519 NA 
HETATM    5  H   UNL     1     -12.317  15.671  68.221  1.00  0.00     0.000 HD 
BRANCH   4   6
HETATM    6  C   UNL     1     -12.493  14.856  70.107  1.00  0.00    -0.306 A  
HETATM    7  C   UNL     1     -12.166  13.512  70.438  1.00  0.00    -0.356 A  
HETATM    8  N   UNL     1     -12.820  12.848  71.436  1.00  0.00    -0.341 NA 
HETATM    9  C   UNL     1     -13.536  15.441  70.862  1.00  0.00    -0.427 A  
HETATM   10  C   UNL     1     -14.210  14.745  71.858  1.00  0.00    -0.632 A  
HETATM   11  C   UNL     1     -13.811  13.458  72.111  1.00  0.00    -0.511 A  
BRANCH   7  12
HETATM   12  N   UNL     1     -11.192  12.759  69.736  1.00  0.00    -0.013 NA 
HETATM   13  C   UNL     1     -11.164  13.159  68.303  1.00  0.00    -0.274 C  
HETATM   14  N   UNL     1     -10.105  11.011  67.704  1.00  0.00    -0.179 N  
HETATM   15  C   UNL     1      -9.984  12.471  67.614  1.00  0.00    -0.201 C  
HETATM   16  C   UNL     1     -10.289  10.519  69.083  1.00  0.00    -0.220 C  
HETATM   17  C   UNL     1     -10.323  10.307  66.523  1.00  0.00    -0.211 C  
HETATM   18  O   UNL     1     -10.614  10.902  65.484  1.00  0.00    -0.243 OA 
HETATM   19  C   UNL     1     -11.404  11.294  69.859  1.00  0.00    -0.249 C  
BRANCH  17  20
HETATM   20  C   UNL     1     -10.159   8.867  66.476  1.00  0.00    -0.286 A  
HETATM   21  C   UNL     1     -10.781   7.809  67.112  1.00  0.00    -0.337 A  
HETATM   22  C   UNL     1     -10.072   6.611  66.809  1.00  0.00    -0.240 A  
HETATM   23  C   UNL     1      -9.006   6.963  65.984  1.00  0.00    -0.105 A  
HETATM   24  N   UNL     1      -9.096   8.319  65.783  1.00  0.00    -0.341 NA 
HETATM   25  C   UNL     1      -8.059   6.039  65.529  1.00  0.00    -0.133 A  
HETATM   26  C   UNL     1      -8.216   4.705  65.920  1.00  0.00    -0.111 A  
HETATM   27  H   UNL     1      -8.458   8.854  65.196  1.00  0.00     0.000 HD 
HETATM   28  C   UNL     1      -9.292   4.319  66.714  1.00  0.00    -0.167 A  
HETATM   29  C   UNL     1     -10.216   5.260  67.187  1.00  0.00    -0.264 A  
BRANCH  28  30
HETATM   30  N   UNL     1      -9.448   2.941  67.053  1.00  0.00    -0.394 N  
HETATM   31  H   UNL     1     -10.121   2.352  66.563  1.00  0.00     0.000 HD 
BRANCH  30  32
HETATM   32  S   UNL     1      -8.482   2.315  68.293  1.00  0.00    -0.076 S  
HETATM   33  O   UNL     1      -9.296   1.703  69.311  1.00  0.00    -0.109 OA 
HETATM   34  O   UNL     1      -7.435   1.575  67.617  1.00  0.00    -0.052 OA 
HETATM   35  C   UNL     1      -7.748   3.801  68.938  1.00  0.00    -0.053 C  
ENDBRANCH  30  32
ENDBRANCH  28  30
ENDBRANCH  17  20
ENDBRANCH   7  12
ENDBRANCH   4   6
ENDBRANCH   2   4
TORSDOF 6
ENDMDL
MODEL       55
REMARK 921   NORMALIZED FREE ENERGY PREDICTED BY IDOCK:   -5.41 KCAL/MOL
REMARK 922        TOTAL FREE ENERGY PREDICTED BY IDOCK:   -7.79 KCAL/MOL
REMARK 923 INTER-LIGAND FREE ENERGY PREDICTED BY IDOCK:   -6.99 KCAL/MOL
REMARK 924 INTRA-LIGAND FREE ENERGY PREDICTED BY IDOCK:   -0.80 KCAL/MOL
REMARK 927      BINDING AFFINITY PREDICTED BY RF-SCORE:    0.00 PKD
ROOT
HETATM    1  C   UNL     1      -9.227  16.603  67.143  1.00  0.00    -0.233 C  
HETATM    2  C   UNL     1      -9.921  16.986  68.452  1.00  0.00    -0.289 C  
HETATM    3  C   UNL     1     -10.097  18.507  68.504  1.00  0.00    -0.414 C  
ENDROOT
BRANCH   2   4
HETATM    4  N   UNL     1     -11.257  16.409  68.513  1.00  0.00    -0.363 NA 
HETATM    5  H   UNL     1     -11.960  16.827  67.904  1.00  0.00     0.000 HD 
BRANCH   4   6
HETATM    6  C   UNL     1     -11.681  15.347  69.313  1.00  0.00    -0.349 A  
HETATM    7  C   UNL     1     -11.307  13.976  69.262  1.00  0.00    -0.273 A  
HETATM    8  N   UNL     1     -11.797  13.074  70.163  1.00  0.00    -0.293 NA 
HETATM    9  C   UNL     1     -12.592  15.701  70.335  1.00  0.00    -0.376 A  
HETATM   10  C   UNL     1     -13.103  14.766  71.228  1.00  0.00    -0.433 A  
HETATM   11  C   UNL     1     -12.670  13.472  71.105  1.00  0.00    -0.344 A  
BRANCH   7  12
HETATM   12  N   UNL     1     -10.455  13.444  68.263  1.00  0.00    -0.244 NA 
HETATM   13  C   UNL     1     -11.135  13.468  66.940  1.00  0.00    -0.296 C  
HETATM   14  N   UNL     1      -9.607  11.720  66.100  1.00  0.00    -0.227 N  
HETATM   15  C   UNL     1     -10.134  13.067  65.854  1.00  0.00    -0.288 C  
HETATM   16  C   UNL     1      -9.040  11.547  67.452  1.00  0.00    -0.166 C  
HETATM   17  C   UNL     1      -9.948  10.717  65.197  1.00  0.00    -0.291 C  
HETATM   18  O   UNL     1     -10.825  10.909  64.351  1.00  0.00    -0.299 OA 
HETATM   19  C   UNL     1      -9.991  12.069  68.579  1.00  0.00    -0.184 C  
BRANCH  17  20
HETATM   20  C   UNL     1      -9.245   9.449  65.193  1.00  0.00    -0.225 A  
HETATM   21  C   UNL     1      -8.235   8.914  64.417  1.00  0.00    -0.164 A  
HETATM   22  C   UNL     1      -8.071   7.541  64.761  1.00  0.00    -0.112 A  
HETATM   23  C   UNL     1      -9.005   7.253  65.754  1.00  0.00    -0.015 A  
HETATM   24  N   UNL     1      -9.680   8.421  66.009  1.00  0.00    -0.458 NA 
HETATM   25  C   UNL     1      -9.167   5.974  66.297  1.00  0.00    -0.168 A  
HETATM   26  C   UNL     1      -8.333   4.956  65.818  1.00  0.00    -0.115 A  
HETATM   27  H   UNL     1     -10.412   8.518  66.712  1.00  0.00     0.000 HD 
HETATM   28  C   UNL     1      -7.367   5.224  64.853  1.00  0.00    -0.067 A  
HETATM   29  C   UNL     1      -7.237   6.503  64.296  1.00  0.00    -0.069 A  
BRANCH  28  30
HETATM   30  N   UNL     1      -6.503   4.173  64.423  1.00  0.00    -0.040 N  
HETATM   31  H   UNL     1      -5.489   4.284  64.444  1.00  0.00     0.000 HD 
BRANCH  30  32
HETATM   32  S   UNL     1      -7.211   2.737  63.878  1.00  0.00    -0.050 S  
HETATM   33  O   UNL     1      -7.414   1.823  64.973  1.00  0.00    -0.059 OA 
HETATM   34  O   UNL     1      -8.310   3.157  63.032  1.00  0.00    -0.077 OA 
HETATM   35  C   UNL     1      -5.933   2.108  62.813  1.00  0.00    -0.009 C  
ENDBRANCH  30  32
ENDBRANCH  28  30
ENDBRANCH  17  20
ENDBRANCH   7  12
ENDBRANCH   4   6
ENDBRANCH   2   4
TORSDOF 6
ENDMDL
MODEL       56
REMARK 921   NORMALIZED FREE ENERGY PREDICTED BY IDOCK:   -5.40 KCAL/MOL
REMARK 922        TOTAL FREE ENERGY PREDICTED BY IDOCK:   -7.77 KCAL/MOL
REMARK 923 INTER-LIGAND FREE ENERGY PREDICTED BY IDOCK:   -7.50 KCAL/MOL
REMARK 924 INTRA-LIGAND FREE ENERGY PREDICTED BY IDOCK:   -0.27 KCAL/MOL
REMARK 927      BINDING AFFINITY PREDICTED BY RF-SCORE:    0.00 PKD
ROOT
HETATM    1  C   UNL     1     -10.289  15.590  65.596  1.00  0.00    -0.407 C  
HETATM    2  C   UNL     1     -10.070  17.054  65.983  1.00  0.00    -0.302 C  
HETATM    3  C   UNL     1     -10.657  17.300  67.377  1.00  0.00    -0.303 C  
ENDROOT
BRANCH   2   4
HETATM    4  N   UNL     1      -8.647  17.356  66.070  1.00  0.00    -0.534 NA 
HETATM    5  H   UNL     1      -8.023  16.756  65.531  1.00  0.00     0.000 HD 
BRANCH   4   6
HETATM    6  C   UNL     1      -8.044  18.375  66.808  1.00  0.00    -0.251 A  
HETATM    7  C   UNL     1      -7.116  18.280  67.881  1.00  0.00    -0.223 A  
HETATM    8  N   UNL     1      -6.593  19.398  68.466  1.00  0.00    -0.247 NA 
HETATM    9  C   UNL     1      -8.392  19.685  66.406  1.00  0.00    -0.376 A  
HETATM   10  C   UNL     1      -7.871  20.814  67.028  1.00  0.00    -0.250 A  
HETATM   11  C   UNL     1      -6.972  20.617  68.044  1.00  0.00    -0.238 A  
BRANCH   7  12
HETATM   12  N   UNL     1      -6.712  17.046  68.448  1.00  0.00    -0.165 NA 
HETATM   13  C   UNL     1      -5.907  16.268  67.467  1.00  0.00    -0.155 C  
HETATM   14  N   UNL     1      -6.399  14.180  68.689  1.00  0.00    -0.083 N  
HETATM   15  C   UNL     1      -5.328  15.033  68.161  1.00  0.00    -0.119 C  
HETATM   16  C   UNL     1      -7.348  14.899  69.562  1.00  0.00    -0.178 C  
HETATM   17  C   UNL     1      -6.574  12.928  68.108  1.00  0.00    -0.093 C  
HETATM   18  O   UNL     1      -5.995  12.639  67.058  1.00  0.00    -0.301 OA 
HETATM   19  C   UNL     1      -7.859  16.236  68.931  1.00  0.00    -0.224 C  
BRANCH  17  20
HETATM   20  C   UNL     1      -7.395  11.919  68.749  1.00  0.00    -0.105 A  
HETATM   21  C   UNL     1      -7.121  10.823  69.545  1.00  0.00    -0.132 A  
HETATM   22  C   UNL     1      -8.324  10.082  69.733  1.00  0.00    -0.187 A  
HETATM   23  C   UNL     1      -9.328  10.743  69.031  1.00  0.00    -0.156 A  
HETATM   24  N   UNL     1      -8.747  11.854  68.468  1.00  0.00    -0.292 NA 
HETATM   25  C   UNL     1     -10.640  10.265  68.948  1.00  0.00    -0.242 A  
HETATM   26  C   UNL     1     -10.939   9.075  69.621  1.00  0.00    -0.147 A  
HETATM   27  H   UNL     1      -9.251  12.544  67.913  1.00  0.00     0.000 HD 
HETATM   28  C   UNL     1      -9.964   8.411  70.360  1.00  0.00    -0.185 A  
HETATM   29  C   UNL     1      -8.647   8.887  70.408  1.00  0.00    -0.198 A  
BRANCH  28  30
HETATM   30  N   UNL     1     -10.317   7.226  71.072  1.00  0.00    -0.200 N  
HETATM   31  H   UNL     1      -9.935   6.319  70.805  1.00  0.00     0.000 HD 
BRANCH  30  32
HETATM   32  S   UNL     1     -11.390   7.372  72.372  1.00  0.00    -0.307 S  
HETATM   33  O   UNL     1     -11.613   8.759  72.693  1.00  0.00    -0.249 OA 
HETATM   34  O   UNL     1     -12.490   6.484  72.053  1.00  0.00    -0.327 OA 
HETATM   35  C   UNL     1     -10.453   6.607  73.676  1.00  0.00    -0.330 C  
ENDBRANCH  30  32
ENDBRANCH  28  30
ENDBRANCH  17  20
ENDBRANCH   7  12
ENDBRANCH   4   6
ENDBRANCH   2   4
TORSDOF 6
ENDMDL
MODEL       57
REMARK 921   NORMALIZED FREE ENERGY PREDICTED BY IDOCK:   -5.38 KCAL/MOL
REMARK 922        TOTAL FREE ENERGY PREDICTED BY IDOCK:   -7.75 KCAL/MOL
REMARK 923 INTER-LIGAND FREE ENERGY PREDICTED BY IDOCK:   -6.84 KCAL/MOL
REMARK 924 INTRA-LIGAND FREE ENERGY PREDICTED BY IDOCK:   -0.91 KCAL/MOL
REMARK 927      BINDING AFFINITY PREDICTED BY RF-SCORE:    0.00 PKD
ROOT
HETATM    1  C   UNL     1      -9.524   4.450  67.718  1.00  0.00    -0.207 C  
HETATM    2  C   UNL     1      -9.765   5.919  68.073  1.00  0.00    -0.119 C  
HETATM    3  C   UNL     1     -11.051   6.399  67.391  1.00  0.00    -0.412 C  
ENDROOT
BRANCH   2   4
HETATM    4  N   UNL     1      -9.970   6.074  69.507  1.00  0.00    -0.169 NA 
HETATM    5  H   UNL     1      -9.513   5.388  70.107  1.00  0.00     0.000 HD 
BRANCH   4   6
HETATM    6  C   UNL     1     -10.723   7.057  70.150  1.00  0.00    -0.240 A  
HETATM    7  C   UNL     1     -10.530   8.466  70.176  1.00  0.00    -0.228 A  
HETATM    8  N   UNL     1     -11.401   9.289  70.831  1.00  0.00    -0.285 NA 
HETATM    9  C   UNL     1     -11.855   6.576  70.849  1.00  0.00    -0.391 A  
HETATM   10  C   UNL     1     -12.718   7.424  71.533  1.00  0.00    -0.409 A  
HETATM   11  C   UNL     1     -12.453   8.768  71.487  1.00  0.00    -0.326 A  
BRANCH   7  12
HETATM   12  N   UNL     1      -9.413   9.104  69.581  1.00  0.00    -0.165 NA 
HETATM   13  C   UNL     1      -8.261   9.110  70.524  1.00  0.00    -0.180 C  
HETATM   14  N   UNL     1      -7.242  10.994  69.295  1.00  0.00    -0.121 N  
HETATM   15  C   UNL     1      -7.021   9.632  69.795  1.00  0.00    -0.078 C  
HETATM   16  C   UNL     1      -8.455  11.127  68.465  1.00  0.00    -0.156 C  
HETATM   17  C   UNL     1      -6.498  12.021  69.867  1.00  0.00    -0.029 C  
HETATM   18  O   UNL     1      -5.841  11.823  70.892  1.00  0.00    -0.345 OA 
HETATM   19  C   UNL     1      -9.717  10.485  69.129  1.00  0.00    -0.211 C  
BRANCH  17  20
HETATM   20  C   UNL     1      -6.433  13.329  69.244  1.00  0.00    -0.107 A  
HETATM   21  C   UNL     1      -5.843  13.815  68.093  1.00  0.00    -0.123 A  
HETATM   22  C   UNL     1      -5.958  15.236  68.084  1.00  0.00    -0.140 A  
HETATM   23  C   UNL     1      -6.622  15.600  69.252  1.00  0.00    -0.152 A  
HETATM   24  N   UNL     1      -6.915  14.435  69.918  1.00  0.00    -0.354 NA 
HETATM   25  C   UNL     1      -6.865  16.933  69.605  1.00  0.00    -0.014 A  
HETATM   26  C   UNL     1      -6.426  17.926  68.723  1.00  0.00    -0.230 A  
HETATM   27  H   UNL     1      -7.424  14.392  70.800  1.00  0.00     0.000 HD 
HETATM   28  C   UNL     1      -5.791  17.589  67.531  1.00  0.00    -0.136 A  
HETATM   29  C   UNL     1      -5.528  16.251  67.206  1.00  0.00    -0.109 A  
BRANCH  28  30
HETATM   30  N   UNL     1      -5.401  18.627  66.632  1.00  0.00    -0.142 N  
HETATM   31  H   UNL     1      -4.424  18.910  66.550  1.00  0.00     0.000 HD 
BRANCH  30  32
HETATM   32  S   UNL     1      -6.606  19.373  65.710  1.00  0.00    -0.256 S  
HETATM   33  O   UNL     1      -7.697  18.464  65.468  1.00  0.00    -0.484 OA 
HETATM   34  O   UNL     1      -6.822  20.659  66.343  1.00  0.00    -0.255 OA 
HETATM   35  C   UNL     1      -5.737  19.672  64.188  1.00  0.00    -0.271 C  
ENDBRANCH  30  32
ENDBRANCH  28  30
ENDBRANCH  17  20
ENDBRANCH   7  12
ENDBRANCH   4   6
ENDBRANCH   2   4
TORSDOF 6
ENDMDL
MODEL       58
REMARK 921   NORMALIZED FREE ENERGY PREDICTED BY IDOCK:   -5.38 KCAL/MOL
REMARK 922        TOTAL FREE ENERGY PREDICTED BY IDOCK:   -7.75 KCAL/MOL
REMARK 923 INTER-LIGAND FREE ENERGY PREDICTED BY IDOCK:   -7.94 KCAL/MOL
REMARK 924 INTRA-LIGAND FREE ENERGY PREDICTED BY IDOCK:    0.19 KCAL/MOL
REMARK 927      BINDING AFFINITY PREDICTED BY RF-SCORE:    0.00 PKD
ROOT
HETATM    1  C   UNL     1     -11.378  16.670  68.526  1.00  0.00    -0.152 C  
HETATM    2  C   UNL     1     -10.551  16.369  69.778  1.00  0.00    -0.288 C  
HETATM    3  C   UNL     1     -10.950  14.995  70.327  1.00  0.00    -0.238 C  
ENDROOT
BRANCH   2   4
HETATM    4  N   UNL     1      -9.133  16.292  69.451  1.00  0.00    -0.169 NA 
HETATM    5  H   UNL     1      -8.531  15.847  70.144  1.00  0.00     0.000 HD 
BRANCH   4   6
HETATM    6  C   UNL     1      -8.508  16.761  68.295  1.00  0.00    -0.222 A  
HETATM    7  C   UNL     1      -8.256  16.083  67.071  1.00  0.00    -0.220 A  
HETATM    8  N   UNL     1      -7.662  16.720  66.018  1.00  0.00    -0.260 NA 
HETATM    9  C   UNL     1      -8.094  18.112  68.350  1.00  0.00    -0.313 A  
HETATM   10  C   UNL     1      -7.467  18.739  67.280  1.00  0.00    -0.230 A  
HETATM   11  C   UNL     1      -7.282  18.004  66.137  1.00  0.00    -0.290 A  
BRANCH   7  12
HETATM   12  N   UNL     1      -8.549  14.711  66.872  1.00  0.00    -0.224 NA 
HETATM   13  C   UNL     1      -9.953  14.546  66.407  1.00  0.00    -0.292 C  
HETATM   14  N   UNL     1      -9.948  12.197  67.167  1.00  0.00    -0.199 N  
HETATM   15  C   UNL     1     -10.184  13.084  66.021  1.00  0.00    -0.287 C  
HETATM   16  C   UNL     1      -8.628  12.390  67.799  1.00  0.00    -0.172 C  
HETATM   17  C   UNL     1     -11.043  11.519  67.695  1.00  0.00    -0.266 C  
HETATM   18  O   UNL     1     -12.189  11.816  67.350  1.00  0.00    -0.501 OA 
HETATM   19  C   UNL     1      -8.308  13.893  68.088  1.00  0.00    -0.163 C  
BRANCH  17  20
HETATM   20  C   UNL     1     -10.859  10.415  68.618  1.00  0.00    -0.232 A  
HETATM   21  C   UNL     1     -10.447   9.104  68.475  1.00  0.00    -0.238 A  
HETATM   22  C   UNL     1     -10.639   8.427  69.714  1.00  0.00    -0.221 A  
HETATM   23  C   UNL     1     -11.181   9.348  70.606  1.00  0.00    -0.284 A  
HETATM   24  N   UNL     1     -11.281  10.539  69.928  1.00  0.00    -0.286 NA 
HETATM   25  C   UNL     1     -11.550   9.015  71.914  1.00  0.00    -0.441 A  
HETATM   26  C   UNL     1     -11.344   7.694  72.328  1.00  0.00    -0.355 A  
HETATM   27  H   UNL     1     -11.625  11.406  70.340  1.00  0.00     0.000 HD 
HETATM   28  C   UNL     1     -10.771   6.761  71.469  1.00  0.00    -0.226 A  
HETATM   29  C   UNL     1     -10.434   7.102  70.152  1.00  0.00    -0.231 A  
BRANCH  28  30
HETATM   30  N   UNL     1     -10.531   5.436  71.942  1.00  0.00    -0.219 N  
HETATM   31  H   UNL     1     -10.616   4.632  71.319  1.00  0.00     0.000 HD 
BRANCH  30  32
HETATM   32  S   UNL     1     -10.103   5.239  73.566  1.00  0.00    -0.199 S  
HETATM   33  O   UNL     1      -9.573   6.465  74.104  1.00  0.00    -0.179 OA 
HETATM   34  O   UNL     1     -11.238   4.574  74.176  1.00  0.00    -0.248 OA 
HETATM   35  C   UNL     1      -8.796   4.039  73.433  1.00  0.00    -0.097 C  
ENDBRANCH  30  32
ENDBRANCH  28  30
ENDBRANCH  17  20
ENDBRANCH   7  12
ENDBRANCH   4   6
ENDBRANCH   2   4
TORSDOF 6
ENDMDL
MODEL       59
REMARK 921   NORMALIZED FREE ENERGY PREDICTED BY IDOCK:   -5.35 KCAL/MOL
REMARK 922        TOTAL FREE ENERGY PREDICTED BY IDOCK:   -7.70 KCAL/MOL
REMARK 923 INTER-LIGAND FREE ENERGY PREDICTED BY IDOCK:   -7.59 KCAL/MOL
REMARK 924 INTRA-LIGAND FREE ENERGY PREDICTED BY IDOCK:   -0.11 KCAL/MOL
REMARK 927      BINDING AFFINITY PREDICTED BY RF-SCORE:    0.00 PKD
ROOT
HETATM    1  C   UNL     1      -9.931   4.033  63.008  1.00  0.00    -0.145 C  
HETATM    2  C   UNL     1      -9.382   3.091  64.082  1.00  0.00    -0.127 C  
HETATM    3  C   UNL     1      -8.319   2.180  63.458  1.00  0.00    -0.081 C  
ENDROOT
BRANCH   2   4
HETATM    4  N   UNL     1      -8.718   3.846  65.137  1.00  0.00    -0.113 NA 
HETATM    5  H   UNL     1      -7.977   4.481  64.842  1.00  0.00     0.000 HD 
BRANCH   4   6
HETATM    6  C   UNL     1      -8.984   3.794  66.505  1.00  0.00    -0.139 A  
HETATM    7  C   UNL     1      -9.427   4.828  67.376  1.00  0.00    -0.146 A  
HETATM    8  N   UNL     1      -9.679   4.583  68.696  1.00  0.00    -0.153 NA 
HETATM    9  C   UNL     1      -8.812   2.521  67.096  1.00  0.00    -0.155 A  
HETATM   10  C   UNL     1      -9.048   2.293  68.447  1.00  0.00    -0.215 A  
HETATM   11  C   UNL     1      -9.486   3.352  69.200  1.00  0.00    -0.141 A  
BRANCH   7  12
HETATM   12  N   UNL     1      -9.588   6.173  66.960  1.00  0.00    -0.129 NA 
HETATM   13  C   UNL     1      -8.259   6.816  66.773  1.00  0.00    -0.114 C  
HETATM   14  N   UNL     1      -9.286   9.049  67.007  1.00  0.00    -0.144 N  
HETATM   15  C   UNL     1      -8.455   8.199  66.147  1.00  0.00    -0.136 C  
HETATM   16  C   UNL     1     -10.575   8.433  67.377  1.00  0.00    -0.243 C  
HETATM   17  C   UNL     1      -8.683  10.156  67.598  1.00  0.00    -0.121 C  
HETATM   18  O   UNL     1      -7.458  10.291  67.570  1.00  0.00    -0.089 OA 
HETATM   19  C   UNL     1     -10.418   6.967  67.900  1.00  0.00    -0.214 C  
BRANCH  17  20
HETATM   20  C   UNL     1      -9.483  11.200  68.210  1.00  0.00    -0.182 A  
HETATM   21  C   UNL     1     -10.568  11.200  69.065  1.00  0.00    -0.251 A  
HETATM   22  C   UNL     1     -11.055  12.533  69.187  1.00  0.00    -0.254 A  
HETATM   23  C   UNL     1     -10.250  13.339  68.385  1.00  0.00    -0.249 A  
HETATM   24  N   UNL     1      -9.302  12.516  67.829  1.00  0.00    -0.190 NA 
HETATM   25  C   UNL     1     -10.472  14.710  68.219  1.00  0.00    -0.236 A  
HETATM   26  C   UNL     1     -11.547  15.281  68.910  1.00  0.00    -0.365 A  
HETATM   27  H   UNL     1      -8.557  12.836  67.211  1.00  0.00     0.000 HD 
HETATM   28  C   UNL     1     -12.346  14.506  69.746  1.00  0.00    -0.272 A  
HETATM   29  C   UNL     1     -12.130  13.128  69.879  1.00  0.00    -0.357 A  
BRANCH  28  30
HETATM   30  N   UNL     1     -13.404  15.132  70.472  1.00  0.00    -0.689 N  
HETATM   31  H   UNL     1     -14.119  15.678  69.992  1.00  0.00     0.000 HD 
BRANCH  30  32
HETATM   32  S   UNL     1     -13.435  14.940  72.152  1.00  0.00    -0.442 S  
HETATM   33  O   UNL     1     -14.254  15.954  72.764  1.00  0.00    -0.523 OA 
HETATM   34  O   UNL     1     -13.695  13.530  72.365  1.00  0.00    -0.543 OA 
HETATM   35  C   UNL     1     -11.728  15.231  72.561  1.00  0.00    -0.434 C  
ENDBRANCH  30  32
ENDBRANCH  28  30
ENDBRANCH  17  20
ENDBRANCH   7  12
ENDBRANCH   4   6
ENDBRANCH   2   4
TORSDOF 6
ENDMDL
MODEL       60
REMARK 921   NORMALIZED FREE ENERGY PREDICTED BY IDOCK:   -5.35 KCAL/MOL
REMARK 922        TOTAL FREE ENERGY PREDICTED BY IDOCK:   -7.70 KCAL/MOL
REMARK 923 INTER-LIGAND FREE ENERGY PREDICTED BY IDOCK:   -8.46 KCAL/MOL
REMARK 924 INTRA-LIGAND FREE ENERGY PREDICTED BY IDOCK:    0.76 KCAL/MOL
REMARK 927      BINDING AFFINITY PREDICTED BY RF-SCORE:    0.00 PKD
ROOT
HETATM    1  C   UNL     1     -10.612   6.593  67.895  1.00  0.00    -0.305 C  
HETATM    2  C   UNL     1      -9.626   7.374  68.767  1.00  0.00    -0.147 C  
HETATM    3  C   UNL     1      -8.310   7.555  68.002  1.00  0.00    -0.124 C  
ENDROOT
BRANCH   2   4
HETATM    4  N   UNL     1     -10.134   8.710  69.047  1.00  0.00    -0.194 NA 
HETATM    5  H   UNL     1      -9.752   9.468  68.482  1.00  0.00     0.000 HD 
BRANCH   4   6
HETATM    6  C   UNL     1     -11.085   9.068  70.003  1.00  0.00    -0.182 A  
HETATM    7  C   UNL     1     -12.016  10.143  69.988  1.00  0.00    -0.136 A  
HETATM    8  N   UNL     1     -12.912  10.318  71.004  1.00  0.00    -0.384 NA 
HETATM    9  C   UNL     1     -11.142   8.217  71.131  1.00  0.00    -0.279 A  
HETATM   10  C   UNL     1     -12.042   8.423  72.170  1.00  0.00    -0.435 A  
HETATM   11  C   UNL     1     -12.908   9.479  72.055  1.00  0.00    -0.414 A  
BRANCH   7  12
HETATM   12  N   UNL     1     -12.050  11.122  68.965  1.00  0.00    -0.476 NA 
HETATM   13  C   UNL     1     -11.408  10.599  67.729  1.00  0.00    -0.244 C  
HETATM   14  N   UNL     1     -11.038  12.903  66.922  1.00  0.00    -0.270 N  
HETATM   15  C   UNL     1     -11.623  11.598  66.591  1.00  0.00    -0.115 C  
HETATM   16  C   UNL     1     -11.500  13.444  68.215  1.00  0.00    -0.315 C  
HETATM   17  C   UNL     1      -9.944  13.329  66.174  1.00  0.00    -0.293 C  
HETATM   18  O   UNL     1      -9.365  12.550  65.413  1.00  0.00     0.019 OA 
HETATM   19  C   UNL     1     -11.413  12.400  69.376  1.00  0.00    -0.271 C  
BRANCH  17  20
HETATM   20  C   UNL     1      -9.496  14.707  66.231  1.00  0.00    -0.293 A  
HETATM   21  C   UNL     1      -8.296  15.313  66.551  1.00  0.00    -0.124 A  
HETATM   22  C   UNL     1      -8.497  16.722  66.612  1.00  0.00    -0.291 A  
HETATM   23  C   UNL     1      -9.840  16.957  66.331  1.00  0.00    -0.305 A  
HETATM   24  N   UNL     1     -10.410  15.732  66.084  1.00  0.00    -0.304 NA 
HETATM   25  C   UNL     1     -10.410  18.235  66.354  1.00  0.00    -0.418 A  
HETATM   26  C   UNL     1      -9.571  19.313  66.663  1.00  0.00    -0.411 A  
HETATM   27  H   UNL     1     -11.387  15.597  65.825  1.00  0.00     0.000 HD 
HETATM   28  C   UNL     1      -8.217  19.110  66.913  1.00  0.00    -0.272 A  
HETATM   29  C   UNL     1      -7.667  17.821  66.916  1.00  0.00    -0.242 A  
BRANCH  28  30
HETATM   30  N   UNL     1      -7.382  20.238  67.177  1.00  0.00    -0.273 N  
HETATM   31  H   UNL     1      -7.608  21.158  66.799  1.00  0.00     0.000 HD 
BRANCH  30  32
HETATM   32  S   UNL     1      -6.008  20.001  68.133  1.00  0.00    -0.247 S  
HETATM   33  O   UNL     1      -5.167  18.977  67.569  1.00  0.00    -0.164 OA 
HETATM   34  O   UNL     1      -5.501  21.333  68.400  1.00  0.00    -0.314 OA 
HETATM   35  C   UNL     1      -6.739  19.401  69.640  1.00  0.00    -0.240 C  
ENDBRANCH  30  32
ENDBRANCH  28  30
ENDBRANCH  17  20
ENDBRANCH   7  12
ENDBRANCH   4   6
ENDBRANCH   2   4
TORSDOF 6
ENDMDL
MODEL       61
REMARK 921   NORMALIZED FREE ENERGY PREDICTED BY IDOCK:   -5.33 KCAL/MOL
REMARK 922        TOTAL FREE ENERGY PREDICTED BY IDOCK:   -7.69 KCAL/MOL
REMARK 923 INTER-LIGAND FREE ENERGY PREDICTED BY IDOCK:   -7.08 KCAL/MOL
REMARK 924 INTRA-LIGAND FREE ENERGY PREDICTED BY IDOCK:   -0.61 KCAL/MOL
REMARK 927      BINDING AFFINITY PREDICTED BY RF-SCORE:    0.00 PKD
ROOT
HETATM    1  C   UNL     1     -11.714   6.511  71.937  1.00  0.00    -0.371 C  
HETATM    2  C   UNL     1     -10.888   7.479  72.787  1.00  0.00    -0.346 C  
HETATM    3  C   UNL     1     -10.285   6.719  73.974  1.00  0.00    -0.399 C  
ENDROOT
BRANCH   2   4
HETATM    4  N   UNL     1      -9.769   8.010  72.020  1.00  0.00    -0.185 NA 
HETATM    5  H   UNL     1      -9.322   8.848  72.391  1.00  0.00     0.000 HD 
BRANCH   4   6
HETATM    6  C   UNL     1      -9.242   7.500  70.833  1.00  0.00    -0.153 A  
HETATM    7  C   UNL     1      -9.293   8.042  69.519  1.00  0.00    -0.156 A  
HETATM    8  N   UNL     1      -8.678   7.418  68.471  1.00  0.00    -0.128 NA 
HETATM    9  C   UNL     1      -8.536   6.282  70.972  1.00  0.00    -0.128 A  
HETATM   10  C   UNL     1      -7.938   5.645  69.891  1.00  0.00    -0.095 A  
HETATM   11  C   UNL     1      -8.031   6.256  68.667  1.00  0.00    -0.105 A  
BRANCH   7  12
HETATM   12  N   UNL     1     -10.012   9.219  69.196  1.00  0.00    -0.173 NA 
HETATM   13  C   UNL     1     -10.481   9.165  67.785  1.00  0.00    -0.247 C  
HETATM   14  N   UNL     1     -10.711  11.623  67.747  1.00  0.00    -0.196 N  
HETATM   15  C   UNL     1     -11.409  10.353  67.519  1.00  0.00    -0.031 C  
HETATM   16  C   UNL     1     -10.076  11.717  69.076  1.00  0.00    -0.012 C  
HETATM   17  C   UNL     1     -10.475  12.438  66.643  1.00  0.00    -0.229 C  
HETATM   18  O   UNL     1     -10.656  12.011  65.500  1.00  0.00    -0.255 OA 
HETATM   19  C   UNL     1      -9.223  10.455  69.431  1.00  0.00    -0.159 C  
BRANCH  17  20
HETATM   20  C   UNL     1     -10.067  13.819  66.812  1.00  0.00    -0.265 A  
HETATM   21  C   UNL     1      -8.847  14.468  66.792  1.00  0.00    -0.248 A  
HETATM   22  C   UNL     1      -9.040  15.818  67.206  1.00  0.00    -0.219 A  
HETATM   23  C   UNL     1     -10.396  15.972  67.484  1.00  0.00    -0.287 A  
HETATM   24  N   UNL     1     -10.991  14.763  67.217  1.00  0.00    -0.309 NA 
HETATM   25  C   UNL     1     -10.942  17.165  67.971  1.00  0.00    -0.229 A  
HETATM   26  C   UNL     1     -10.072  18.243  68.166  1.00  0.00    -0.397 A  
HETATM   27  H   UNL     1     -11.991  14.585  67.308  1.00  0.00     0.000 HD 
HETATM   28  C   UNL     1      -8.718  18.128  67.863  1.00  0.00    -0.261 A  
HETATM   29  C   UNL     1      -8.181  16.918  67.404  1.00  0.00    -0.199 A  
BRANCH  28  30
HETATM   30  N   UNL     1      -7.869  19.263  68.029  1.00  0.00    -0.288 N  
HETATM   31  H   UNL     1      -7.851  19.781  68.907  1.00  0.00     0.000 HD 
BRANCH  30  32
HETATM   32  S   UNL     1      -6.896  19.724  66.725  1.00  0.00    -0.204 S  
HETATM   33  O   UNL     1      -5.784  18.819  66.576  1.00  0.00    -0.149 OA 
HETATM   34  O   UNL     1      -7.819  19.970  65.635  1.00  0.00    -0.305 OA 
HETATM   35  C   UNL     1      -6.300  21.304  67.282  1.00  0.00    -0.351 C  
ENDBRANCH  30  32
ENDBRANCH  28  30
ENDBRANCH  17  20
ENDBRANCH   7  12
ENDBRANCH   4   6
ENDBRANCH   2   4
TORSDOF 6
ENDMDL
MODEL       62
REMARK 921   NORMALIZED FREE ENERGY PREDICTED BY IDOCK:   -5.33 KCAL/MOL
REMARK 922        TOTAL FREE ENERGY PREDICTED BY IDOCK:   -7.69 KCAL/MOL
REMARK 923 INTER-LIGAND FREE ENERGY PREDICTED BY IDOCK:   -6.82 KCAL/MOL
REMARK 924 INTRA-LIGAND FREE ENERGY PREDICTED BY IDOCK:   -0.87 KCAL/MOL
REMARK 927      BINDING AFFINITY PREDICTED BY RF-SCORE:    0.00 PKD
ROOT
HETATM    1  C   UNL     1     -10.278  14.610  64.885  1.00  0.00    -0.322 C  
HETATM    2  C   UNL     1     -11.590  15.128  65.479  1.00  0.00    -0.142 C  
HETATM    3  C   UNL     1     -12.519  13.943  65.760  1.00  0.00    -0.530 C  
ENDROOT
BRANCH   2   4
HETATM    4  N   UNL     1     -11.352  15.785  66.757  1.00  0.00    -0.024 NA 
HETATM    5  H   UNL     1     -12.099  16.386  67.104  1.00  0.00     0.000 HD 
BRANCH   4   6
HETATM    6  C   UNL     1     -10.215  15.681  67.559  1.00  0.00    -0.263 A  
HETATM    7  C   UNL     1      -9.733  14.566  68.298  1.00  0.00    -0.218 A  
HETATM    8  N   UNL     1      -8.565  14.634  69.003  1.00  0.00    -0.139 NA 
HETATM    9  C   UNL     1      -9.420  16.850  67.617  1.00  0.00    -0.241 A  
HETATM   10  C   UNL     1      -8.247  16.912  68.360  1.00  0.00    -0.232 A  
HETATM   11  C   UNL     1      -7.860  15.779  69.026  1.00  0.00    -0.206 A  
BRANCH   7  12
HETATM   12  N   UNL     1     -10.440  13.342  68.399  1.00  0.00    -0.249 NA 
HETATM   13  C   UNL     1     -11.549  13.467  69.384  1.00  0.00    -0.307 C  
HETATM   14  N   UNL     1     -11.606  11.014  69.659  1.00  0.00    -0.287 N  
HETATM   15  C   UNL     1     -12.406  12.200  69.335  1.00  0.00     0.070 C  
HETATM   16  C   UNL     1     -10.392  10.878  68.831  1.00  0.00    -0.204 C  
HETATM   17  C   UNL     1     -11.895  10.342  70.843  1.00  0.00    -0.377 C  
HETATM   18  O   UNL     1     -12.645  10.847  71.682  1.00  0.00    -0.375 OA 
HETATM   19  C   UNL     1      -9.559  12.201  68.755  1.00  0.00     0.039 C  
BRANCH  17  20
HETATM   20  C   UNL     1     -11.368   9.014  71.093  1.00  0.00    -0.307 A  
HETATM   21  C   UNL     1     -10.502   8.487  72.032  1.00  0.00    -0.407 A  
HETATM   22  C   UNL     1     -10.201   7.141  71.673  1.00  0.00    -0.208 A  
HETATM   23  C   UNL     1     -10.894   6.866  70.497  1.00  0.00    -0.253 A  
HETATM   24  N   UNL     1     -11.603   8.000  70.184  1.00  0.00    -0.470 NA 
HETATM   25  C   UNL     1     -10.793   5.644  69.822  1.00  0.00    -0.370 A  
HETATM   26  C   UNL     1      -9.963   4.664  70.379  1.00  0.00    -0.300 A  
HETATM   27  H   UNL     1     -12.226   8.083  69.381  1.00  0.00     0.000 HD 
HETATM   28  C   UNL     1      -9.287   4.900  71.573  1.00  0.00    -0.149 A  
HETATM   29  C   UNL     1      -9.375   6.139  72.221  1.00  0.00    -0.149 A  
BRANCH  28  30
HETATM   30  N   UNL     1      -8.488   3.860  72.136  1.00  0.00    -0.098 N  
HETATM   31  H   UNL     1      -8.756   3.406  73.009  1.00  0.00     0.000 HD 
BRANCH  30  32
HETATM   32  S   UNL     1      -7.082   3.404  71.313  1.00  0.00    -0.033 S  
HETATM   33  O   UNL     1      -7.376   2.399  70.324  1.00  0.00    -0.033 OA 
HETATM   34  O   UNL     1      -6.437   4.651  70.952  1.00  0.00    -0.028 OA 
HETATM   35  C   UNL     1      -6.133   2.678  72.630  1.00  0.00    -0.009 C  
ENDBRANCH  30  32
ENDBRANCH  28  30
ENDBRANCH  17  20
ENDBRANCH   7  12
ENDBRANCH   4   6
ENDBRANCH   2   4
TORSDOF 6
ENDMDL
MODEL       63
REMARK 921   NORMALIZED FREE ENERGY PREDICTED BY IDOCK:   -5.32 KCAL/MOL
REMARK 922        TOTAL FREE ENERGY PREDICTED BY IDOCK:   -7.67 KCAL/MOL
REMARK 923 INTER-LIGAND FREE ENERGY PREDICTED BY IDOCK:   -7.88 KCAL/MOL
REMARK 924 INTRA-LIGAND FREE ENERGY PREDICTED BY IDOCK:    0.21 KCAL/MOL
REMARK 927      BINDING AFFINITY PREDICTED BY RF-SCORE:    0.00 PKD
ROOT
HETATM    1  C   UNL     1      -5.807  14.674  70.736  1.00  0.00    -0.159 C  
HETATM    2  C   UNL     1      -5.890  15.775  69.676  1.00  0.00    -0.135 C  
HETATM    3  C   UNL     1      -5.599  15.172  68.298  1.00  0.00    -0.120 C  
ENDROOT
BRANCH   2   4
HETATM    4  N   UNL     1      -7.236  16.328  69.614  1.00  0.00    -0.103 NA 
HETATM    5  H   UNL     1      -7.920  15.931  70.259  1.00  0.00     0.000 HD 
BRANCH   4   6
HETATM    6  C   UNL     1      -7.694  17.341  68.770  1.00  0.00    -0.261 A  
HETATM    7  C   UNL     1      -8.912  17.423  68.041  1.00  0.00    -0.255 A  
HETATM    8  N   UNL     1      -9.214  18.522  67.289  1.00  0.00    -0.274 NA 
HETATM    9  C   UNL     1      -6.827  18.453  68.652  1.00  0.00    -0.275 A  
HETATM   10  C   UNL     1      -7.137  19.553  67.862  1.00  0.00    -0.295 A  
HETATM   11  C   UNL     1      -8.342  19.543  67.209  1.00  0.00    -0.293 A  
BRANCH   7  12
HETATM   12  N   UNL     1      -9.860  16.371  67.999  1.00  0.00    -0.235 NA 
HETATM   13  C   UNL     1     -10.989  16.658  68.924  1.00  0.00    -0.294 C  
HETATM   14  N   UNL     1     -11.568  14.258  68.992  1.00  0.00    -0.285 N  
HETATM   15  C   UNL     1     -12.082  15.606  68.721  1.00  0.00    -0.109 C  
HETATM   16  C   UNL     1     -10.349  13.928  68.227  1.00  0.00    -0.249 C  
HETATM   17  C   UNL     1     -12.077  13.583  70.097  1.00  0.00    -0.354 C  
HETATM   18  O   UNL     1     -12.767  14.175  70.929  1.00  0.00    -0.330 OA 
HETATM   19  C   UNL     1      -9.260  15.048  68.310  1.00  0.00    -0.184 C  
BRANCH  17  20
HETATM   20  C   UNL     1     -11.852  12.160  70.267  1.00  0.00    -0.254 A  
HETATM   21  C   UNL     1     -11.117  11.216  69.576  1.00  0.00    -0.311 A  
HETATM   22  C   UNL     1     -11.422   9.926  70.100  1.00  0.00    -0.309 A  
HETATM   23  C   UNL     1     -12.358  10.106  71.115  1.00  0.00    -0.385 A  
HETATM   24  N   UNL     1     -12.581  11.458  71.208  1.00  0.00    -0.394 NA 
HETATM   25  C   UNL     1     -12.928   9.041  71.822  1.00  0.00    -0.436 A  
HETATM   26  C   UNL     1     -12.513   7.747  71.488  1.00  0.00    -0.348 A  
HETATM   27  H   UNL     1     -13.207  11.890  71.887  1.00  0.00     0.000 HD 
HETATM   28  C   UNL     1     -11.552   7.540  70.502  1.00  0.00    -0.200 A  
HETATM   29  C   UNL     1     -11.013   8.614  69.782  1.00  0.00    -0.132 A  
BRANCH  28  30
HETATM   30  N   UNL     1     -11.118   6.209  70.222  1.00  0.00    -0.347 N  
HETATM   31  H   UNL     1     -11.531   5.672  69.460  1.00  0.00     0.000 HD 
BRANCH  30  32
HETATM   32  S   UNL     1      -9.900   5.551  71.194  1.00  0.00    -0.188 S  
HETATM   33  O   UNL     1      -9.259   6.581  71.971  1.00  0.00    -0.148 OA 
HETATM   34  O   UNL     1     -10.505   4.395  71.825  1.00  0.00    -0.121 OA 
HETATM   35  C   UNL     1      -8.768   4.949  69.962  1.00  0.00    -0.094 C  
ENDBRANCH  30  32
ENDBRANCH  28  30
ENDBRANCH  17  20
ENDBRANCH   7  12
ENDBRANCH   4   6
ENDBRANCH   2   4
TORSDOF 6
ENDMDL
MODEL       64
REMARK 921   NORMALIZED FREE ENERGY PREDICTED BY IDOCK:   -5.32 KCAL/MOL
REMARK 922        TOTAL FREE ENERGY PREDICTED BY IDOCK:   -7.67 KCAL/MOL
REMARK 923 INTER-LIGAND FREE ENERGY PREDICTED BY IDOCK:   -7.62 KCAL/MOL
REMARK 924 INTRA-LIGAND FREE ENERGY PREDICTED BY IDOCK:   -0.05 KCAL/MOL
REMARK 927      BINDING AFFINITY PREDICTED BY RF-SCORE:    0.00 PKD
ROOT
HETATM    1  C   UNL     1      -8.861   9.885  62.566  1.00  0.00    -0.255 C  
HETATM    2  C   UNL     1      -9.516   9.983  63.946  1.00  0.00    -0.220 C  
HETATM    3  C   UNL     1      -8.712   9.147  64.947  1.00  0.00    -0.215 C  
ENDROOT
BRANCH   2   4
HETATM    4  N   UNL     1      -9.489  11.356  64.432  1.00  0.00    -0.376 NA 
HETATM    5  H   UNL     1      -8.570  11.747  64.637  1.00  0.00     0.000 HD 
BRANCH   4   6
HETATM    6  C   UNL     1     -10.582  12.196  64.647  1.00  0.00    -0.300 A  
HETATM    7  C   UNL     1     -11.088  12.721  65.868  1.00  0.00    -0.287 A  
HETATM    8  N   UNL     1     -12.156  13.572  65.885  1.00  0.00    -0.408 NA 
HETATM    9  C   UNL     1     -11.261  12.600  63.473  1.00  0.00    -0.489 A  
HETATM   10  C   UNL     1     -12.363  13.447  63.509  1.00  0.00    -0.398 A  
HETATM   11  C   UNL     1     -12.765  13.910  64.735  1.00  0.00    -0.211 A  
BRANCH   7  12
HETATM   12  N   UNL     1     -10.565  12.367  67.136  1.00  0.00    -0.223 NA 
HETATM   13  C   UNL     1      -9.095  12.151  67.046  1.00  0.00    -0.198 C  
HETATM   14  N   UNL     1      -9.149  10.798  69.111  1.00  0.00    -0.140 N  
HETATM   15  C   UNL     1      -8.530  11.956  68.454  1.00  0.00    -0.155 C  
HETATM   16  C   UNL     1     -10.624  10.844  69.120  1.00  0.00    -0.220 C  
HETATM   17  C   UNL     1      -8.340   9.696  69.373  1.00  0.00    -0.145 C  
HETATM   18  O   UNL     1      -7.211   9.617  68.883  1.00  0.00    -0.069 OA 
HETATM   19  C   UNL     1     -11.228  11.171  67.714  1.00  0.00    -0.294 C  
BRANCH  17  20
HETATM   20  C   UNL     1      -8.783   8.645  70.269  1.00  0.00    -0.147 A  
HETATM   21  C   UNL     1      -9.317   7.385  70.080  1.00  0.00    -0.158 A  
HETATM   22  C   UNL     1      -9.737   6.872  71.342  1.00  0.00    -0.177 A  
HETATM   23  C   UNL     1      -9.454   7.846  72.296  1.00  0.00    -0.189 A  
HETATM   24  N   UNL     1      -8.861   8.889  71.628  1.00  0.00    -0.332 NA 
HETATM   25  C   UNL     1      -9.781   7.704  73.649  1.00  0.00    -0.314 A  
HETATM   26  C   UNL     1     -10.409   6.516  74.041  1.00  0.00    -0.362 A  
HETATM   27  H   UNL     1      -8.522   9.739  72.078  1.00  0.00     0.000 HD 
HETATM   28  C   UNL     1     -10.672   5.511  73.115  1.00  0.00    -0.268 A  
HETATM   29  C   UNL     1     -10.365   5.680  71.758  1.00  0.00    -0.268 A  
BRANCH  28  30
HETATM   30  N   UNL     1     -11.270   4.293  73.560  1.00  0.00    -0.288 N  
HETATM   31  H   UNL     1     -12.266   4.243  73.770  1.00  0.00     0.000 HD 
BRANCH  30  32
HETATM   32  S   UNL     1     -10.273   2.937  73.731  1.00  0.00    -0.136 S  
HETATM   33  O   UNL     1      -9.031   3.296  74.365  1.00  0.00    -0.085 OA 
HETATM   34  O   UNL     1     -11.131   1.907  74.282  1.00  0.00    -0.135 OA 
HETATM   35  C   UNL     1      -9.970   2.519  72.029  1.00  0.00    -0.158 C  
ENDBRANCH  30  32
ENDBRANCH  28  30
ENDBRANCH  17  20
ENDBRANCH   7  12
ENDBRANCH   4   6
ENDBRANCH   2   4
TORSDOF 6
ENDMDL
MODEL       65
REMARK 921   NORMALIZED FREE ENERGY PREDICTED BY IDOCK:   -5.32 KCAL/MOL
REMARK 922        TOTAL FREE ENERGY PREDICTED BY IDOCK:   -7.67 KCAL/MOL
REMARK 923 INTER-LIGAND FREE ENERGY PREDICTED BY IDOCK:   -7.66 KCAL/MOL
REMARK 924 INTRA-LIGAND FREE ENERGY PREDICTED BY IDOCK:   -0.00 KCAL/MOL
REMARK 927      BINDING AFFINITY PREDICTED BY RF-SCORE:    0.00 PKD
ROOT
HETATM    1  C   UNL     1      -6.125  16.272  67.115  1.00  0.00    -0.148 C  
HETATM    2  C   UNL     1      -6.506  16.167  68.593  1.00  0.00    -0.120 C  
HETATM    3  C   UNL     1      -5.480  16.934  69.434  1.00  0.00    -0.153 C  
ENDROOT
BRANCH   2   4
HETATM    4  N   UNL     1      -7.799  16.794  68.837  1.00  0.00    -0.250 NA 
HETATM    5  H   UNL     1      -8.284  16.517  69.690  1.00  0.00     0.000 HD 
BRANCH   4   6
HETATM    6  C   UNL     1      -8.446  17.732  68.031  1.00  0.00    -0.253 A  
HETATM    7  C   UNL     1      -9.673  17.616  67.322  1.00  0.00    -0.284 A  
HETATM    8  N   UNL     1     -10.181  18.663  66.609  1.00  0.00    -0.380 NA 
HETATM    9  C   UNL     1      -7.793  18.983  67.935  1.00  0.00    -0.301 A  
HETATM   10  C   UNL     1      -8.310  20.032  67.184  1.00  0.00    -0.381 A  
HETATM   11  C   UNL     1      -9.507  19.825  66.548  1.00  0.00    -0.403 A  
BRANCH   7  12
HETATM   12  N   UNL     1     -10.419  16.413  67.262  1.00  0.00    -0.303 NA 
HETATM   13  C   UNL     1     -11.216  16.237  68.506  1.00  0.00    -0.359 C  
HETATM   14  N   UNL     1     -11.385  13.811  68.079  1.00  0.00    -0.272 N  
HETATM   15  C   UNL     1     -12.150  15.037  68.338  1.00  0.00    -0.104 C  
HETATM   16  C   UNL     1     -10.447  13.931  66.946  1.00  0.00    -0.276 C  
HETATM   17  C   UNL     1     -11.403  12.820  69.055  1.00  0.00    -0.294 C  
HETATM   18  O   UNL     1     -11.864  13.053  70.175  1.00  0.00    -0.313 OA 
HETATM   19  C   UNL     1      -9.565  15.221  67.024  1.00  0.00    -0.224 C  
BRANCH  17  20
HETATM   20  C   UNL     1     -10.931  11.480  68.764  1.00  0.00    -0.222 A  
HETATM   21  C   UNL     1     -11.160  10.585  67.736  1.00  0.00    -0.382 A  
HETATM   22  C   UNL     1     -10.563   9.336  68.076  1.00  0.00    -0.262 A  
HETATM   23  C   UNL     1      -9.975   9.490  69.329  1.00  0.00    -0.187 A  
HETATM   24  N   UNL     1     -10.192  10.792  69.707  1.00  0.00    -0.448 NA 
HETATM   25  C   UNL     1      -9.338   8.443  70.004  1.00  0.00    -0.159 A  
HETATM   26  C   UNL     1      -9.287   7.197  69.367  1.00  0.00    -0.147 A  
HETATM   27  H   UNL     1      -9.850  11.201  70.577  1.00  0.00     0.000 HD 
HETATM   28  C   UNL     1      -9.836   7.025  68.099  1.00  0.00    -0.139 A  
HETATM   29  C   UNL     1     -10.497   8.075  67.449  1.00  0.00    -0.357 A  
BRANCH  28  30
HETATM   30  N   UNL     1      -9.723   5.753  67.460  1.00  0.00    -0.114 N  
HETATM   31  H   UNL     1     -10.427   5.030  67.603  1.00  0.00     0.000 HD 
BRANCH  30  32
HETATM   32  S   UNL     1      -8.386   5.484  66.460  1.00  0.00    -0.110 S  
HETATM   33  O   UNL     1      -8.744   5.656  65.075  1.00  0.00    -0.141 OA 
HETATM   34  O   UNL     1      -7.308   6.244  67.061  1.00  0.00    -0.080 OA 
HETATM   35  C   UNL     1      -8.062   3.764  66.777  1.00  0.00    -0.096 C  
ENDBRANCH  30  32
ENDBRANCH  28  30
ENDBRANCH  17  20
ENDBRANCH   7  12
ENDBRANCH   4   6
ENDBRANCH   2   4
TORSDOF 6
ENDMDL
MODEL       66
REMARK 921   NORMALIZED FREE ENERGY PREDICTED BY IDOCK:   -5.30 KCAL/MOL
REMARK 922        TOTAL FREE ENERGY PREDICTED BY IDOCK:   -7.64 KCAL/MOL
REMARK 923 INTER-LIGAND FREE ENERGY PREDICTED BY IDOCK:   -7.11 KCAL/MOL
REMARK 924 INTRA-LIGAND FREE ENERGY PREDICTED BY IDOCK:   -0.54 KCAL/MOL
REMARK 927      BINDING AFFINITY PREDICTED BY RF-SCORE:    0.00 PKD
ROOT
HETATM    1  C   UNL     1     -12.468   6.890  71.605  1.00  0.00    -0.418 C  
HETATM    2  C   UNL     1     -11.434   7.440  70.619  1.00  0.00    -0.282 C  
HETATM    3  C   UNL     1     -11.262   8.944  70.855  1.00  0.00    -0.334 C  
ENDROOT
BRANCH   2   4
HETATM    4  N   UNL     1     -10.131   6.829  70.848  1.00  0.00    -0.190 NA 
HETATM    5  H   UNL     1      -9.563   7.238  71.590  1.00  0.00     0.000 HD 
BRANCH   4   6
HETATM    6  C   UNL     1      -9.575   5.748  70.164  1.00  0.00    -0.166 A  
HETATM    7  C   UNL     1      -8.547   5.737  69.181  1.00  0.00    -0.110 A  
HETATM    8  N   UNL     1      -8.094   4.567  68.643  1.00  0.00    -0.081 NA 
HETATM    9  C   UNL     1     -10.095   4.484  70.528  1.00  0.00    -0.233 A  
HETATM   10  C   UNL     1      -9.641   3.303  69.952  1.00  0.00    -0.172 A  
HETATM   11  C   UNL     1      -8.637   3.397  69.023  1.00  0.00    -0.079 A  
BRANCH   7  12
HETATM   12  N   UNL     1      -7.964   6.919  68.659  1.00  0.00    -0.118 NA 
HETATM   13  C   UNL     1      -7.130   7.584  69.697  1.00  0.00    -0.064 C  
HETATM   14  N   UNL     1      -7.295   9.727  68.482  1.00  0.00    -0.074 N  
HETATM   15  C   UNL     1      -6.368   8.746  69.057  1.00  0.00    -0.044 C  
HETATM   16  C   UNL     1      -8.270   9.137  67.545  1.00  0.00    -0.108 C  
HETATM   17  C   UNL     1      -7.351  10.986  69.072  1.00  0.00    -0.123 C  
HETATM   18  O   UNL     1      -6.804  11.193  70.158  1.00  0.00    -0.159 OA 
HETATM   19  C   UNL     1      -8.975   7.866  68.124  1.00  0.00    -0.131 C  
BRANCH  17  20
HETATM   20  C   UNL     1      -8.005  12.093  68.402  1.00  0.00    -0.152 A  
HETATM   21  C   UNL     1      -7.560  13.130  67.605  1.00  0.00    -0.171 A  
HETATM   22  C   UNL     1      -8.641  14.031  67.379  1.00  0.00    -0.211 A  
HETATM   23  C   UNL     1      -9.745  13.525  68.059  1.00  0.00    -0.228 A  
HETATM   24  N   UNL     1      -9.341  12.350  68.645  1.00  0.00    -0.399 NA 
HETATM   25  C   UNL     1     -10.979  14.183  68.102  1.00  0.00    -0.264 A  
HETATM   26  C   UNL     1     -11.091  15.396  67.413  1.00  0.00    -0.311 A  
HETATM   27  H   UNL     1      -9.951  11.744  69.192  1.00  0.00     0.000 HD 
HETATM   28  C   UNL     1     -10.013  15.908  66.696  1.00  0.00    -0.257 A  
HETATM   29  C   UNL     1      -8.775  15.252  66.686  1.00  0.00    -0.327 A  
BRANCH  28  30
HETATM   30  N   UNL     1     -10.178  17.123  65.965  1.00  0.00    -0.342 N  
HETATM   31  H   UNL     1     -10.770  17.161  65.136  1.00  0.00     0.000 HD 
BRANCH  30  32
HETATM   32  S   UNL     1      -9.359  18.497  66.515  1.00  0.00    -0.298 S  
HETATM   33  O   UNL     1      -9.336  18.531  67.955  1.00  0.00    -0.286 OA 
HETATM   34  O   UNL     1      -8.135  18.541  65.739  1.00  0.00    -0.490 OA 
HETATM   35  C   UNL     1     -10.417  19.791  65.910  1.00  0.00    -0.486 C  
ENDBRANCH  30  32
ENDBRANCH  28  30
ENDBRANCH  17  20
ENDBRANCH   7  12
ENDBRANCH   4   6
ENDBRANCH   2   4
TORSDOF 6
ENDMDL
MODEL       67
REMARK 921   NORMALIZED FREE ENERGY PREDICTED BY IDOCK:   -5.27 KCAL/MOL
REMARK 922        TOTAL FREE ENERGY PREDICTED BY IDOCK:   -7.60 KCAL/MOL
REMARK 923 INTER-LIGAND FREE ENERGY PREDICTED BY IDOCK:   -7.26 KCAL/MOL
REMARK 924 INTRA-LIGAND FREE ENERGY PREDICTED BY IDOCK:   -0.34 KCAL/MOL
REMARK 927      BINDING AFFINITY PREDICTED BY RF-SCORE:    0.00 PKD
ROOT
HETATM    1  C   UNL     1     -10.593  20.331  68.005  1.00  0.00    -0.208 C  
HETATM    2  C   UNL     1      -9.985  18.967  68.341  1.00  0.00    -0.408 C  
HETATM    3  C   UNL     1     -10.327  17.974  67.225  1.00  0.00    -0.387 C  
ENDROOT
BRANCH   2   4
HETATM    4  N   UNL     1      -8.531  19.051  68.394  1.00  0.00    -0.336 NA 
HETATM    5  H   UNL     1      -8.125  19.310  69.293  1.00  0.00     0.000 HD 
BRANCH   4   6
HETATM    6  C   UNL     1      -7.634  18.818  67.351  1.00  0.00    -0.227 A  
HETATM    7  C   UNL     1      -6.807  17.687  67.112  1.00  0.00    -0.165 A  
HETATM    8  N   UNL     1      -6.013  17.612  66.003  1.00  0.00    -0.204 NA 
HETATM    9  C   UNL     1      -7.567  19.848  66.384  1.00  0.00    -0.313 A  
HETATM   10  C   UNL     1      -6.735  19.769  65.274  1.00  0.00    -0.317 A  
HETATM   11  C   UNL     1      -5.986  18.631  65.126  1.00  0.00    -0.259 A  
BRANCH   7  12
HETATM   12  N   UNL     1      -6.707  16.598  68.013  1.00  0.00    -0.139 NA 
HETATM   13  C   UNL     1      -5.511  15.772  67.692  1.00  0.00    -0.105 C  
HETATM   14  N   UNL     1      -6.497  13.847  68.883  1.00  0.00    -0.092 N  
HETATM   15  C   UNL     1      -5.321  14.720  68.786  1.00  0.00    -0.089 C  
HETATM   16  C   UNL     1      -7.764  14.584  69.053  1.00  0.00    -0.113 C  
HETATM   17  C   UNL     1      -6.342  12.512  68.524  1.00  0.00    -0.069 C  
HETATM   18  O   UNL     1      -5.319  12.133  67.949  1.00  0.00    -0.052 OA 
HETATM   19  C   UNL     1      -7.928  15.753  68.027  1.00  0.00    -0.136 C  
BRANCH  17  20
HETATM   20  C   UNL     1      -7.351  11.528  68.865  1.00  0.00    -0.116 A  
HETATM   21  C   UNL     1      -8.674  11.349  68.509  1.00  0.00    -0.149 A  
HETATM   22  C   UNL     1      -9.225  10.303  69.306  1.00  0.00    -0.215 A  
HETATM   23  C   UNL     1      -8.214   9.859  70.155  1.00  0.00    -0.136 A  
HETATM   24  N   UNL     1      -7.095  10.596  69.853  1.00  0.00    -0.237 NA 
HETATM   25  C   UNL     1      -8.414   8.867  71.121  1.00  0.00    -0.250 A  
HETATM   26  C   UNL     1      -9.690   8.299  71.212  1.00  0.00    -0.225 A  
HETATM   27  H   UNL     1      -6.189  10.471  70.302  1.00  0.00     0.000 HD 
HETATM   28  C   UNL     1     -10.709   8.699  70.352  1.00  0.00    -0.224 A  
HETATM   29  C   UNL     1     -10.502   9.714  69.409  1.00  0.00    -0.236 A  
BRANCH  28  30
HETATM   30  N   UNL     1     -11.984   8.063  70.441  1.00  0.00    -0.468 N  
HETATM   31  H   UNL     1     -12.239   7.306  69.807  1.00  0.00     0.000 HD 
BRANCH  30  32
HETATM   32  S   UNL     1     -13.058   8.604  71.631  1.00  0.00    -0.338 S  
HETATM   33  O   UNL     1     -12.466   8.491  72.939  1.00  0.00    -0.276 OA 
HETATM   34  O   UNL     1     -13.561   9.870  71.136  1.00  0.00    -0.330 OA 
HETATM   35  C   UNL     1     -14.371   7.414  71.472  1.00  0.00    -0.440 C  
ENDBRANCH  30  32
ENDBRANCH  28  30
ENDBRANCH  17  20
ENDBRANCH   7  12
ENDBRANCH   4   6
ENDBRANCH   2   4
TORSDOF 6
ENDMDL
MODEL       68
REMARK 921   NORMALIZED FREE ENERGY PREDICTED BY IDOCK:   -5.25 KCAL/MOL
REMARK 922        TOTAL FREE ENERGY PREDICTED BY IDOCK:   -7.57 KCAL/MOL
REMARK 923 INTER-LIGAND FREE ENERGY PREDICTED BY IDOCK:   -8.10 KCAL/MOL
REMARK 924 INTRA-LIGAND FREE ENERGY PREDICTED BY IDOCK:    0.53 KCAL/MOL
REMARK 927      BINDING AFFINITY PREDICTED BY RF-SCORE:    0.00 PKD
ROOT
HETATM    1  C   UNL     1      -9.966  19.934  65.717  1.00  0.00    -0.394 C  
HETATM    2  C   UNL     1      -9.308  19.794  67.091  1.00  0.00    -0.351 C  
HETATM    3  C   UNL     1     -10.343  19.279  68.097  1.00  0.00    -0.496 C  
ENDROOT
BRANCH   2   4
HETATM    4  N   UNL     1      -8.238  18.806  67.050  1.00  0.00    -0.258 NA 
HETATM    5  H   UNL     1      -8.060  18.368  66.147  1.00  0.00     0.000 HD 
BRANCH   4   6
HETATM    6  C   UNL     1      -7.430  18.393  68.110  1.00  0.00    -0.267 A  
HETATM    7  C   UNL     1      -7.165  17.078  68.581  1.00  0.00    -0.221 A  
HETATM    8  N   UNL     1      -6.305  16.856  69.618  1.00  0.00    -0.230 NA 
HETATM    9  C   UNL     1      -6.763  19.439  68.790  1.00  0.00    -0.338 A  
HETATM   10  C   UNL     1      -5.910  19.200  69.862  1.00  0.00    -0.278 A  
HETATM   11  C   UNL     1      -5.709  17.895  70.231  1.00  0.00    -0.198 A  
BRANCH   7  12
HETATM   12  N   UNL     1      -7.800  15.926  68.054  1.00  0.00    -0.134 NA 
HETATM   13  C   UNL     1      -9.263  16.160  67.918  1.00  0.00    -0.200 C  
HETATM   14  N   UNL     1      -9.672  13.725  67.906  1.00  0.00    -0.222 N  
HETATM   15  C   UNL     1      -9.893  14.979  67.177  1.00  0.00    -0.233 C  
HETATM   16  C   UNL     1      -8.253  13.472  68.225  1.00  0.00    -0.157 C  
HETATM   17  C   UNL     1     -10.783  13.092  68.455  1.00  0.00    -0.253 C  
HETATM   18  O   UNL     1     -11.871  13.671  68.507  1.00  0.00    -0.336 OA 
HETATM   19  C   UNL     1      -7.545  14.710  68.867  1.00  0.00    -0.139 C  
BRANCH  17  20
HETATM   20  C   UNL     1     -10.701  11.723  68.926  1.00  0.00    -0.205 A  
HETATM   21  C   UNL     1     -10.572  10.499  68.298  1.00  0.00    -0.240 A  
HETATM   22  C   UNL     1     -10.733   9.468  69.269  1.00  0.00    -0.240 A  
HETATM   23  C   UNL     1     -10.969  10.089  70.492  1.00  0.00    -0.326 A  
HETATM   24  N   UNL     1     -10.922  11.442  70.261  1.00  0.00    -0.323 NA 
HETATM   25  C   UNL     1     -11.228   9.378  71.670  1.00  0.00    -0.431 A  
HETATM   26  C   UNL     1     -11.230   7.980  71.594  1.00  0.00    -0.301 A  
HETATM   27  H   UNL     1     -11.037  12.151  70.984  1.00  0.00     0.000 HD 
HETATM   28  C   UNL     1     -10.962   7.333  70.392  1.00  0.00    -0.252 A  
HETATM   29  C   UNL     1     -10.735   8.058  69.215  1.00  0.00    -0.140 A  
BRANCH  28  30
HETATM   30  N   UNL     1     -10.925   5.906  70.364  1.00  0.00    -0.314 N  
HETATM   31  H   UNL     1     -11.775   5.356  70.492  1.00  0.00     0.000 HD 
BRANCH  30  32
HETATM   32  S   UNL     1      -9.430   5.156  70.112  1.00  0.00    -0.182 S  
HETATM   33  O   UNL     1      -8.645   5.171  71.320  1.00  0.00    -0.123 OA 
HETATM   34  O   UNL     1      -9.742   3.915  69.430  1.00  0.00    -0.192 OA 
HETATM   35  C   UNL     1      -8.696   6.249  68.916  1.00  0.00    -0.125 C  
ENDBRANCH  30  32
ENDBRANCH  28  30
ENDBRANCH  17  20
ENDBRANCH   7  12
ENDBRANCH   4   6
ENDBRANCH   2   4
TORSDOF 6
ENDMDL
MODEL       69
REMARK 921   NORMALIZED FREE ENERGY PREDICTED BY IDOCK:   -5.24 KCAL/MOL
REMARK 922        TOTAL FREE ENERGY PREDICTED BY IDOCK:   -7.56 KCAL/MOL
REMARK 923 INTER-LIGAND FREE ENERGY PREDICTED BY IDOCK:   -7.05 KCAL/MOL
REMARK 924 INTRA-LIGAND FREE ENERGY PREDICTED BY IDOCK:   -0.51 KCAL/MOL
REMARK 927      BINDING AFFINITY PREDICTED BY RF-SCORE:    0.00 PKD
ROOT
HETATM    1  C   UNL     1     -10.616  19.524  66.716  1.00  0.00    -0.597 C  
HETATM    2  C   UNL     1     -10.047  19.652  68.132  1.00  0.00    -0.441 C  
HETATM    3  C   UNL     1     -10.306  18.351  68.899  1.00  0.00    -0.168 C  
ENDROOT
BRANCH   2   4
HETATM    4  N   UNL     1      -8.602  19.831  68.090  1.00  0.00    -0.312 NA 
HETATM    5  H   UNL     1      -8.189  20.365  68.855  1.00  0.00     0.000 HD 
BRANCH   4   6
HETATM    6  C   UNL     1      -7.720  19.355  67.120  1.00  0.00    -0.247 A  
HETATM    7  C   UNL     1      -7.270  18.026  66.887  1.00  0.00    -0.198 A  
HETATM    8  N   UNL     1      -6.429  17.734  65.852  1.00  0.00    -0.245 NA 
HETATM    9  C   UNL     1      -7.232  20.337  66.227  1.00  0.00    -0.302 A  
HETATM   10  C   UNL     1      -6.355  20.029  65.194  1.00  0.00    -0.312 A  
HETATM   11  C   UNL     1      -5.991  18.716  65.044  1.00  0.00    -0.251 A  
BRANCH   7  12
HETATM   12  N   UNL     1      -7.612  16.936  67.726  1.00  0.00    -0.166 NA 
HETATM   13  C   UNL     1      -6.426  16.496  68.508  1.00  0.00    -0.137 C  
HETATM   14  N   UNL     1      -7.463  14.286  68.874  1.00  0.00    -0.126 N  
HETATM   15  C   UNL     1      -6.863  15.450  69.536  1.00  0.00    -0.181 C  
HETATM   16  C   UNL     1      -8.562  14.633  67.952  1.00  0.00    -0.165 C  
HETATM   17  C   UNL     1      -6.778  13.076  68.949  1.00  0.00    -0.096 C  
HETATM   18  O   UNL     1      -5.619  13.038  69.368  1.00  0.00    -0.076 OA 
HETATM   19  C   UNL     1      -8.187  15.793  66.972  1.00  0.00    -0.228 C  
BRANCH  17  20
HETATM   20  C   UNL     1      -7.428  11.831  68.588  1.00  0.00    -0.120 A  
HETATM   21  C   UNL     1      -7.538  11.111  67.414  1.00  0.00    -0.113 A  
HETATM   22  C   UNL     1      -8.461  10.044  67.616  1.00  0.00    -0.114 A  
HETATM   23  C   UNL     1      -8.911  10.134  68.930  1.00  0.00    -0.155 A  
HETATM   24  N   UNL     1      -8.258  11.202  69.496  1.00  0.00    -0.345 NA 
HETATM   25  C   UNL     1      -9.875   9.272  69.465  1.00  0.00    -0.188 A  
HETATM   26  C   UNL     1     -10.385   8.272  68.628  1.00  0.00    -0.225 A  
HETATM   27  H   UNL     1      -8.373  11.494  70.466  1.00  0.00     0.000 HD 
HETATM   28  C   UNL     1      -9.926   8.137  67.321  1.00  0.00    -0.218 A  
HETATM   29  C   UNL     1      -8.983   9.026  66.791  1.00  0.00    -0.160 A  
BRANCH  28  30
HETATM   30  N   UNL     1     -10.433   7.075  66.513  1.00  0.00    -0.506 N  
HETATM   31  H   UNL     1     -11.339   7.154  66.050  1.00  0.00     0.000 HD 
BRANCH  30  32
HETATM   32  S   UNL     1      -9.487   5.683  66.347  1.00  0.00    -0.155 S  
HETATM   33  O   UNL     1     -10.314   4.504  66.345  1.00  0.00    -0.253 OA 
HETATM   34  O   UNL     1      -8.582   5.972  65.251  1.00  0.00    -0.151 OA 
HETATM   35  C   UNL     1      -8.535   5.735  67.848  1.00  0.00    -0.103 C  
ENDBRANCH  30  32
ENDBRANCH  28  30
ENDBRANCH  17  20
ENDBRANCH   7  12
ENDBRANCH   4   6
ENDBRANCH   2   4
TORSDOF 6
ENDMDL
MODEL       70
REMARK 921   NORMALIZED FREE ENERGY PREDICTED BY IDOCK:   -5.22 KCAL/MOL
REMARK 922        TOTAL FREE ENERGY PREDICTED BY IDOCK:   -7.54 KCAL/MOL
REMARK 923 INTER-LIGAND FREE ENERGY PREDICTED BY IDOCK:   -6.92 KCAL/MOL
REMARK 924 INTRA-LIGAND FREE ENERGY PREDICTED BY IDOCK:   -0.62 KCAL/MOL
REMARK 927      BINDING AFFINITY PREDICTED BY RF-SCORE:    0.00 PKD
ROOT
HETATM    1  C   UNL     1      -9.707  16.824  67.091  1.00  0.00    -0.251 C  
HETATM    2  C   UNL     1      -8.856  15.800  66.337  1.00  0.00    -0.336 C  
HETATM    3  C   UNL     1      -7.456  15.752  66.958  1.00  0.00    -0.242 C  
ENDROOT
BRANCH   2   4
HETATM    4  N   UNL     1      -9.419  14.463  66.474  1.00  0.00    -0.281 NA 
HETATM    5  H   UNL     1      -9.165  13.948  67.316  1.00  0.00     0.000 HD 
BRANCH   4   6
HETATM    6  C   UNL     1     -10.267  13.810  65.579  1.00  0.00    -0.316 A  
HETATM    7  C   UNL     1     -10.410  12.417  65.327  1.00  0.00    -0.282 A  
HETATM    8  N   UNL     1     -11.332  11.950  64.435  1.00  0.00    -0.332 NA 
HETATM    9  C   UNL     1     -11.122  14.662  64.841  1.00  0.00    -0.409 A  
HETATM   10  C   UNL     1     -12.037  14.173  63.917  1.00  0.00    -0.301 A  
HETATM   11  C   UNL     1     -12.109  12.813  63.756  1.00  0.00    -0.517 A  
BRANCH   7  12
HETATM   12  N   UNL     1      -9.589  11.434  65.933  1.00  0.00    -0.220 NA 
HETATM   13  C   UNL     1      -9.451  10.255  65.036  1.00  0.00    -0.257 C  
HETATM   14  N   UNL     1      -8.824   8.841  66.961  1.00  0.00    -0.126 N  
HETATM   15  C   UNL     1      -8.416   9.295  65.627  1.00  0.00    -0.139 C  
HETATM   16  C   UNL     1      -9.133   9.945  67.890  1.00  0.00    -0.131 C  
HETATM   17  C   UNL     1      -9.151   7.497  67.114  1.00  0.00    -0.127 C  
HETATM   18  O   UNL     1      -9.296   6.771  66.127  1.00  0.00    -0.144 OA 
HETATM   19  C   UNL     1     -10.090  11.013  67.266  1.00  0.00    -0.189 C  
BRANCH  17  20
HETATM   20  C   UNL     1      -9.275   6.907  68.433  1.00  0.00    -0.124 A  
HETATM   21  C   UNL     1      -8.532   5.985  69.145  1.00  0.00    -0.114 A  
HETATM   22  C   UNL     1      -9.242   5.645  70.333  1.00  0.00    -0.179 A  
HETATM   23  C   UNL     1     -10.429   6.371  70.324  1.00  0.00    -0.219 A  
HETATM   24  N   UNL     1     -10.413   7.137  69.183  1.00  0.00    -0.207 NA 
HETATM   25  C   UNL     1     -11.405   6.247  71.319  1.00  0.00    -0.356 A  
HETATM   26  C   UNL     1     -11.149   5.358  72.369  1.00  0.00    -0.289 A  
HETATM   27  H   UNL     1     -11.148   7.792  68.923  1.00  0.00     0.000 HD 
HETATM   28  C   UNL     1      -9.955   4.646  72.422  1.00  0.00    -0.173 A  
HETATM   29  C   UNL     1      -9.000   4.758  71.403  1.00  0.00    -0.164 A  
BRANCH  28  30
HETATM   30  N   UNL     1      -9.707   3.784  73.534  1.00  0.00    -0.106 N  
HETATM   31  H   UNL     1      -9.512   4.165  74.460  1.00  0.00     0.000 HD 
BRANCH  30  32
HETATM   32  S   UNL     1      -9.748   2.115  73.267  1.00  0.00    -0.090 S  
HETATM   33  O   UNL     1     -10.311   1.820  71.975  1.00  0.00    -0.162 OA 
HETATM   34  O   UNL     1      -8.429   1.642  73.641  1.00  0.00    -0.052 OA 
HETATM   35  C   UNL     1     -10.877   1.593  74.538  1.00  0.00    -0.082 C  
ENDBRANCH  30  32
ENDBRANCH  28  30
ENDBRANCH  17  20
ENDBRANCH   7  12
ENDBRANCH   4   6
ENDBRANCH   2   4
TORSDOF 6
ENDMDL
MODEL       71
REMARK 921   NORMALIZED FREE ENERGY PREDICTED BY IDOCK:   -5.18 KCAL/MOL
REMARK 922        TOTAL FREE ENERGY PREDICTED BY IDOCK:   -7.48 KCAL/MOL
REMARK 923 INTER-LIGAND FREE ENERGY PREDICTED BY IDOCK:   -7.11 KCAL/MOL
REMARK 924 INTRA-LIGAND FREE ENERGY PREDICTED BY IDOCK:   -0.37 KCAL/MOL
REMARK 927      BINDING AFFINITY PREDICTED BY RF-SCORE:    0.00 PKD
ROOT
HETATM    1  C   UNL     1     -11.964  14.193  68.552  1.00  0.00    -0.367 C  
HETATM    2  C   UNL     1     -12.022  15.682  68.902  1.00  0.00    -0.279 C  
HETATM    3  C   UNL     1     -12.250  15.837  70.409  1.00  0.00    -0.388 C  
ENDROOT
BRANCH   2   4
HETATM    4  N   UNL     1     -10.752  16.330  68.603  1.00  0.00    -0.290 NA 
HETATM    5  H   UNL     1      -9.915  15.885  68.981  1.00  0.00     0.000 HD 
BRANCH   4   6
HETATM    6  C   UNL     1     -10.553  17.492  67.856  1.00  0.00    -0.390 A  
HETATM    7  C   UNL     1     -10.505  17.657  66.445  1.00  0.00    -0.286 A  
HETATM    8  N   UNL     1     -10.342  18.891  65.881  1.00  0.00    -0.565 NA 
HETATM    9  C   UNL     1     -10.407  18.672  68.622  1.00  0.00    -0.256 A  
HETATM   10  C   UNL     1     -10.216  19.917  68.035  1.00  0.00    -0.572 A  
HETATM   11  C   UNL     1     -10.198  19.974  66.665  1.00  0.00    -0.471 A  
BRANCH   7  12
HETATM   12  N   UNL     1     -10.571  16.572  65.536  1.00  0.00    -0.497 NA 
HETATM   13  C   UNL     1     -11.944  15.999  65.516  1.00  0.00     1.016 C  
HETATM   14  N   UNL     1     -11.066  13.877  64.608  1.00  0.00    -0.378 N  
HETATM   15  C   UNL     1     -12.036  14.958  64.398  1.00  0.00    -0.394 C  
HETATM   16  C   UNL     1      -9.681  14.355  64.792  1.00  0.00     0.523 C  
HETATM   17  C   UNL     1     -11.563  12.610  64.897  1.00  0.00    -0.334 C  
HETATM   18  O   UNL     1     -12.755  12.453  65.173  1.00  0.00    -0.630 OA 
HETATM   19  C   UNL     1      -9.574  15.513  65.839  1.00  0.00    -0.348 C  
BRANCH  17  20
HETATM   20  C   UNL     1     -10.707  11.441  64.826  1.00  0.00    -0.298 A  
HETATM   21  C   UNL     1     -10.460  10.380  65.676  1.00  0.00    -0.185 A  
HETATM   22  C   UNL     1      -9.373   9.620  65.155  1.00  0.00    -0.322 A  
HETATM   23  C   UNL     1      -8.963  10.243  63.979  1.00  0.00    -0.237 A  
HETATM   24  N   UNL     1      -9.795  11.320  63.795  1.00  0.00    -0.290 NA 
HETATM   25  C   UNL     1      -7.874   9.797  63.221  1.00  0.00    -0.139 A  
HETATM   26  C   UNL     1      -7.191   8.663  63.675  1.00  0.00    -0.094 A  
HETATM   27  H   UNL     1      -9.745  11.952  62.996  1.00  0.00     0.000 HD 
HETATM   28  C   UNL     1      -7.602   7.999  64.828  1.00  0.00    -0.105 A  
HETATM   29  C   UNL     1      -8.675   8.476  65.592  1.00  0.00    -0.213 A  
BRANCH  28  30
HETATM   30  N   UNL     1      -6.911   6.818  65.234  1.00  0.00    -0.050 N  
HETATM   31  H   UNL     1      -6.144   6.862  65.905  1.00  0.00     0.000 HD 
BRANCH  30  32
HETATM   32  S   UNL     1      -7.402   5.343  64.567  1.00  0.00    -0.066 S  
HETATM   33  O   UNL     1      -8.837   5.227  64.592  1.00  0.00    -0.130 OA 
HETATM   34  O   UNL     1      -6.657   5.223  63.329  1.00  0.00    -0.025 OA 
HETATM   35  C   UNL     1      -6.695   4.192  65.724  1.00  0.00    -0.048 C  
ENDBRANCH  30  32
ENDBRANCH  28  30
ENDBRANCH  17  20
ENDBRANCH   7  12
ENDBRANCH   4   6
ENDBRANCH   2   4
TORSDOF 6
ENDMDL
MODEL       72
REMARK 921   NORMALIZED FREE ENERGY PREDICTED BY IDOCK:   -5.16 KCAL/MOL
REMARK 922        TOTAL FREE ENERGY PREDICTED BY IDOCK:   -7.45 KCAL/MOL
REMARK 923 INTER-LIGAND FREE ENERGY PREDICTED BY IDOCK:   -6.92 KCAL/MOL
REMARK 924 INTRA-LIGAND FREE ENERGY PREDICTED BY IDOCK:   -0.53 KCAL/MOL
REMARK 927      BINDING AFFINITY PREDICTED BY RF-SCORE:    0.00 PKD
ROOT
HETATM    1  C   UNL     1      -9.682   4.312  69.846  1.00  0.00    -0.291 C  
HETATM    2  C   UNL     1      -8.596   5.172  70.497  1.00  0.00    -0.118 C  
HETATM    3  C   UNL     1      -7.765   4.304  71.446  1.00  0.00    -0.072 C  
ENDROOT
BRANCH   2   4
HETATM    4  N   UNL     1      -7.677   5.688  69.490  1.00  0.00    -0.089 NA 
HETATM    5  H   UNL     1      -6.734   5.908  69.808  1.00  0.00     0.000 HD 
BRANCH   4   6
HETATM    6  C   UNL     1      -7.947   5.914  68.140  1.00  0.00    -0.109 A  
HETATM    7  C   UNL     1      -8.405   7.099  67.500  1.00  0.00    -0.116 A  
HETATM    8  N   UNL     1      -8.576   7.151  66.146  1.00  0.00    -0.141 NA 
HETATM    9  C   UNL     1      -7.698   4.810  67.292  1.00  0.00    -0.091 A  
HETATM   10  C   UNL     1      -7.901   4.871  65.918  1.00  0.00    -0.095 A  
HETATM   11  C   UNL     1      -8.332   6.063  65.395  1.00  0.00    -0.150 A  
BRANCH   7  12
HETATM   12  N   UNL     1      -8.761   8.272  68.209  1.00  0.00    -0.136 NA 
HETATM   13  C   UNL     1     -10.200   8.230  68.586  1.00  0.00    -0.204 C  
HETATM   14  N   UNL     1     -10.227  10.686  68.837  1.00  0.00    -0.191 N  
HETATM   15  C   UNL     1     -10.512   9.411  69.506  1.00  0.00    -0.218 C  
HETATM   16  C   UNL     1      -8.859  10.770  68.290  1.00  0.00    -0.139 C  
HETATM   17  C   UNL     1     -11.304  11.515  68.539  1.00  0.00    -0.277 C  
HETATM   18  O   UNL     1     -12.461  11.099  68.641  1.00  0.00    -0.463 OA 
HETATM   19  C   UNL     1      -8.463   9.512  67.449  1.00  0.00    -0.125 C  
BRANCH  17  20
HETATM   20  C   UNL     1     -11.095  12.898  68.157  1.00  0.00    -0.253 A  
HETATM   21  C   UNL     1     -10.488  13.513  67.078  1.00  0.00    -0.265 A  
HETATM   22  C   UNL     1     -10.421  14.915  67.330  1.00  0.00    -0.255 A  
HETATM   23  C   UNL     1     -10.991  15.135  68.581  1.00  0.00    -0.255 A  
HETATM   24  N   UNL     1     -11.407  13.910  69.044  1.00  0.00    -0.267 NA 
HETATM   25  C   UNL     1     -11.049  16.399  69.179  1.00  0.00    -0.303 A  
HETATM   26  C   UNL     1     -10.517  17.478  68.464  1.00  0.00    -0.361 A  
HETATM   27  H   UNL     1     -11.886  13.767  69.932  1.00  0.00     0.000 HD 
HETATM   28  C   UNL     1      -9.973  17.292  67.196  1.00  0.00    -0.282 A  
HETATM   29  C   UNL     1      -9.896  16.016  66.623  1.00  0.00    -0.273 A  
BRANCH  28  30
HETATM   30  N   UNL     1      -9.485  18.424  66.476  1.00  0.00    -0.312 N  
HETATM   31  H   UNL     1      -9.943  18.741  65.622  1.00  0.00     0.000 HD 
BRANCH  30  32
HETATM   32  S   UNL     1      -8.123  19.222  67.083  1.00  0.00    -0.273 S  
HETATM   33  O   UNL     1      -8.455  20.568  67.475  1.00  0.00    -0.319 OA 
HETATM   34  O   UNL     1      -7.525  18.289  68.018  1.00  0.00    -0.230 OA 
HETATM   35  C   UNL     1      -7.082  19.266  65.642  1.00  0.00    -0.249 C  
ENDBRANCH  30  32
ENDBRANCH  28  30
ENDBRANCH  17  20
ENDBRANCH   7  12
ENDBRANCH   4   6
ENDBRANCH   2   4
TORSDOF 6
ENDMDL
MODEL       73
REMARK 921   NORMALIZED FREE ENERGY PREDICTED BY IDOCK:   -5.07 KCAL/MOL
REMARK 922        TOTAL FREE ENERGY PREDICTED BY IDOCK:   -7.32 KCAL/MOL
REMARK 923 INTER-LIGAND FREE ENERGY PREDICTED BY IDOCK:   -7.14 KCAL/MOL
REMARK 924 INTRA-LIGAND FREE ENERGY PREDICTED BY IDOCK:   -0.19 KCAL/MOL
REMARK 927      BINDING AFFINITY PREDICTED BY RF-SCORE:    0.00 PKD
ROOT
HETATM    1  C   UNL     1     -11.466  15.339  66.861  1.00  0.00    -0.143 C  
HETATM    2  C   UNL     1     -10.643  15.467  65.576  1.00  0.00    -0.396 C  
HETATM    3  C   UNL     1     -11.559  15.913  64.432  1.00  0.00    -0.234 C  
ENDROOT
BRANCH   2   4
HETATM    4  N   UNL     1      -9.622  16.497  65.720  1.00  0.00    -0.518 NA 
HETATM    5  H   UNL     1      -8.806  16.414  65.116  1.00  0.00     0.000 HD 
BRANCH   4   6
HETATM    6  C   UNL     1      -9.640  17.585  66.594  1.00  0.00    -0.282 A  
HETATM    7  C   UNL     1      -8.944  17.764  67.821  1.00  0.00    -0.249 A  
HETATM    8  N   UNL     1      -9.050  18.926  68.532  1.00  0.00    -0.341 NA 
HETATM    9  C   UNL     1     -10.445  18.670  66.176  1.00  0.00    -0.473 A  
HETATM   10  C   UNL     1     -10.563  19.836  66.923  1.00  0.00    -0.588 A  
HETATM   11  C   UNL     1      -9.841  19.917  68.086  1.00  0.00    -0.405 A  
BRANCH   7  12
HETATM   12  N   UNL     1      -8.147  16.753  68.413  1.00  0.00    -0.209 NA 
HETATM   13  C   UNL     1      -7.087  16.312  67.467  1.00  0.00    -0.151 C  
HETATM   14  N   UNL     1      -6.847  14.185  68.696  1.00  0.00    -0.093 N  
HETATM   15  C   UNL     1      -6.132  15.363  68.192  1.00  0.00    -0.129 C  
HETATM   16  C   UNL     1      -8.017  14.519  69.532  1.00  0.00     0.139 C  
HETATM   17  C   UNL     1      -6.547  12.952  68.124  1.00  0.00    -0.093 C  
HETATM   18  O   UNL     1      -5.870  12.888  67.096  1.00  0.00    -0.339 OA 
HETATM   19  C   UNL     1      -8.948  15.589  68.871  1.00  0.00    -0.220 C  
BRANCH  17  20
HETATM   20  C   UNL     1      -6.978  11.717  68.750  1.00  0.00    -0.098 A  
HETATM   21  C   UNL     1      -8.121  10.946  68.666  1.00  0.00    -0.143 A  
HETATM   22  C   UNL     1      -8.061   9.927  69.660  1.00  0.00    -0.171 A  
HETATM   23  C   UNL     1      -6.864  10.099  70.352  1.00  0.00    -0.124 A  
HETATM   24  N   UNL     1      -6.224  11.166  69.770  1.00  0.00    -0.103 NA 
HETATM   25  C   UNL     1      -6.493   9.303  71.441  1.00  0.00    -0.039 A  
HETATM   26  C   UNL     1      -7.372   8.284  71.827  1.00  0.00    -0.105 A  
HETATM   27  H   UNL     1      -5.308  11.510  70.055  1.00  0.00     0.000 HD 
HETATM   28  C   UNL     1      -8.558   8.067  71.131  1.00  0.00    -0.131 A  
HETATM   29  C   UNL     1      -8.930   8.892  70.061  1.00  0.00    -0.172 A  
BRANCH  28  30
HETATM   30  N   UNL     1      -9.407   6.988  71.523  1.00  0.00    -0.154 N  
HETATM   31  H   UNL     1      -9.369   6.089  71.043  1.00  0.00     0.000 HD 
BRANCH  30  32
HETATM   32  S   UNL     1     -10.477   7.246  72.806  1.00  0.00    -0.291 S  
HETATM   33  O   UNL     1      -9.765   7.309  74.057  1.00  0.00    -0.280 OA 
HETATM   34  O   UNL     1     -11.333   8.332  72.370  1.00  0.00    -0.347 OA 
HETATM   35  C   UNL     1     -11.445   5.755  72.751  1.00  0.00    -0.255 C  
ENDBRANCH  30  32
ENDBRANCH  28  30
ENDBRANCH  17  20
ENDBRANCH   7  12
ENDBRANCH   4   6
ENDBRANCH   2   4
TORSDOF 6
ENDMDL
MODEL       74
REMARK 921   NORMALIZED FREE ENERGY PREDICTED BY IDOCK:   -5.03 KCAL/MOL
REMARK 922        TOTAL FREE ENERGY PREDICTED BY IDOCK:   -7.27 KCAL/MOL
REMARK 923 INTER-LIGAND FREE ENERGY PREDICTED BY IDOCK:   -7.75 KCAL/MOL
REMARK 924 INTRA-LIGAND FREE ENERGY PREDICTED BY IDOCK:    0.48 KCAL/MOL
REMARK 927      BINDING AFFINITY PREDICTED BY RF-SCORE:    0.00 PKD
ROOT
HETATM    1  C   UNL     1      -7.341  15.071  69.806  1.00  0.00    -0.132 C  
HETATM    2  C   UNL     1      -8.540  15.228  68.868  1.00  0.00    -0.207 C  
HETATM    3  C   UNL     1      -9.618  16.067  69.562  1.00  0.00    -0.200 C  
ENDROOT
BRANCH   2   4
HETATM    4  N   UNL     1      -8.158  15.954  67.663  1.00  0.00    -0.139 NA 
HETATM    5  H   UNL     1      -7.223  15.770  67.300  1.00  0.00     0.000 HD 
BRANCH   4   6
HETATM    6  C   UNL     1      -8.930  16.874  66.952  1.00  0.00    -0.224 A  
HETATM    7  C   UNL     1     -10.090  16.653  66.160  1.00  0.00    -0.345 A  
HETATM    8  N   UNL     1     -10.749  17.690  65.564  1.00  0.00    -0.544 NA 
HETATM    9  C   UNL     1      -8.506  18.218  67.065  1.00  0.00    -0.256 A  
HETATM   10  C   UNL     1      -9.171  19.260  66.431  1.00  0.00    -0.386 A  
HETATM   11  C   UNL     1     -10.288  18.946  65.701  1.00  0.00    -0.067 A  
BRANCH   7  12
HETATM   12  N   UNL     1     -10.609  15.362  65.893  1.00  0.00    -0.322 NA 
HETATM   13  C   UNL     1     -11.676  15.022  66.874  1.00  0.00    -0.172 C  
HETATM   14  N   UNL     1     -11.370  12.618  66.404  1.00  0.00    -0.313 N  
HETATM   15  C   UNL     1     -12.346  13.713  66.452  1.00  0.00    -0.389 C  
HETATM   16  C   UNL     1     -10.190  12.917  65.569  1.00  0.00    -0.287 C  
HETATM   17  C   UNL     1     -11.503  11.591  67.334  1.00  0.00    -0.274 C  
HETATM   18  O   UNL     1     -12.277  11.708  68.287  1.00  0.00    -0.525 OA 
HETATM   19  C   UNL     1      -9.559  14.312  65.890  1.00  0.00    -0.196 C  
BRANCH  17  20
HETATM   20  C   UNL     1     -10.780  10.344  67.174  1.00  0.00    -0.256 A  
HETATM   21  C   UNL     1      -9.964   9.829  66.186  1.00  0.00    -0.338 A  
HETATM   22  C   UNL     1      -9.680   8.466  66.492  1.00  0.00    -0.330 A  
HETATM   23  C   UNL     1     -10.344   8.165  67.678  1.00  0.00    -0.247 A  
HETATM   24  N   UNL     1     -10.977   9.316  68.077  1.00  0.00    -0.499 NA 
HETATM   25  C   UNL     1     -10.332   6.890  68.254  1.00  0.00    -0.220 A  
HETATM   26  C   UNL     1      -9.602   5.890  67.600  1.00  0.00    -0.113 A  
HETATM   27  H   UNL     1     -11.525   9.402  68.932  1.00  0.00     0.000 HD 
HETATM   28  C   UNL     1      -8.900   6.173  66.431  1.00  0.00    -0.141 A  
HETATM   29  C   UNL     1      -8.946   7.447  65.851  1.00  0.00    -0.114 A  
BRANCH  28  30
HETATM   30  N   UNL     1      -8.127   5.141  65.818  1.00  0.00    -0.108 N  
HETATM   31  H   UNL     1      -7.176   4.941  66.129  1.00  0.00     0.000 HD 
BRANCH  30  32
HETATM   32  S   UNL     1      -8.836   4.261  64.560  1.00  0.00    -0.148 S  
HETATM   33  O   UNL     1      -8.329   2.913  64.535  1.00  0.00    -0.086 OA 
HETATM   34  O   UNL     1     -10.256   4.531  64.665  1.00  0.00    -0.062 OA 
HETATM   35  C   UNL     1      -8.232   5.146  63.140  1.00  0.00    -0.109 C  
ENDBRANCH  30  32
ENDBRANCH  28  30
ENDBRANCH  17  20
ENDBRANCH   7  12
ENDBRANCH   4   6
ENDBRANCH   2   4
TORSDOF 6
ENDMDL
MODEL       75
REMARK 921   NORMALIZED FREE ENERGY PREDICTED BY IDOCK:   -5.02 KCAL/MOL
REMARK 922        TOTAL FREE ENERGY PREDICTED BY IDOCK:   -7.26 KCAL/MOL
REMARK 923 INTER-LIGAND FREE ENERGY PREDICTED BY IDOCK:   -6.63 KCAL/MOL
REMARK 924 INTRA-LIGAND FREE ENERGY PREDICTED BY IDOCK:   -0.62 KCAL/MOL
REMARK 927      BINDING AFFINITY PREDICTED BY RF-SCORE:    0.00 PKD
ROOT
HETATM    1  C   UNL     1      -8.594   5.335  64.613  1.00  0.00    -0.125 C  
HETATM    2  C   UNL     1      -8.519   6.560  65.527  1.00  0.00    -0.136 C  
HETATM    3  C   UNL     1      -8.113   7.784  64.699  1.00  0.00    -0.123 C  
ENDROOT
BRANCH   2   4
HETATM    4  N   UNL     1      -9.827   6.857  66.097  1.00  0.00    -0.409 NA 
HETATM    5  H   UNL     1     -10.615   6.850  65.450  1.00  0.00     0.000 HD 
BRANCH   4   6
HETATM    6  C   UNL     1     -10.119   7.150  67.429  1.00  0.00    -0.202 A  
HETATM    7  C   UNL     1      -9.692   8.250  68.223  1.00  0.00    -0.158 A  
HETATM    8  N   UNL     1     -10.116   8.400  69.513  1.00  0.00    -0.195 NA 
HETATM    9  C   UNL     1     -10.987   6.231  68.063  1.00  0.00    -0.418 A  
HETATM   10  C   UNL     1     -11.389   6.382  69.385  1.00  0.00    -0.443 A  
HETATM   11  C   UNL     1     -10.934   7.484  70.062  1.00  0.00    -0.240 A  
BRANCH   7  12
HETATM   12  N   UNL     1      -8.774   9.226  67.763  1.00  0.00    -0.120 NA 
HETATM   13  C   UNL     1      -7.479   9.096  68.485  1.00  0.00    -0.081 C  
HETATM   14  N   UNL     1      -6.900  11.425  67.906  1.00  0.00    -0.070 N  
HETATM   15  C   UNL     1      -6.451  10.029  67.842  1.00  0.00    -0.059 C  
HETATM   16  C   UNL     1      -8.249  11.636  67.346  1.00  0.00    -0.153 C  
HETATM   17  C   UNL     1      -6.178  12.300  68.712  1.00  0.00    -0.072 C  
HETATM   18  O   UNL     1      -5.331  11.871  69.500  1.00  0.00    -0.060 OA 
HETATM   19  C   UNL     1      -9.298  10.610  67.888  1.00  0.00    -0.148 C  
BRANCH  17  20
HETATM   20  C   UNL     1      -6.364  13.734  68.605  1.00  0.00    -0.090 A  
HETATM   21  C   UNL     1      -7.179  14.646  69.248  1.00  0.00    -0.156 A  
HETATM   22  C   UNL     1      -7.060  15.907  68.594  1.00  0.00    -0.133 A  
HETATM   23  C   UNL     1      -6.164  15.740  67.542  1.00  0.00    -0.143 A  
HETATM   24  N   UNL     1      -5.745  14.433  67.586  1.00  0.00    -0.340 NA 
HETATM   25  C   UNL     1      -5.844  16.766  66.645  1.00  0.00    -0.060 A  
HETATM   26  C   UNL     1      -6.453  18.011  66.842  1.00  0.00    -0.209 A  
HETATM   27  H   UNL     1      -5.063  14.028  66.946  1.00  0.00     0.000 HD 
HETATM   28  C   UNL     1      -7.325  18.215  67.907  1.00  0.00    -0.225 A  
HETATM   29  C   UNL     1      -7.659  17.170  68.779  1.00  0.00    -0.259 A  
BRANCH  28  30
HETATM   30  N   UNL     1      -7.890  19.511  68.104  1.00  0.00    -0.304 N  
HETATM   31  H   UNL     1      -7.297  20.317  68.304  1.00  0.00     0.000 HD 
BRANCH  30  32
HETATM   32  S   UNL     1      -9.570  19.669  67.998  1.00  0.00    -0.388 S  
HETATM   33  O   UNL     1     -10.189  19.384  69.267  1.00  0.00    -0.316 OA 
HETATM   34  O   UNL     1      -9.787  20.932  67.319  1.00  0.00    -0.444 OA 
HETATM   35  C   UNL     1      -9.963  18.374  66.844  1.00  0.00    -0.353 C  
ENDBRANCH  30  32
ENDBRANCH  28  30
ENDBRANCH  17  20
ENDBRANCH   7  12
ENDBRANCH   4   6
ENDBRANCH   2   4
TORSDOF 6
ENDMDL
MODEL       76
REMARK 921   NORMALIZED FREE ENERGY PREDICTED BY IDOCK:   -4.97 KCAL/MOL
REMARK 922        TOTAL FREE ENERGY PREDICTED BY IDOCK:   -7.19 KCAL/MOL
REMARK 923 INTER-LIGAND FREE ENERGY PREDICTED BY IDOCK:   -7.07 KCAL/MOL
REMARK 924 INTRA-LIGAND FREE ENERGY PREDICTED BY IDOCK:   -0.12 KCAL/MOL
REMARK 927      BINDING AFFINITY PREDICTED BY RF-SCORE:    0.00 PKD
ROOT
HETATM    1  C   UNL     1      -5.726  17.073  70.750  1.00  0.00     0.164 C  
HETATM    2  C   UNL     1      -6.098  17.064  69.265  1.00  0.00    -0.213 C  
HETATM    3  C   UNL     1      -5.330  15.941  68.559  1.00  0.00    -0.102 C  
ENDROOT
BRANCH   2   4
HETATM    4  N   UNL     1      -7.516  16.773  69.093  1.00  0.00    -0.229 NA 
HETATM    5  H   UNL     1      -7.892  16.007  69.651  1.00  0.00     0.000 HD 
BRANCH   4   6
HETATM    6  C   UNL     1      -8.414  17.426  68.248  1.00  0.00    -0.249 A  
HETATM    7  C   UNL     1      -9.314  16.877  67.295  1.00  0.00    -0.236 A  
HETATM    8  N   UNL     1     -10.160  17.674  66.577  1.00  0.00    -0.335 NA 
HETATM    9  C   UNL     1      -8.445  18.833  68.388  1.00  0.00    -0.374 A  
HETATM   10  C   UNL     1      -9.292  19.634  67.632  1.00  0.00    -0.430 A  
HETATM   11  C   UNL     1     -10.133  19.008  66.749  1.00  0.00    -0.379 A  
BRANCH   7  12
HETATM   12  N   UNL     1      -9.365  15.495  66.986  1.00  0.00    -0.217 NA 
HETATM   13  C   UNL     1     -10.754  15.098  66.627  1.00  0.00    -0.310 C  
HETATM   14  N   UNL     1     -10.235  12.741  67.147  1.00  0.00    -0.232 N  
HETATM   15  C   UNL     1     -10.747  13.655  66.119  1.00  0.00    -0.286 C  
HETATM   16  C   UNL     1      -8.917  13.134  67.682  1.00  0.00    -0.192 C  
HETATM   17  C   UNL     1     -11.125  11.822  67.695  1.00  0.00    -0.252 C  
HETATM   18  O   UNL     1     -12.335  11.917  67.479  1.00  0.00    -0.326 OA 
HETATM   19  C   UNL     1      -8.855  14.643  68.090  1.00  0.00    -0.173 C  
BRANCH  17  20
HETATM   20  C   UNL     1     -10.646  10.704  68.485  1.00  0.00    -0.200 A  
HETATM   21  C   UNL     1     -10.100   9.473  68.173  1.00  0.00    -0.214 A  
HETATM   22  C   UNL     1      -9.989   8.706  69.369  1.00  0.00    -0.197 A  
HETATM   23  C   UNL     1     -10.483   9.491  70.408  1.00  0.00    -0.278 A  
HETATM   24  N   UNL     1     -10.850  10.692  69.852  1.00  0.00    -0.381 NA 
HETATM   25  C   UNL     1     -10.577   9.035  71.728  1.00  0.00    -0.426 A  
HETATM   26  C   UNL     1     -10.136   7.734  71.996  1.00  0.00    -0.244 A  
HETATM   27  H   UNL     1     -11.226  11.477  70.382  1.00  0.00     0.000 HD 
HETATM   28  C   UNL     1      -9.604   6.941  70.984  1.00  0.00    -0.170 A  
HETATM   29  C   UNL     1      -9.544   7.400  69.662  1.00  0.00    -0.156 A  
BRANCH  28  30
HETATM   30  N   UNL     1      -9.119   5.637  71.305  1.00  0.00    -0.142 N  
HETATM   31  H   UNL     1      -9.731   4.822  71.256  1.00  0.00     0.000 HD 
BRANCH  30  32
HETATM   32  S   UNL     1      -7.500   5.485  71.768  1.00  0.00    -0.095 S  
HETATM   33  O   UNL     1      -6.915   4.303  71.189  1.00  0.00    -0.034 OA 
HETATM   34  O   UNL     1      -6.922   6.797  71.552  1.00  0.00    -0.065 OA 
HETATM   35  C   UNL     1      -7.666   5.262  73.525  1.00  0.00    -0.099 C  
ENDBRANCH  30  32
ENDBRANCH  28  30
ENDBRANCH  17  20
ENDBRANCH   7  12
ENDBRANCH   4   6
ENDBRANCH   2   4
TORSDOF 6
ENDMDL
MODEL       77
REMARK 921   NORMALIZED FREE ENERGY PREDICTED BY IDOCK:   -4.95 KCAL/MOL
REMARK 922        TOTAL FREE ENERGY PREDICTED BY IDOCK:   -7.16 KCAL/MOL
REMARK 923 INTER-LIGAND FREE ENERGY PREDICTED BY IDOCK:   -6.92 KCAL/MOL
REMARK 924 INTRA-LIGAND FREE ENERGY PREDICTED BY IDOCK:   -0.25 KCAL/MOL
REMARK 927      BINDING AFFINITY PREDICTED BY RF-SCORE:    0.00 PKD
ROOT
HETATM    1  C   UNL     1     -10.686   5.863  67.093  1.00  0.00    -0.387 C  
HETATM    2  C   UNL     1      -9.426   6.613  66.656  1.00  0.00    -0.164 C  
HETATM    3  C   UNL     1      -9.765   8.092  66.447  1.00  0.00    -0.275 C  
ENDROOT
BRANCH   2   4
HETATM    4  N   UNL     1      -8.409   6.561  67.698  1.00  0.00    -0.121 NA 
HETATM    5  H   UNL     1      -7.543   7.067  67.513  1.00  0.00     0.000 HD 
BRANCH   4   6
HETATM    6  C   UNL     1      -8.489   5.895  68.922  1.00  0.00    -0.105 A  
HETATM    7  C   UNL     1      -8.978   6.365  70.172  1.00  0.00    -0.154 A  
HETATM    8  N   UNL     1      -9.019   5.551  71.267  1.00  0.00    -0.141 NA 
HETATM    9  C   UNL     1      -8.045   4.552  68.897  1.00  0.00    -0.077 A  
HETATM   10  C   UNL     1      -8.070   3.743  70.027  1.00  0.00    -0.061 A  
HETATM   11  C   UNL     1      -8.572   4.286  71.182  1.00  0.00    -0.093 A  
BRANCH   7  12
HETATM   12  N   UNL     1      -9.400   7.701  70.384  1.00  0.00    -0.160 NA 
HETATM   13  C   UNL     1     -10.844   7.843  70.054  1.00  0.00    -0.238 C  
HETATM   14  N   UNL     1     -10.557  10.279  69.764  1.00  0.00    -0.258 N  
HETATM   15  C   UNL     1     -11.317   9.238  70.468  1.00  0.00    -0.258 C  
HETATM   16  C   UNL     1      -9.095  10.137  69.906  1.00  0.00    -0.073 C  
HETATM   17  C   UNL     1     -11.240  11.067  68.843  1.00  0.00    -0.265 C  
HETATM   18  O   UNL     1     -12.379  10.762  68.481  1.00  0.00    -0.417 OA 
HETATM   19  C   UNL     1      -8.595   8.684  69.615  1.00  0.00    -0.131 C  
BRANCH  17  20
HETATM   20  C   UNL     1     -10.653  12.290  68.330  1.00  0.00    -0.235 A  
HETATM   21  C   UNL     1      -9.927  13.318  68.901  1.00  0.00     0.053 A  
HETATM   22  C   UNL     1      -9.773  14.358  67.939  1.00  0.00    -0.223 A  
HETATM   23  C   UNL     1     -10.422  13.943  66.779  1.00  0.00    -0.270 A  
HETATM   24  N   UNL     1     -10.922  12.690  67.035  1.00  0.00    -0.257 NA 
HETATM   25  C   UNL     1     -10.520  14.742  65.634  1.00  0.00    -0.365 A  
HETATM   26  C   UNL     1      -9.918  16.005  65.674  1.00  0.00    -0.346 A  
HETATM   27  H   UNL     1     -11.429  12.125  66.355  1.00  0.00     0.000 HD 
HETATM   28  C   UNL     1      -9.231  16.431  66.807  1.00  0.00    -0.237 A  
HETATM   29  C   UNL     1      -9.167  15.631  67.956  1.00  0.00    -0.184 A  
BRANCH  28  30
HETATM   30  N   UNL     1      -8.588  17.705  66.794  1.00  0.00    -0.245 N  
HETATM   31  H   UNL     1      -7.632  17.808  66.453  1.00  0.00     0.000 HD 
BRANCH  30  32
HETATM   32  S   UNL     1      -9.459  19.039  67.361  1.00  0.00    -0.306 S  
HETATM   33  O   UNL     1     -10.876  18.792  67.280  1.00  0.00    -0.443 OA 
HETATM   34  O   UNL     1      -8.826  19.397  68.614  1.00  0.00    -0.369 OA 
HETATM   35  C   UNL     1      -9.007  20.277  66.166  1.00  0.00    -0.110 C  
ENDBRANCH  30  32
ENDBRANCH  28  30
ENDBRANCH  17  20
ENDBRANCH   7  12
ENDBRANCH   4   6
ENDBRANCH   2   4
TORSDOF 6
ENDMDL
MODEL       78
REMARK 921   NORMALIZED FREE ENERGY PREDICTED BY IDOCK:   -4.92 KCAL/MOL
REMARK 922        TOTAL FREE ENERGY PREDICTED BY IDOCK:   -7.13 KCAL/MOL
REMARK 923 INTER-LIGAND FREE ENERGY PREDICTED BY IDOCK:   -6.41 KCAL/MOL
REMARK 924 INTRA-LIGAND FREE ENERGY PREDICTED BY IDOCK:   -0.71 KCAL/MOL
REMARK 927      BINDING AFFINITY PREDICTED BY RF-SCORE:    0.00 PKD
ROOT
HETATM    1  C   UNL     1      -8.520   3.325  64.916  1.00  0.00    -0.098 C  
HETATM    2  C   UNL     1      -8.707   4.512  65.863  1.00  0.00    -0.119 C  
HETATM    3  C   UNL     1     -10.199   4.683  66.170  1.00  0.00    -0.308 C  
ENDROOT
BRANCH   2   4
HETATM    4  N   UNL     1      -8.045   4.262  67.137  1.00  0.00    -0.100 NA 
HETATM    5  H   UNL     1      -7.121   3.832  67.091  1.00  0.00     0.000 HD 
BRANCH   4   6
HETATM    6  C   UNL     1      -8.536   4.545  68.412  1.00  0.00    -0.093 A  
HETATM    7  C   UNL     1      -8.591   5.788  69.100  1.00  0.00    -0.110 A  
HETATM    8  N   UNL     1      -9.150   5.887  70.342  1.00  0.00    -0.146 NA 
HETATM    9  C   UNL     1      -9.079   3.434  69.099  1.00  0.00    -0.205 A  
HETATM   10  C   UNL     1      -9.622   3.545  70.374  1.00  0.00    -0.241 A  
HETATM   11  C   UNL     1      -9.641   4.791  70.947  1.00  0.00    -0.177 A  
BRANCH   7  12
HETATM   12  N   UNL     1      -8.034   6.984  68.581  1.00  0.00    -0.118 NA 
HETATM   13  C   UNL     1      -7.146   7.619  69.592  1.00  0.00    -0.064 C  
HETATM   14  N   UNL     1      -7.370   9.796  68.448  1.00  0.00    -0.078 N  
HETATM   15  C   UNL     1      -6.415   8.798  68.946  1.00  0.00    -0.049 C  
HETATM   16  C   UNL     1      -8.394   9.233  67.547  1.00  0.00    -0.119 C  
HETATM   17  C   UNL     1      -7.393  11.038  69.075  1.00  0.00    -0.123 C  
HETATM   18  O   UNL     1      -6.790  11.214  70.136  1.00  0.00    -0.159 OA 
HETATM   19  C   UNL     1      -9.069   7.946  68.126  1.00  0.00    -0.133 C  
BRANCH  17  20
HETATM   20  C   UNL     1      -8.079  12.164  68.471  1.00  0.00    -0.112 A  
HETATM   21  C   UNL     1      -7.664  13.258  67.737  1.00  0.00    -0.159 A  
HETATM   22  C   UNL     1      -8.771  14.140  67.565  1.00  0.00    -0.208 A  
HETATM   23  C   UNL     1      -9.860  13.562  68.212  1.00  0.00    -0.233 A  
HETATM   24  N   UNL     1      -9.422  12.367  68.728  1.00  0.00    -0.409 NA 
HETATM   25  C   UNL     1     -11.112  14.181  68.293  1.00  0.00    -0.274 A  
HETATM   26  C   UNL     1     -11.259  15.429  67.677  1.00  0.00    -0.311 A  
HETATM   27  H   UNL     1     -10.014  11.711  69.237  1.00  0.00     0.000 HD 
HETATM   28  C   UNL     1     -10.197  16.013  66.992  1.00  0.00    -0.282 A  
HETATM   29  C   UNL     1      -8.940  15.395  66.945  1.00  0.00    -0.273 A  
BRANCH  28  30
HETATM   30  N   UNL     1     -10.397  17.264  66.335  1.00  0.00    -0.333 N  
HETATM   31  H   UNL     1     -10.675  17.304  65.354  1.00  0.00     0.000 HD 
BRANCH  30  32
HETATM   32  S   UNL     1     -10.160  18.678  67.232  1.00  0.00    -0.376 S  
HETATM   33  O   UNL     1     -11.205  19.632  66.962  1.00  0.00    -0.319 OA 
HETATM   34  O   UNL     1      -9.880  18.226  68.580  1.00  0.00    -0.350 OA 
HETATM   35  C   UNL     1      -8.629  19.267  66.543  1.00  0.00    -0.334 C  
ENDBRANCH  30  32
ENDBRANCH  28  30
ENDBRANCH  17  20
ENDBRANCH   7  12
ENDBRANCH   4   6
ENDBRANCH   2   4
TORSDOF 6
ENDMDL
MODEL       79
REMARK 921   NORMALIZED FREE ENERGY PREDICTED BY IDOCK:   -4.86 KCAL/MOL
REMARK 922        TOTAL FREE ENERGY PREDICTED BY IDOCK:   -7.04 KCAL/MOL
REMARK 923 INTER-LIGAND FREE ENERGY PREDICTED BY IDOCK:   -6.86 KCAL/MOL
REMARK 924 INTRA-LIGAND FREE ENERGY PREDICTED BY IDOCK:   -0.18 KCAL/MOL
REMARK 927      BINDING AFFINITY PREDICTED BY RF-SCORE:    0.00 PKD
ROOT
HETATM    1  C   UNL     1      -5.899  14.199  71.163  1.00  0.00    -0.214 C  
HETATM    2  C   UNL     1      -6.208  14.785  69.783  1.00  0.00    -0.144 C  
HETATM    3  C   UNL     1      -5.746  13.801  68.702  1.00  0.00    -0.084 C  
ENDROOT
BRANCH   2   4
HETATM    4  N   UNL     1      -7.644  14.956  69.607  1.00  0.00    -0.346 NA 
HETATM    5  H   UNL     1      -8.244  14.423  70.235  1.00  0.00     0.000 HD 
BRANCH   4   6
HETATM    6  C   UNL     1      -8.288  15.769  68.673  1.00  0.00    -0.183 A  
HETATM    7  C   UNL     1      -9.495  15.536  67.958  1.00  0.00    -0.194 A  
HETATM    8  N   UNL     1     -10.004  16.473  67.105  1.00  0.00    -0.259 NA 
HETATM    9  C   UNL     1      -7.656  17.011  68.430  1.00  0.00    -0.220 A  
HETATM   10  C   UNL     1      -8.173  17.943  67.538  1.00  0.00    -0.228 A  
HETATM   11  C   UNL     1      -9.350  17.631  66.909  1.00  0.00    -0.264 A  
BRANCH   7  12
HETATM   12  N   UNL     1     -10.218  14.320  68.037  1.00  0.00    -0.223 NA 
HETATM   13  C   UNL     1     -11.248  14.401  69.108  1.00  0.00    -0.272 C  
HETATM   14  N   UNL     1     -11.336  11.937  69.237  1.00  0.00    -0.268 N  
HETATM   15  C   UNL     1     -12.133  13.155  69.047  1.00  0.00    -0.198 C  
HETATM   16  C   UNL     1     -10.189  11.834  68.313  1.00  0.00    -0.205 C  
HETATM   17  C   UNL     1     -11.551  11.198  70.396  1.00  0.00    -0.259 C  
HETATM   18  O   UNL     1     -12.227  11.662  71.318  1.00  0.00    -0.234 OA 
HETATM   19  C   UNL     1      -9.337  13.145  68.256  1.00  0.00    -0.201 C  
BRANCH  17  20
HETATM   20  C   UNL     1     -11.035   9.849  70.524  1.00  0.00    -0.326 A  
HETATM   21  C   UNL     1      -9.797   9.322  70.840  1.00  0.00    -0.363 A  
HETATM   22  C   UNL     1      -9.833   7.912  70.632  1.00  0.00    -0.187 A  
HETATM   23  C   UNL     1     -11.111   7.598  70.178  1.00  0.00    -0.218 A  
HETATM   24  N   UNL     1     -11.817   8.775  70.145  1.00  0.00    -0.439 NA 
HETATM   25  C   UNL     1     -11.493   6.300  69.818  1.00  0.00    -0.449 A  
HETATM   26  C   UNL     1     -10.536   5.286  69.942  1.00  0.00    -0.351 A  
HETATM   27  H   UNL     1     -12.797   8.848  69.873  1.00  0.00     0.000 HD 
HETATM   28  C   UNL     1      -9.261   5.567  70.426  1.00  0.00    -0.151 A  
HETATM   29  C   UNL     1      -8.885   6.876  70.754  1.00  0.00    -0.150 A  
BRANCH  28  30
HETATM   30  N   UNL     1      -8.327   4.499  70.584  1.00  0.00    -0.074 N  
HETATM   31  H   UNL     1      -8.514   3.728  71.224  1.00  0.00     0.000 HD 
BRANCH  30  32
HETATM   32  S   UNL     1      -6.899   4.554  69.679  1.00  0.00    -0.046 S  
HETATM   33  O   UNL     1      -7.193   4.569  68.269  1.00  0.00    -0.062 OA 
HETATM   34  O   UNL     1      -6.103   5.598  70.295  1.00  0.00    -0.024 OA 
HETATM   35  C   UNL     1      -6.158   2.997  70.113  1.00  0.00    -0.023 C  
ENDBRANCH  30  32
ENDBRANCH  28  30
ENDBRANCH  17  20
ENDBRANCH   7  12
ENDBRANCH   4   6
ENDBRANCH   2   4
TORSDOF 6
ENDMDL
MODEL       80
REMARK 921   NORMALIZED FREE ENERGY PREDICTED BY IDOCK:   -4.82 KCAL/MOL
REMARK 922        TOTAL FREE ENERGY PREDICTED BY IDOCK:   -6.99 KCAL/MOL
REMARK 923 INTER-LIGAND FREE ENERGY PREDICTED BY IDOCK:   -6.98 KCAL/MOL
REMARK 924 INTRA-LIGAND FREE ENERGY PREDICTED BY IDOCK:   -0.01 KCAL/MOL
REMARK 927      BINDING AFFINITY PREDICTED BY RF-SCORE:    0.00 PKD
ROOT
HETATM    1  C   UNL     1     -12.530  10.766  69.393  1.00  0.00     0.008 C  
HETATM    2  C   UNL     1     -11.954  11.016  70.789  1.00  0.00    -0.333 C  
HETATM    3  C   UNL     1     -13.080  10.922  71.824  1.00  0.00    -0.564 C  
ENDROOT
BRANCH   2   4
HETATM    4  N   UNL     1     -10.981   9.988  71.135  1.00  0.00    -0.279 NA 
HETATM    5  H   UNL     1     -10.330  10.215  71.886  1.00  0.00     0.000 HD 
BRANCH   4   6
HETATM    6  C   UNL     1     -10.842   8.728  70.553  1.00  0.00    -0.233 A  
HETATM    7  C   UNL     1      -9.795   8.227  69.731  1.00  0.00    -0.187 A  
HETATM    8  N   UNL     1      -9.805   6.939  69.278  1.00  0.00    -0.156 NA 
HETATM    9  C   UNL     1     -11.882   7.818  70.852  1.00  0.00    -0.257 A  
HETATM   10  C   UNL     1     -11.891   6.517  70.363  1.00  0.00    -0.378 A  
HETATM   11  C   UNL     1     -10.829   6.125  69.589  1.00  0.00    -0.356 A  
BRANCH   7  12
HETATM   12  N   UNL     1      -8.713   9.026  69.285  1.00  0.00    -0.135 NA 
HETATM   13  C   UNL     1      -7.742   9.242  70.393  1.00  0.00    -0.143 C  
HETATM   14  N   UNL     1      -6.850  11.238  69.246  1.00  0.00    -0.106 N  
HETATM   15  C   UNL     1      -6.500   9.943  69.840  1.00  0.00    -0.069 C  
HETATM   16  C   UNL     1      -7.920  11.152  68.233  1.00  0.00    -0.127 C  
HETATM   17  C   UNL     1      -6.379  12.386  69.876  1.00  0.00    -0.048 C  
HETATM   18  O   UNL     1      -5.872  12.321  70.999  1.00  0.00    -0.356 OA 
HETATM   19  C   UNL     1      -9.155  10.328  68.725  1.00  0.00    -0.159 C  
BRANCH  17  20
HETATM   20  C   UNL     1      -6.423  13.672  69.208  1.00  0.00    -0.110 A  
HETATM   21  C   UNL     1      -5.732  14.226  68.146  1.00  0.00    -0.129 A  
HETATM   22  C   UNL     1      -6.074  15.606  68.048  1.00  0.00    -0.150 A  
HETATM   23  C   UNL     1      -6.977  15.879  69.072  1.00  0.00    -0.156 A  
HETATM   24  N   UNL     1      -7.185  14.696  69.738  1.00  0.00    -0.345 NA 
HETATM   25  C   UNL     1      -7.490  17.158  69.313  1.00  0.00    -0.061 A  
HETATM   26  C   UNL     1      -7.074  18.193  68.467  1.00  0.00    -0.262 A  
HETATM   27  H   UNL     1      -7.823  14.586  70.526  1.00  0.00     0.000 HD 
HETATM   28  C   UNL     1      -6.200  17.941  67.413  1.00  0.00    -0.151 A  
HETATM   29  C   UNL     1      -5.672  16.661  67.203  1.00  0.00    -0.186 A  
BRANCH  28  30
HETATM   30  N   UNL     1      -5.836  19.011  66.541  1.00  0.00    -0.161 N  
HETATM   31  H   UNL     1      -4.880  19.108  66.200  1.00  0.00     0.000 HD 
BRANCH  30  32
HETATM   32  S   UNL     1      -7.039  20.112  66.091  1.00  0.00    -0.272 S  
HETATM   33  O   UNL     1      -8.250  19.421  65.730  1.00  0.00    -0.439 OA 
HETATM   34  O   UNL     1      -7.028  21.125  67.128  1.00  0.00    -0.401 OA 
HETATM   35  C   UNL     1      -6.315  20.835  64.637  1.00  0.00    -0.279 C  
ENDBRANCH  30  32
ENDBRANCH  28  30
ENDBRANCH  17  20
ENDBRANCH   7  12
ENDBRANCH   4   6
ENDBRANCH   2   4
TORSDOF 6
ENDMDL
MODEL       81
REMARK 921   NORMALIZED FREE ENERGY PREDICTED BY IDOCK:   -4.81 KCAL/MOL
REMARK 922        TOTAL FREE ENERGY PREDICTED BY IDOCK:   -6.97 KCAL/MOL
REMARK 923 INTER-LIGAND FREE ENERGY PREDICTED BY IDOCK:   -6.99 KCAL/MOL
REMARK 924 INTRA-LIGAND FREE ENERGY PREDICTED BY IDOCK:    0.02 KCAL/MOL
REMARK 927      BINDING AFFINITY PREDICTED BY RF-SCORE:    0.00 PKD
ROOT
HETATM    1  C   UNL     1     -11.925  15.917  72.353  1.00  0.00    -0.620 C  
HETATM    2  C   UNL     1     -11.923  16.022  70.826  1.00  0.00    -0.307 C  
HETATM    3  C   UNL     1     -10.486  15.880  70.312  1.00  0.00    -0.186 C  
ENDROOT
BRANCH   2   4
HETATM    4  N   UNL     1     -12.687  14.931  70.235  1.00  0.00    -0.541 NA 
HETATM    5  H   UNL     1     -13.327  15.182  69.481  1.00  0.00     0.000 HD 
BRANCH   4   6
HETATM    6  C   UNL     1     -12.641  13.582  70.586  1.00  0.00    -0.275 A  
HETATM    7  C   UNL     1     -11.874  12.529  70.015  1.00  0.00    -0.289 A  
HETATM    8  N   UNL     1     -11.924  11.262  70.521  1.00  0.00    -0.364 NA 
HETATM    9  C   UNL     1     -13.455  13.226  71.686  1.00  0.00    -0.350 A  
HETATM   10  C   UNL     1     -13.515  11.926  72.174  1.00  0.00    -0.300 A  
HETATM   11  C   UNL     1     -12.727  10.985  71.563  1.00  0.00    -0.415 A  
BRANCH   7  12
HETATM   12  N   UNL     1     -11.057  12.701  68.870  1.00  0.00    -0.257 NA 
HETATM   13  C   UNL     1     -11.891  13.060  67.691  1.00  0.00    -0.351 C  
HETATM   14  N   UNL     1     -10.105  12.294  66.169  1.00  0.00    -0.239 N  
HETATM   15  C   UNL     1     -10.975  13.422  66.521  1.00  0.00    -0.290 C  
HETATM   16  C   UNL     1      -9.339  11.762  67.313  1.00  0.00    -0.171 C  
HETATM   17  C   UNL     1     -10.304  11.684  64.934  1.00  0.00    -0.283 C  
HETATM   18  O   UNL     1     -11.305  11.944  64.262  1.00  0.00    -0.337 OA 
HETATM   19  C   UNL     1     -10.231  11.503  68.572  1.00  0.00    -0.213 C  
BRANCH  17  20
HETATM   20  C   UNL     1      -9.317  10.773  64.387  1.00  0.00    -0.242 A  
HETATM   21  C   UNL     1      -9.389   9.541  63.765  1.00  0.00     0.061 A  
HETATM   22  C   UNL     1      -8.068   9.032  63.605  1.00  0.00    -0.164 A  
HETATM   23  C   UNL     1      -7.197   9.973  64.147  1.00  0.00    -0.132 A  
HETATM   24  N   UNL     1      -7.972  11.018  64.588  1.00  0.00    -0.285 NA 
HETATM   25  C   UNL     1      -5.812   9.780  64.211  1.00  0.00    -0.093 A  
HETATM   26  C   UNL     1      -5.300   8.586  63.690  1.00  0.00    -0.058 A  
HETATM   27  H   UNL     1      -7.601  11.867  65.012  1.00  0.00     0.000 HD 
HETATM   28  C   UNL     1      -6.144   7.644  63.110  1.00  0.00    -0.055 A  
HETATM   29  C   UNL     1      -7.532   7.838  63.080  1.00  0.00    -0.111 A  
BRANCH  28  30
HETATM   30  N   UNL     1      -5.581   6.460  62.545  1.00  0.00    -0.023 N  
HETATM   31  H   UNL     1      -4.877   6.513  61.809  1.00  0.00     0.000 HD 
BRANCH  30  32
HETATM   32  S   UNL     1      -6.118   4.968  63.132  1.00  0.00    -0.022 S  
HETATM   33  O   UNL     1      -7.539   4.828  62.940  1.00  0.00    -0.057 OA 
HETATM   34  O   UNL     1      -5.185   3.995  62.598  1.00  0.00    -0.005 OA 
HETATM   35  C   UNL     1      -5.770   5.137  64.868  1.00  0.00    -0.017 C  
ENDBRANCH  30  32
ENDBRANCH  28  30
ENDBRANCH  17  20
ENDBRANCH   7  12
ENDBRANCH   4   6
ENDBRANCH   2   4
TORSDOF 6
ENDMDL
MODEL       82
REMARK 921   NORMALIZED FREE ENERGY PREDICTED BY IDOCK:   -4.77 KCAL/MOL
REMARK 922        TOTAL FREE ENERGY PREDICTED BY IDOCK:   -6.93 KCAL/MOL
REMARK 923 INTER-LIGAND FREE ENERGY PREDICTED BY IDOCK:   -6.37 KCAL/MOL
REMARK 924 INTRA-LIGAND FREE ENERGY PREDICTED BY IDOCK:   -0.56 KCAL/MOL
REMARK 927      BINDING AFFINITY PREDICTED BY RF-SCORE:    0.00 PKD
ROOT
HETATM    1  C   UNL     1     -10.322   8.359  67.503  1.00  0.00    -0.333 C  
HETATM    2  C   UNL     1      -9.751   7.040  66.979  1.00  0.00    -0.167 C  
HETATM    3  C   UNL     1     -10.868   5.993  66.924  1.00  0.00    -0.396 C  
ENDROOT
BRANCH   2   4
HETATM    4  N   UNL     1      -9.260   7.198  65.616  1.00  0.00    -0.375 NA 
HETATM    5  H   UNL     1      -9.852   7.730  64.979  1.00  0.00     0.000 HD 
BRANCH   4   6
HETATM    6  C   UNL     1      -8.068   6.700  65.087  1.00  0.00    -0.133 A  
HETATM    7  C   UNL     1      -6.742   7.192  65.236  1.00  0.00    -0.047 A  
HETATM    8  N   UNL     1      -5.680   6.545  64.673  1.00  0.00    -0.029 NA 
HETATM    9  C   UNL     1      -8.207   5.522  64.316  1.00  0.00    -0.124 A  
HETATM   10  C   UNL     1      -7.119   4.890  63.727  1.00  0.00    -0.049 A  
HETATM   11  C   UNL     1      -5.879   5.434  63.942  1.00  0.00    -0.021 A  
BRANCH   7  12
HETATM   12  N   UNL     1      -6.436   8.394  65.922  1.00  0.00    -0.052 NA 
HETATM   13  C   UNL     1      -6.517   8.182  67.392  1.00  0.00    -0.057 C  
HETATM   14  N   UNL     1      -6.802  10.609  67.745  1.00  0.00    -0.072 N  
HETATM   15  C   UNL     1      -6.003   9.434  68.107  1.00  0.00    -0.041 C  
HETATM   16  C   UNL     1      -6.910  10.822  66.288  1.00  0.00    -0.135 C  
HETATM   17  C   UNL     1      -7.580  11.194  68.740  1.00  0.00    -0.129 C  
HETATM   18  O   UNL     1      -7.753  10.620  69.817  1.00  0.00    -0.128 OA 
HETATM   19  C   UNL     1      -7.310   9.523  65.514  1.00  0.00    -0.094 C  
BRANCH  17  20
HETATM   20  C   UNL     1      -8.159  12.510  68.554  1.00  0.00    -0.089 A  
HETATM   21  C   UNL     1      -7.634  13.785  68.463  1.00  0.00    -0.134 A  
HETATM   22  C   UNL     1      -8.707  14.723  68.467  1.00  0.00    -0.174 A  
HETATM   23  C   UNL     1      -9.889  13.994  68.568  1.00  0.00    -0.225 A  
HETATM   24  N   UNL     1      -9.532  12.668  68.596  1.00  0.00    -0.404 NA 
HETATM   25  C   UNL     1     -11.150  14.596  68.653  1.00  0.00    -0.276 A  
HETATM   26  C   UNL     1     -11.203  15.995  68.618  1.00  0.00    -0.366 A  
HETATM   27  H   UNL     1     -10.196  11.897  68.643  1.00  0.00     0.000 HD 
HETATM   28  C   UNL     1     -10.039  16.747  68.481  1.00  0.00    -0.281 A  
HETATM   29  C   UNL     1      -8.782  16.131  68.428  1.00  0.00    -0.190 A  
BRANCH  28  30
HETATM   30  N   UNL     1     -10.136  18.169  68.401  1.00  0.00    -0.370 N  
HETATM   31  H   UNL     1     -10.265  18.735  69.239  1.00  0.00     0.000 HD 
BRANCH  30  32
HETATM   32  S   UNL     1     -10.033  18.885  66.872  1.00  0.00    -0.371 S  
HETATM   33  O   UNL     1      -9.780  17.891  65.861  1.00  0.00    -0.530 OA 
HETATM   34  O   UNL     1     -11.180  19.768  66.792  1.00  0.00    -0.243 OA 
HETATM   35  C   UNL     1      -8.591  19.907  67.070  1.00  0.00    -0.330 C  
ENDBRANCH  30  32
ENDBRANCH  28  30
ENDBRANCH  17  20
ENDBRANCH   7  12
ENDBRANCH   4   6
ENDBRANCH   2   4
TORSDOF 6
ENDMDL
MODEL       83
REMARK 921   NORMALIZED FREE ENERGY PREDICTED BY IDOCK:   -4.75 KCAL/MOL
REMARK 922        TOTAL FREE ENERGY PREDICTED BY IDOCK:   -6.89 KCAL/MOL
REMARK 923 INTER-LIGAND FREE ENERGY PREDICTED BY IDOCK:   -6.90 KCAL/MOL
REMARK 924 INTRA-LIGAND FREE ENERGY PREDICTED BY IDOCK:    0.01 KCAL/MOL
REMARK 927      BINDING AFFINITY PREDICTED BY RF-SCORE:    0.00 PKD
ROOT
HETATM    1  C   UNL     1     -10.336   2.665  74.097  1.00  0.00    -0.198 C  
HETATM    2  C   UNL     1     -10.291   4.055  73.458  1.00  0.00    -0.163 C  
HETATM    3  C   UNL     1      -9.958   5.094  74.534  1.00  0.00    -0.252 C  
ENDROOT
BRANCH   2   4
HETATM    4  N   UNL     1      -9.229   4.129  72.463  1.00  0.00    -0.113 NA 
HETATM    5  H   UNL     1      -8.281   4.243  72.819  1.00  0.00     0.000 HD 
BRANCH   4   6
HETATM    6  C   UNL     1      -9.367   4.061  71.076  1.00  0.00    -0.149 A  
HETATM    7  C   UNL     1      -9.598   5.109  70.143  1.00  0.00    -0.181 A  
HETATM    8  N   UNL     1      -9.665   4.860  68.801  1.00  0.00    -0.156 NA 
HETATM    9  C   UNL     1      -9.228   2.765  70.528  1.00  0.00    -0.208 A  
HETATM   10  C   UNL     1      -9.325   2.524  69.163  1.00  0.00    -0.194 A  
HETATM   11  C   UNL     1      -9.536   3.603  68.343  1.00  0.00    -0.150 A  
BRANCH   7  12
HETATM   12  N   UNL     1      -9.824   6.453  70.529  1.00  0.00    -0.182 NA 
HETATM   13  C   UNL     1     -11.168   6.592  71.151  1.00  0.00    -0.302 C  
HETATM   14  N   UNL     1     -11.161   9.014  70.674  1.00  0.00    -0.254 N  
HETATM   15  C   UNL     1     -11.311   8.003  71.727  1.00  0.00    -0.270 C  
HETATM   16  C   UNL     1      -9.917   8.871  69.892  1.00  0.00    -0.188 C  
HETATM   17  C   UNL     1     -12.279   9.775  70.344  1.00  0.00    -0.057 C  
HETATM   18  O   UNL     1     -13.394   9.463  70.767  1.00  0.00    -0.093 OA 
HETATM   19  C   UNL     1      -9.677   7.406  69.399  1.00  0.00    -0.159 C  
BRANCH  17  20
HETATM   20  C   UNL     1     -12.150  10.977  69.543  1.00  0.00    -0.329 A  
HETATM   21  C   UNL     1     -11.807  11.220  68.226  1.00  0.00    -0.299 A  
HETATM   22  C   UNL     1     -11.668  12.626  68.042  1.00  0.00    -0.402 A  
HETATM   23  C   UNL     1     -11.926  13.228  69.271  1.00  0.00    -0.303 A  
HETATM   24  N   UNL     1     -12.234  12.216  70.147  1.00  0.00    -0.270 NA 
HETATM   25  C   UNL     1     -11.828  14.609  69.477  1.00  0.00    -0.374 A  
HETATM   26  C   UNL     1     -11.468  15.403  68.382  1.00  0.00    -0.365 A  
HETATM   27  H   UNL     1     -12.493  12.362  71.122  1.00  0.00     0.000 HD 
HETATM   28  C   UNL     1     -11.239  14.831  67.134  1.00  0.00    -0.343 A  
HETATM   29  C   UNL     1     -11.312  13.444  66.950  1.00  0.00    -0.351 A  
BRANCH  28  30
HETATM   30  N   UNL     1     -10.921  15.677  66.029  1.00  0.00    -0.264 N  
HETATM   31  H   UNL     1     -10.340  16.506  66.153  1.00  0.00     0.000 HD 
BRANCH  30  32
HETATM   32  S   UNL     1     -11.539  15.264  64.510  1.00  0.00    -0.227 S  
HETATM   33  O   UNL     1     -11.471  16.387  63.611  1.00  0.00    -0.858 OA 
HETATM   34  O   UNL     1     -10.916  13.997  64.182  1.00  0.00    -0.237 OA 
HETATM   35  C   UNL     1     -13.239  14.930  64.911  1.00  0.00     0.985 C  
ENDBRANCH  30  32
ENDBRANCH  28  30
ENDBRANCH  17  20
ENDBRANCH   7  12
ENDBRANCH   4   6
ENDBRANCH   2   4
TORSDOF 6
ENDMDL
MODEL       84
REMARK 921   NORMALIZED FREE ENERGY PREDICTED BY IDOCK:   -4.72 KCAL/MOL
REMARK 922        TOTAL FREE ENERGY PREDICTED BY IDOCK:   -6.86 KCAL/MOL
REMARK 923 INTER-LIGAND FREE ENERGY PREDICTED BY IDOCK:   -6.35 KCAL/MOL
REMARK 924 INTRA-LIGAND FREE ENERGY PREDICTED BY IDOCK:   -0.50 KCAL/MOL
REMARK 927      BINDING AFFINITY PREDICTED BY RF-SCORE:    0.00 PKD
ROOT
HETATM    1  C   UNL     1     -10.561  18.949  65.913  1.00  0.00    -0.438 C  
HETATM    2  C   UNL     1     -10.432  17.463  66.253  1.00  0.00    -0.276 C  
HETATM    3  C   UNL     1     -11.147  16.636  65.180  1.00  0.00    -0.086 C  
ENDROOT
BRANCH   2   4
HETATM    4  N   UNL     1      -9.035  17.050  66.237  1.00  0.00    -0.384 NA 
HETATM    5  H   UNL     1      -8.592  16.988  65.320  1.00  0.00     0.000 HD 
BRANCH   4   6
HETATM    6  C   UNL     1      -8.237  16.731  67.336  1.00  0.00    -0.177 A  
HETATM    7  C   UNL     1      -8.146  15.509  68.057  1.00  0.00    -0.136 A  
HETATM    8  N   UNL     1      -7.269  15.362  69.093  1.00  0.00    -0.155 NA 
HETATM    9  C   UNL     1      -7.379  17.769  67.768  1.00  0.00    -0.205 A  
HETATM   10  C   UNL     1      -6.510  17.612  68.841  1.00  0.00    -0.215 A  
HETATM   11  C   UNL     1      -6.487  16.391  69.463  1.00  0.00    -0.210 A  
BRANCH   7  12
HETATM   12  N   UNL     1      -8.979  14.393  67.795  1.00  0.00    -0.185 NA 
HETATM   13  C   UNL     1     -10.129  14.374  68.739  1.00  0.00    -0.234 C  
HETATM   14  N   UNL     1     -10.452  11.961  68.328  1.00  0.00    -0.198 N  
HETATM   15  C   UNL     1     -11.106  13.275  68.317  1.00  0.00    -0.266 C  
HETATM   16  C   UNL     1      -9.208  11.915  67.535  1.00  0.00    -0.177 C  
HETATM   17  C   UNL     1     -10.883  11.034  69.272  1.00  0.00    -0.238 C  
HETATM   18  O   UNL     1     -11.629  11.377  70.192  1.00  0.00    -0.309 OA 
HETATM   19  C   UNL     1      -8.242  13.104  67.853  1.00  0.00    -0.162 C  
BRANCH  17  20
HETATM   20  C   UNL     1     -10.509   9.636  69.166  1.00  0.00    -0.214 A  
HETATM   21  C   UNL     1      -9.885   8.882  68.191  1.00  0.00    -0.193 A  
HETATM   22  C   UNL     1      -9.950   7.508  68.563  1.00  0.00    -0.177 A  
HETATM   23  C   UNL     1     -10.631   7.444  69.776  1.00  0.00    -0.236 A  
HETATM   24  N   UNL     1     -10.935   8.737  70.125  1.00  0.00    -0.259 NA 
HETATM   25  C   UNL     1     -10.928   6.237  70.419  1.00  0.00    -0.385 A  
HETATM   26  C   UNL     1     -10.501   5.054  69.805  1.00  0.00    -0.182 A  
HETATM   27  H   UNL     1     -11.415   9.001  70.985  1.00  0.00     0.000 HD 
HETATM   28  C   UNL     1      -9.787   5.091  68.610  1.00  0.00    -0.161 A  
HETATM   29  C   UNL     1      -9.523   6.305  67.964  1.00  0.00    -0.116 A  
BRANCH  28  30
HETATM   30  N   UNL     1      -9.325   3.867  68.038  1.00  0.00    -0.164 N  
HETATM   31  H   UNL     1      -9.814   3.437  67.254  1.00  0.00     0.000 HD 
BRANCH  30  32
HETATM   32  S   UNL     1      -7.943   3.154  68.702  1.00  0.00    -0.057 S  
HETATM   33  O   UNL     1      -7.188   2.467  67.686  1.00  0.00    -0.051 OA 
HETATM   34  O   UNL     1      -7.341   4.189  69.519  1.00  0.00    -0.049 OA 
HETATM   35  C   UNL     1      -8.669   1.963  69.806  1.00  0.00    -0.058 C  
ENDBRANCH  30  32
ENDBRANCH  28  30
ENDBRANCH  17  20
ENDBRANCH   7  12
ENDBRANCH   4   6
ENDBRANCH   2   4
TORSDOF 6
ENDMDL
MODEL       85
REMARK 921   NORMALIZED FREE ENERGY PREDICTED BY IDOCK:   -4.66 KCAL/MOL
REMARK 922        TOTAL FREE ENERGY PREDICTED BY IDOCK:   -6.77 KCAL/MOL
REMARK 923 INTER-LIGAND FREE ENERGY PREDICTED BY IDOCK:   -6.35 KCAL/MOL
REMARK 924 INTRA-LIGAND FREE ENERGY PREDICTED BY IDOCK:   -0.42 KCAL/MOL
REMARK 927      BINDING AFFINITY PREDICTED BY RF-SCORE:    0.00 PKD
ROOT
HETATM    1  C   UNL     1     -10.663   3.762  63.327  1.00  0.00    -0.192 C  
HETATM    2  C   UNL     1      -9.885   2.944  64.361  1.00  0.00    -0.105 C  
HETATM    3  C   UNL     1      -9.888   1.469  63.944  1.00  0.00    -0.127 C  
ENDROOT
BRANCH   2   4
HETATM    4  N   UNL     1      -8.490   3.363  64.402  1.00  0.00    -0.093 NA 
HETATM    5  H   UNL     1      -8.018   3.459  63.503  1.00  0.00     0.000 HD 
BRANCH   4   6
HETATM    6  C   UNL     1      -7.728   3.647  65.536  1.00  0.00    -0.082 A  
HETATM    7  C   UNL     1      -7.497   4.895  66.176  1.00  0.00    -0.086 A  
HETATM    8  N   UNL     1      -6.749   4.980  67.316  1.00  0.00    -0.054 NA 
HETATM    9  C   UNL     1      -7.126   2.520  66.145  1.00  0.00    -0.064 A  
HETATM   10  C   UNL     1      -6.346   2.625  67.290  1.00  0.00    -0.032 A  
HETATM   11  C   UNL     1      -6.195   3.872  67.839  1.00  0.00    -0.036 A  
BRANCH   7  12
HETATM   12  N   UNL     1      -7.973   6.127  65.662  1.00  0.00    -0.108 NA 
HETATM   13  C   UNL     1      -6.838   6.950  65.164  1.00  0.00    -0.051 C  
HETATM   14  N   UNL     1      -8.210   8.994  65.357  1.00  0.00    -0.122 N  
HETATM   15  C   UNL     1      -7.390   8.184  64.448  1.00  0.00    -0.093 C  
HETATM   16  C   UNL     1      -9.282   8.228  66.024  1.00  0.00    -0.166 C  
HETATM   17  C   UNL     1      -7.735  10.254  65.707  1.00  0.00    -0.143 C  
HETATM   18  O   UNL     1      -6.578  10.584  65.435  1.00  0.00    -0.119 OA 
HETATM   19  C   UNL     1      -8.769   6.892  66.656  1.00  0.00    -0.128 C  
BRANCH  17  20
HETATM   20  C   UNL     1      -8.601  11.224  66.349  1.00  0.00    -0.174 A  
HETATM   21  C   UNL     1      -9.199  11.302  67.592  1.00  0.00    -0.156 A  
HETATM   22  C   UNL     1     -10.100  12.406  67.598  1.00  0.00    -0.199 A  
HETATM   23  C   UNL     1     -10.042  12.990  66.336  1.00  0.00    -0.279 A  
HETATM   24  N   UNL     1      -9.118  12.274  65.614  1.00  0.00    -0.423 NA 
HETATM   25  C   UNL     1     -10.840  14.077  65.962  1.00  0.00    -0.295 A  
HETATM   26  C   UNL     1     -11.720  14.594  66.921  1.00  0.00    -0.366 A  
HETATM   27  H   UNL     1      -8.848  12.490  64.655  1.00  0.00     0.000 HD 
HETATM   28  C   UNL     1     -11.772  14.052  68.202  1.00  0.00    -0.352 A  
HETATM   29  C   UNL     1     -10.988  12.945  68.552  1.00  0.00    -0.288 A  
BRANCH  28  30
HETATM   30  N   UNL     1     -12.646  14.636  69.169  1.00  0.00    -0.543 N  
HETATM   31  H   UNL     1     -13.498  15.117  68.883  1.00  0.00     0.000 HD 
BRANCH  30  32
HETATM   32  S   UNL     1     -12.223  14.506  70.801  1.00  0.00    -0.358 S  
HETATM   33  O   UNL     1     -12.288  13.134  71.235  1.00  0.00    -0.292 OA 
HETATM   34  O   UNL     1     -11.008  15.284  70.938  1.00  0.00    -0.312 OA 
HETATM   35  C   UNL     1     -13.534  15.431  71.569  1.00  0.00    -0.513 C  
ENDBRANCH  30  32
ENDBRANCH  28  30
ENDBRANCH  17  20
ENDBRANCH   7  12
ENDBRANCH   4   6
ENDBRANCH   2   4
TORSDOF 6
ENDMDL
MODEL       86
REMARK 921   NORMALIZED FREE ENERGY PREDICTED BY IDOCK:   -4.66 KCAL/MOL
REMARK 922        TOTAL FREE ENERGY PREDICTED BY IDOCK:   -6.77 KCAL/MOL
REMARK 923 INTER-LIGAND FREE ENERGY PREDICTED BY IDOCK:   -6.81 KCAL/MOL
REMARK 924 INTRA-LIGAND FREE ENERGY PREDICTED BY IDOCK:    0.03 KCAL/MOL
REMARK 927      BINDING AFFINITY PREDICTED BY RF-SCORE:    0.00 PKD
ROOT
HETATM    1  C   UNL     1     -11.760   6.576  69.747  1.00  0.00    -0.293 C  
HETATM    2  C   UNL     1     -11.743   7.131  71.173  1.00  0.00    -0.313 C  
HETATM    3  C   UNL     1     -13.161   7.078  71.752  1.00  0.00    -0.326 C  
ENDROOT
BRANCH   2   4
HETATM    4  N   UNL     1     -10.909   6.305  72.036  1.00  0.00    -0.235 NA 
HETATM    5  H   UNL     1     -11.398   5.660  72.657  1.00  0.00     0.000 HD 
BRANCH   4   6
HETATM    6  C   UNL     1      -9.516   6.299  72.107  1.00  0.00    -0.150 A  
HETATM    7  C   UNL     1      -8.572   7.040  71.343  1.00  0.00    -0.121 A  
HETATM    8  N   UNL     1      -7.231   6.938  71.581  1.00  0.00    -0.078 NA 
HETATM    9  C   UNL     1      -8.975   5.454  73.104  1.00  0.00    -0.118 A  
HETATM   10  C   UNL     1      -7.607   5.341  73.318  1.00  0.00    -0.096 A  
HETATM   11  C   UNL     1      -6.780   6.107  72.537  1.00  0.00    -0.069 A  
BRANCH   7  12
HETATM   12  N   UNL     1      -8.942   7.882  70.265  1.00  0.00    -0.150 NA 
HETATM   13  C   UNL     1      -8.118   7.574  69.065  1.00  0.00    -0.127 C  
HETATM   14  N   UNL     1      -8.613   9.805  68.129  1.00  0.00    -0.118 N  
HETATM   15  C   UNL     1      -8.660   8.361  67.870  1.00  0.00    -0.131 C  
HETATM   16  C   UNL     1      -9.279  10.199  69.386  1.00  0.00    -0.214 C  
HETATM   17  C   UNL     1      -7.738  10.571  67.364  1.00  0.00    -0.102 C  
HETATM   18  O   UNL     1      -6.890  10.028  66.653  1.00  0.00    -0.078 OA 
HETATM   19  C   UNL     1      -8.840   9.324  70.605  1.00  0.00    -0.237 C  
BRANCH  17  20
HETATM   20  C   UNL     1      -7.839  12.017  67.345  1.00  0.00    -0.162 A  
HETATM   21  C   UNL     1      -8.791  12.906  66.882  1.00  0.00    -0.188 A  
HETATM   22  C   UNL     1      -8.262  14.227  66.966  1.00  0.00    -0.116 A  
HETATM   23  C   UNL     1      -6.973  14.121  67.482  1.00  0.00    -0.152 A  
HETATM   24  N   UNL     1      -6.754  12.786  67.720  1.00  0.00    -0.117 NA 
HETATM   25  C   UNL     1      -6.129  15.224  67.654  1.00  0.00    -0.139 A  
HETATM   26  C   UNL     1      -6.628  16.482  67.299  1.00  0.00    -0.215 A  
HETATM   27  H   UNL     1      -5.897  12.409  68.124  1.00  0.00     0.000 HD 
HETATM   28  C   UNL     1      -7.926  16.622  66.815  1.00  0.00    -0.249 A  
HETATM   29  C   UNL     1      -8.749  15.505  66.620  1.00  0.00    -0.326 A  
BRANCH  28  30
HETATM   30  N   UNL     1      -8.417  17.927  66.508  1.00  0.00    -0.259 N  
HETATM   31  H   UNL     1      -7.778  18.700  66.330  1.00  0.00     0.000 HD 
BRANCH  30  32
HETATM   32  S   UNL     1     -10.093  18.150  66.452  1.00  0.00    -0.388 S  
HETATM   33  O   UNL     1     -10.635  17.620  65.226  1.00  0.00    -0.663 OA 
HETATM   34  O   UNL     1     -10.576  17.706  67.744  1.00  0.00    -0.374 OA 
HETATM   35  C   UNL     1     -10.201  19.925  66.427  1.00  0.00    -0.500 C  
ENDBRANCH  30  32
ENDBRANCH  28  30
ENDBRANCH  17  20
ENDBRANCH   7  12
ENDBRANCH   4   6
ENDBRANCH   2   4
TORSDOF 6
ENDMDL
MODEL       87
REMARK 921   NORMALIZED FREE ENERGY PREDICTED BY IDOCK:   -4.64 KCAL/MOL
REMARK 922        TOTAL FREE ENERGY PREDICTED BY IDOCK:   -6.75 KCAL/MOL
REMARK 923 INTER-LIGAND FREE ENERGY PREDICTED BY IDOCK:   -6.07 KCAL/MOL
REMARK 924 INTRA-LIGAND FREE ENERGY PREDICTED BY IDOCK:   -0.68 KCAL/MOL
REMARK 927      BINDING AFFINITY PREDICTED BY RF-SCORE:    0.00 PKD
ROOT
HETATM    1  C   UNL     1      -8.089  11.870  66.547  1.00  0.00     0.006 C  
HETATM    2  C   UNL     1      -9.237  11.227  65.765  1.00  0.00    -0.219 C  
HETATM    3  C   UNL     1      -9.316   9.738  66.119  1.00  0.00    -0.243 C  
ENDROOT
BRANCH   2   4
HETATM    4  N   UNL     1     -10.513  11.816  66.149  1.00  0.00    -0.237 NA 
HETATM    5  H   UNL     1     -11.325  11.537  65.598  1.00  0.00     0.000 HD 
BRANCH   4   6
HETATM    6  C   UNL     1     -10.747  12.720  67.185  1.00  0.00    -0.245 A  
HETATM    7  C   UNL     1     -11.204  12.472  68.509  1.00  0.00    -0.283 A  
HETATM    8  N   UNL     1     -11.337  13.487  69.414  1.00  0.00    -0.254 NA 
HETATM    9  C   UNL     1     -10.460  14.069  66.873  1.00  0.00    -0.276 A  
HETATM   10  C   UNL     1     -10.625  15.094  67.796  1.00  0.00    -0.264 A  
HETATM   11  C   UNL     1     -11.057  14.751  69.051  1.00  0.00    -0.256 A  
BRANCH   7  12
HETATM   12  N   UNL     1     -11.596  11.189  68.965  1.00  0.00    -0.295 NA 
HETATM   13  C   UNL     1     -12.669  11.312  69.988  1.00  0.00    -0.003 C  
HETATM   14  N   UNL     1     -12.133   9.060  70.848  1.00  0.00    -0.247 N  
HETATM   15  C   UNL     1     -13.202   9.917  70.324  1.00  0.00     0.328 C  
HETATM   16  C   UNL     1     -10.949   8.991  69.968  1.00  0.00    -0.214 C  
HETATM   17  C   UNL     1     -12.215   8.665  72.179  1.00  0.00    -0.386 C  
HETATM   18  O   UNL     1     -13.035   9.187  72.938  1.00  0.00    -0.294 OA 
HETATM   19  C   UNL     1     -10.458  10.401  69.502  1.00  0.00    -0.247 C  
BRANCH  17  20
HETATM   20  C   UNL     1     -11.379   7.595  72.691  1.00  0.00    -0.370 A  
HETATM   21  C   UNL     1     -10.033   7.487  72.985  1.00  0.00    -0.321 A  
HETATM   22  C   UNL     1      -9.739   6.126  73.286  1.00  0.00    -0.159 A  
HETATM   23  C   UNL     1     -10.928   5.412  73.163  1.00  0.00    -0.302 A  
HETATM   24  N   UNL     1     -11.900   6.322  72.826  1.00  0.00    -0.504 NA 
HETATM   25  C   UNL     1     -11.005   4.025  73.336  1.00  0.00    -0.342 A  
HETATM   26  C   UNL     1      -9.824   3.347  73.662  1.00  0.00    -0.156 A  
HETATM   27  H   UNL     1     -12.883   6.088  72.693  1.00  0.00     0.000 HD 
HETATM   28  C   UNL     1      -8.629   4.041  73.827  1.00  0.00    -0.091 A  
HETATM   29  C   UNL     1      -8.562   5.425  73.621  1.00  0.00    -0.110 A  
BRANCH  28  30
HETATM   30  N   UNL     1      -7.455   3.323  74.207  1.00  0.00    -0.052 N  
HETATM   31  H   UNL     1      -7.447   2.732  75.038  1.00  0.00     0.000 HD 
BRANCH  30  32
HETATM   32  S   UNL     1      -6.079   3.483  73.237  1.00  0.00    -0.012 S  
HETATM   33  O   UNL     1      -6.432   3.431  71.841  1.00  0.00    -0.014 OA 
HETATM   34  O   UNL     1      -5.357   4.611  73.791  1.00  0.00    -0.008 OA 
HETATM   35  C   UNL     1      -5.179   2.012  73.674  1.00  0.00     0.000 C  
ENDBRANCH  30  32
ENDBRANCH  28  30
ENDBRANCH  17  20
ENDBRANCH   7  12
ENDBRANCH   4   6
ENDBRANCH   2   4
TORSDOF 6
ENDMDL
MODEL       88
REMARK 921   NORMALIZED FREE ENERGY PREDICTED BY IDOCK:   -4.62 KCAL/MOL
REMARK 922        TOTAL FREE ENERGY PREDICTED BY IDOCK:   -6.72 KCAL/MOL
REMARK 923 INTER-LIGAND FREE ENERGY PREDICTED BY IDOCK:   -6.79 KCAL/MOL
REMARK 924 INTRA-LIGAND FREE ENERGY PREDICTED BY IDOCK:    0.07 KCAL/MOL
REMARK 927      BINDING AFFINITY PREDICTED BY RF-SCORE:    0.00 PKD
ROOT
HETATM    1  C   UNL     1     -11.443  10.013  70.533  1.00  0.00    -0.407 C  
HETATM    2  C   UNL     1     -10.522   9.213  71.458  1.00  0.00    -0.352 C  
HETATM    3  C   UNL     1     -11.369   8.273  72.324  1.00  0.00    -0.446 C  
ENDROOT
BRANCH   2   4
HETATM    4  N   UNL     1      -9.623   8.369  70.683  1.00  0.00    -0.167 NA 
HETATM    5  H   UNL     1      -8.735   8.127  71.123  1.00  0.00     0.000 HD 
BRANCH   4   6
HETATM    6  C   UNL     1      -9.841   7.855  69.404  1.00  0.00    -0.180 A  
HETATM    7  C   UNL     1      -9.196   8.184  68.180  1.00  0.00    -0.133 A  
HETATM    8  N   UNL     1      -9.514   7.542  67.017  1.00  0.00    -0.153 NA 
HETATM    9  C   UNL     1     -10.827   6.844  69.330  1.00  0.00    -0.283 A  
HETATM   10  C   UNL     1     -11.158   6.218  68.135  1.00  0.00    -0.364 A  
HETATM   11  C   UNL     1     -10.470   6.596  67.011  1.00  0.00    -0.298 A  
BRANCH   7  12
HETATM   12  N   UNL     1      -8.233   9.216  68.067  1.00  0.00    -0.112 NA 
HETATM   13  C   UNL     1      -7.303   9.183  69.228  1.00  0.00    -0.070 C  
HETATM   14  N   UNL     1      -6.691  11.542  68.830  1.00  0.00    -0.078 N  
HETATM   15  C   UNL     1      -6.167  10.180  68.989  1.00  0.00    -0.043 C  
HETATM   16  C   UNL     1      -7.737  11.653  67.795  1.00  0.00    -0.126 C  
HETATM   17  C   UNL     1      -6.382  12.472  69.818  1.00  0.00    -0.076 C  
HETATM   18  O   UNL     1      -5.874  12.110  70.882  1.00  0.00    -0.341 OA 
HETATM   19  C   UNL     1      -8.849  10.561  67.937  1.00  0.00    -0.133 C  
BRANCH  17  20
HETATM   20  C   UNL     1      -6.601  13.889  69.600  1.00  0.00    -0.082 A  
HETATM   21  C   UNL     1      -7.725  14.664  69.387  1.00  0.00    -0.051 A  
HETATM   22  C   UNL     1      -7.312  15.986  69.049  1.00  0.00    -0.191 A  
HETATM   23  C   UNL     1      -5.919  15.994  69.054  1.00  0.00    -0.125 A  
HETATM   24  N   UNL     1      -5.520  14.729  69.410  1.00  0.00    -0.093 NA 
HETATM   25  C   UNL     1      -5.164  17.122  68.713  1.00  0.00    -0.141 A  
HETATM   26  C   UNL     1      -5.859  18.287  68.369  1.00  0.00    -0.183 A  
HETATM   27  H   UNL     1      -4.547  14.445  69.519  1.00  0.00     0.000 HD 
HETATM   28  C   UNL     1      -7.251  18.317  68.390  1.00  0.00    -0.268 A  
HETATM   29  C   UNL     1      -7.993  17.171  68.704  1.00  0.00    -0.265 A  
BRANCH  28  30
HETATM   30  N   UNL     1      -7.925  19.536  68.080  1.00  0.00    -0.299 N  
HETATM   31  H   UNL     1      -8.000  20.285  68.768  1.00  0.00     0.000 HD 
BRANCH  30  32
HETATM   32  S   UNL     1      -8.595  19.701  66.536  1.00  0.00    -0.365 S  
HETATM   33  O   UNL     1      -8.981  18.417  66.009  1.00  0.00    -0.497 OA 
HETATM   34  O   UNL     1      -9.549  20.786  66.653  1.00  0.00    -0.234 OA 
HETATM   35  C   UNL     1      -7.200  20.320  65.621  1.00  0.00    -0.235 C  
ENDBRANCH  30  32
ENDBRANCH  28  30
ENDBRANCH  17  20
ENDBRANCH   7  12
ENDBRANCH   4   6
ENDBRANCH   2   4
TORSDOF 6
ENDMDL
MODEL       89
REMARK 921   NORMALIZED FREE ENERGY PREDICTED BY IDOCK:   -4.60 KCAL/MOL
REMARK 922        TOTAL FREE ENERGY PREDICTED BY IDOCK:   -6.69 KCAL/MOL
REMARK 923 INTER-LIGAND FREE ENERGY PREDICTED BY IDOCK:   -6.19 KCAL/MOL
REMARK 924 INTRA-LIGAND FREE ENERGY PREDICTED BY IDOCK:   -0.51 KCAL/MOL
REMARK 927      BINDING AFFINITY PREDICTED BY RF-SCORE:    0.00 PKD
ROOT
HETATM    1  C   UNL     1      -9.221   7.434  72.992  1.00  0.00    -0.211 C  
HETATM    2  C   UNL     1      -8.794   6.441  71.908  1.00  0.00    -0.138 C  
HETATM    3  C   UNL     1      -8.299   5.151  72.571  1.00  0.00    -0.117 C  
ENDROOT
BRANCH   2   4
HETATM    4  N   UNL     1      -9.930   6.071  71.073  1.00  0.00    -0.183 NA 
HETATM    5  H   UNL     1     -10.729   5.657  71.553  1.00  0.00     0.000 HD 
BRANCH   4   6
HETATM    6  C   UNL     1     -10.045   6.222  69.691  1.00  0.00    -0.174 A  
HETATM    7  C   UNL     1     -10.070   7.413  68.914  1.00  0.00    -0.186 A  
HETATM    8  N   UNL     1     -10.147   7.368  67.551  1.00  0.00    -0.174 NA 
HETATM    9  C   UNL     1     -10.118   5.010  68.966  1.00  0.00    -0.238 A  
HETATM   10  C   UNL     1     -10.222   4.981  67.580  1.00  0.00    -0.168 A  
HETATM   11  C   UNL     1     -10.225   6.183  66.921  1.00  0.00    -0.208 A  
BRANCH   7  12
HETATM   12  N   UNL     1     -10.070   8.709  69.486  1.00  0.00    -0.197 NA 
HETATM   13  C   UNL     1     -11.434   9.061  69.965  1.00  0.00     0.010 C  
HETATM   14  N   UNL     1     -10.861  11.462  69.893  1.00  0.00     0.025 N  
HETATM   15  C   UNL     1     -11.368  10.377  70.742  1.00  0.00    -0.284 C  
HETATM   16  C   UNL     1      -9.572  11.149  69.246  1.00  0.00     0.091 C  
HETATM   17  C   UNL     1     -11.739  12.491  69.565  1.00  0.00    -0.309 C  
HETATM   18  O   UNL     1     -12.944  12.384  69.802  1.00  0.00     0.591 OA 
HETATM   19  C   UNL     1      -9.567   9.747  68.551  1.00  0.00    -0.149 C  
BRANCH  17  20
HETATM   20  C   UNL     1     -11.251  13.729  68.991  1.00  0.00    -0.272 A  
HETATM   21  C   UNL     1     -11.072  15.009  69.480  1.00  0.00    -0.292 A  
HETATM   22  C   UNL     1     -10.730  15.870  68.397  1.00  0.00    -0.281 A  
HETATM   23  C   UNL     1     -10.713  15.090  67.243  1.00  0.00    -0.298 A  
HETATM   24  N   UNL     1     -11.006  13.806  67.632  1.00  0.00    -0.260 NA 
HETATM   25  C   UNL     1     -10.464  15.619  65.972  1.00  0.00    -0.343 A  
HETATM   26  C   UNL     1     -10.211  16.993  65.880  1.00  0.00    -0.311 A  
HETATM   27  H   UNL     1     -11.040  13.009  66.998  1.00  0.00     0.000 HD 
HETATM   28  C   UNL     1     -10.187  17.789  67.021  1.00  0.00    -0.346 A  
HETATM   29  C   UNL     1     -10.467  17.251  68.284  1.00  0.00    -0.385 A  
BRANCH  28  30
HETATM   30  N   UNL     1      -9.878  19.177  66.894  1.00  0.00    -0.317 N  
HETATM   31  H   UNL     1     -10.510  19.814  66.410  1.00  0.00     0.000 HD 
BRANCH  30  32
HETATM   32  S   UNL     1      -8.430  19.731  67.571  1.00  0.00    -0.330 S  
HETATM   33  O   UNL     1      -8.201  21.110  67.221  1.00  0.00    -0.155 OA 
HETATM   34  O   UNL     1      -8.472  19.301  68.954  1.00  0.00    -0.362 OA 
HETATM   35  C   UNL     1      -7.245  18.704  66.732  1.00  0.00    -0.214 C  
ENDBRANCH  30  32
ENDBRANCH  28  30
ENDBRANCH  17  20
ENDBRANCH   7  12
ENDBRANCH   4   6
ENDBRANCH   2   4
TORSDOF 6
ENDMDL
MODEL       90
REMARK 921   NORMALIZED FREE ENERGY PREDICTED BY IDOCK:   -4.57 KCAL/MOL
REMARK 922        TOTAL FREE ENERGY PREDICTED BY IDOCK:   -6.65 KCAL/MOL
REMARK 923 INTER-LIGAND FREE ENERGY PREDICTED BY IDOCK:   -7.12 KCAL/MOL
REMARK 924 INTRA-LIGAND FREE ENERGY PREDICTED BY IDOCK:    0.47 KCAL/MOL
REMARK 927      BINDING AFFINITY PREDICTED BY RF-SCORE:    0.00 PKD
ROOT
HETATM    1  C   UNL     1      -5.897  14.537  70.945  1.00  0.00    -0.170 C  
HETATM    2  C   UNL     1      -6.158  15.414  69.718  1.00  0.00    -0.147 C  
HETATM    3  C   UNL     1      -5.632  14.702  68.468  1.00  0.00    -0.101 C  
ENDROOT
BRANCH   2   4
HETATM    4  N   UNL     1      -7.589  15.606  69.519  1.00  0.00    -0.213 NA 
HETATM    5  H   UNL     1      -8.205  15.158  70.197  1.00  0.00     0.000 HD 
BRANCH   4   6
HETATM    6  C   UNL     1      -8.208  16.334  68.503  1.00  0.00    -0.195 A  
HETATM    7  C   UNL     1      -9.330  15.986  67.702  1.00  0.00    -0.214 A  
HETATM    8  N   UNL     1      -9.832  16.851  66.771  1.00  0.00    -0.267 NA 
HETATM    9  C   UNL     1      -7.649  17.611  68.262  1.00  0.00    -0.257 A  
HETATM   10  C   UNL     1      -8.155  18.470  67.294  1.00  0.00    -0.245 A  
HETATM   11  C   UNL     1      -9.248  18.048  66.583  1.00  0.00    -0.284 A  
BRANCH   7  12
HETATM   12  N   UNL     1      -9.967  14.722  67.770  1.00  0.00    -0.222 NA 
HETATM   13  C   UNL     1     -11.277  14.842  68.465  1.00  0.00    -0.279 C  
HETATM   14  N   UNL     1     -11.249  12.427  68.976  1.00  0.00    -0.260 N  
HETATM   15  C   UNL     1     -12.023  13.511  68.360  1.00  0.00    -0.343 C  
HETATM   16  C   UNL     1      -9.872  12.319  68.458  1.00  0.00    -0.153 C  
HETATM   17  C   UNL     1     -11.762  11.841  70.130  1.00  0.00    -0.269 C  
HETATM   18  O   UNL     1     -12.713  12.355  70.723  1.00  0.00    -0.238 OA 
HETATM   19  C   UNL     1      -9.124  13.693  68.431  1.00  0.00    -0.165 C  
BRANCH  17  20
HETATM   20  C   UNL     1     -11.227  10.589  70.629  1.00  0.00    -0.198 A  
HETATM   21  C   UNL     1     -11.710   9.609  71.475  1.00  0.00    -0.472 A  
HETATM   22  C   UNL     1     -10.660   8.686  71.752  1.00  0.00    -0.395 A  
HETATM   23  C   UNL     1      -9.533   9.127  71.064  1.00  0.00    -0.274 A  
HETATM   24  N   UNL     1      -9.908  10.258  70.381  1.00  0.00    -0.309 NA 
HETATM   25  C   UNL     1      -8.292   8.487  71.147  1.00  0.00    -0.182 A  
HETATM   26  C   UNL     1      -8.204   7.345  71.952  1.00  0.00    -0.113 A  
HETATM   27  H   UNL     1      -9.290  10.788  69.767  1.00  0.00     0.000 HD 
HETATM   28  C   UNL     1      -9.324   6.861  72.622  1.00  0.00    -0.138 A  
HETATM   29  C   UNL     1     -10.553   7.530  72.553  1.00  0.00    -0.321 A  
BRANCH  28  30
HETATM   30  N   UNL     1      -9.209   5.667  73.395  1.00  0.00    -0.135 N  
HETATM   31  H   UNL     1      -9.079   5.706  74.406  1.00  0.00     0.000 HD 
BRANCH  30  32
HETATM   32  S   UNL     1      -9.294   4.186  72.583  1.00  0.00    -0.124 S  
HETATM   33  O   UNL     1      -9.688   4.380  71.211  1.00  0.00    -0.160 OA 
HETATM   34  O   UNL     1      -8.064   3.498  72.925  1.00  0.00    -0.078 OA 
HETATM   35  C   UNL     1     -10.613   3.385  73.468  1.00  0.00    -0.196 C  
ENDBRANCH  30  32
ENDBRANCH  28  30
ENDBRANCH  17  20
ENDBRANCH   7  12
ENDBRANCH   4   6
ENDBRANCH   2   4
TORSDOF 6
ENDMDL
MODEL       91
REMARK 921   NORMALIZED FREE ENERGY PREDICTED BY IDOCK:   -4.55 KCAL/MOL
REMARK 922        TOTAL FREE ENERGY PREDICTED BY IDOCK:   -6.63 KCAL/MOL
REMARK 923 INTER-LIGAND FREE ENERGY PREDICTED BY IDOCK:   -7.14 KCAL/MOL
REMARK 924 INTRA-LIGAND FREE ENERGY PREDICTED BY IDOCK:    0.51 KCAL/MOL
REMARK 927      BINDING AFFINITY PREDICTED BY RF-SCORE:    0.00 PKD
ROOT
HETATM    1  C   UNL     1     -13.592  10.385  71.861  1.00  0.00    -0.259 C  
HETATM    2  C   UNL     1     -13.296   9.005  72.452  1.00  0.00    -0.460 C  
HETATM    3  C   UNL     1     -14.128   7.951  71.713  1.00  0.00    -0.520 C  
ENDROOT
BRANCH   2   4
HETATM    4  N   UNL     1     -11.898   8.649  72.250  1.00  0.00    -0.376 NA 
HETATM    5  H   UNL     1     -11.226   9.415  72.282  1.00  0.00     0.000 HD 
BRANCH   4   6
HETATM    6  C   UNL     1     -11.377   7.375  72.018  1.00  0.00    -0.264 A  
HETATM    7  C   UNL     1     -10.627   6.898  70.908  1.00  0.00    -0.218 A  
HETATM    8  N   UNL     1     -10.157   5.616  70.869  1.00  0.00    -0.193 NA 
HETATM    9  C   UNL     1     -11.609   6.441  73.055  1.00  0.00     0.092 A  
HETATM   10  C   UNL     1     -11.146   5.132  72.989  1.00  0.00    -0.379 A  
HETATM   11  C   UNL     1     -10.421   4.773  71.883  1.00  0.00    -0.130 A  
BRANCH   7  12
HETATM   12  N   UNL     1     -10.361   7.684  69.760  1.00  0.00    -0.218 NA 
HETATM   13  C   UNL     1      -8.920   7.596  69.398  1.00  0.00    -0.139 C  
HETATM   14  N   UNL     1      -9.091   9.708  68.130  1.00  0.00    -0.123 N  
HETATM   15  C   UNL     1      -8.698   8.296  68.055  1.00  0.00    -0.135 C  
HETATM   16  C   UNL     1     -10.466   9.911  68.626  1.00  0.00    -0.206 C  
HETATM   17  C   UNL     1      -8.087  10.666  68.019  1.00  0.00    -0.112 C  
HETATM   18  O   UNL     1      -6.900  10.336  68.072  1.00  0.00    -0.069 OA 
HETATM   19  C   UNL     1     -10.765   9.103  69.932  1.00  0.00    -0.231 C  
BRANCH  17  20
HETATM   20  C   UNL     1      -8.411  12.060  67.786  1.00  0.00    -0.156 A  
HETATM   21  C   UNL     1      -8.021  12.991  66.843  1.00  0.00     0.092 A  
HETATM   22  C   UNL     1      -8.527  14.268  67.223  1.00  0.00    -0.226 A  
HETATM   23  C   UNL     1      -9.223  14.094  68.416  1.00  0.00    -0.203 A  
HETATM   24  N   UNL     1      -9.156  12.756  68.719  1.00  0.00    -0.393 NA 
HETATM   25  C   UNL     1      -9.814  15.154  69.113  1.00  0.00    -0.237 A  
HETATM   26  C   UNL     1      -9.701  16.435  68.561  1.00  0.00    -0.228 A  
HETATM   27  H   UNL     1      -9.601  12.330  69.531  1.00  0.00     0.000 HD 
HETATM   28  C   UNL     1      -9.041  16.632  67.351  1.00  0.00    -0.201 A  
HETATM   29  C   UNL     1      -8.428  15.565  66.680  1.00  0.00    -0.314 A  
BRANCH  28  30
HETATM   30  N   UNL     1      -8.987  17.945  66.794  1.00  0.00    -0.254 N  
HETATM   31  H   UNL     1      -9.838  18.431  66.510  1.00  0.00     0.000 HD 
BRANCH  30  32
HETATM   32  S   UNL     1      -7.469  18.671  66.620  1.00  0.00    -0.243 S  
HETATM   33  O   UNL     1      -6.693  18.521  67.824  1.00  0.00    -0.207 OA 
HETATM   34  O   UNL     1      -6.974  18.204  65.340  1.00  0.00    -0.510 OA 
HETATM   35  C   UNL     1      -7.927  20.378  66.419  1.00  0.00    -0.124 C  
ENDBRANCH  30  32
ENDBRANCH  28  30
ENDBRANCH  17  20
ENDBRANCH   7  12
ENDBRANCH   4   6
ENDBRANCH   2   4
TORSDOF 6
ENDMDL
MODEL       92
REMARK 921   NORMALIZED FREE ENERGY PREDICTED BY IDOCK:   -4.55 KCAL/MOL
REMARK 922        TOTAL FREE ENERGY PREDICTED BY IDOCK:   -6.62 KCAL/MOL
REMARK 923 INTER-LIGAND FREE ENERGY PREDICTED BY IDOCK:   -6.01 KCAL/MOL
REMARK 924 INTRA-LIGAND FREE ENERGY PREDICTED BY IDOCK:   -0.61 KCAL/MOL
REMARK 927      BINDING AFFINITY PREDICTED BY RF-SCORE:    0.00 PKD
ROOT
HETATM    1  C   UNL     1      -5.703   6.468  62.923  1.00  0.00    -0.030 C  
HETATM    2  C   UNL     1      -6.724   5.390  63.294  1.00  0.00    -0.033 C  
HETATM    3  C   UNL     1      -6.175   4.016  62.893  1.00  0.00    -0.018 C  
ENDROOT
BRANCH   2   4
HETATM    4  N   UNL     1      -6.931   5.352  64.736  1.00  0.00    -0.048 NA 
HETATM    5  H   UNL     1      -6.094   5.272  65.312  1.00  0.00     0.000 HD 
BRANCH   4   6
HETATM    6  C   UNL     1      -8.149   5.413  65.414  1.00  0.00    -0.120 A  
HETATM    7  C   UNL     1      -8.794   6.534  66.006  1.00  0.00    -0.143 A  
HETATM    8  N   UNL     1     -10.018   6.414  66.600  1.00  0.00    -0.168 NA 
HETATM    9  C   UNL     1      -8.846   4.185  65.496  1.00  0.00    -0.123 A  
HETATM   10  C   UNL     1     -10.079   4.074  66.126  1.00  0.00    -0.065 A  
HETATM   11  C   UNL     1     -10.625   5.216  66.654  1.00  0.00    -0.232 A  
BRANCH   7  12
HETATM   12  N   UNL     1      -8.205   7.821  66.068  1.00  0.00    -0.116 NA 
HETATM   13  C   UNL     1      -7.327   7.928  67.265  1.00  0.00    -0.092 C  
HETATM   14  N   UNL     1      -7.487  10.391  67.185  1.00  0.00    -0.091 N  
HETATM   15  C   UNL     1      -6.562   9.252  67.208  1.00  0.00    -0.064 C  
HETATM   16  C   UNL     1      -8.502  10.304  66.117  1.00  0.00    -0.141 C  
HETATM   17  C   UNL     1      -7.502  11.234  68.293  1.00  0.00    -0.099 C  
HETATM   18  O   UNL     1      -6.918  10.914  69.331  1.00  0.00    -0.098 OA 
HETATM   19  C   UNL     1      -9.213   8.912  66.068  1.00  0.00    -0.228 C  
BRANCH  17  20
HETATM   20  C   UNL     1      -8.154  12.528  68.234  1.00  0.00    -0.165 A  
HETATM   21  C   UNL     1      -7.724  13.807  67.937  1.00  0.00    -0.161 A  
HETATM   22  C   UNL     1      -8.778  14.722  68.223  1.00  0.00    -0.170 A  
HETATM   23  C   UNL     1      -9.851  13.976  68.704  1.00  0.00    -0.191 A  
HETATM   24  N   UNL     1      -9.456  12.660  68.679  1.00  0.00    -0.404 NA 
HETATM   25  C   UNL     1     -11.048  14.556  69.137  1.00  0.00    -0.284 A  
HETATM   26  C   UNL     1     -11.157  15.949  69.061  1.00  0.00    -0.294 A  
HETATM   27  H   UNL     1     -10.050  11.879  68.954  1.00  0.00     0.000 HD 
HETATM   28  C   UNL     1     -10.114  16.717  68.551  1.00  0.00    -0.281 A  
HETATM   29  C   UNL     1      -8.910  16.124  68.149  1.00  0.00    -0.184 A  
BRANCH  28  30
HETATM   30  N   UNL     1     -10.279  18.131  68.444  1.00  0.00    -0.383 N  
HETATM   31  H   UNL     1     -10.587  18.686  69.242  1.00  0.00     0.000 HD 
BRANCH  30  32
HETATM   32  S   UNL     1      -9.950  18.857  66.952  1.00  0.00    -0.371 S  
HETATM   33  O   UNL     1     -10.014  17.887  65.890  1.00  0.00    -0.533 OA 
HETATM   34  O   UNL     1     -10.764  20.056  66.929  1.00  0.00    -0.408 OA 
HETATM   35  C   UNL     1      -8.262  19.367  67.185  1.00  0.00    -0.271 C  
ENDBRANCH  30  32
ENDBRANCH  28  30
ENDBRANCH  17  20
ENDBRANCH   7  12
ENDBRANCH   4   6
ENDBRANCH   2   4
TORSDOF 6
ENDMDL
MODEL       93
REMARK 921   NORMALIZED FREE ENERGY PREDICTED BY IDOCK:   -4.46 KCAL/MOL
REMARK 922        TOTAL FREE ENERGY PREDICTED BY IDOCK:   -6.51 KCAL/MOL
REMARK 923 INTER-LIGAND FREE ENERGY PREDICTED BY IDOCK:   -6.54 KCAL/MOL
REMARK 924 INTRA-LIGAND FREE ENERGY PREDICTED BY IDOCK:    0.03 KCAL/MOL
REMARK 927      BINDING AFFINITY PREDICTED BY RF-SCORE:    0.00 PKD
ROOT
HETATM    1  C   UNL     1      -8.717   5.248  65.259  1.00  0.00    -0.151 C  
HETATM    2  C   UNL     1      -9.412   5.911  66.450  1.00  0.00    -0.155 C  
HETATM    3  C   UNL     1     -10.213   4.855  67.219  1.00  0.00    -0.190 C  
ENDROOT
BRANCH   2   4
HETATM    4  N   UNL     1      -8.431   6.452  67.382  1.00  0.00    -0.109 NA 
HETATM    5  H   UNL     1      -8.022   7.353  67.137  1.00  0.00     0.000 HD 
BRANCH   4   6
HETATM    6  C   UNL     1      -7.990   5.873  68.572  1.00  0.00    -0.102 A  
HETATM    7  C   UNL     1      -8.261   6.256  69.914  1.00  0.00    -0.121 A  
HETATM    8  N   UNL     1      -7.772   5.538  70.968  1.00  0.00    -0.100 NA 
HETATM    9  C   UNL     1      -7.181   4.724  68.409  1.00  0.00    -0.061 A  
HETATM   10  C   UNL     1      -6.669   4.019  69.491  1.00  0.00    -0.037 A  
HETATM   11  C   UNL     1      -6.999   4.460  70.746  1.00  0.00    -0.037 A  
BRANCH   7  12
HETATM   12  N   UNL     1      -9.000   7.416  70.253  1.00  0.00    -0.147 NA 
HETATM   13  C   UNL     1     -10.316   7.409  69.559  1.00  0.00    -0.217 C  
HETATM   14  N   UNL     1     -10.500   9.855  69.843  1.00  0.00    -0.250 N  
HETATM   15  C   UNL     1     -11.165   8.569  70.084  1.00  0.00    -0.136 C  
HETATM   16  C   UNL     1      -9.121   9.912  70.365  1.00  0.00     0.037 C  
HETATM   17  C   UNL     1     -11.093  10.729  68.937  1.00  0.00    -0.253 C  
HETATM   18  O   UNL     1     -12.016  10.350  68.213  1.00  0.00    -0.279 OA 
HETATM   19  C   UNL     1      -8.264   8.670  69.951  1.00  0.00    -0.121 C  
BRANCH  17  20
HETATM   20  C   UNL     1     -10.677  12.117  68.861  1.00  0.00    -0.175 A  
HETATM   21  C   UNL     1     -11.318  13.323  69.069  1.00  0.00    -0.334 A  
HETATM   22  C   UNL     1     -10.449  14.378  68.664  1.00  0.00    -0.247 A  
HETATM   23  C   UNL     1      -9.275  13.789  68.202  1.00  0.00    -0.199 A  
HETATM   24  N   UNL     1      -9.431  12.433  68.352  1.00  0.00    -0.309 NA 
HETATM   25  C   UNL     1      -8.211  14.527  67.672  1.00  0.00    -0.187 A  
HETATM   26  C   UNL     1      -8.347  15.919  67.628  1.00  0.00    -0.165 A  
HETATM   27  H   UNL     1      -8.716  11.745  68.117  1.00  0.00     0.000 HD 
HETATM   28  C   UNL     1      -9.495  16.537  68.116  1.00  0.00    -0.222 A  
HETATM   29  C   UNL     1     -10.565  15.783  68.616  1.00  0.00    -0.250 A  
BRANCH  28  30
HETATM   30  N   UNL     1      -9.579  17.962  68.099  1.00  0.00    -0.293 N  
HETATM   31  H   UNL     1      -9.397  18.509  68.941  1.00  0.00     0.000 HD 
BRANCH  30  32
HETATM   32  S   UNL     1      -9.989  18.715  66.642  1.00  0.00    -0.388 S  
HETATM   33  O   UNL     1     -10.513  17.755  65.704  1.00  0.00    -0.613 OA 
HETATM   34  O   UNL     1     -10.749  19.889  67.025  1.00  0.00    -0.450 OA 
HETATM   35  C   UNL     1      -8.395  19.275  66.085  1.00  0.00    -0.273 C  
ENDBRANCH  30  32
ENDBRANCH  28  30
ENDBRANCH  17  20
ENDBRANCH   7  12
ENDBRANCH   4   6
ENDBRANCH   2   4
TORSDOF 6
ENDMDL
MODEL       94
REMARK 921   NORMALIZED FREE ENERGY PREDICTED BY IDOCK:   -4.46 KCAL/MOL
REMARK 922        TOTAL FREE ENERGY PREDICTED BY IDOCK:   -6.51 KCAL/MOL
REMARK 923 INTER-LIGAND FREE ENERGY PREDICTED BY IDOCK:   -5.68 KCAL/MOL
REMARK 924 INTRA-LIGAND FREE ENERGY PREDICTED BY IDOCK:   -0.83 KCAL/MOL
REMARK 927      BINDING AFFINITY PREDICTED BY RF-SCORE:    0.00 PKD
ROOT
HETATM    1  C   UNL     1      -6.088  16.662  68.729  1.00  0.00    -0.144 C  
HETATM    2  C   UNL     1      -7.614  16.781  68.749  1.00  0.00    -0.240 C  
HETATM    3  C   UNL     1      -8.141  16.767  67.311  1.00  0.00    -0.201 C  
ENDROOT
BRANCH   2   4
HETATM    4  N   UNL     1      -8.209  15.636  69.424  1.00  0.00    -0.249 NA 
HETATM    5  H   UNL     1      -7.567  15.014  69.915  1.00  0.00     0.000 HD 
BRANCH   4   6
HETATM    6  C   UNL     1      -9.562  15.295  69.473  1.00  0.00    -0.215 A  
HETATM    7  C   UNL     1     -10.212  14.122  69.002  1.00  0.00    -0.121 A  
HETATM    8  N   UNL     1     -11.554  13.938  69.174  1.00  0.00    -0.291 NA 
HETATM    9  C   UNL     1     -10.391  16.248  70.109  1.00  0.00     0.025 A  
HETATM   10  C   UNL     1     -11.760  16.059  70.254  1.00  0.00    -0.304 A  
HETATM   11  C   UNL     1     -12.291  14.888  69.778  1.00  0.00    -0.244 A  
BRANCH   7  12
HETATM   12  N   UNL     1      -9.540  13.100  68.286  1.00  0.00    -0.225 NA 
HETATM   13  C   UNL     1      -9.898  13.161  66.843  1.00  0.00    -0.249 C  
HETATM   14  N   UNL     1      -9.217  10.805  66.556  1.00  0.00    -0.165 N  
HETATM   15  C   UNL     1      -9.021  12.175  66.068  1.00  0.00     0.020 C  
HETATM   16  C   UNL     1      -9.031  10.666  68.014  1.00  0.00    -0.140 C  
HETATM   17  C   UNL     1      -9.817   9.892  65.694  1.00  0.00    -0.298 C  
HETATM   18  O   UNL     1     -10.352  10.274  64.651  1.00  0.00    -0.266 OA 
HETATM   19  C   UNL     1      -9.815  11.746  68.830  1.00  0.00    -0.087 C  
BRANCH  17  20
HETATM   20  C   UNL     1      -9.781   8.469  65.975  1.00  0.00    -0.125 A  
HETATM   21  C   UNL     1     -10.378   7.663  66.925  1.00  0.00    -0.388 A  
HETATM   22  C   UNL     1      -9.825   6.354  66.828  1.00  0.00    -0.209 A  
HETATM   23  C   UNL     1      -8.878   6.383  65.808  1.00  0.00    -0.099 A  
HETATM   24  N   UNL     1      -8.888   7.659  65.299  1.00  0.00    -0.373 NA 
HETATM   25  C   UNL     1      -8.092   5.277  65.467  1.00  0.00    -0.119 A  
HETATM   26  C   UNL     1      -8.294   4.093  66.187  1.00  0.00    -0.109 A  
HETATM   27  H   UNL     1      -8.309   7.969  64.519  1.00  0.00     0.000 HD 
HETATM   28  C   UNL     1      -9.258   4.025  67.188  1.00  0.00    -0.165 A  
HETATM   29  C   UNL     1     -10.017   5.150  67.538  1.00  0.00    -0.211 A  
BRANCH  28  30
HETATM   30  N   UNL     1      -9.470   2.788  67.867  1.00  0.00    -0.277 N  
HETATM   31  H   UNL     1     -10.220   2.156  67.588  1.00  0.00     0.000 HD 
BRANCH  30  32
HETATM   32  S   UNL     1      -8.438   2.402  69.151  1.00  0.00    -0.067 S  
HETATM   33  O   UNL     1      -7.400   1.503  68.716  1.00  0.00    -0.042 OA 
HETATM   34  O   UNL     1      -8.123   3.672  69.776  1.00  0.00    -0.053 OA 
HETATM   35  C   UNL     1      -9.551   1.539  70.237  1.00  0.00    -0.044 C  
ENDBRANCH  30  32
ENDBRANCH  28  30
ENDBRANCH  17  20
ENDBRANCH   7  12
ENDBRANCH   4   6
ENDBRANCH   2   4
TORSDOF 6
ENDMDL
MODEL       95
REMARK 921   NORMALIZED FREE ENERGY PREDICTED BY IDOCK:   -4.42 KCAL/MOL
REMARK 922        TOTAL FREE ENERGY PREDICTED BY IDOCK:   -6.44 KCAL/MOL
REMARK 923 INTER-LIGAND FREE ENERGY PREDICTED BY IDOCK:   -6.51 KCAL/MOL
REMARK 924 INTRA-LIGAND FREE ENERGY PREDICTED BY IDOCK:    0.06 KCAL/MOL
REMARK 927      BINDING AFFINITY PREDICTED BY RF-SCORE:    0.00 PKD
ROOT
HETATM    1  C   UNL     1      -5.259   7.158  62.467  1.00  0.00    -0.033 C  
HETATM    2  C   UNL     1      -6.280   6.140  62.981  1.00  0.00    -0.026 C  
HETATM    3  C   UNL     1      -6.000   4.777  62.339  1.00  0.00    -0.014 C  
ENDROOT
BRANCH   2   4
HETATM    4  N   UNL     1      -6.146   5.959  64.420  1.00  0.00    -0.025 NA 
HETATM    5  H   UNL     1      -5.258   6.247  64.832  1.00  0.00     0.000 HD 
BRANCH   4   6
HETATM    6  C   UNL     1      -7.097   5.435  65.296  1.00  0.00    -0.066 A  
HETATM    7  C   UNL     1      -8.241   6.062  65.862  1.00  0.00    -0.129 A  
HETATM    8  N   UNL     1      -9.094   5.375  66.677  1.00  0.00    -0.121 NA 
HETATM    9  C   UNL     1      -6.901   4.078  65.643  1.00  0.00    -0.057 A  
HETATM   10  C   UNL     1      -7.764   3.399  66.495  1.00  0.00    -0.080 A  
HETATM   11  C   UNL     1      -8.847   4.088  66.978  1.00  0.00    -0.122 A  
BRANCH   7  12
HETATM   12  N   UNL     1      -8.547   7.432  65.668  1.00  0.00    -0.139 NA 
HETATM   13  C   UNL     1      -7.298   8.241  65.647  1.00  0.00    -0.072 C  
HETATM   14  N   UNL     1      -8.583  10.274  66.205  1.00  0.00    -0.135 N  
HETATM   15  C   UNL     1      -7.640   9.679  65.252  1.00  0.00    -0.113 C  
HETATM   16  C   UNL     1      -9.800   9.465  66.413  1.00  0.00    -0.269 C  
HETATM   17  C   UNL     1      -8.126  11.324  66.996  1.00  0.00    -0.149 C  
HETATM   18  O   UNL     1      -6.924  11.597  67.042  1.00  0.00    -0.132 OA 
HETATM   19  C   UNL     1      -9.485   7.958  66.692  1.00  0.00    -0.211 C  
BRANCH  17  20
HETATM   20  C   UNL     1      -9.055  12.154  67.739  1.00  0.00    -0.189 A  
HETATM   21  C   UNL     1     -10.130  11.887  68.565  1.00  0.00    -0.211 A  
HETATM   22  C   UNL     1     -10.788  13.114  68.870  1.00  0.00    -0.240 A  
HETATM   23  C   UNL     1     -10.097  14.126  68.209  1.00  0.00    -0.241 A  
HETATM   24  N   UNL     1      -9.049  13.524  67.556  1.00  0.00    -0.203 NA 
HETATM   25  C   UNL     1     -10.496  15.467  68.240  1.00  0.00    -0.241 A  
HETATM   26  C   UNL     1     -11.637  15.785  68.987  1.00  0.00    -0.406 A  
HETATM   27  H   UNL     1      -8.353  14.026  67.006  1.00  0.00     0.000 HD 
HETATM   28  C   UNL     1     -12.326  14.799  69.687  1.00  0.00    -0.215 A  
HETATM   29  C   UNL     1     -11.931  13.456  69.622  1.00  0.00    -0.386 A  
BRANCH  28  30
HETATM   30  N   UNL     1     -13.456  15.168  70.477  1.00  0.00    -0.691 N  
HETATM   31  H   UNL     1     -14.360  15.358  70.044  1.00  0.00     0.000 HD 
BRANCH  30  32
HETATM   32  S   UNL     1     -13.250  15.282  72.152  1.00  0.00    -0.438 S  
HETATM   33  O   UNL     1     -11.864  15.499  72.479  1.00  0.00    -0.398 OA 
HETATM   34  O   UNL     1     -14.283  16.197  72.597  1.00  0.00    -0.317 OA 
HETATM   35  C   UNL     1     -13.730  13.649  72.668  1.00  0.00    -0.439 C  
ENDBRANCH  30  32
ENDBRANCH  28  30
ENDBRANCH  17  20
ENDBRANCH   7  12
ENDBRANCH   4   6
ENDBRANCH   2   4
TORSDOF 6
ENDMDL
MODEL       96
REMARK 921   NORMALIZED FREE ENERGY PREDICTED BY IDOCK:   -4.36 KCAL/MOL
REMARK 922        TOTAL FREE ENERGY PREDICTED BY IDOCK:   -6.38 KCAL/MOL
REMARK 923 INTER-LIGAND FREE ENERGY PREDICTED BY IDOCK:   -6.25 KCAL/MOL
REMARK 924 INTRA-LIGAND FREE ENERGY PREDICTED BY IDOCK:   -0.13 KCAL/MOL
REMARK 927      BINDING AFFINITY PREDICTED BY RF-SCORE:    0.00 PKD
ROOT
HETATM    1  C   UNL     1      -6.304   4.126  74.417  1.00  0.00    -0.046 C  
HETATM    2  C   UNL     1      -6.293   4.698  72.997  1.00  0.00    -0.037 C  
HETATM    3  C   UNL     1      -5.285   5.850  72.924  1.00  0.00    -0.026 C  
ENDROOT
BRANCH   2   4
HETATM    4  N   UNL     1      -5.848   3.692  72.041  1.00  0.00    -0.008 NA 
HETATM    5  H   UNL     1      -4.993   3.189  72.278  1.00  0.00     0.000 HD 
BRANCH   4   6
HETATM    6  C   UNL     1      -6.461   3.341  70.838  1.00  0.00    -0.027 A  
HETATM    7  C   UNL     1      -7.242   4.142  69.959  1.00  0.00    -0.045 A  
HETATM    8  N   UNL     1      -7.734   3.636  68.790  1.00  0.00    -0.053 NA 
HETATM    9  C   UNL     1      -6.248   2.004  70.430  1.00  0.00    -0.023 A  
HETATM   10  C   UNL     1      -6.778   1.496  69.250  1.00  0.00    -0.029 A  
HETATM   11  C   UNL     1      -7.505   2.352  68.464  1.00  0.00    -0.047 A  
BRANCH   7  12
HETATM   12  N   UNL     1      -7.603   5.481  70.249  1.00  0.00    -0.078 NA 
HETATM   13  C   UNL     1      -8.929   5.523  70.921  1.00  0.00    -0.139 C  
HETATM   14  N   UNL     1      -9.214   7.884  70.255  1.00  0.00    -0.152 N  
HETATM   15  C   UNL     1      -9.209   6.953  71.390  1.00  0.00    -0.156 C  
HETATM   16  C   UNL     1      -7.993   7.812  69.428  1.00  0.00    -0.124 C  
HETATM   17  C   UNL     1     -10.423   8.486  69.919  1.00  0.00    -0.219 C  
HETATM   18  O   UNL     1     -11.479   8.091  70.418  1.00  0.00    -0.241 OA 
HETATM   19  C   UNL     1      -7.608   6.346  69.042  1.00  0.00    -0.100 C  
BRANCH  17  20
HETATM   20  C   UNL     1     -10.462   9.623  69.020  1.00  0.00    -0.213 A  
HETATM   21  C   UNL     1     -11.050   9.855  67.791  1.00  0.00    -0.196 A  
HETATM   22  C   UNL     1     -10.591  11.109  67.293  1.00  0.00    -0.279 A  
HETATM   23  C   UNL     1      -9.710  11.628  68.239  1.00  0.00    -0.197 A  
HETATM   24  N   UNL     1      -9.669  10.727  69.274  1.00  0.00    -0.379 NA 
HETATM   25  C   UNL     1      -9.022  12.833  68.057  1.00  0.00    -0.196 A  
HETATM   26  C   UNL     1      -9.255  13.539  66.871  1.00  0.00    -0.254 A  
HETATM   27  H   UNL     1      -9.122  10.855  70.124  1.00  0.00     0.000 HD 
HETATM   28  C   UNL     1     -10.157  13.061  65.925  1.00  0.00    -0.288 A  
HETATM   29  C   UNL     1     -10.816  11.838  66.107  1.00  0.00    -0.336 A  
BRANCH  28  30
HETATM   30  N   UNL     1     -10.406  13.832  64.749  1.00  0.00    -0.516 N  
HETATM   31  H   UNL     1      -9.966  13.592  63.861  1.00  0.00     0.000 HD 
BRANCH  30  32
HETATM   32  S   UNL     1     -11.451  15.155  64.875  1.00  0.00    -0.330 S  
HETATM   33  O   UNL     1     -10.721  16.392  64.763  1.00  0.00    -0.700 OA 
HETATM   34  O   UNL     1     -12.556  14.848  63.988  1.00  0.00    -0.832 OA 
HETATM   35  C   UNL     1     -12.043  14.967  66.542  1.00  0.00     0.020 C  
ENDBRANCH  30  32
ENDBRANCH  28  30
ENDBRANCH  17  20
ENDBRANCH   7  12
ENDBRANCH   4   6
ENDBRANCH   2   4
TORSDOF 6
ENDMDL
MODEL       97
REMARK 921   NORMALIZED FREE ENERGY PREDICTED BY IDOCK:   -4.29 KCAL/MOL
REMARK 922        TOTAL FREE ENERGY PREDICTED BY IDOCK:   -6.27 KCAL/MOL
REMARK 923 INTER-LIGAND FREE ENERGY PREDICTED BY IDOCK:   -6.55 KCAL/MOL
REMARK 924 INTRA-LIGAND FREE ENERGY PREDICTED BY IDOCK:    0.27 KCAL/MOL
REMARK 927      BINDING AFFINITY PREDICTED BY RF-SCORE:    0.00 PKD
ROOT
HETATM    1  C   UNL     1     -10.501   5.705  68.500  1.00  0.00    -0.273 C  
HETATM    2  C   UNL     1      -9.137   6.176  69.009  1.00  0.00    -0.124 C  
HETATM    3  C   UNL     1      -9.024   5.872  70.506  1.00  0.00    -0.151 C  
ENDROOT
BRANCH   2   4
HETATM    4  N   UNL     1      -8.062   5.444  68.351  1.00  0.00    -0.091 NA 
HETATM    5  H   UNL     1      -7.953   4.465  68.615  1.00  0.00     0.000 HD 
BRANCH   4   6
HETATM    6  C   UNL     1      -7.166   5.935  67.401  1.00  0.00    -0.076 A  
HETATM    7  C   UNL     1      -7.090   7.230  66.820  1.00  0.00    -0.082 A  
HETATM    8  N   UNL     1      -6.109   7.549  65.925  1.00  0.00    -0.038 NA 
HETATM    9  C   UNL     1      -6.179   5.012  66.984  1.00  0.00    -0.032 A  
HETATM   10  C   UNL     1      -5.202   5.343  66.053  1.00  0.00    -0.012 A  
HETATM   11  C   UNL     1      -5.205   6.623  65.561  1.00  0.00    -0.018 A  
BRANCH   7  12
HETATM   12  N   UNL     1      -8.038   8.251  67.080  1.00  0.00    -0.108 NA 
HETATM   13  C   UNL     1      -9.078   8.272  66.015  1.00  0.00    -0.176 C  
HETATM   14  N   UNL     1      -9.648  10.604  66.592  1.00  0.00    -0.171 N  
HETATM   15  C   UNL     1     -10.185   9.250  66.415  1.00  0.00    -0.228 C  
HETATM   16  C   UNL     1      -8.505  10.668  67.523  1.00  0.00    -0.121 C  
HETATM   17  C   UNL     1     -10.052  11.582  65.688  1.00  0.00    -0.237 C  
HETATM   18  O   UNL     1     -10.663  11.273  64.662  1.00  0.00    -0.321 OA 
HETATM   19  C   UNL     1      -7.413   9.591  67.217  1.00  0.00    -0.091 C  
BRANCH  17  20
HETATM   20  C   UNL     1      -9.813  12.987  65.957  1.00  0.00    -0.255 A  
HETATM   21  C   UNL     1     -10.404  14.160  65.528  1.00  0.00    -0.368 A  
HETATM   22  C   UNL     1      -9.622  15.261  65.984  1.00  0.00    -0.372 A  
HETATM   23  C   UNL     1      -8.545  14.733  66.690  1.00  0.00    -0.135 A  
HETATM   24  N   UNL     1      -8.696  13.368  66.677  1.00  0.00    -0.441 NA 
HETATM   25  C   UNL     1      -7.534  15.528  67.242  1.00  0.00    -0.258 A  
HETATM   26  C   UNL     1      -7.638  16.914  67.077  1.00  0.00    -0.230 A  
HETATM   27  H   UNL     1      -8.064  12.717  67.140  1.00  0.00     0.000 HD 
HETATM   28  C   UNL     1      -8.723  17.471  66.406  1.00  0.00    -0.242 A  
HETATM   29  C   UNL     1      -9.712  16.660  65.833  1.00  0.00    -0.269 A  
BRANCH  28  30
HETATM   30  N   UNL     1      -8.820  18.891  66.299  1.00  0.00    -0.292 N  
HETATM   31  H   UNL     1      -8.263  19.406  65.617  1.00  0.00     0.000 HD 
BRANCH  30  32
HETATM   32  S   UNL     1      -9.887  19.693  67.337  1.00  0.00    -0.396 S  
HETATM   33  O   UNL     1      -9.448  21.045  67.570  1.00  0.00    -0.324 OA 
HETATM   34  O   UNL     1     -11.208  19.408  66.813  1.00  0.00    -0.232 OA 
HETATM   35  C   UNL     1      -9.692  18.743  68.828  1.00  0.00    -0.384 C  
ENDBRANCH  30  32
ENDBRANCH  28  30
ENDBRANCH  17  20
ENDBRANCH   7  12
ENDBRANCH   4   6
ENDBRANCH   2   4
TORSDOF 6
ENDMDL
MODEL       98
REMARK 921   NORMALIZED FREE ENERGY PREDICTED BY IDOCK:   -4.25 KCAL/MOL
REMARK 922        TOTAL FREE ENERGY PREDICTED BY IDOCK:   -6.22 KCAL/MOL
REMARK 923 INTER-LIGAND FREE ENERGY PREDICTED BY IDOCK:   -6.41 KCAL/MOL
REMARK 924 INTRA-LIGAND FREE ENERGY PREDICTED BY IDOCK:    0.20 KCAL/MOL
REMARK 927      BINDING AFFINITY PREDICTED BY RF-SCORE:    0.00 PKD
ROOT
HETATM    1  C   UNL     1     -10.232   7.162  73.841  1.00  0.00    -0.358 C  
HETATM    2  C   UNL     1      -9.972   7.999  72.586  1.00  0.00    -0.290 C  
HETATM    3  C   UNL     1      -8.661   7.542  71.938  1.00  0.00    -0.122 C  
ENDROOT
BRANCH   2   4
HETATM    4  N   UNL     1     -11.022   7.785  71.599  1.00  0.00    -0.231 NA 
HETATM    5  H   UNL     1     -11.979   7.762  71.953  1.00  0.00     0.000 HD 
BRANCH   4   6
HETATM    6  C   UNL     1     -10.864   7.609  70.224  1.00  0.00    -0.246 A  
HETATM    7  C   UNL     1     -10.597   8.577  69.217  1.00  0.00    -0.181 A  
HETATM    8  N   UNL     1     -10.430   8.213  67.911  1.00  0.00    -0.217 NA 
HETATM    9  C   UNL     1     -10.957   6.268  69.783  1.00  0.00    -0.444 A  
HETATM   10  C   UNL     1     -10.811   5.916  68.446  1.00  0.00    -0.322 A  
HETATM   11  C   UNL     1     -10.541   6.921  67.554  1.00  0.00    -0.281 A  
BRANCH   7  12
HETATM   12  N   UNL     1     -10.537   9.968  69.479  1.00  0.00    -0.227 NA 
HETATM   13  C   UNL     1     -11.792  10.631  69.033  1.00  0.00    -0.185 C  
HETATM   14  N   UNL     1     -10.629  12.807  68.932  1.00  0.00    -0.175 N  
HETATM   15  C   UNL     1     -11.779  12.090  69.494  1.00  0.00    -0.342 C  
HETATM   16  C   UNL     1      -9.336  12.144  69.193  1.00  0.00     0.543 C  
HETATM   17  C   UNL     1     -10.885  13.815  68.008  1.00  0.00    -0.249 C  
HETATM   18  O   UNL     1     -12.012  13.952  67.527  1.00  0.00    -0.377 OA 
HETATM   19  C   UNL     1      -9.358  10.617  68.851  1.00  0.00    -0.184 C  
BRANCH  17  20
HETATM   20  C   UNL     1      -9.850  14.759  67.631  1.00  0.00    -0.218 A  
HETATM   21  C   UNL     1      -9.713  15.674  66.604  1.00  0.00    -0.266 A  
HETATM   22  C   UNL     1      -8.389  16.200  66.633  1.00  0.00    -0.321 A  
HETATM   23  C   UNL     1      -7.726  15.583  67.690  1.00  0.00    -0.158 A  
HETATM   24  N   UNL     1      -8.633  14.740  68.285  1.00  0.00    -0.157 NA 
HETATM   25  C   UNL     1      -6.379  15.820  67.986  1.00  0.00    -0.142 A  
HETATM   26  C   UNL     1      -5.690  16.734  67.179  1.00  0.00    -0.202 A  
HETATM   27  H   UNL     1      -8.433  14.171  69.107  1.00  0.00     0.000 HD 
HETATM   28  C   UNL     1      -6.338  17.392  66.138  1.00  0.00    -0.177 A  
HETATM   29  C   UNL     1      -7.679  17.121  65.835  1.00  0.00    -0.011 A  
BRANCH  28  30
HETATM   30  N   UNL     1      -5.617  18.352  65.366  1.00  0.00    -0.188 N  
HETATM   31  H   UNL     1      -5.058  18.068  64.562  1.00  0.00     0.000 HD 
BRANCH  30  32
HETATM   32  S   UNL     1      -5.718  19.976  65.827  1.00  0.00    -0.172 S  
HETATM   33  O   UNL     1      -5.228  20.154  67.170  1.00  0.00    -0.158 OA 
HETATM   34  O   UNL     1      -5.158  20.719  64.715  1.00  0.00    -0.172 OA 
HETATM   35  C   UNL     1      -7.478  20.231  65.802  1.00  0.00    -0.183 C  
ENDBRANCH  30  32
ENDBRANCH  28  30
ENDBRANCH  17  20
ENDBRANCH   7  12
ENDBRANCH   4   6
ENDBRANCH   2   4
TORSDOF 6
ENDMDL
MODEL       99
REMARK 921   NORMALIZED FREE ENERGY PREDICTED BY IDOCK:   -4.23 KCAL/MOL
REMARK 922        TOTAL FREE ENERGY PREDICTED BY IDOCK:   -6.20 KCAL/MOL
REMARK 923 INTER-LIGAND FREE ENERGY PREDICTED BY IDOCK:   -6.77 KCAL/MOL
REMARK 924 INTRA-LIGAND FREE ENERGY PREDICTED BY IDOCK:    0.57 KCAL/MOL
REMARK 927      BINDING AFFINITY PREDICTED BY RF-SCORE:    0.00 PKD
ROOT
HETATM    1  C   UNL     1      -6.392  18.187  65.698  1.00  0.00    -0.288 C  
HETATM    2  C   UNL     1      -5.815  18.630  67.044  1.00  0.00    -0.150 C  
HETATM    3  C   UNL     1      -5.145  19.999  66.880  1.00  0.00    -0.161 C  
ENDROOT
BRANCH   2   4
HETATM    4  N   UNL     1      -6.876  18.800  68.028  1.00  0.00    -0.226 NA 
HETATM    5  H   UNL     1      -6.594  18.782  69.007  1.00  0.00     0.000 HD 
BRANCH   4   6
HETATM    6  C   UNL     1      -8.236  18.985  67.777  1.00  0.00    -0.276 A  
HETATM    7  C   UNL     1      -9.327  18.110  68.036  1.00  0.00    -0.283 A  
HETATM    8  N   UNL     1     -10.612  18.478  67.759  1.00  0.00    -0.406 NA 
HETATM    9  C   UNL     1      -8.571  20.237  67.209  1.00  0.00    -0.425 A  
HETATM   10  C   UNL     1      -9.882  20.588  66.909  1.00  0.00    -0.506 A  
HETATM   11  C   UNL     1     -10.864  19.680  67.210  1.00  0.00    -0.395 A  
BRANCH   7  12
HETATM   12  N   UNL     1      -9.160  16.797  68.541  1.00  0.00    -0.233 NA 
HETATM   13  C   UNL     1      -7.718  16.515  68.779  1.00  0.00    -0.226 C  
HETATM   14  N   UNL     1      -8.158  14.087  68.691  1.00  0.00    -0.136 N  
HETATM   15  C   UNL     1      -7.582  15.170  69.496  1.00  0.00    -0.207 C  
HETATM   16  C   UNL     1      -9.551  14.341  68.273  1.00  0.00    -0.221 C  
HETATM   17  C   UNL     1      -7.288  13.128  68.181  1.00  0.00    -0.119 C  
HETATM   18  O   UNL     1      -6.068  13.303  68.226  1.00  0.00    -0.074 OA 
HETATM   19  C   UNL     1      -9.748  15.763  67.652  1.00  0.00    -0.222 C  
BRANCH  17  20
HETATM   20  C   UNL     1      -7.792  11.882  67.636  1.00  0.00    -0.142 A  
HETATM   21  C   UNL     1      -8.363  10.753  68.192  1.00  0.00    -0.120 A  
HETATM   22  C   UNL     1      -8.493   9.760  67.178  1.00  0.00    -0.125 A  
HETATM   23  C   UNL     1      -7.985  10.305  66.002  1.00  0.00    -0.138 A  
HETATM   24  N   UNL     1      -7.592  11.586  66.301  1.00  0.00    -0.372 NA 
HETATM   25  C   UNL     1      -7.903   9.586  64.804  1.00  0.00    -0.120 A  
HETATM   26  C   UNL     1      -8.372   8.267  64.807  1.00  0.00    -0.129 A  
HETATM   27  H   UNL     1      -7.201  12.238  65.622  1.00  0.00     0.000 HD 
HETATM   28  C   UNL     1      -8.918   7.709  65.959  1.00  0.00    -0.139 A  
HETATM   29  C   UNL     1      -8.966   8.431  67.159  1.00  0.00    -0.153 A  
BRANCH  28  30
HETATM   30  N   UNL     1      -9.431   6.378  65.911  1.00  0.00    -0.378 N  
HETATM   31  H   UNL     1     -10.365   6.188  65.549  1.00  0.00     0.000 HD 
BRANCH  30  32
HETATM   32  S   UNL     1      -8.442   5.127  66.475  1.00  0.00    -0.111 S  
HETATM   33  O   UNL     1      -8.610   3.945  65.668  1.00  0.00    -0.109 OA 
HETATM   34  O   UNL     1      -7.139   5.733  66.664  1.00  0.00    -0.066 OA 
HETATM   35  C   UNL     1      -9.134   4.844  68.089  1.00  0.00    -0.114 C  
ENDBRANCH  30  32
ENDBRANCH  28  30
ENDBRANCH  17  20
ENDBRANCH   7  12
ENDBRANCH   4   6
ENDBRANCH   2   4
TORSDOF 6
ENDMDL
MODEL      100
REMARK 921   NORMALIZED FREE ENERGY PREDICTED BY IDOCK:   -4.21 KCAL/MOL
REMARK 922        TOTAL FREE ENERGY PREDICTED BY IDOCK:   -6.17 KCAL/MOL
REMARK 923 INTER-LIGAND FREE ENERGY PREDICTED BY IDOCK:   -6.16 KCAL/MOL
REMARK 924 INTRA-LIGAND FREE ENERGY PREDICTED BY IDOCK:   -0.01 KCAL/MOL
REMARK 927      BINDING AFFINITY PREDICTED BY RF-SCORE:    0.00 PKD
ROOT
HETATM    1  C   UNL     1     -11.985  15.435  70.665  1.00  0.00    -0.396 C  
HETATM    2  C   UNL     1     -11.472  15.722  69.252  1.00  0.00    -0.365 C  
HETATM    3  C   UNL     1     -10.401  16.816  69.316  1.00  0.00    -0.309 C  
ENDROOT
BRANCH   2   4
HETATM    4  N   UNL     1     -10.830  14.541  68.689  1.00  0.00    -0.243 NA 
HETATM    5  H   UNL     1     -10.395  13.901  69.354  1.00  0.00     0.000 HD 
BRANCH   4   6
HETATM    6  C   UNL     1     -10.744  14.189  67.342  1.00  0.00    -0.284 A  
HETATM    7  C   UNL     1     -10.962  12.926  66.725  1.00  0.00    -0.272 A  
HETATM    8  N   UNL     1     -10.874  12.774  65.371  1.00  0.00    -0.281 NA 
HETATM    9  C   UNL     1     -10.422  15.255  66.469  1.00  0.00    -0.299 A  
HETATM   10  C   UNL     1     -10.310  15.079  65.095  1.00  0.00    -0.422 A  
HETATM   11  C   UNL     1     -10.552  13.826  64.596  1.00  0.00    -0.425 A  
BRANCH   7  12
HETATM   12  N   UNL     1     -11.230  11.744  67.459  1.00  0.00    -0.270 NA 
HETATM   13  C   UNL     1     -12.081  12.053  68.640  1.00  0.00    -0.088 C  
HETATM   14  N   UNL     1     -11.340   9.971  69.742  1.00  0.00    -0.245 N  
HETATM   15  C   UNL     1     -12.509  10.743  69.305  1.00  0.00     0.186 C  
HETATM   16  C   UNL     1     -10.353   9.738  68.669  1.00  0.00    -0.201 C  
HETATM   17  C   UNL     1     -11.148   9.808  71.111  1.00  0.00    -0.344 C  
HETATM   18  O   UNL     1     -11.812  10.462  71.918  1.00  0.00     0.011 OA 
HETATM   19  C   UNL     1      -9.992  11.042  67.884  1.00  0.00    -0.174 C  
BRANCH  17  20
HETATM   20  C   UNL     1     -10.206   8.829  71.618  1.00  0.00    -0.324 A  
HETATM   21  C   UNL     1     -10.330   7.545  72.114  1.00  0.00    -0.252 A  
HETATM   22  C   UNL     1      -9.071   7.133  72.639  1.00  0.00    -0.157 A  
HETATM   23  C   UNL     1      -8.186   8.192  72.459  1.00  0.00    -0.159 A  
HETATM   24  N   UNL     1      -8.887   9.188  71.824  1.00  0.00    -0.308 NA 
HETATM   25  C   UNL     1      -6.860   8.161  72.907  1.00  0.00    -0.111 A  
HETATM   26  C   UNL     1      -6.422   6.997  73.550  1.00  0.00    -0.066 A  
HETATM   27  H   UNL     1      -8.486  10.080  71.540  1.00  0.00     0.000 HD 
HETATM   28  C   UNL     1      -7.276   5.910  73.712  1.00  0.00    -0.085 A  
HETATM   29  C   UNL     1      -8.609   5.968  73.284  1.00  0.00    -0.117 A  
BRANCH  28  30
HETATM   30  N   UNL     1      -6.780   4.722  74.329  1.00  0.00    -0.068 N  
HETATM   31  H   UNL     1      -6.526   4.710  75.316  1.00  0.00     0.000 HD 
BRANCH  30  32
HETATM   32  S   UNL     1      -6.625   3.336  73.372  1.00  0.00    -0.031 S  
HETATM   33  O   UNL     1      -7.742   2.449  73.578  1.00  0.00    -0.044 OA 
HETATM   34  O   UNL     1      -6.285   3.827  72.051  1.00  0.00    -0.013 OA 
HETATM   35  C   UNL     1      -5.156   2.607  74.060  1.00  0.00     0.000 C  
ENDBRANCH  30  32
ENDBRANCH  28  30
ENDBRANCH  17  20
ENDBRANCH   7  12
ENDBRANCH   4   6
ENDBRANCH   2   4
TORSDOF 6
ENDMDL
MODEL      101
REMARK 921   NORMALIZED FREE ENERGY PREDICTED BY IDOCK:   -4.17 KCAL/MOL
REMARK 922        TOTAL FREE ENERGY PREDICTED BY IDOCK:   -6.11 KCAL/MOL
REMARK 923 INTER-LIGAND FREE ENERGY PREDICTED BY IDOCK:   -5.62 KCAL/MOL
REMARK 924 INTRA-LIGAND FREE ENERGY PREDICTED BY IDOCK:   -0.49 KCAL/MOL
REMARK 927      BINDING AFFINITY PREDICTED BY RF-SCORE:    0.00 PKD
ROOT
HETATM    1  C   UNL     1     -10.510   4.618  73.032  1.00  0.00    -0.258 C  
HETATM    2  C   UNL     1      -9.371   3.777  73.613  1.00  0.00    -0.099 C  
HETATM    3  C   UNL     1      -9.484   2.342  73.088  1.00  0.00    -0.120 C  
ENDROOT
BRANCH   2   4
HETATM    4  N   UNL     1      -8.079   4.284  73.168  1.00  0.00    -0.090 NA 
HETATM    5  H   UNL     1      -7.669   5.032  73.727  1.00  0.00     0.000 HD 
BRANCH   4   6
HETATM    6  C   UNL     1      -7.343   3.860  72.061  1.00  0.00    -0.059 A  
HETATM    7  C   UNL     1      -7.546   4.144  70.683  1.00  0.00    -0.048 A  
HETATM    8  N   UNL     1      -6.691   3.671  69.729  1.00  0.00    -0.033 NA 
HETATM    9  C   UNL     1      -6.220   3.056  72.368  1.00  0.00    -0.013 A  
HETATM   10  C   UNL     1      -5.373   2.561  71.383  1.00  0.00    -0.004 A  
HETATM   11  C   UNL     1      -5.646   2.903  70.084  1.00  0.00    -0.017 A  
BRANCH   7  12
HETATM   12  N   UNL     1      -8.657   4.879  70.200  1.00  0.00    -0.090 NA 
HETATM   13  C   UNL     1      -8.984   4.465  68.809  1.00  0.00    -0.110 C  
HETATM   14  N   UNL     1     -10.176   6.595  68.435  1.00  0.00    -0.160 N  
HETATM   15  C   UNL     1     -10.293   5.133  68.382  1.00  0.00    -0.070 C  
HETATM   16  C   UNL     1      -9.709   7.102  69.740  1.00  0.00    -0.165 C  
HETATM   17  C   UNL     1     -10.224   7.291  67.231  1.00  0.00    -0.253 C  
HETATM   18  O   UNL     1     -10.152   6.690  66.157  1.00  0.00     0.051 OA 
HETATM   19  C   UNL     1      -8.443   6.347  70.265  1.00  0.00    -0.135 C  
BRANCH  17  20
HETATM   20  C   UNL     1     -10.413   8.729  67.210  1.00  0.00    -0.283 A  
HETATM   21  C   UNL     1      -9.842   9.761  66.491  1.00  0.00    -0.286 A  
HETATM   22  C   UNL     1     -10.295  11.000  67.030  1.00  0.00    -0.269 A  
HETATM   23  C   UNL     1     -11.144  10.699  68.092  1.00  0.00    -0.285 A  
HETATM   24  N   UNL     1     -11.214   9.329  68.163  1.00  0.00    -0.458 NA 
HETATM   25  C   UNL     1     -11.736  11.681  68.895  1.00  0.00    -0.397 A  
HETATM   26  C   UNL     1     -11.461  13.019  68.590  1.00  0.00    -0.344 A  
HETATM   27  H   UNL     1     -11.785   8.819  68.836  1.00  0.00     0.000 HD 
HETATM   28  C   UNL     1     -10.645  13.349  67.511  1.00  0.00    -0.250 A  
HETATM   29  C   UNL     1     -10.035  12.355  66.736  1.00  0.00    -0.234 A  
BRANCH  28  30
HETATM   30  N   UNL     1     -10.426  14.725  67.201  1.00  0.00    -0.263 N  
HETATM   31  H   UNL     1     -11.029  15.217  66.542  1.00  0.00     0.000 HD 
BRANCH  30  32
HETATM   32  S   UNL     1      -9.136  15.514  67.959  1.00  0.00    -0.183 S  
HETATM   33  O   UNL     1      -9.613  16.606  68.768  1.00  0.00    -0.237 OA 
HETATM   34  O   UNL     1      -8.326  14.453  68.525  1.00  0.00    -0.149 OA 
HETATM   35  C   UNL     1      -8.256  16.159  66.554  1.00  0.00    -0.308 C  
ENDBRANCH  30  32
ENDBRANCH  28  30
ENDBRANCH  17  20
ENDBRANCH   7  12
ENDBRANCH   4   6
ENDBRANCH   2   4
TORSDOF 6
ENDMDL
MODEL      102
REMARK 921   NORMALIZED FREE ENERGY PREDICTED BY IDOCK:   -4.15 KCAL/MOL
REMARK 922        TOTAL FREE ENERGY PREDICTED BY IDOCK:   -6.09 KCAL/MOL
REMARK 923 INTER-LIGAND FREE ENERGY PREDICTED BY IDOCK:   -5.96 KCAL/MOL
REMARK 924 INTRA-LIGAND FREE ENERGY PREDICTED BY IDOCK:   -0.13 KCAL/MOL
REMARK 927      BINDING AFFINITY PREDICTED BY RF-SCORE:    0.00 PKD
ROOT
HETATM    1  C   UNL     1      -6.675   9.253  69.799  1.00  0.00    -0.051 C  
HETATM    2  C   UNL     1      -6.583   7.982  70.648  1.00  0.00    -0.037 C  
HETATM    3  C   UNL     1      -5.775   8.278  71.915  1.00  0.00    -0.039 C  
ENDROOT
BRANCH   2   4
HETATM    4  N   UNL     1      -7.907   7.560  71.085  1.00  0.00    -0.090 NA 
HETATM    5  H   UNL     1      -8.408   8.202  71.700  1.00  0.00     0.000 HD 
BRANCH   4   6
HETATM    6  C   UNL     1      -8.566   6.374  70.757  1.00  0.00    -0.135 A  
HETATM    7  C   UNL     1      -9.442   6.102  69.671  1.00  0.00    -0.145 A  
HETATM    8  N   UNL     1      -9.968   4.857  69.480  1.00  0.00    -0.217 NA 
HETATM    9  C   UNL     1      -8.294   5.286  71.619  1.00  0.00    -0.118 A  
HETATM   10  C   UNL     1      -8.857   4.030  71.426  1.00  0.00    -0.145 A  
HETATM   11  C   UNL     1      -9.679   3.865  70.342  1.00  0.00    -0.175 A  
BRANCH   7  12
HETATM   12  N   UNL     1      -9.868   7.095  68.754  1.00  0.00    -0.156 NA 
HETATM   13  C   UNL     1      -8.883   7.231  67.647  1.00  0.00    -0.123 C  
HETATM   14  N   UNL     1      -9.732   9.494  67.143  1.00  0.00    -0.163 N  
HETATM   15  C   UNL     1      -9.454   8.167  66.580  1.00  0.00    -0.213 C  
HETATM   16  C   UNL     1     -10.586   9.456  68.346  1.00  0.00    -0.204 C  
HETATM   17  C   UNL     1      -8.961  10.562  66.692  1.00  0.00    -0.141 C  
HETATM   18  O   UNL     1      -7.953  10.362  66.011  1.00  0.00    -0.132 OA 
HETATM   19  C   UNL     1     -10.099   8.411  69.403  1.00  0.00    -0.198 C  
BRANCH  17  20
HETATM   20  C   UNL     1      -9.355  11.930  66.964  1.00  0.00    -0.188 A  
HETATM   21  C   UNL     1      -8.722  13.014  67.544  1.00  0.00    -0.197 A  
HETATM   22  C   UNL     1      -9.673  14.062  67.713  1.00  0.00    -0.228 A  
HETATM   23  C   UNL     1     -10.892  13.592  67.233  1.00  0.00    -0.276 A  
HETATM   24  N   UNL     1     -10.667  12.318  66.769  1.00  0.00    -0.234 NA 
HETATM   25  C   UNL     1     -12.073  14.342  67.289  1.00  0.00    -0.390 A  
HETATM   26  C   UNL     1     -11.998  15.625  67.844  1.00  0.00     0.187 A  
HETATM   27  H   UNL     1     -11.380  11.733  66.336  1.00  0.00     0.000 HD 
HETATM   28  C   UNL     1     -10.785  16.133  68.299  1.00  0.00    -0.307 A  
HETATM   29  C   UNL     1      -9.618  15.359  68.264  1.00  0.00    -0.205 A  
BRANCH  28  30
HETATM   30  N   UNL     1     -10.739  17.464  68.815  1.00  0.00    -0.305 N  
HETATM   31  H   UNL     1     -11.082  17.677  69.751  1.00  0.00     0.000 HD 
BRANCH  30  32
HETATM   32  S   UNL     1     -10.097  18.675  67.825  1.00  0.00    -0.392 S  
HETATM   33  O   UNL     1     -10.878  19.881  67.926  1.00  0.00    -0.286 OA 
HETATM   34  O   UNL     1      -8.674  18.673  68.101  1.00  0.00    -0.294 OA 
HETATM   35  C   UNL     1     -10.325  17.957  66.213  1.00  0.00    -0.364 C  
ENDBRANCH  30  32
ENDBRANCH  28  30
ENDBRANCH  17  20
ENDBRANCH   7  12
ENDBRANCH   4   6
ENDBRANCH   2   4
TORSDOF 6
ENDMDL
MODEL      103
REMARK 921   NORMALIZED FREE ENERGY PREDICTED BY IDOCK:   -4.03 KCAL/MOL
REMARK 922        TOTAL FREE ENERGY PREDICTED BY IDOCK:   -5.93 KCAL/MOL
REMARK 923 INTER-LIGAND FREE ENERGY PREDICTED BY IDOCK:   -5.61 KCAL/MOL
REMARK 924 INTRA-LIGAND FREE ENERGY PREDICTED BY IDOCK:   -0.32 KCAL/MOL
REMARK 927      BINDING AFFINITY PREDICTED BY RF-SCORE:    0.00 PKD
ROOT
HETATM    1  C   UNL     1     -10.172  17.032  65.600  1.00  0.00    -0.196 C  
HETATM    2  C   UNL     1      -9.440  15.695  65.739  1.00  0.00    -0.303 C  
HETATM    3  C   UNL     1      -8.430  15.790  66.887  1.00  0.00    -0.281 C  
ENDROOT
BRANCH   2   4
HETATM    4  N   UNL     1     -10.372  14.632  66.089  1.00  0.00    -0.289 NA 
HETATM    5  H   UNL     1     -10.655  14.582  67.067  1.00  0.00     0.000 HD 
BRANCH   4   6
HETATM    6  C   UNL     1     -10.919  13.675  65.234  1.00  0.00    -0.310 A  
HETATM    7  C   UNL     1     -10.613  12.291  65.119  1.00  0.00    -0.285 A  
HETATM    8  N   UNL     1     -11.287  11.486  64.245  1.00  0.00    -0.291 NA 
HETATM    9  C   UNL     1     -11.944  14.153  64.385  1.00  0.00    -0.478 A  
HETATM   10  C   UNL     1     -12.603  13.328  63.482  1.00  0.00    -0.172 A  
HETATM   11  C   UNL     1     -12.245  12.005  63.456  1.00  0.00    -0.547 A  
BRANCH   7  12
HETATM   12  N   UNL     1      -9.572  11.666  65.849  1.00  0.00    -0.225 NA 
HETATM   13  C   UNL     1      -8.792  10.761  64.963  1.00  0.00    -0.177 C  
HETATM   14  N   UNL     1      -7.971   9.512  66.928  1.00  0.00    -0.108 N  
HETATM   15  C   UNL     1      -7.567  10.247  65.723  1.00  0.00    -0.143 C  
HETATM   16  C   UNL     1      -8.876  10.275  67.809  1.00  0.00    -0.125 C  
HETATM   17  C   UNL     1      -7.717   8.144  66.965  1.00  0.00    -0.096 C  
HETATM   18  O   UNL     1      -7.365   7.545  65.946  1.00  0.00    -0.071 OA 
HETATM   19  C   UNL     1     -10.071  10.923  67.035  1.00  0.00    -0.205 C  
BRANCH  17  20
HETATM   20  C   UNL     1      -7.807   7.404  68.209  1.00  0.00    -0.122 A  
HETATM   21  C   UNL     1      -6.874   6.912  69.102  1.00  0.00    -0.068 A  
HETATM   22  C   UNL     1      -7.544   6.099  70.062  1.00  0.00    -0.095 A  
HETATM   23  C   UNL     1      -8.897   6.104  69.731  1.00  0.00    -0.135 A  
HETATM   24  N   UNL     1      -9.028   6.913  68.628  1.00  0.00    -0.130 NA 
HETATM   25  C   UNL     1      -9.854   5.363  70.432  1.00  0.00    -0.270 A  
HETATM   26  C   UNL     1      -9.414   4.601  71.521  1.00  0.00    -0.214 A  
HETATM   27  H   UNL     1      -9.917   7.124  68.176  1.00  0.00     0.000 HD 
HETATM   28  C   UNL     1      -8.073   4.606  71.896  1.00  0.00    -0.101 A  
HETATM   29  C   UNL     1      -7.121   5.330  71.166  1.00  0.00    -0.061 A  
BRANCH  28  30
HETATM   30  N   UNL     1      -7.669   3.856  73.041  1.00  0.00    -0.073 N  
HETATM   31  H   UNL     1      -8.357   3.411  73.647  1.00  0.00     0.000 HD 
BRANCH  30  32
HETATM   32  S   UNL     1      -6.013   3.729  73.361  1.00  0.00    -0.008 S  
HETATM   33  O   UNL     1      -5.295   3.338  72.175  1.00  0.00     0.000 OA 
HETATM   34  O   UNL     1      -5.675   4.939  74.084  1.00  0.00    -0.023 OA 
HETATM   35  C   UNL     1      -5.993   2.390  74.532  1.00  0.00    -0.004 C  
ENDBRANCH  30  32
ENDBRANCH  28  30
ENDBRANCH  17  20
ENDBRANCH   7  12
ENDBRANCH   4   6
ENDBRANCH   2   4
TORSDOF 6
ENDMDL
MODEL      104
REMARK 921   NORMALIZED FREE ENERGY PREDICTED BY IDOCK:   -3.99 KCAL/MOL
REMARK 922        TOTAL FREE ENERGY PREDICTED BY IDOCK:   -5.88 KCAL/MOL
REMARK 923 INTER-LIGAND FREE ENERGY PREDICTED BY IDOCK:   -5.52 KCAL/MOL
REMARK 924 INTRA-LIGAND FREE ENERGY PREDICTED BY IDOCK:   -0.36 KCAL/MOL
REMARK 927      BINDING AFFINITY PREDICTED BY RF-SCORE:    0.00 PKD
ROOT
HETATM    1  C   UNL     1     -10.428   8.702  67.934  1.00  0.00    -0.269 C  
HETATM    2  C   UNL     1      -9.875   7.280  68.058  1.00  0.00    -0.145 C  
HETATM    3  C   UNL     1     -11.007   6.333  68.470  1.00  0.00    -0.421 C  
ENDROOT
BRANCH   2   4
HETATM    4  N   UNL     1      -9.382   6.807  66.771  1.00  0.00    -0.155 NA 
HETATM    5  H   UNL     1      -9.868   7.153  65.944  1.00  0.00     0.000 HD 
BRANCH   4   6
HETATM    6  C   UNL     1      -8.318   5.933  66.546  1.00  0.00    -0.112 A  
HETATM    7  C   UNL     1      -6.922   6.154  66.706  1.00  0.00    -0.071 A  
HETATM    8  N   UNL     1      -6.017   5.157  66.476  1.00  0.00    -0.022 NA 
HETATM    9  C   UNL     1      -8.694   4.636  66.126  1.00  0.00    -0.114 A  
HETATM   10  C   UNL     1      -7.759   3.640  65.870  1.00  0.00    -0.089 A  
HETATM   11  C   UNL     1      -6.438   3.947  66.067  1.00  0.00    -0.037 A  
BRANCH   7  12
HETATM   12  N   UNL     1      -6.374   7.412  67.058  1.00  0.00    -0.050 NA 
HETATM   13  C   UNL     1      -6.562   7.667  68.512  1.00  0.00    -0.053 C  
HETATM   14  N   UNL     1      -6.290  10.093  68.140  1.00  0.00    -0.053 N  
HETATM   15  C   UNL     1      -5.801   8.937  68.900  1.00  0.00    -0.040 C  
HETATM   16  C   UNL     1      -6.285   9.883  66.680  1.00  0.00    -0.068 C  
HETATM   17  C   UNL     1      -6.952  11.095  68.844  1.00  0.00    -0.095 C  
HETATM   18  O   UNL     1      -7.297  10.916  70.014  1.00  0.00    -0.064 OA 
HETATM   19  C   UNL     1      -6.943   8.527  66.260  1.00  0.00    -0.077 C  
BRANCH  17  20
HETATM   20  C   UNL     1      -7.201  12.389  68.237  1.00  0.00    -0.103 A  
HETATM   21  C   UNL     1      -6.553  13.609  68.278  1.00  0.00    -0.108 A  
HETATM   22  C   UNL     1      -7.366  14.581  67.626  1.00  0.00    -0.201 A  
HETATM   23  C   UNL     1      -8.519  13.930  67.196  1.00  0.00    -0.180 A  
HETATM   24  N   UNL     1      -8.384  12.611  67.557  1.00  0.00    -0.166 NA 
HETATM   25  C   UNL     1      -9.574  14.592  66.558  1.00  0.00    -0.311 A  
HETATM   26  C   UNL     1      -9.436  15.967  66.338  1.00  0.00    -0.322 A  
HETATM   27  H   UNL     1      -9.070  11.887  67.348  1.00  0.00     0.000 HD 
HETATM   28  C   UNL     1      -8.279  16.637  66.725  1.00  0.00    -0.239 A  
HETATM   29  C   UNL     1      -7.244  15.966  67.390  1.00  0.00    -0.227 A  
BRANCH  28  30
HETATM   30  N   UNL     1      -8.153  18.030  66.441  1.00  0.00    -0.266 N  
HETATM   31  H   UNL     1      -7.474  18.368  65.759  1.00  0.00     0.000 HD 
BRANCH  30  32
HETATM   32  S   UNL     1      -9.164  19.102  67.270  1.00  0.00    -0.296 S  
HETATM   33  O   UNL     1      -9.734  18.468  68.431  1.00  0.00    -0.327 OA 
HETATM   34  O   UNL     1      -8.401  20.330  67.379  1.00  0.00    -0.331 OA 
HETATM   35  C   UNL     1     -10.439  19.376  66.061  1.00  0.00    -0.505 C  
ENDBRANCH  30  32
ENDBRANCH  28  30
ENDBRANCH  17  20
ENDBRANCH   7  12
ENDBRANCH   4   6
ENDBRANCH   2   4
TORSDOF 6
ENDMDL
MODEL      105
REMARK 921   NORMALIZED FREE ENERGY PREDICTED BY IDOCK:   -3.95 KCAL/MOL
REMARK 922        TOTAL FREE ENERGY PREDICTED BY IDOCK:   -5.82 KCAL/MOL
REMARK 923 INTER-LIGAND FREE ENERGY PREDICTED BY IDOCK:   -5.78 KCAL/MOL
REMARK 924 INTRA-LIGAND FREE ENERGY PREDICTED BY IDOCK:   -0.05 KCAL/MOL
REMARK 927      BINDING AFFINITY PREDICTED BY RF-SCORE:    0.00 PKD
ROOT
HETATM    1  C   UNL     1      -7.865   7.947  63.272  1.00  0.00    -0.141 C  
HETATM    2  C   UNL     1      -8.389   9.171  64.028  1.00  0.00    -0.180 C  
HETATM    3  C   UNL     1      -9.194  10.052  63.066  1.00  0.00    -0.313 C  
ENDROOT
BRANCH   2   4
HETATM    4  N   UNL     1      -9.303   8.767  65.088  1.00  0.00    -0.430 NA 
HETATM    5  H   UNL     1     -10.242   9.163  65.052  1.00  0.00     0.000 HD 
BRANCH   4   6
HETATM    6  C   UNL     1      -9.035   7.900  66.148  1.00  0.00    -0.175 A  
HETATM    7  C   UNL     1      -8.172   8.082  67.264  1.00  0.00    -0.122 A  
HETATM    8  N   UNL     1      -8.064   7.132  68.238  1.00  0.00    -0.123 NA 
HETATM    9  C   UNL     1      -9.749   6.680  66.112  1.00  0.00     0.030 A  
HETATM   10  C   UNL     1      -9.609   5.710  67.098  1.00  0.00    -0.137 A  
HETATM   11  C   UNL     1      -8.762   5.987  68.141  1.00  0.00    -0.113 A  
BRANCH   7  12
HETATM   12  N   UNL     1      -7.338   9.218  67.419  1.00  0.00    -0.086 NA 
HETATM   13  C   UNL     1      -6.623   9.157  68.723  1.00  0.00    -0.053 C  
HETATM   14  N   UNL     1      -6.248  11.596  68.652  1.00  0.00    -0.051 N  
HETATM   15  C   UNL     1      -5.595  10.289  68.783  1.00  0.00    -0.037 C  
HETATM   16  C   UNL     1      -7.109  11.708  67.458  1.00  0.00    -0.111 C  
HETATM   17  C   UNL     1      -6.230  12.441  69.758  1.00  0.00    -0.119 C  
HETATM   18  O   UNL     1      -5.869  12.022  70.860  1.00  0.00    -0.348 OA 
HETATM   19  C   UNL     1      -8.085  10.496  67.299  1.00  0.00    -0.115 C  
BRANCH  17  20
HETATM   20  C   UNL     1      -6.582  13.842  69.629  1.00  0.00    -0.082 A  
HETATM   21  C   UNL     1      -7.635  14.517  69.042  1.00  0.00    -0.124 A  
HETATM   22  C   UNL     1      -7.355  15.914  69.068  1.00  0.00    -0.185 A  
HETATM   23  C   UNL     1      -6.112  16.072  69.674  1.00  0.00    -0.172 A  
HETATM   24  N   UNL     1      -5.681  14.815  70.021  1.00  0.00    -0.113 NA 
HETATM   25  C   UNL     1      -5.491  17.317  69.823  1.00  0.00    -0.208 A  
HETATM   26  C   UNL     1      -6.174  18.443  69.348  1.00  0.00    -0.266 A  
HETATM   27  H   UNL     1      -4.806  14.623  70.506  1.00  0.00     0.000 HD 
HETATM   28  C   UNL     1      -7.434  18.317  68.769  1.00  0.00    -0.283 A  
HETATM   29  C   UNL     1      -8.030  17.061  68.600  1.00  0.00    -0.258 A  
BRANCH  28  30
HETATM   30  N   UNL     1      -8.122  19.492  68.340  1.00  0.00    -0.338 N  
HETATM   31  H   UNL     1      -8.603  20.093  69.008  1.00  0.00     0.000 HD 
BRANCH  30  32
HETATM   32  S   UNL     1      -8.114  19.856  66.688  1.00  0.00    -0.327 S  
HETATM   33  O   UNL     1      -7.412  21.091  66.443  1.00  0.00     0.023 OA 
HETATM   34  O   UNL     1      -7.723  18.624  66.033  1.00  0.00    -0.385 OA 
HETATM   35  C   UNL     1      -9.850  20.092  66.381  1.00  0.00    -0.435 C  
ENDBRANCH  30  32
ENDBRANCH  28  30
ENDBRANCH  17  20
ENDBRANCH   7  12
ENDBRANCH   4   6
ENDBRANCH   2   4
TORSDOF 6
ENDMDL
MODEL      106
REMARK 921   NORMALIZED FREE ENERGY PREDICTED BY IDOCK:   -3.92 KCAL/MOL
REMARK 922        TOTAL FREE ENERGY PREDICTED BY IDOCK:   -5.77 KCAL/MOL
REMARK 923 INTER-LIGAND FREE ENERGY PREDICTED BY IDOCK:   -5.47 KCAL/MOL
REMARK 924 INTRA-LIGAND FREE ENERGY PREDICTED BY IDOCK:   -0.31 KCAL/MOL
REMARK 927      BINDING AFFINITY PREDICTED BY RF-SCORE:    0.00 PKD
ROOT
HETATM    1  C   UNL     1      -6.572   7.593  73.362  1.00  0.00    -0.073 C  
HETATM    2  C   UNL     1      -6.967   7.890  71.914  1.00  0.00    -0.070 C  
HETATM    3  C   UNL     1      -5.725   8.330  71.132  1.00  0.00    -0.033 C  
ENDROOT
BRANCH   2   4
HETATM    4  N   UNL     1      -7.467   6.688  71.261  1.00  0.00    -0.083 NA 
HETATM    5  H   UNL     1      -8.091   6.099  71.812  1.00  0.00     0.000 HD 
BRANCH   4   6
HETATM    6  C   UNL     1      -7.187   6.253  69.965  1.00  0.00    -0.077 A  
HETATM    7  C   UNL     1      -7.657   6.763  68.723  1.00  0.00    -0.105 A  
HETATM    8  N   UNL     1      -7.239   6.232  67.536  1.00  0.00    -0.077 NA 
HETATM    9  C   UNL     1      -6.283   5.168  69.885  1.00  0.00    -0.026 A  
HETATM   10  C   UNL     1      -5.887   4.622  68.670  1.00  0.00    -0.025 A  
HETATM   11  C   UNL     1      -6.385   5.193  67.528  1.00  0.00    -0.040 A  
BRANCH   7  12
HETATM   12  N   UNL     1      -8.614   7.803  68.627  1.00  0.00    -0.129 NA 
HETATM   13  C   UNL     1      -9.336   7.720  67.328  1.00  0.00    -0.145 C  
HETATM   14  N   UNL     1      -9.980  10.097  67.513  1.00  0.00    -0.183 N  
HETATM   15  C   UNL     1     -10.484   8.731  67.329  1.00  0.00    -0.283 C  
HETATM   16  C   UNL     1      -9.121  10.251  68.703  1.00  0.00    -0.152 C  
HETATM   17  C   UNL     1     -10.107  10.982  66.447  1.00  0.00    -0.229 C  
HETATM   18  O   UNL     1     -10.434  10.575  65.330  1.00  0.00    -0.244 OA 
HETATM   19  C   UNL     1      -8.014   9.150  68.799  1.00  0.00    -0.100 C  
BRANCH  17  20
HETATM   20  C   UNL     1      -9.912  12.407  66.637  1.00  0.00    -0.225 A  
HETATM   21  C   UNL     1      -8.808  13.199  66.887  1.00  0.00    -0.184 A  
HETATM   22  C   UNL     1      -9.250  14.525  67.165  1.00  0.00    -0.233 A  
HETATM   23  C   UNL     1     -10.640  14.520  67.085  1.00  0.00    -0.274 A  
HETATM   24  N   UNL     1     -11.009  13.241  66.745  1.00  0.00    -0.284 NA 
HETATM   25  C   UNL     1     -11.422  15.649  67.352  1.00  0.00    -0.086 A  
HETATM   26  C   UNL     1     -10.756  16.830  67.700  1.00  0.00    -0.305 A  
HETATM   27  H   UNL     1     -11.972  12.944  66.591  1.00  0.00     0.000 HD 
HETATM   28  C   UNL     1      -9.366  16.873  67.753  1.00  0.00    -0.235 A  
HETATM   29  C   UNL     1      -8.598  15.726  67.511  1.00  0.00    -0.180 A  
BRANCH  28  30
HETATM   30  N   UNL     1      -8.720  18.107  68.064  1.00  0.00    -0.263 N  
HETATM   31  H   UNL     1      -8.967  18.633  68.902  1.00  0.00     0.000 HD 
BRANCH  30  32
HETATM   32  S   UNL     1      -7.532  18.671  67.000  1.00  0.00    -0.224 S  
HETATM   33  O   UNL     1      -6.385  17.800  67.012  1.00  0.00    -0.149 OA 
HETATM   34  O   UNL     1      -8.239  18.970  65.770  1.00  0.00    -0.449 OA 
HETATM   35  C   UNL     1      -7.104  20.223  67.756  1.00  0.00    -0.304 C  
ENDBRANCH  30  32
ENDBRANCH  28  30
ENDBRANCH  17  20
ENDBRANCH   7  12
ENDBRANCH   4   6
ENDBRANCH   2   4
TORSDOF 6
ENDMDL
MODEL      107
REMARK 921   NORMALIZED FREE ENERGY PREDICTED BY IDOCK:   -3.90 KCAL/MOL
REMARK 922        TOTAL FREE ENERGY PREDICTED BY IDOCK:   -5.74 KCAL/MOL
REMARK 923 INTER-LIGAND FREE ENERGY PREDICTED BY IDOCK:   -6.37 KCAL/MOL
REMARK 924 INTRA-LIGAND FREE ENERGY PREDICTED BY IDOCK:    0.63 KCAL/MOL
REMARK 927      BINDING AFFINITY PREDICTED BY RF-SCORE:    0.00 PKD
ROOT
HETATM    1  C   UNL     1      -5.170  19.592  65.383  1.00  0.00    -0.181 C  
HETATM    2  C   UNL     1      -5.694  18.266  65.938  1.00  0.00    -0.192 C  
HETATM    3  C   UNL     1      -5.359  18.176  67.431  1.00  0.00    -0.143 C  
ENDROOT
BRANCH   2   4
HETATM    4  N   UNL     1      -7.146  18.202  65.832  1.00  0.00    -0.416 NA 
HETATM    5  H   UNL     1      -7.521  17.861  64.946  1.00  0.00     0.000 HD 
BRANCH   4   6
HETATM    6  C   UNL     1      -8.079  18.555  66.806  1.00  0.00    -0.254 A  
HETATM    7  C   UNL     1      -8.915  17.719  67.597  1.00  0.00    -0.249 A  
HETATM    8  N   UNL     1      -9.748  18.243  68.544  1.00  0.00    -0.345 NA 
HETATM    9  C   UNL     1      -8.182  19.944  67.055  1.00  0.00    -0.356 A  
HETATM   10  C   UNL     1      -9.054  20.464  68.004  1.00  0.00    -0.151 A  
HETATM   11  C   UNL     1      -9.807  19.574  68.725  1.00  0.00    -0.451 A  
BRANCH   7  12
HETATM   12  N   UNL     1      -8.982  16.314  67.431  1.00  0.00    -0.186 NA 
HETATM   13  C   UNL     1     -10.324  15.919  66.923  1.00  0.00    -0.291 C  
HETATM   14  N   UNL     1      -9.983  13.619  67.755  1.00  0.00    -0.230 N  
HETATM   15  C   UNL     1     -10.309  14.429  66.576  1.00  0.00    -0.281 C  
HETATM   16  C   UNL     1      -8.735  14.032  68.426  1.00  0.00    -0.179 C  
HETATM   17  C   UNL     1     -10.978  12.791  68.266  1.00  0.00    -0.252 C  
HETATM   18  O   UNL     1     -12.142  12.896  67.873  1.00  0.00    -0.312 OA 
HETATM   19  C   UNL     1      -8.664  15.574  68.679  1.00  0.00    -0.188 C  
BRANCH  17  20
HETATM   20  C   UNL     1     -10.660  11.753  69.228  1.00  0.00    -0.008 A  
HETATM   21  C   UNL     1      -9.704  10.757  69.284  1.00  0.00    -0.142 A  
HETATM   22  C   UNL     1      -9.991   9.910  70.393  1.00  0.00    -0.222 A  
HETATM   23  C   UNL     1     -11.140  10.406  71.003  1.00  0.00     0.120 A  
HETATM   24  N   UNL     1     -11.507  11.525  70.296  1.00  0.00    -0.515 NA 
HETATM   25  C   UNL     1     -11.746   9.788  72.103  1.00  0.00     0.307 A  
HETATM   26  C   UNL     1     -11.145   8.628  72.605  1.00  0.00    -0.084 A  
HETATM   27  H   UNL     1     -12.305  12.114  70.531  1.00  0.00     0.000 HD 
HETATM   28  C   UNL     1      -9.976   8.129  72.037  1.00  0.00    -0.233 A  
HETATM   29  C   UNL     1      -9.397   8.743  70.918  1.00  0.00    -0.266 A  
BRANCH  28  30
HETATM   30  N   UNL     1      -9.365   6.972  72.606  1.00  0.00    -0.138 N  
HETATM   31  H   UNL     1      -9.216   6.897  73.613  1.00  0.00     0.000 HD 
BRANCH  30  32
HETATM   32  S   UNL     1      -8.894   5.728  71.561  1.00  0.00    -0.136 S  
HETATM   33  O   UNL     1      -7.459   5.613  71.522  1.00  0.00    -0.091 OA 
HETATM   34  O   UNL     1      -9.732   4.600  71.917  1.00  0.00    -0.151 OA 
HETATM   35  C   UNL     1      -9.480   6.351  70.002  1.00  0.00    -0.156 C  
ENDBRANCH  30  32
ENDBRANCH  28  30
ENDBRANCH  17  20
ENDBRANCH   7  12
ENDBRANCH   4   6
ENDBRANCH   2   4
TORSDOF 6
ENDMDL
MODEL      108
REMARK 921   NORMALIZED FREE ENERGY PREDICTED BY IDOCK:   -3.88 KCAL/MOL
REMARK 922        TOTAL FREE ENERGY PREDICTED BY IDOCK:   -5.72 KCAL/MOL
REMARK 923 INTER-LIGAND FREE ENERGY PREDICTED BY IDOCK:   -5.97 KCAL/MOL
REMARK 924 INTRA-LIGAND FREE ENERGY PREDICTED BY IDOCK:    0.26 KCAL/MOL
REMARK 927      BINDING AFFINITY PREDICTED BY RF-SCORE:    0.00 PKD
ROOT
HETATM    1  C   UNL     1      -8.837   5.638  65.124  1.00  0.00    -0.055 C  
HETATM    2  C   UNL     1      -9.603   6.684  65.937  1.00  0.00     0.239 C  
HETATM    3  C   UNL     1     -10.648   5.980  66.808  1.00  0.00    -0.359 C  
ENDROOT
BRANCH   2   4
HETATM    4  N   UNL     1      -8.706   7.386  66.846  1.00  0.00    -0.122 NA 
HETATM    5  H   UNL     1      -8.525   8.367  66.637  1.00  0.00     0.000 HD 
BRANCH   4   6
HETATM    6  C   UNL     1      -8.068   6.863  67.971  1.00  0.00    -0.115 A  
HETATM    7  C   UNL     1      -8.070   7.340  69.311  1.00  0.00    -0.124 A  
HETATM    8  N   UNL     1      -7.415   6.669  70.303  1.00  0.00    -0.092 NA 
HETATM    9  C   UNL     1      -7.340   5.672  67.741  1.00  0.00    -0.077 A  
HETATM   10  C   UNL     1      -6.656   5.014  68.757  1.00  0.00    -0.048 A  
HETATM   11  C   UNL     1      -6.731   5.547  70.018  1.00  0.00    -0.048 A  
BRANCH   7  12
HETATM   12  N   UNL     1      -8.696   8.551  69.699  1.00  0.00    -0.131 NA 
HETATM   13  C   UNL     1     -10.170   8.450  69.519  1.00  0.00    -0.207 C  
HETATM   14  N   UNL     1     -10.351  10.912  69.460  1.00  0.00    -0.159 N  
HETATM   15  C   UNL     1     -10.834   9.692  70.117  1.00  0.00    -0.280 C  
HETATM   16  C   UNL     1      -8.880  11.033  69.452  1.00  0.00     0.223 C  
HETATM   17  C   UNL     1     -11.259  11.635  68.692  1.00  0.00    -0.250 C  
HETATM   18  O   UNL     1     -12.358  11.155  68.406  1.00  0.00    -0.556 OA 
HETATM   19  C   UNL     1      -8.166   9.729  68.966  1.00  0.00    -0.121 C  
BRANCH  17  20
HETATM   20  C   UNL     1     -10.956  12.985  68.258  1.00  0.00    -0.260 A  
HETATM   21  C   UNL     1     -10.235  13.516  67.205  1.00  0.00    -0.242 A  
HETATM   22  C   UNL     1     -10.125  14.925  67.390  1.00  0.00    -0.228 A  
HETATM   23  C   UNL     1     -10.786  15.236  68.575  1.00  0.00    -0.247 A  
HETATM   24  N   UNL     1     -11.294  14.056  69.063  1.00  0.00    -0.265 NA 
HETATM   25  C   UNL     1     -10.836  16.532  69.101  1.00  0.00    -0.334 A  
HETATM   26  C   UNL     1     -10.199  17.548  68.380  1.00  0.00    -0.372 A  
HETATM   27  H   UNL     1     -11.850  13.981  69.914  1.00  0.00     0.000 HD 
HETATM   28  C   UNL     1      -9.561  17.271  67.173  1.00  0.00    -0.257 A  
HETATM   29  C   UNL     1      -9.494  15.963  66.675  1.00  0.00    -0.263 A  
BRANCH  28  30
HETATM   30  N   UNL     1      -8.964  18.341  66.441  1.00  0.00    -0.273 N  
HETATM   31  H   UNL     1      -9.452  18.780  65.661  1.00  0.00     0.000 HD 
BRANCH  30  32
HETATM   32  S   UNL     1      -7.422  18.857  66.906  1.00  0.00    -0.228 S  
HETATM   33  O   UNL     1      -7.155  20.179  66.400  1.00  0.00    -0.247 OA 
HETATM   34  O   UNL     1      -7.337  18.560  68.322  1.00  0.00    -0.259 OA 
HETATM   35  C   UNL     1      -6.396  17.679  66.055  1.00  0.00    -0.218 C  
ENDBRANCH  30  32
ENDBRANCH  28  30
ENDBRANCH  17  20
ENDBRANCH   7  12
ENDBRANCH   4   6
ENDBRANCH   2   4
TORSDOF 6
ENDMDL
MODEL      109
REMARK 921   NORMALIZED FREE ENERGY PREDICTED BY IDOCK:   -3.79 KCAL/MOL
REMARK 922        TOTAL FREE ENERGY PREDICTED BY IDOCK:   -5.60 KCAL/MOL
REMARK 923 INTER-LIGAND FREE ENERGY PREDICTED BY IDOCK:   -5.65 KCAL/MOL
REMARK 924 INTRA-LIGAND FREE ENERGY PREDICTED BY IDOCK:    0.05 KCAL/MOL
REMARK 927      BINDING AFFINITY PREDICTED BY RF-SCORE:    0.00 PKD
ROOT
HETATM    1  C   UNL     1     -10.518  10.593  65.231  1.00  0.00    -0.264 C  
HETATM    2  C   UNL     1     -11.147  11.945  64.884  1.00  0.00    -0.307 C  
HETATM    3  C   UNL     1     -12.116  12.352  65.999  1.00  0.00    -0.327 C  
ENDROOT
BRANCH   2   4
HETATM    4  N   UNL     1     -10.127  12.984  64.817  1.00  0.00    -0.531 NA 
HETATM    5  H   UNL     1      -9.442  12.899  64.067  1.00  0.00     0.000 HD 
BRANCH   4   6
HETATM    6  C   UNL     1      -9.984  14.081  65.667  1.00  0.00    -0.286 A  
HETATM    7  C   UNL     1      -9.210  14.207  66.853  1.00  0.00    -0.257 A  
HETATM    8  N   UNL     1      -9.156  15.384  67.542  1.00  0.00    -0.192 NA 
HETATM    9  C   UNL     1     -10.694  15.238  65.267  1.00  0.00    -0.433 A  
HETATM   10  C   UNL     1     -10.650  16.422  65.993  1.00  0.00    -0.275 A  
HETATM   11  C   UNL     1      -9.863  16.446  67.116  1.00  0.00    -0.249 A  
BRANCH   7  12
HETATM   12  N   UNL     1      -8.492  13.127  67.425  1.00  0.00    -0.191 NA 
HETATM   13  C   UNL     1      -7.924  12.262  66.356  1.00  0.00     0.345 C  
HETATM   14  N   UNL     1      -7.740  10.383  67.948  1.00  0.00    -0.089 N  
HETATM   15  C   UNL     1      -7.003  11.219  66.993  1.00  0.00    -0.126 C  
HETATM   16  C   UNL     1      -8.469  11.160  68.970  1.00  0.00    -0.037 C  
HETATM   17  C   UNL     1      -7.913   9.039  67.631  1.00  0.00    -0.101 C  
HETATM   18  O   UNL     1      -7.643   8.623  66.502  1.00  0.00    -0.087 OA 
HETATM   19  C   UNL     1      -9.321  12.320  68.356  1.00  0.00    -0.162 C  
BRANCH  17  20
HETATM   20  C   UNL     1      -8.359   8.091  68.633  1.00  0.00    -0.127 A  
HETATM   21  C   UNL     1      -9.432   7.225  68.724  1.00  0.00    -0.142 A  
HETATM   22  C   UNL     1      -9.461   6.667  70.035  1.00  0.00    -0.161 A  
HETATM   23  C   UNL     1      -8.391   7.215  70.737  1.00  0.00    -0.128 A  
HETATM   24  N   UNL     1      -7.734   8.049  69.865  1.00  0.00    -0.097 NA 
HETATM   25  C   UNL     1      -8.139   6.931  72.084  1.00  0.00    -0.098 A  
HETATM   26  C   UNL     1      -9.006   6.042  72.731  1.00  0.00    -0.123 A  
HETATM   27  H   UNL     1      -6.891   8.571  70.098  1.00  0.00     0.000 HD 
HETATM   28  C   UNL     1     -10.063   5.452  72.043  1.00  0.00    -0.190 A  
HETATM   29  C   UNL     1     -10.319   5.770  70.703  1.00  0.00    -0.310 A  
BRANCH  28  30
HETATM   30  N   UNL     1     -10.897   4.514  72.722  1.00  0.00    -0.190 N  
HETATM   31  H   UNL     1     -11.828   4.776  73.045  1.00  0.00     0.000 HD 
BRANCH  30  32
HETATM   32  S   UNL     1     -10.293   2.954  72.976  1.00  0.00    -0.156 S  
HETATM   33  O   UNL     1      -9.812   2.389  71.741  1.00  0.00    -0.149 OA 
HETATM   34  O   UNL     1      -9.436   3.067  74.139  1.00  0.00    -0.084 OA 
HETATM   35  C   UNL     1     -11.766   2.096  73.484  1.00  0.00    -0.126 C  
ENDBRANCH  30  32
ENDBRANCH  28  30
ENDBRANCH  17  20
ENDBRANCH   7  12
ENDBRANCH   4   6
ENDBRANCH   2   4
TORSDOF 6
ENDMDL
MODEL      110
REMARK 921   NORMALIZED FREE ENERGY PREDICTED BY IDOCK:   -3.71 KCAL/MOL
REMARK 922        TOTAL FREE ENERGY PREDICTED BY IDOCK:   -5.49 KCAL/MOL
REMARK 923 INTER-LIGAND FREE ENERGY PREDICTED BY IDOCK:   -6.10 KCAL/MOL
REMARK 924 INTRA-LIGAND FREE ENERGY PREDICTED BY IDOCK:    0.61 KCAL/MOL
REMARK 927      BINDING AFFINITY PREDICTED BY RF-SCORE:    0.00 PKD
ROOT
HETATM    1  C   UNL     1      -9.186  15.170  68.453  1.00  0.00    -0.189 C  
HETATM    2  C   UNL     1     -10.391  15.622  69.280  1.00  0.00    -0.250 C  
HETATM    3  C   UNL     1     -11.292  16.511  68.416  1.00  0.00    -0.209 C  
ENDROOT
BRANCH   2   4
HETATM    4  N   UNL     1     -11.197  14.477  69.682  1.00  0.00    -0.272 NA 
HETATM    5  H   UNL     1     -11.095  13.631  69.122  1.00  0.00     0.000 HD 
BRANCH   4   6
HETATM    6  C   UNL     1     -12.094  14.410  70.749  1.00  0.00    -0.338 A  
HETATM    7  C   UNL     1     -12.784  13.283  71.275  1.00  0.00    -0.323 A  
HETATM    8  N   UNL     1     -13.601  13.398  72.363  1.00  0.00    -0.593 NA 
HETATM    9  C   UNL     1     -12.322  15.638  71.412  1.00  0.00    -0.485 A  
HETATM   10  C   UNL     1     -13.177  15.744  72.502  1.00  0.00    -0.568 A  
HETATM   11  C   UNL     1     -13.784  14.597  72.943  1.00  0.00    -0.256 A  
BRANCH   7  12
HETATM   12  N   UNL     1     -12.718  11.994  70.691  1.00  0.00    -0.146 NA 
HETATM   13  C   UNL     1     -12.247  10.998  71.692  1.00  0.00     0.048 C  
HETATM   14  N   UNL     1     -11.552   9.474  69.878  1.00  0.00    -0.067 N  
HETATM   15  C   UNL     1     -12.363   9.594  71.095  1.00  0.00    -0.339 C  
HETATM   16  C   UNL     1     -11.840  10.517  68.873  1.00  0.00    -0.066 C  
HETATM   17  C   UNL     1     -10.451   8.625  69.916  1.00  0.00    -0.218 C  
HETATM   18  O   UNL     1     -10.054   8.162  70.988  1.00  0.00    -0.185 OA 
HETATM   19  C   UNL     1     -11.856  11.957  69.482  1.00  0.00    -0.331 C  
BRANCH  17  20
HETATM   20  C   UNL     1      -9.779   8.222  68.695  1.00  0.00    -0.156 A  
HETATM   21  C   UNL     1      -9.997   7.223  67.766  1.00  0.00    -0.205 A  
HETATM   22  C   UNL     1      -8.896   7.192  66.862  1.00  0.00    -0.132 A  
HETATM   23  C   UNL     1      -8.006   8.184  67.264  1.00  0.00    -0.113 A  
HETATM   24  N   UNL     1      -8.572   8.801  68.353  1.00  0.00    -0.133 NA 
HETATM   25  C   UNL     1      -6.778   8.407  66.632  1.00  0.00    -0.061 A  
HETATM   26  C   UNL     1      -6.455   7.594  65.538  1.00  0.00    -0.042 A  
HETATM   27  H   UNL     1      -8.153   9.588  68.847  1.00  0.00     0.000 HD 
HETATM   28  C   UNL     1      -7.342   6.618  65.093  1.00  0.00    -0.081 A  
HETATM   29  C   UNL     1      -8.555   6.387  65.755  1.00  0.00    -0.152 A  
BRANCH  28  30
HETATM   30  N   UNL     1      -7.001   5.841  63.945  1.00  0.00    -0.048 N  
HETATM   31  H   UNL     1      -6.695   6.287  63.080  1.00  0.00     0.000 HD 
BRANCH  30  32
HETATM   32  S   UNL     1      -7.120   4.158  64.063  1.00  0.00    -0.047 S  
HETATM   33  O   UNL     1      -8.495   3.738  63.961  1.00  0.00    -0.090 OA 
HETATM   34  O   UNL     1      -6.106   3.645  63.164  1.00  0.00    -0.014 OA 
HETATM   35  C   UNL     1      -6.542   3.889  65.723  1.00  0.00    -0.044 C  
ENDBRANCH  30  32
ENDBRANCH  28  30
ENDBRANCH  17  20
ENDBRANCH   7  12
ENDBRANCH   4   6
ENDBRANCH   2   4
TORSDOF 6
ENDMDL
MODEL      111
REMARK 921   NORMALIZED FREE ENERGY PREDICTED BY IDOCK:   -3.71 KCAL/MOL
REMARK 922        TOTAL FREE ENERGY PREDICTED BY IDOCK:   -5.49 KCAL/MOL
REMARK 923 INTER-LIGAND FREE ENERGY PREDICTED BY IDOCK:   -5.18 KCAL/MOL
REMARK 924 INTRA-LIGAND FREE ENERGY PREDICTED BY IDOCK:   -0.30 KCAL/MOL
REMARK 927      BINDING AFFINITY PREDICTED BY RF-SCORE:    0.00 PKD
ROOT
HETATM    1  C   UNL     1     -10.218  11.623  63.035  1.00  0.00    -0.294 C  
HETATM    2  C   UNL     1     -10.359  11.116  64.472  1.00  0.00    -0.337 C  
HETATM    3  C   UNL     1      -9.605   9.790  64.616  1.00  0.00    -0.244 C  
ENDROOT
BRANCH   2   4
HETATM    4  N   UNL     1      -9.746  12.049  65.409  1.00  0.00    -0.342 NA 
HETATM    5  H   UNL     1      -8.729  12.120  65.378  1.00  0.00     0.000 HD 
BRANCH   4   6
HETATM    6  C   UNL     1     -10.396  12.855  66.344  1.00  0.00    -0.268 A  
HETATM    7  C   UNL     1     -10.184  12.958  67.746  1.00  0.00    -0.224 A  
HETATM    8  N   UNL     1     -10.894  13.842  68.507  1.00  0.00    -0.251 NA 
HETATM    9  C   UNL     1     -11.388  13.707  65.805  1.00  0.00    -0.315 A  
HETATM   10  C   UNL     1     -12.121  14.584  66.596  1.00  0.00    -0.319 A  
HETATM   11  C   UNL     1     -11.832  14.619  67.936  1.00  0.00    -0.320 A  
BRANCH   7  12
HETATM   12  N   UNL     1      -9.275  12.132  68.453  1.00  0.00    -0.183 NA 
HETATM   13  C   UNL     1      -8.073  11.858  67.620  1.00  0.00    -0.148 C  
HETATM   14  N   UNL     1      -7.566   9.857  68.975  1.00  0.00    -0.081 N  
HETATM   15  C   UNL     1      -7.031  11.127  68.469  1.00  0.00    -0.072 C  
HETATM   16  C   UNL     1      -8.847  10.003  69.694  1.00  0.00    -0.199 C  
HETATM   17  C   UNL     1      -7.001   8.680  68.494  1.00  0.00    -0.065 C  
HETATM   18  O   UNL     1      -6.233   8.703  67.529  1.00  0.00    -0.051 OA 
HETATM   19  C   UNL     1      -9.891  10.859  68.904  1.00  0.00    -0.192 C  
BRANCH  17  20
HETATM   20  C   UNL     1      -7.257   7.411  69.147  1.00  0.00    -0.084 A  
HETATM   21  C   UNL     1      -8.193   6.411  68.966  1.00  0.00    -0.115 A  
HETATM   22  C   UNL     1      -8.073   5.474  70.034  1.00  0.00    -0.090 A  
HETATM   23  C   UNL     1      -7.054   5.928  70.866  1.00  0.00    -0.068 A  
HETATM   24  N   UNL     1      -6.567   7.080  70.298  1.00  0.00    -0.046 NA 
HETATM   25  C   UNL     1      -6.693   5.279  72.052  1.00  0.00    -0.060 A  
HETATM   26  C   UNL     1      -7.393   4.114  72.390  1.00  0.00    -0.067 A  
HETATM   27  H   UNL     1      -5.793   7.623  70.678  1.00  0.00     0.000 HD 
HETATM   28  C   UNL     1      -8.392   3.618  71.559  1.00  0.00    -0.069 A  
HETATM   29  C   UNL     1      -8.762   4.296  70.389  1.00  0.00    -0.118 A  
BRANCH  28  30
HETATM   30  N   UNL     1      -9.050   2.401  71.912  1.00  0.00    -0.080 N  
HETATM   31  H   UNL     1      -8.788   1.517  71.477  1.00  0.00     0.000 HD 
BRANCH  30  32
HETATM   32  S   UNL     1     -10.279   2.472  73.072  1.00  0.00    -0.146 S  
HETATM   33  O   UNL     1     -10.601   3.840  73.388  1.00  0.00    -0.163 OA 
HETATM   34  O   UNL     1     -11.292   1.547  72.605  1.00  0.00    -0.098 OA 
HETATM   35  C   UNL     1      -9.475   1.717  74.468  1.00  0.00    -0.072 C  
ENDBRANCH  30  32
ENDBRANCH  28  30
ENDBRANCH  17  20
ENDBRANCH   7  12
ENDBRANCH   4   6
ENDBRANCH   2   4
TORSDOF 6
ENDMDL
MODEL      112
REMARK 921   NORMALIZED FREE ENERGY PREDICTED BY IDOCK:   -3.69 KCAL/MOL
REMARK 922        TOTAL FREE ENERGY PREDICTED BY IDOCK:   -5.47 KCAL/MOL
REMARK 923 INTER-LIGAND FREE ENERGY PREDICTED BY IDOCK:   -5.70 KCAL/MOL
REMARK 924 INTRA-LIGAND FREE ENERGY PREDICTED BY IDOCK:    0.23 KCAL/MOL
REMARK 927      BINDING AFFINITY PREDICTED BY RF-SCORE:    0.00 PKD
ROOT
HETATM    1  C   UNL     1     -10.329  20.090  69.203  1.00  0.00    -0.142 C  
HETATM    2  C   UNL     1      -9.596  19.029  68.378  1.00  0.00    -0.373 C  
HETATM    3  C   UNL     1     -10.073  19.102  66.924  1.00  0.00    -0.453 C  
ENDROOT
BRANCH   2   4
HETATM    4  N   UNL     1      -8.163  19.291  68.361  1.00  0.00    -0.336 NA 
HETATM    5  H   UNL     1      -7.743  19.570  69.248  1.00  0.00     0.000 HD 
BRANCH   4   6
HETATM    6  C   UNL     1      -7.303  19.203  67.267  1.00  0.00    -0.223 A  
HETATM    7  C   UNL     1      -6.498  18.110  66.840  1.00  0.00    -0.179 A  
HETATM    8  N   UNL     1      -5.740  18.189  65.706  1.00  0.00    -0.186 NA 
HETATM    9  C   UNL     1      -7.252  20.361  66.456  1.00  0.00    -0.299 A  
HETATM   10  C   UNL     1      -6.456  20.435  65.320  1.00  0.00    -0.313 A  
HETATM   11  C   UNL     1      -5.727  19.323  64.984  1.00  0.00    -0.228 A  
BRANCH   7  12
HETATM   12  N   UNL     1      -6.385  16.902  67.571  1.00  0.00    -0.143 NA 
HETATM   13  C   UNL     1      -5.419  15.986  66.905  1.00  0.00     0.436 C  
HETATM   14  N   UNL     1      -6.425  14.052  68.066  1.00  0.00    -0.132 N  
HETATM   15  C   UNL     1      -5.174  14.775  67.808  1.00  0.00    -0.004 C  
HETATM   16  C   UNL     1      -7.504  14.911  68.591  1.00  0.00    -0.124 C  
HETATM   17  C   UNL     1      -6.552  12.771  67.536  1.00  0.00    -0.158 C  
HETATM   18  O   UNL     1      -5.737  12.352  66.711  1.00  0.00    -0.301 OA 
HETATM   19  C   UNL     1      -7.692  16.224  67.762  1.00  0.00    -0.142 C  
BRANCH  17  20
HETATM   20  C   UNL     1      -7.609  11.884  67.981  1.00  0.00    -0.122 A  
HETATM   21  C   UNL     1      -7.878  11.232  69.169  1.00  0.00    -0.020 A  
HETATM   22  C   UNL     1      -8.970  10.340  68.965  1.00  0.00    -0.175 A  
HETATM   23  C   UNL     1      -9.353  10.459  67.632  1.00  0.00    -0.148 A  
HETATM   24  N   UNL     1      -8.535  11.409  67.071  1.00  0.00    -0.153 NA 
HETATM   25  C   UNL     1     -10.371   9.687  67.060  1.00  0.00    -0.315 A  
HETATM   26  C   UNL     1     -11.029   8.769  67.888  1.00  0.00     0.056 A  
HETATM   27  H   UNL     1      -8.601  11.724  66.104  1.00  0.00     0.000 HD 
HETATM   28  C   UNL     1     -10.691   8.655  69.233  1.00  0.00    -0.136 A  
HETATM   29  C   UNL     1      -9.650   9.414  69.783  1.00  0.00    -0.216 A  
BRANCH  28  30
HETATM   30  N   UNL     1     -11.416   7.743  70.058  1.00  0.00    -0.470 N  
HETATM   31  H   UNL     1     -12.429   7.817  70.157  1.00  0.00     0.000 HD 
BRANCH  30  32
HETATM   32  S   UNL     1     -10.546   6.539  70.865  1.00  0.00    -0.239 S  
HETATM   33  O   UNL     1     -11.139   5.245  70.638  1.00  0.00    -0.057 OA 
HETATM   34  O   UNL     1      -9.157   6.799  70.544  1.00  0.00    -0.154 OA 
HETATM   35  C   UNL     1     -10.796   7.014  72.560  1.00  0.00    -0.252 C  
ENDBRANCH  30  32
ENDBRANCH  28  30
ENDBRANCH  17  20
ENDBRANCH   7  12
ENDBRANCH   4   6
ENDBRANCH   2   4
TORSDOF 6
ENDMDL
MODEL      113
REMARK 921   NORMALIZED FREE ENERGY PREDICTED BY IDOCK:   -3.65 KCAL/MOL
REMARK 922        TOTAL FREE ENERGY PREDICTED BY IDOCK:   -5.42 KCAL/MOL
REMARK 923 INTER-LIGAND FREE ENERGY PREDICTED BY IDOCK:   -5.81 KCAL/MOL
REMARK 924 INTRA-LIGAND FREE ENERGY PREDICTED BY IDOCK:    0.39 KCAL/MOL
REMARK 927      BINDING AFFINITY PREDICTED BY RF-SCORE:    0.00 PKD
ROOT
HETATM    1  C   UNL     1     -11.903  14.011  69.947  1.00  0.00    -0.393 C  
HETATM    2  C   UNL     1     -11.046  15.179  70.441  1.00  0.00    -0.260 C  
HETATM    3  C   UNL     1     -10.913  15.098  71.965  1.00  0.00     0.156 C  
ENDROOT
BRANCH   2   4
HETATM    4  N   UNL     1      -9.696  15.090  69.899  1.00  0.00    -0.466 NA 
HETATM    5  H   UNL     1      -9.069  14.427  70.352  1.00  0.00     0.000 HD 
BRANCH   4   6
HETATM    6  C   UNL     1      -9.169  15.814  68.829  1.00  0.00    -0.216 A  
HETATM    7  C   UNL     1      -9.054  15.444  67.461  1.00  0.00    -0.194 A  
HETATM    8  N   UNL     1      -8.543  16.306  66.534  1.00  0.00    -0.266 NA 
HETATM    9  C   UNL     1      -8.710  17.111  69.158  1.00  0.00     0.004 A  
HETATM   10  C   UNL     1      -8.167  17.968  68.208  1.00  0.00    -0.298 A  
HETATM   11  C   UNL     1      -8.113  17.523  66.913  1.00  0.00    -0.227 A  
BRANCH   7  12
HETATM   12  N   UNL     1      -9.407  14.160  66.976  1.00  0.00    -0.236 NA 
HETATM   13  C   UNL     1     -10.819  13.847  67.325  1.00  0.00    -0.286 C  
HETATM   14  N   UNL     1     -10.371  11.434  67.056  1.00  0.00    -0.215 N  
HETATM   15  C   UNL     1     -11.230  12.546  66.633  1.00  0.00    -0.307 C  
HETATM   16  C   UNL     1      -8.930  11.706  66.888  1.00  0.00    -0.191 C  
HETATM   17  C   UNL     1     -10.954  10.417  67.807  1.00  0.00    -0.309 C  
HETATM   18  O   UNL     1     -12.087  10.555  68.274  1.00  0.00    -0.319 OA 
HETATM   19  C   UNL     1      -8.503  13.092  67.474  1.00  0.00    -0.198 C  
BRANCH  17  20
HETATM   20  C   UNL     1     -10.267   9.157  68.011  1.00  0.00    -0.211 A  
HETATM   21  C   UNL     1      -9.420   8.673  68.990  1.00  0.00    -0.153 A  
HETATM   22  C   UNL     1      -8.901   7.415  68.565  1.00  0.00    -0.126 A  
HETATM   23  C   UNL     1      -9.443   7.150  67.310  1.00  0.00    -0.140 A  
HETATM   24  N   UNL     1     -10.276   8.201  67.012  1.00  0.00    -0.280 NA 
HETATM   25  C   UNL     1      -9.110   6.015  66.562  1.00  0.00    -0.153 A  
HETATM   26  C   UNL     1      -8.201   5.112  67.126  1.00  0.00    -0.107 A  
HETATM   27  H   UNL     1     -10.831   8.268  66.160  1.00  0.00     0.000 HD 
HETATM   28  C   UNL     1      -7.672   5.334  68.394  1.00  0.00    -0.080 A  
HETATM   29  C   UNL     1      -7.991   6.490  69.118  1.00  0.00    -0.111 A  
BRANCH  28  30
HETATM   30  N   UNL     1      -6.785   4.367  68.956  1.00  0.00    -0.045 N  
HETATM   31  H   UNL     1      -5.783   4.401  68.768  1.00  0.00     0.000 HD 
BRANCH  30  32
HETATM   32  S   UNL     1      -7.447   3.164  69.943  1.00  0.00    -0.044 S  
HETATM   33  O   UNL     1      -6.486   2.723  70.922  1.00  0.00    -0.022 OA 
HETATM   34  O   UNL     1      -8.746   3.673  70.337  1.00  0.00    -0.067 OA 
HETATM   35  C   UNL     1      -7.724   1.865  68.760  1.00  0.00    -0.046 C  
ENDBRANCH  30  32
ENDBRANCH  28  30
ENDBRANCH  17  20
ENDBRANCH   7  12
ENDBRANCH   4   6
ENDBRANCH   2   4
TORSDOF 6
ENDMDL
MODEL      114
REMARK 921   NORMALIZED FREE ENERGY PREDICTED BY IDOCK:   -3.65 KCAL/MOL
REMARK 922        TOTAL FREE ENERGY PREDICTED BY IDOCK:   -5.41 KCAL/MOL
REMARK 923 INTER-LIGAND FREE ENERGY PREDICTED BY IDOCK:   -5.61 KCAL/MOL
REMARK 924 INTRA-LIGAND FREE ENERGY PREDICTED BY IDOCK:    0.20 KCAL/MOL
REMARK 927      BINDING AFFINITY PREDICTED BY RF-SCORE:    0.00 PKD
ROOT
HETATM    1  C   UNL     1      -8.565  15.466  69.974  1.00  0.00     0.363 C  
HETATM    2  C   UNL     1      -9.596  16.066  69.015  1.00  0.00    -0.247 C  
HETATM    3  C   UNL     1     -10.625  16.868  69.818  1.00  0.00    -0.098 C  
ENDROOT
BRANCH   2   4
HETATM    4  N   UNL     1      -8.960  17.003  68.097  1.00  0.00    -0.221 NA 
HETATM    5  H   UNL     1      -7.941  17.031  68.113  1.00  0.00     0.000 HD 
BRANCH   4   6
HETATM    6  C   UNL     1      -9.592  17.864  67.200  1.00  0.00    -0.280 A  
HETATM    7  C   UNL     1     -10.448  17.556  66.107  1.00  0.00    -0.288 A  
HETATM    8  N   UNL     1     -11.017  18.542  65.353  1.00  0.00    -0.380 NA 
HETATM    9  C   UNL     1      -9.364  19.240  67.437  1.00  0.00    -0.368 A  
HETATM   10  C   UNL     1      -9.929  20.232  66.644  1.00  0.00    -0.561 A  
HETATM   11  C   UNL     1     -10.752  19.832  65.623  1.00  0.00    -0.314 A  
BRANCH   7  12
HETATM   12  N   UNL     1     -10.728  16.229  65.695  1.00  0.00    -0.320 NA 
HETATM   13  C   UNL     1     -11.811  15.647  66.534  1.00  0.00     0.576 C  
HETATM   14  N   UNL     1     -11.084  13.368  65.925  1.00  0.00    -0.281 N  
HETATM   15  C   UNL     1     -12.222  14.293  65.952  1.00  0.00    -0.407 C  
HETATM   16  C   UNL     1      -9.896  13.915  65.240  1.00  0.00    -0.138 C  
HETATM   17  C   UNL     1     -11.135  12.255  66.760  1.00  0.00    -0.296 C  
HETATM   18  O   UNL     1     -12.000  12.169  67.634  1.00  0.00    -0.529 OA 
HETATM   19  C   UNL     1      -9.528  15.356  65.724  1.00  0.00    -0.290 C  
BRANCH  17  20
HETATM   20  C   UNL     1     -10.211  11.151  66.585  1.00  0.00    -0.232 A  
HETATM   21  C   UNL     1     -10.329   9.873  66.074  1.00  0.00    -0.202 A  
HETATM   22  C   UNL     1      -9.119   9.164  66.330  1.00  0.00    -0.222 A  
HETATM   23  C   UNL     1      -8.271  10.034  67.010  1.00  0.00    -0.117 A  
HETATM   24  N   UNL     1      -8.943  11.226  67.130  1.00  0.00    -0.152 NA 
HETATM   25  C   UNL     1      -7.005   9.656  67.472  1.00  0.00    -0.084 A  
HETATM   26  C   UNL     1      -6.587   8.344  67.215  1.00  0.00    -0.059 A  
HETATM   27  H   UNL     1      -8.555  12.061  67.567  1.00  0.00     0.000 HD 
HETATM   28  C   UNL     1      -7.401   7.465  66.505  1.00  0.00    -0.084 A  
HETATM   29  C   UNL     1      -8.678   7.849  66.076  1.00  0.00    -0.182 A  
BRANCH  28  30
HETATM   30  N   UNL     1      -6.922   6.151  66.220  1.00  0.00    -0.065 N  
HETATM   31  H   UNL     1      -6.965   5.770  65.275  1.00  0.00     0.000 HD 
BRANCH  30  32
HETATM   32  S   UNL     1      -6.281   5.246  67.497  1.00  0.00    -0.036 S  
HETATM   33  O   UNL     1      -5.142   5.914  68.071  1.00  0.00    -0.003 OA 
HETATM   34  O   UNL     1      -7.425   4.874  68.305  1.00  0.00    -0.072 OA 
HETATM   35  C   UNL     1      -5.740   3.783  66.641  1.00  0.00    -0.022 C  
ENDBRANCH  30  32
ENDBRANCH  28  30
ENDBRANCH  17  20
ENDBRANCH   7  12
ENDBRANCH   4   6
ENDBRANCH   2   4
TORSDOF 6
ENDMDL
MODEL      115
REMARK 921   NORMALIZED FREE ENERGY PREDICTED BY IDOCK:   -3.53 KCAL/MOL
REMARK 922        TOTAL FREE ENERGY PREDICTED BY IDOCK:   -5.25 KCAL/MOL
REMARK 923 INTER-LIGAND FREE ENERGY PREDICTED BY IDOCK:   -5.51 KCAL/MOL
REMARK 924 INTRA-LIGAND FREE ENERGY PREDICTED BY IDOCK:    0.26 KCAL/MOL
REMARK 927      BINDING AFFINITY PREDICTED BY RF-SCORE:    0.00 PKD
ROOT
HETATM    1  C   UNL     1      -8.150   7.295  62.948  1.00  0.00    -0.057 C  
HETATM    2  C   UNL     1      -8.201   6.864  64.416  1.00  0.00     0.022 C  
HETATM    3  C   UNL     1      -8.625   5.393  64.496  1.00  0.00    -0.077 C  
ENDROOT
BRANCH   2   4
HETATM    4  N   UNL     1      -6.880   6.952  65.024  1.00  0.00    -0.050 NA 
HETATM    5  H   UNL     1      -6.262   7.677  64.662  1.00  0.00     0.000 HD 
BRANCH   4   6
HETATM    6  C   UNL     1      -6.367   6.152  66.045  1.00  0.00    -0.038 A  
HETATM    7  C   UNL     1      -6.432   6.339  67.454  1.00  0.00    -0.046 A  
HETATM    8  N   UNL     1      -5.904   5.421  68.315  1.00  0.00    -0.016 NA 
HETATM    9  C   UNL     1      -5.716   4.975  65.608  1.00  0.00    -0.018 A  
HETATM   10  C   UNL     1      -5.160   4.062  66.497  1.00  0.00    -0.008 A  
HETATM   11  C   UNL     1      -5.287   4.326  67.836  1.00  0.00    -0.015 A  
BRANCH   7  12
HETATM   12  N   UNL     1      -6.992   7.494  68.055  1.00  0.00    -0.070 NA 
HETATM   13  C   UNL     1      -8.425   7.261  68.381  1.00  0.00    -0.125 C  
HETATM   14  N   UNL     1      -8.827   9.697  68.437  1.00  0.00    -0.123 N  
HETATM   15  C   UNL     1      -8.952   8.445  69.194  1.00  0.00    -0.147 C  
HETATM   16  C   UNL     1      -7.462   9.947  67.936  1.00  0.00    -0.089 C  
HETATM   17  C   UNL     1     -10.000  10.329  68.037  1.00  0.00    -0.153 C  
HETATM   18  O   UNL     1     -11.086   9.752  68.129  1.00  0.00    -0.215 OA 
HETATM   19  C   UNL     1      -6.845   8.706  67.210  1.00  0.00    -0.067 C  
BRANCH  17  20
HETATM   20  C   UNL     1      -9.980  11.697  67.554  1.00  0.00    -0.187 A  
HETATM   21  C   UNL     1      -9.901  12.931  68.171  1.00  0.00    -0.227 A  
HETATM   22  C   UNL     1     -10.111  13.945  67.192  1.00  0.00    -0.252 A  
HETATM   23  C   UNL     1     -10.325  13.304  65.975  1.00  0.00    -0.289 A  
HETATM   24  N   UNL     1     -10.219  11.956  66.218  1.00  0.00    -0.211 NA 
HETATM   25  C   UNL     1     -10.619  13.993  64.793  1.00  0.00    -0.441 A  
HETATM   26  C   UNL     1     -10.681  15.390  64.857  1.00  0.00    -0.416 A  
HETATM   27  H   UNL     1     -10.305  11.237  65.501  1.00  0.00     0.000 HD 
HETATM   28  C   UNL     1     -10.436  16.059  66.053  1.00  0.00    -0.345 A  
HETATM   29  C   UNL     1     -10.173  15.354  67.235  1.00  0.00    -0.254 A  
BRANCH  28  30
HETATM   30  N   UNL     1     -10.461  17.486  66.069  1.00  0.00    -0.335 N  
HETATM   31  H   UNL     1     -11.055  18.009  65.425  1.00  0.00     0.000 HD 
BRANCH  30  32
HETATM   32  S   UNL     1      -9.475  18.284  67.188  1.00  0.00    -0.275 S  
HETATM   33  O   UNL     1     -10.114  18.340  68.479  1.00  0.00    -0.369 OA 
HETATM   34  O   UNL     1      -8.162  17.693  67.021  1.00  0.00    -0.207 OA 
HETATM   35  C   UNL     1      -9.414  19.917  66.488  1.00  0.00    -0.410 C  
ENDBRANCH  30  32
ENDBRANCH  28  30
ENDBRANCH  17  20
ENDBRANCH   7  12
ENDBRANCH   4   6
ENDBRANCH   2   4
TORSDOF 6
ENDMDL
MODEL      116
REMARK 921   NORMALIZED FREE ENERGY PREDICTED BY IDOCK:   -3.50 KCAL/MOL
REMARK 922        TOTAL FREE ENERGY PREDICTED BY IDOCK:   -5.21 KCAL/MOL
REMARK 923 INTER-LIGAND FREE ENERGY PREDICTED BY IDOCK:   -5.95 KCAL/MOL
REMARK 924 INTRA-LIGAND FREE ENERGY PREDICTED BY IDOCK:    0.74 KCAL/MOL
REMARK 927      BINDING AFFINITY PREDICTED BY RF-SCORE:    0.00 PKD
ROOT
HETATM    1  C   UNL     1     -10.093   3.985  71.299  1.00  0.00    -0.133 C  
HETATM    2  C   UNL     1      -8.639   3.840  71.756  1.00  0.00    -0.093 C  
HETATM    3  C   UNL     1      -8.140   2.433  71.410  1.00  0.00    -0.058 C  
ENDROOT
BRANCH   2   4
HETATM    4  N   UNL     1      -7.780   4.775  71.041  1.00  0.00    -0.079 NA 
HETATM    5  H   UNL     1      -7.580   5.657  71.512  1.00  0.00     0.000 HD 
BRANCH   4   6
HETATM    6  C   UNL     1      -7.203   4.597  69.784  1.00  0.00    -0.054 A  
HETATM    7  C   UNL     1      -7.629   5.089  68.519  1.00  0.00    -0.078 A  
HETATM    8  N   UNL     1      -6.908   4.848  67.385  1.00  0.00    -0.055 NA 
HETATM    9  C   UNL     1      -6.007   3.842  69.781  1.00  0.00    -0.023 A  
HETATM   10  C   UNL     1      -5.297   3.582  68.615  1.00  0.00    -0.013 A  
HETATM   11  C   UNL     1      -5.783   4.113  67.448  1.00  0.00    -0.022 A  
BRANCH   7  12
HETATM   12  N   UNL     1      -8.837   5.808  68.337  1.00  0.00    -0.110 NA 
HETATM   13  C   UNL     1      -8.830   6.500  67.019  1.00  0.00    -0.116 C  
HETATM   14  N   UNL     1     -10.557   8.075  67.817  1.00  0.00    -0.205 N  
HETATM   15  C   UNL     1     -10.211   7.109  66.767  1.00  0.00    -0.219 C  
HETATM   16  C   UNL     1     -10.448   7.525  69.182  1.00  0.00    -0.215 C  
HETATM   17  C   UNL     1     -10.654   9.415  67.455  1.00  0.00    -0.267 C  
HETATM   18  O   UNL     1     -10.258   9.796  66.351  1.00  0.00    -0.242 OA 
HETATM   19  C   UNL     1      -9.094   6.780  69.429  1.00  0.00    -0.144 C  
BRANCH  17  20
HETATM   20  C   UNL     1     -11.270  10.382  68.343  1.00  0.00    -0.258 A  
HETATM   21  C   UNL     1     -11.208  11.758  68.455  1.00  0.00    -0.307 A  
HETATM   22  C   UNL     1     -11.889  12.152  69.643  1.00  0.00    -0.391 A  
HETATM   23  C   UNL     1     -12.358  10.990  70.251  1.00  0.00    -0.328 A  
HETATM   24  N   UNL     1     -11.992   9.945  69.438  1.00  0.00    -0.375 NA 
HETATM   25  C   UNL     1     -13.034  10.992  71.477  1.00  0.00    -0.553 A  
HETATM   26  C   UNL     1     -13.250  12.230  72.094  1.00  0.00    -0.466 A  
HETATM   27  H   UNL     1     -12.223   8.970  69.620  1.00  0.00     0.000 HD 
HETATM   28  C   UNL     1     -12.824  13.410  71.491  1.00  0.00    -0.337 A  
HETATM   29  C   UNL     1     -12.123  13.389  70.278  1.00  0.00    -0.419 A  
BRANCH  28  30
HETATM   30  N   UNL     1     -13.105  14.657  72.126  1.00  0.00    -0.325 N  
HETATM   31  H   UNL     1     -14.053  14.895  72.420  1.00  0.00     0.000 HD 
BRANCH  30  32
HETATM   32  S   UNL     1     -11.820  15.727  72.377  1.00  0.00    -0.525 S  
HETATM   33  O   UNL     1     -10.565  15.019  72.387  1.00  0.00     0.718 OA 
HETATM   34  O   UNL     1     -12.060  16.825  71.462  1.00  0.00     0.220 OA 
HETATM   35  C   UNL     1     -12.179  16.315  74.017  1.00  0.00    -0.477 C  
ENDBRANCH  30  32
ENDBRANCH  28  30
ENDBRANCH  17  20
ENDBRANCH   7  12
ENDBRANCH   4   6
ENDBRANCH   2   4
TORSDOF 6
ENDMDL
MODEL      117
REMARK 921   NORMALIZED FREE ENERGY PREDICTED BY IDOCK:   -3.47 KCAL/MOL
REMARK 922        TOTAL FREE ENERGY PREDICTED BY IDOCK:   -5.17 KCAL/MOL
REMARK 923 INTER-LIGAND FREE ENERGY PREDICTED BY IDOCK:   -5.40 KCAL/MOL
REMARK 924 INTRA-LIGAND FREE ENERGY PREDICTED BY IDOCK:    0.23 KCAL/MOL
REMARK 927      BINDING AFFINITY PREDICTED BY RF-SCORE:    0.00 PKD
ROOT
HETATM    1  C   UNL     1     -10.186  13.372  65.585  1.00  0.00    -0.300 C  
HETATM    2  C   UNL     1     -10.532  14.666  64.844  1.00  0.00    -0.387 C  
HETATM    3  C   UNL     1     -11.960  15.088  65.205  1.00  0.00    -0.135 C  
ENDROOT
BRANCH   2   4
HETATM    4  N   UNL     1      -9.656  15.751  65.267  1.00  0.00    -0.298 NA 
HETATM    5  H   UNL     1      -8.816  15.899  64.708  1.00  0.00     0.000 HD 
BRANCH   4   6
HETATM    6  C   UNL     1      -9.840  16.608  66.352  1.00  0.00    -0.292 A  
HETATM    7  C   UNL     1      -9.361  16.488  67.686  1.00  0.00    -0.212 A  
HETATM    8  N   UNL     1      -9.607  17.456  68.617  1.00  0.00    -0.289 NA 
HETATM    9  C   UNL     1     -10.587  17.775  66.067  1.00  0.00    -0.229 A  
HETATM   10  C   UNL     1     -10.850  18.740  67.032  1.00  0.00    -0.343 A  
HETATM   11  C   UNL     1     -10.333  18.538  68.285  1.00  0.00    -0.344 A  
BRANCH   7  12
HETATM   12  N   UNL     1      -8.653  15.353  68.153  1.00  0.00    -0.150 NA 
HETATM   13  C   UNL     1      -7.685  14.889  67.123  1.00  0.00    -0.142 C  
HETATM   14  N   UNL     1      -7.623  12.650  68.161  1.00  0.00    -0.121 N  
HETATM   15  C   UNL     1      -6.807  13.788  67.721  1.00  0.00    -0.173 C  
HETATM   16  C   UNL     1      -8.716  13.029  69.077  1.00  0.00     0.495 C  
HETATM   17  C   UNL     1      -7.479  11.448  67.475  1.00  0.00    -0.113 C  
HETATM   18  O   UNL     1      -6.853  11.403  66.414  1.00  0.00    -0.102 OA 
HETATM   19  C   UNL     1      -9.554  14.241  68.552  1.00  0.00    -0.220 C  
BRANCH  17  20
HETATM   20  C   UNL     1      -8.012  10.213  68.019  1.00  0.00    -0.101 A  
HETATM   21  C   UNL     1      -7.510   9.240  68.861  1.00  0.00    -0.075 A  
HETATM   22  C   UNL     1      -8.428   8.151  68.901  1.00  0.00    -0.130 A  
HETATM   23  C   UNL     1      -9.491   8.479  68.063  1.00  0.00    -0.140 A  
HETATM   24  N   UNL     1      -9.225   9.731  67.565  1.00  0.00    -0.130 NA 
HETATM   25  C   UNL     1     -10.562   7.613  67.816  1.00  0.00    -0.265 A  
HETATM   26  C   UNL     1     -10.551   6.371  68.462  1.00  0.00    -0.302 A  
HETATM   27  H   UNL     1      -9.846  10.242  66.938  1.00  0.00     0.000 HD 
HETATM   28  C   UNL     1      -9.520   6.031  69.333  1.00  0.00    -0.134 A  
HETATM   29  C   UNL     1      -8.439   6.897  69.547  1.00  0.00    -0.133 A  
BRANCH  28  30
HETATM   30  N   UNL     1      -9.567   4.776  70.011  1.00  0.00    -0.170 N  
HETATM   31  H   UNL     1      -9.515   3.898  69.495  1.00  0.00     0.000 HD 
BRANCH  30  32
HETATM   32  S   UNL     1      -9.714   4.790  71.696  1.00  0.00    -0.177 S  
HETATM   33  O   UNL     1      -8.425   4.957  72.317  1.00  0.00    -0.120 OA 
HETATM   34  O   UNL     1     -10.808   5.700  71.971  1.00  0.00    -0.231 OA 
HETATM   35  C   UNL     1     -10.307   3.141  72.002  1.00  0.00     0.063 C  
ENDBRANCH  30  32
ENDBRANCH  28  30
ENDBRANCH  17  20
ENDBRANCH   7  12
ENDBRANCH   4   6
ENDBRANCH   2   4
TORSDOF 6
ENDMDL
MODEL      118
REMARK 921   NORMALIZED FREE ENERGY PREDICTED BY IDOCK:   -3.39 KCAL/MOL
REMARK 922        TOTAL FREE ENERGY PREDICTED BY IDOCK:   -5.06 KCAL/MOL
REMARK 923 INTER-LIGAND FREE ENERGY PREDICTED BY IDOCK:   -6.33 KCAL/MOL
REMARK 924 INTRA-LIGAND FREE ENERGY PREDICTED BY IDOCK:    1.28 KCAL/MOL
REMARK 927      BINDING AFFINITY PREDICTED BY RF-SCORE:    0.00 PKD
ROOT
HETATM    1  C   UNL     1     -11.509  15.146  72.201  1.00  0.00    -0.430 C  
HETATM    2  C   UNL     1     -11.607  14.450  70.842  1.00  0.00    -0.144 C  
HETATM    3  C   UNL     1     -12.773  15.052  70.050  1.00  0.00    -0.197 C  
ENDROOT
BRANCH   2   4
HETATM    4  N   UNL     1     -10.403  14.685  70.056  1.00  0.00    -0.437 NA 
HETATM    5  H   UNL     1      -9.551  14.234  70.387  1.00  0.00     0.000 HD 
BRANCH   4   6
HETATM    6  C   UNL     1     -10.288  15.458  68.901  1.00  0.00    -0.233 A  
HETATM    7  C   UNL     1      -9.794  15.093  67.618  1.00  0.00    -0.219 A  
HETATM    8  N   UNL     1      -9.794  15.980  66.580  1.00  0.00    -0.252 NA 
HETATM    9  C   UNL     1     -10.757  16.787  69.026  1.00  0.00    -0.331 A  
HETATM   10  C   UNL     1     -10.727  17.686  67.967  1.00  0.00    -0.333 A  
HETATM   11  C   UNL     1     -10.245  17.233  66.766  1.00  0.00    -0.318 A  
BRANCH   7  12
HETATM   12  N   UNL     1      -9.229  13.823  67.340  1.00  0.00    -0.212 NA 
HETATM   13  C   UNL     1      -9.847  13.240  66.119  1.00  0.00    -0.280 C  
HETATM   14  N   UNL     1      -9.147  10.979  66.821  1.00  0.00    -0.159 N  
HETATM   15  C   UNL     1      -9.093  11.965  65.736  1.00  0.00    -0.038 C  
HETATM   16  C   UNL     1      -8.693  11.509  68.122  1.00  0.00    -0.157 C  
HETATM   17  C   UNL     1      -9.863   9.807  66.594  1.00  0.00    -0.215 C  
HETATM   18  O   UNL     1     -10.593   9.701  65.606  1.00  0.00     0.082 OA 
HETATM   19  C   UNL     1      -9.352  12.881  68.481  1.00  0.00    -0.074 C  
BRANCH  17  20
HETATM   20  C   UNL     1      -9.725   8.668  67.481  1.00  0.00    -0.165 A  
HETATM   21  C   UNL     1     -10.613   7.749  68.007  1.00  0.00    -0.201 A  
HETATM   22  C   UNL     1      -9.931   6.956  68.975  1.00  0.00    -0.160 A  
HETATM   23  C   UNL     1      -8.618   7.416  69.031  1.00  0.00    -0.133 A  
HETATM   24  N   UNL     1      -8.517   8.428  68.108  1.00  0.00    -0.131 NA 
HETATM   25  C   UNL     1      -7.668   6.899  69.918  1.00  0.00    -0.109 A  
HETATM   26  C   UNL     1      -8.072   5.865  70.770  1.00  0.00    -0.119 A  
HETATM   27  H   UNL     1      -7.658   8.940  67.910  1.00  0.00     0.000 HD 
HETATM   28  C   UNL     1      -9.369   5.362  70.711  1.00  0.00    -0.159 A  
HETATM   29  C   UNL     1     -10.318   5.910  69.838  1.00  0.00    -0.307 A  
BRANCH  28  30
HETATM   30  N   UNL     1      -9.732   4.274  71.561  1.00  0.00    -0.165 N  
HETATM   31  H   UNL     1      -9.484   3.314  71.320  1.00  0.00     0.000 HD 
BRANCH  30  32
HETATM   32  S   UNL     1     -10.586   4.625  72.977  1.00  0.00    -0.229 S  
HETATM   33  O   UNL     1     -11.823   5.297  72.671  1.00  0.00    -0.208 OA 
HETATM   34  O   UNL     1     -10.566   3.394  73.744  1.00  0.00    -0.159 OA 
HETATM   35  C   UNL     1      -9.476   5.763  73.774  1.00  0.00    -0.140 C  
ENDBRANCH  30  32
ENDBRANCH  28  30
ENDBRANCH  17  20
ENDBRANCH   7  12
ENDBRANCH   4   6
ENDBRANCH   2   4
TORSDOF 6
ENDMDL
MODEL      119
REMARK 921   NORMALIZED FREE ENERGY PREDICTED BY IDOCK:   -3.28 KCAL/MOL
REMARK 922        TOTAL FREE ENERGY PREDICTED BY IDOCK:   -4.90 KCAL/MOL
REMARK 923 INTER-LIGAND FREE ENERGY PREDICTED BY IDOCK:   -5.14 KCAL/MOL
REMARK 924 INTRA-LIGAND FREE ENERGY PREDICTED BY IDOCK:    0.24 KCAL/MOL
REMARK 927      BINDING AFFINITY PREDICTED BY RF-SCORE:    0.00 PKD
ROOT
HETATM    1  C   UNL     1     -10.591   5.140  67.704  1.00  0.00    -0.062 C  
HETATM    2  C   UNL     1      -9.209   5.609  68.166  1.00  0.00    -0.110 C  
HETATM    3  C   UNL     1      -8.231   5.536  66.989  1.00  0.00    -0.105 C  
ENDROOT
BRANCH   2   4
HETATM    4  N   UNL     1      -9.254   7.004  68.586  1.00  0.00    -0.132 NA 
HETATM    5  H   UNL     1      -9.327   7.699  67.843  1.00  0.00     0.000 HD 
BRANCH   4   6
HETATM    6  C   UNL     1      -9.208   7.493  69.891  1.00  0.00    -0.147 A  
HETATM    7  C   UNL     1      -9.731   8.707  70.416  1.00  0.00    -0.176 A  
HETATM    8  N   UNL     1      -9.628   9.007  71.745  1.00  0.00    -0.302 NA 
HETATM    9  C   UNL     1      -8.572   6.641  70.823  1.00  0.00    -0.135 A  
HETATM   10  C   UNL     1      -8.452   6.971  72.168  1.00  0.00    -0.116 A  
HETATM   11  C   UNL     1      -9.002   8.158  72.579  1.00  0.00    -0.220 A  
BRANCH   7  12
HETATM   12  N   UNL     1     -10.340   9.700  69.609  1.00  0.00    -0.211 NA 
HETATM   13  C   UNL     1     -10.376   9.258  68.189  1.00  0.00    -0.215 C  
HETATM   14  N   UNL     1     -10.616  11.600  67.446  1.00  0.00    -0.212 N  
HETATM   15  C   UNL     1     -11.201  10.257  67.374  1.00  0.00    -0.068 C  
HETATM   16  C   UNL     1     -10.398  12.075  68.827  1.00  0.00    -0.160 C  
HETATM   17  C   UNL     1     -10.079  12.135  66.279  1.00  0.00    -0.224 C  
HETATM   18  O   UNL     1      -9.912  11.425  65.284  1.00  0.00    -0.235 OA 
HETATM   19  C   UNL     1      -9.669  11.020  69.723  1.00  0.00     0.564 C  
BRANCH  17  20
HETATM   20  C   UNL     1      -9.755  13.546  66.187  1.00  0.00    -0.252 A  
HETATM   21  C   UNL     1      -8.574  14.263  66.213  1.00  0.00     0.430 A  
HETATM   22  C   UNL     1      -8.883  15.653  66.268  1.00  0.00    -0.364 A  
HETATM   23  C   UNL     1     -10.271  15.764  66.282  1.00  0.00    -0.303 A  
HETATM   24  N   UNL     1     -10.768  14.485  66.210  1.00  0.00    -0.303 NA 
HETATM   25  C   UNL     1     -10.935  16.991  66.386  1.00  0.00     0.196 A  
HETATM   26  C   UNL     1     -10.150  18.147  66.464  1.00  0.00    -0.389 A  
HETATM   27  H   UNL     1     -11.761  14.258  66.179  1.00  0.00     0.000 HD 
HETATM   28  C   UNL     1      -8.761  18.068  66.416  1.00  0.00    -0.227 A  
HETATM   29  C   UNL     1      -8.110  16.830  66.342  1.00  0.00    -0.355 A  
BRANCH  28  30
HETATM   30  N   UNL     1      -7.995  19.272  66.449  1.00  0.00    -0.287 N  
HETATM   31  H   UNL     1      -7.720  19.743  65.588  1.00  0.00     0.000 HD 
BRANCH  30  32
HETATM   32  S   UNL     1      -7.555  19.891  67.961  1.00  0.00    -0.278 S  
HETATM   33  O   UNL     1      -7.352  21.315  67.887  1.00  0.00    -0.174 OA 
HETATM   34  O   UNL     1      -8.500  19.311  68.894  1.00  0.00    -0.362 OA 
HETATM   35  C   UNL     1      -5.991  19.084  68.220  1.00  0.00    -0.210 C  
ENDBRANCH  30  32
ENDBRANCH  28  30
ENDBRANCH  17  20
ENDBRANCH   7  12
ENDBRANCH   4   6
ENDBRANCH   2   4
TORSDOF 6
ENDMDL
MODEL      120
REMARK 921   NORMALIZED FREE ENERGY PREDICTED BY IDOCK:   -3.19 KCAL/MOL
REMARK 922        TOTAL FREE ENERGY PREDICTED BY IDOCK:   -4.79 KCAL/MOL
REMARK 923 INTER-LIGAND FREE ENERGY PREDICTED BY IDOCK:   -5.11 KCAL/MOL
REMARK 924 INTRA-LIGAND FREE ENERGY PREDICTED BY IDOCK:    0.32 KCAL/MOL
REMARK 927      BINDING AFFINITY PREDICTED BY RF-SCORE:    0.00 PKD
ROOT
HETATM    1  C   UNL     1     -11.992  15.082  64.305  1.00  0.00    -0.310 C  
HETATM    2  C   UNL     1     -12.592  14.336  65.499  1.00  0.00    -0.413 C  
HETATM    3  C   UNL     1     -12.651  12.838  65.180  1.00  0.00    -0.513 C  
ENDROOT
BRANCH   2   4
HETATM    4  N   UNL     1     -11.742  14.480  66.674  1.00  0.00    -0.380 NA 
HETATM    5  H   UNL     1     -11.971  13.890  67.474  1.00  0.00     0.000 HD 
BRANCH   4   6
HETATM    6  C   UNL     1     -10.651  15.335  66.825  1.00  0.00    -0.304 A  
HETATM    7  C   UNL     1      -9.296  15.022  67.124  1.00  0.00    -0.215 A  
HETATM    8  N   UNL     1      -8.343  15.997  67.194  1.00  0.00    -0.183 NA 
HETATM    9  C   UNL     1     -10.938  16.706  66.624  1.00  0.00     0.104 A  
HETATM   10  C   UNL     1      -9.962  17.689  66.724  1.00  0.00    -0.320 A  
HETATM   11  C   UNL     1      -8.682  17.284  67.003  1.00  0.00    -0.231 A  
BRANCH   7  12
HETATM   12  N   UNL     1      -8.853  13.708  67.416  1.00  0.00    -0.209 NA 
HETATM   13  C   UNL     1      -7.366  13.657  67.430  1.00  0.00    -0.111 C  
HETATM   14  N   UNL     1      -7.427  11.217  67.060  1.00  0.00    -0.124 N  
HETATM   15  C   UNL     1      -6.916  12.283  67.929  1.00  0.00    -0.104 C  
HETATM   16  C   UNL     1      -8.889  11.270  66.859  1.00  0.00    -0.165 C  
HETATM   17  C   UNL     1      -6.502  10.491  66.315  1.00  0.00    -0.114 C  
HETATM   18  O   UNL     1      -5.332  10.870  66.231  1.00  0.00    -0.077 OA 
HETATM   19  C   UNL     1      -9.396  12.698  66.473  1.00  0.00    -0.228 C  
BRANCH  17  20
HETATM   20  C   UNL     1      -6.878   9.248  65.670  1.00  0.00    -0.074 A  
HETATM   21  C   UNL     1      -7.312   8.020  66.131  1.00  0.00    -0.074 A  
HETATM   22  C   UNL     1      -7.354   7.108  65.037  1.00  0.00    -0.083 A  
HETATM   23  C   UNL     1      -6.932   7.804  63.907  1.00  0.00    -0.063 A  
HETATM   24  N   UNL     1      -6.674   9.091  64.312  1.00  0.00    -0.082 NA 
HETATM   25  C   UNL     1      -6.797   7.204  62.650  1.00  0.00    -0.053 A  
HETATM   26  C   UNL     1      -7.120   5.846  62.543  1.00  0.00    -0.045 A  
HETATM   27  H   UNL     1      -6.370   9.838  63.688  1.00  0.00     0.000 HD 
HETATM   28  C   UNL     1      -7.579   5.135  63.648  1.00  0.00    -0.069 A  
HETATM   29  C   UNL     1      -7.680   5.743  64.907  1.00  0.00    -0.095 A  
BRANCH  28  30
HETATM   30  N   UNL     1      -7.945   3.765  63.490  1.00  0.00    -0.085 N  
HETATM   31  H   UNL     1      -7.235   3.035  63.435  1.00  0.00     0.000 HD 
BRANCH  30  32
HETATM   32  S   UNL     1      -9.591   3.389  63.397  1.00  0.00    -0.123 S  
HETATM   33  O   UNL     1     -10.266   4.286  62.494  1.00  0.00    -0.161 OA 
HETATM   34  O   UNL     1      -9.640   1.952  63.211  1.00  0.00    -0.092 OA 
HETATM   35  C   UNL     1     -10.114   3.725  65.063  1.00  0.00    -0.118 C  
ENDBRANCH  30  32
ENDBRANCH  28  30
ENDBRANCH  17  20
ENDBRANCH   7  12
ENDBRANCH   4   6
ENDBRANCH   2   4
TORSDOF 6
ENDMDL
MODEL      121
REMARK 921   NORMALIZED FREE ENERGY PREDICTED BY IDOCK:   -3.10 KCAL/MOL
REMARK 922        TOTAL FREE ENERGY PREDICTED BY IDOCK:   -4.67 KCAL/MOL
REMARK 923 INTER-LIGAND FREE ENERGY PREDICTED BY IDOCK:   -5.27 KCAL/MOL
REMARK 924 INTRA-LIGAND FREE ENERGY PREDICTED BY IDOCK:    0.59 KCAL/MOL
REMARK 927      BINDING AFFINITY PREDICTED BY RF-SCORE:    0.00 PKD
ROOT
HETATM    1  C   UNL     1     -11.691  15.968  70.428  1.00  0.00    -0.326 C  
HETATM    2  C   UNL     1     -11.106  16.121  69.022  1.00  0.00    -0.336 C  
HETATM    3  C   UNL     1      -9.706  16.736  69.123  1.00  0.00    -0.204 C  
ENDROOT
BRANCH   2   4
HETATM    4  N   UNL     1     -10.946  14.820  68.387  1.00  0.00    -0.244 NA 
HETATM    5  H   UNL     1     -10.642  14.055  68.990  1.00  0.00     0.000 HD 
BRANCH   4   6
HETATM    6  C   UNL     1     -11.163  14.504  67.045  1.00  0.00    -0.337 A  
HETATM    7  C   UNL     1     -11.658  13.300  66.473  1.00  0.00    -0.350 A  
HETATM    8  N   UNL     1     -11.847  13.182  65.125  1.00  0.00    -0.340 NA 
HETATM    9  C   UNL     1     -10.872  15.547  66.135  1.00  0.00    -0.295 A  
HETATM   10  C   UNL     1     -11.045  15.403  64.764  1.00  0.00    -0.416 A  
HETATM   11  C   UNL     1     -11.541  14.207  64.311  1.00  0.00    -0.309 A  
BRANCH   7  12
HETATM   12  N   UNL     1     -11.937  12.139  67.235  1.00  0.00    -0.578 NA 
HETATM   13  C   UNL     1     -12.201  12.505  68.653  1.00  0.00     0.088 C  
HETATM   14  N   UNL     1     -11.671  10.202  69.367  1.00  0.00    -0.097 N  
HETATM   15  C   UNL     1     -12.682  11.265  69.410  1.00  0.00     0.408 C  
HETATM   16  C   UNL     1     -11.227   9.866  68.000  1.00  0.00    -0.061 C  
HETATM   17  C   UNL     1     -11.051   9.851  70.563  1.00  0.00    -0.332 C  
HETATM   18  O   UNL     1     -11.193  10.549  71.569  1.00  0.00     0.292 OA 
HETATM   19  C   UNL     1     -10.852  11.129  67.157  1.00  0.00    -0.273 C  
BRANCH  17  20
HETATM   20  C   UNL     1     -10.272   8.632  70.667  1.00  0.00    -0.198 A  
HETATM   21  C   UNL     1     -10.263   7.437  69.973  1.00  0.00    -0.211 A  
HETATM   22  C   UNL     1      -9.398   6.525  70.644  1.00  0.00    -0.166 A  
HETATM   23  C   UNL     1      -8.890   7.186  71.759  1.00  0.00    -0.124 A  
HETATM   24  N   UNL     1      -9.414   8.456  71.736  1.00  0.00    -0.208 NA 
HETATM   25  C   UNL     1      -8.040   6.573  72.686  1.00  0.00    -0.103 A  
HETATM   26  C   UNL     1      -7.686   5.238  72.455  1.00  0.00    -0.101 A  
HETATM   27  H   UNL     1      -9.196   9.178  72.421  1.00  0.00     0.000 HD 
HETATM   28  C   UNL     1      -8.151   4.564  71.329  1.00  0.00    -0.087 A  
HETATM   29  C   UNL     1      -9.025   5.183  70.426  1.00  0.00    -0.157 A  
BRANCH  28  30
HETATM   30  N   UNL     1      -7.730   3.219  71.101  1.00  0.00    -0.050 N  
HETATM   31  H   UNL     1      -7.904   2.490  71.792  1.00  0.00     0.000 HD 
BRANCH  30  32
HETATM   32  S   UNL     1      -6.932   2.873  69.650  1.00  0.00    -0.037 S  
HETATM   33  O   UNL     1      -6.214   4.029  69.177  1.00  0.00    -0.027 OA 
HETATM   34  O   UNL     1      -6.260   1.610  69.882  1.00  0.00    -0.023 OA 
HETATM   35  C   UNL     1      -8.309   2.550  68.571  1.00  0.00    -0.064 C  
ENDBRANCH  30  32
ENDBRANCH  28  30
ENDBRANCH  17  20
ENDBRANCH   7  12
ENDBRANCH   4   6
ENDBRANCH   2   4
TORSDOF 6
ENDMDL
MODEL      122
REMARK 921   NORMALIZED FREE ENERGY PREDICTED BY IDOCK:   -2.98 KCAL/MOL
REMARK 922        TOTAL FREE ENERGY PREDICTED BY IDOCK:   -4.51 KCAL/MOL
REMARK 923 INTER-LIGAND FREE ENERGY PREDICTED BY IDOCK:   -4.53 KCAL/MOL
REMARK 924 INTRA-LIGAND FREE ENERGY PREDICTED BY IDOCK:    0.03 KCAL/MOL
REMARK 927      BINDING AFFINITY PREDICTED BY RF-SCORE:    0.00 PKD
ROOT
HETATM    1  C   UNL     1      -9.490   2.960  67.654  1.00  0.00    -0.169 C  
HETATM    2  C   UNL     1      -8.404   2.312  68.516  1.00  0.00    -0.057 C  
HETATM    3  C   UNL     1      -7.129   2.147  67.682  1.00  0.00    -0.047 C  
ENDROOT
BRANCH   2   4
HETATM    4  N   UNL     1      -8.059   3.173  69.640  1.00  0.00    -0.048 NA 
HETATM    5  H   UNL     1      -7.077   3.433  69.727  1.00  0.00     0.000 HD 
BRANCH   4   6
HETATM    6  C   UNL     1      -8.924   3.680  70.610  1.00  0.00    -0.097 A  
HETATM    7  C   UNL     1      -9.603   4.929  70.646  1.00  0.00    -0.186 A  
HETATM    8  N   UNL     1     -10.454   5.244  71.667  1.00  0.00    -0.222 NA 
HETATM    9  C   UNL     1      -9.177   2.808  71.695  1.00  0.00    -0.181 A  
HETATM   10  C   UNL     1     -10.025   3.153  72.740  1.00  0.00    -0.213 A  
HETATM   11  C   UNL     1     -10.643   4.375  72.676  1.00  0.00    -0.162 A  
BRANCH   7  12
HETATM   12  N   UNL     1      -9.412   5.941  69.673  1.00  0.00    -0.141 NA 
HETATM   13  C   UNL     1      -7.999   5.948  69.207  1.00  0.00    -0.099 C  
HETATM   14  N   UNL     1      -8.249   8.276  68.424  1.00  0.00    -0.130 N  
HETATM   15  C   UNL     1      -7.865   6.916  68.029  1.00  0.00    -0.114 C  
HETATM   16  C   UNL     1      -9.587   8.355  69.041  1.00  0.00    -0.160 C  
HETATM   17  C   UNL     1      -7.252   9.247  68.451  1.00  0.00    -0.076 C  
HETATM   18  O   UNL     1      -6.064   8.928  68.355  1.00  0.00    -0.045 OA 
HETATM   19  C   UNL     1      -9.800   7.287  70.164  1.00  0.00    -0.179 C  
BRANCH  17  20
HETATM   20  C   UNL     1      -7.587  10.655  68.537  1.00  0.00    -0.097 A  
HETATM   21  C   UNL     1      -8.348  11.509  67.761  1.00  0.00    -0.136 A  
HETATM   22  C   UNL     1      -8.167  12.841  68.236  1.00  0.00    -0.159 A  
HETATM   23  C   UNL     1      -7.280  12.778  69.306  1.00  0.00     0.171 A  
HETATM   24  N   UNL     1      -6.965  11.452  69.479  1.00  0.00    -0.268 NA 
HETATM   25  C   UNL     1      -6.829  13.914  69.989  1.00  0.00     0.175 A  
HETATM   26  C   UNL     1      -7.316  15.157  69.569  1.00  0.00    -0.210 A  
HETATM   27  H   UNL     1      -6.349  11.100  70.211  1.00  0.00     0.000 HD 
HETATM   28  C   UNL     1      -8.232  15.246  68.524  1.00  0.00    -0.146 A  
HETATM   29  C   UNL     1      -8.651  14.102  67.832  1.00  0.00    -0.178 A  
BRANCH  28  30
HETATM   30  N   UNL     1      -8.744  16.526  68.155  1.00  0.00    -0.190 N  
HETATM   31  H   UNL     1      -8.135  17.241  67.759  1.00  0.00     0.000 HD 
BRANCH  30  32
HETATM   32  S   UNL     1     -10.392  16.821  68.397  1.00  0.00    -0.340 S  
HETATM   33  O   UNL     1     -10.625  18.217  68.666  1.00  0.00    -0.265 OA 
HETATM   34  O   UNL     1     -11.060  16.141  67.304  1.00  0.00    -0.231 OA 
HETATM   35  C   UNL     1     -10.696  15.876  69.873  1.00  0.00    -0.334 C  
ENDBRANCH  30  32
ENDBRANCH  28  30
ENDBRANCH  17  20
ENDBRANCH   7  12
ENDBRANCH   4   6
ENDBRANCH   2   4
TORSDOF 6
ENDMDL
MODEL      123
REMARK 921   NORMALIZED FREE ENERGY PREDICTED BY IDOCK:   -2.98 KCAL/MOL
REMARK 922        TOTAL FREE ENERGY PREDICTED BY IDOCK:   -4.50 KCAL/MOL
REMARK 923 INTER-LIGAND FREE ENERGY PREDICTED BY IDOCK:   -5.62 KCAL/MOL
REMARK 924 INTRA-LIGAND FREE ENERGY PREDICTED BY IDOCK:    1.12 KCAL/MOL
REMARK 927      BINDING AFFINITY PREDICTED BY RF-SCORE:    0.00 PKD
ROOT
HETATM    1  C   UNL     1      -8.871  11.050  62.463  1.00  0.00    -0.358 C  
HETATM    2  C   UNL     1      -9.338  10.711  63.880  1.00  0.00    -0.267 C  
HETATM    3  C   UNL     1      -8.292   9.819  64.556  1.00  0.00    -0.168 C  
ENDROOT
BRANCH   2   4
HETATM    4  N   UNL     1      -9.443  11.919  64.689  1.00  0.00    -0.436 NA 
HETATM    5  H   UNL     1      -8.575  12.271  65.092  1.00  0.00     0.000 HD 
BRANCH   4   6
HETATM    6  C   UNL     1     -10.599  12.646  64.972  1.00  0.00    -0.303 A  
HETATM    7  C   UNL     1     -11.205  12.919  66.230  1.00  0.00    -0.301 A  
HETATM    8  N   UNL     1     -12.326  13.694  66.322  1.00  0.00    -0.430 NA 
HETATM    9  C   UNL     1     -11.236  13.213  63.844  1.00  0.00    -0.377 A  
HETATM   10  C   UNL     1     -12.392  13.977  63.951  1.00  0.00    -0.280 A  
HETATM   11  C   UNL     1     -12.891  14.195  65.210  1.00  0.00    -0.344 A  
BRANCH   7  12
HETATM   12  N   UNL     1     -10.732  12.376  67.450  1.00  0.00    -0.225 NA 
HETATM   13  C   UNL     1      -9.273  12.630  67.595  1.00  0.00    -0.191 C  
HETATM   14  N   UNL     1      -9.093  10.778  69.218  1.00  0.00    -0.099 N  
HETATM   15  C   UNL     1      -8.828  12.204  68.996  1.00  0.00     0.401 C  
HETATM   16  C   UNL     1     -10.492  10.390  68.952  1.00  0.00    -0.212 C  
HETATM   17  C   UNL     1      -7.997   9.930  69.355  1.00  0.00    -0.135 C  
HETATM   18  O   UNL     1      -6.861  10.328  69.089  1.00  0.00    -0.054 OA 
HETATM   19  C   UNL     1     -11.019  10.925  67.579  1.00  0.00    -0.293 C  
BRANCH  17  20
HETATM   20  C   UNL     1      -8.159   8.582  69.865  1.00  0.00    -0.118 A  
HETATM   21  C   UNL     1      -7.299   7.516  70.047  1.00  0.00    -0.081 A  
HETATM   22  C   UNL     1      -8.063   6.370  70.416  1.00  0.00    -0.117 A  
HETATM   23  C   UNL     1      -9.399   6.760  70.446  1.00  0.00    -0.163 A  
HETATM   24  N   UNL     1      -9.425   8.098  70.133  1.00  0.00    -0.166 NA 
HETATM   25  C   UNL     1     -10.445   5.872  70.721  1.00  0.00    -0.311 A  
HETATM   26  C   UNL     1     -10.109   4.540  70.989  1.00  0.00    -0.222 A  
HETATM   27  H   UNL     1     -10.274   8.662  70.102  1.00  0.00     0.000 HD 
HETATM   28  C   UNL     1      -8.779   4.131  71.001  1.00  0.00    -0.088 A  
HETATM   29  C   UNL     1      -7.745   5.025  70.694  1.00  0.00    -0.074 A  
BRANCH  28  30
HETATM   30  N   UNL     1      -8.471   2.775  71.326  1.00  0.00    -0.062 N  
HETATM   31  H   UNL     1      -9.012   2.005  70.932  1.00  0.00     0.000 HD 
BRANCH  30  32
HETATM   32  S   UNL     1      -7.184   2.486  72.384  1.00  0.00    -0.039 S  
HETATM   33  O   UNL     1      -7.533   1.468  73.342  1.00  0.00    -0.027 OA 
HETATM   34  O   UNL     1      -6.019   2.353  71.533  1.00  0.00    -0.013 OA 
HETATM   35  C   UNL     1      -7.061   4.057  73.210  1.00  0.00    -0.067 C  
ENDBRANCH  30  32
ENDBRANCH  28  30
ENDBRANCH  17  20
ENDBRANCH   7  12
ENDBRANCH   4   6
ENDBRANCH   2   4
TORSDOF 6
ENDMDL
MODEL      124
REMARK 921   NORMALIZED FREE ENERGY PREDICTED BY IDOCK:   -2.79 KCAL/MOL
REMARK 922        TOTAL FREE ENERGY PREDICTED BY IDOCK:   -4.25 KCAL/MOL
REMARK 923 INTER-LIGAND FREE ENERGY PREDICTED BY IDOCK:   -4.21 KCAL/MOL
REMARK 924 INTRA-LIGAND FREE ENERGY PREDICTED BY IDOCK:   -0.05 KCAL/MOL
REMARK 927      BINDING AFFINITY PREDICTED BY RF-SCORE:    0.00 PKD
ROOT
HETATM    1  C   UNL     1     -10.404  19.803  65.827  1.00  0.00    -0.522 C  
HETATM    2  C   UNL     1      -9.875  20.482  67.092  1.00  0.00    -0.426 C  
HETATM    3  C   UNL     1     -10.118  19.566  68.296  1.00  0.00    -0.542 C  
ENDROOT
BRANCH   2   4
HETATM    4  N   UNL     1      -8.435  20.683  67.004  1.00  0.00    -0.551 NA 
HETATM    5  H   UNL     1      -8.013  21.267  67.726  1.00  0.00     0.000 HD 
BRANCH   4   6
HETATM    6  C   UNL     1      -7.569  20.165  66.041  1.00  0.00    -0.258 A  
HETATM    7  C   UNL     1      -7.275  18.808  65.731  1.00  0.00    -0.199 A  
HETATM    8  N   UNL     1      -6.422  18.483  64.715  1.00  0.00    -0.339 NA 
HETATM    9  C   UNL     1      -6.915  21.136  65.246  1.00  0.00     0.341 A  
HETATM   10  C   UNL     1      -6.030  20.789  64.232  1.00  0.00    -0.338 A  
HETATM   11  C   UNL     1      -5.824  19.453  64.002  1.00  0.00    -0.259 A  
BRANCH   7  12
HETATM   12  N   UNL     1      -7.794  17.717  66.470  1.00  0.00    -0.251 NA 
HETATM   13  C   UNL     1      -7.352  17.799  67.889  1.00  0.00    -0.215 C  
HETATM   14  N   UNL     1      -7.773  15.384  68.180  1.00  0.00    -0.120 N  
HETATM   15  C   UNL     1      -8.074  16.722  68.702  1.00  0.00    -0.251 C  
HETATM   16  C   UNL     1      -8.037  15.241  66.735  1.00  0.00    -0.131 C  
HETATM   17  C   UNL     1      -7.030  14.528  68.988  1.00  0.00    -0.121 C  
HETATM   18  O   UNL     1      -6.471  14.952  70.002  1.00  0.00    -0.155 OA 
HETATM   19  C   UNL     1      -7.419  16.403  65.889  1.00  0.00     0.901 C  
BRANCH  17  20
HETATM   20  C   UNL     1      -6.941  13.112  68.687  1.00  0.00    -0.102 A  
HETATM   21  C   UNL     1      -7.402  11.968  69.310  1.00  0.00     0.126 A  
HETATM   22  C   UNL     1      -6.851  10.833  68.649  1.00  0.00    -0.060 A  
HETATM   23  C   UNL     1      -6.044  11.310  67.620  1.00  0.00    -0.051 A  
HETATM   24  N   UNL     1      -6.134  12.680  67.652  1.00  0.00    -0.133 NA 
HETATM   25  C   UNL     1      -5.296  10.469  66.787  1.00  0.00    -0.045 A  
HETATM   26  C   UNL     1      -5.389   9.090  67.008  1.00  0.00    -0.040 A  
HETATM   27  H   UNL     1      -5.664  13.301  66.994  1.00  0.00     0.000 HD 
HETATM   28  C   UNL     1      -6.217   8.584  68.006  1.00  0.00    -0.052 A  
HETATM   29  C   UNL     1      -6.936   9.440  68.851  1.00  0.00    -0.063 A  
BRANCH  28  30
HETATM   30  N   UNL     1      -6.324   7.170  68.170  1.00  0.00    -0.042 N  
HETATM   31  H   UNL     1      -5.820   6.688  68.914  1.00  0.00     0.000 HD 
BRANCH  30  32
HETATM   32  S   UNL     1      -7.313   6.320  67.093  1.00  0.00    -0.084 S  
HETATM   33  O   UNL     1      -7.874   5.156  67.729  1.00  0.00    -0.090 OA 
HETATM   34  O   UNL     1      -8.157   7.327  66.482  1.00  0.00    -0.108 OA 
HETATM   35  C   UNL     1      -6.126   5.810  65.870  1.00  0.00    -0.029 C  
ENDBRANCH  30  32
ENDBRANCH  28  30
ENDBRANCH  17  20
ENDBRANCH   7  12
ENDBRANCH   4   6
ENDBRANCH   2   4
TORSDOF 6
ENDMDL
MODEL      125
REMARK 921   NORMALIZED FREE ENERGY PREDICTED BY IDOCK:   -2.76 KCAL/MOL
REMARK 922        TOTAL FREE ENERGY PREDICTED BY IDOCK:   -4.21 KCAL/MOL
REMARK 923 INTER-LIGAND FREE ENERGY PREDICTED BY IDOCK:   -5.09 KCAL/MOL
REMARK 924 INTRA-LIGAND FREE ENERGY PREDICTED BY IDOCK:    0.89 KCAL/MOL
REMARK 927      BINDING AFFINITY PREDICTED BY RF-SCORE:    0.00 PKD
ROOT
HETATM    1  C   UNL     1     -11.647  15.062  64.423  1.00  0.00    -0.281 C  
HETATM    2  C   UNL     1     -12.378  14.557  65.669  1.00  0.00    -0.250 C  
HETATM    3  C   UNL     1     -12.334  13.025  65.693  1.00  0.00    -0.504 C  
ENDROOT
BRANCH   2   4
HETATM    4  N   UNL     1     -11.706  15.013  66.879  1.00  0.00    -0.244 NA 
HETATM    5  H   UNL     1     -12.059  14.642  67.761  1.00  0.00     0.000 HD 
BRANCH   4   6
HETATM    6  C   UNL     1     -10.633  15.901  66.964  1.00  0.00    -0.306 A  
HETATM    7  C   UNL     1      -9.308  15.670  67.426  1.00  0.00    -0.210 A  
HETATM    8  N   UNL     1      -8.366  16.659  67.398  1.00  0.00    -0.170 NA 
HETATM    9  C   UNL     1     -10.905  17.207  66.495  1.00  0.00     0.057 A  
HETATM   10  C   UNL     1      -9.943  18.210  66.497  1.00  0.00    -0.374 A  
HETATM   11  C   UNL     1      -8.691  17.884  66.950  1.00  0.00    -0.246 A  
BRANCH   7  12
HETATM   12  N   UNL     1      -8.888  14.438  67.986  1.00  0.00    -0.171 NA 
HETATM   13  C   UNL     1      -7.429  14.244  67.768  1.00  0.00    -0.164 C  
HETATM   14  N   UNL     1      -7.687  11.809  68.089  1.00  0.00    -0.116 N  
HETATM   15  C   UNL     1      -6.968  13.006  68.541  1.00  0.00    -0.102 C  
HETATM   16  C   UNL     1      -9.156  11.955  68.125  1.00  0.00    -0.190 C  
HETATM   17  C   UNL     1      -6.956  10.827  67.427  1.00  0.00    -0.083 C  
HETATM   18  O   UNL     1      -5.803  11.051  67.052  1.00  0.00    -0.052 OA 
HETATM   19  C   UNL     1      -9.649  13.279  67.454  1.00  0.00    -0.223 C  
BRANCH  17  20
HETATM   20  C   UNL     1      -7.510   9.504  67.214  1.00  0.00    -0.091 A  
HETATM   21  C   UNL     1      -8.081   8.558  68.044  1.00  0.00    -0.115 A  
HETATM   22  C   UNL     1      -8.278   7.357  67.301  1.00  0.00    -0.115 A  
HETATM   23  C   UNL     1      -7.810   7.592  66.011  1.00  0.00    -0.101 A  
HETATM   24  N   UNL     1      -7.376   8.895  65.981  1.00  0.00    -0.089 NA 
HETATM   25  C   UNL     1      -7.798   6.608  65.015  1.00  0.00    -0.113 A  
HETATM   26  C   UNL     1      -8.295   5.343  65.349  1.00  0.00    -0.139 A  
HETATM   27  H   UNL     1      -7.001   9.354  65.152  1.00  0.00     0.000 HD 
HETATM   28  C   UNL     1      -8.802   5.091  66.621  1.00  0.00    -0.111 A  
HETATM   29  C   UNL     1      -8.780   6.078  67.616  1.00  0.00    -0.104 A  
BRANCH  28  30
HETATM   30  N   UNL     1      -9.345   3.803  66.911  1.00  0.00    -0.181 N  
HETATM   31  H   UNL     1     -10.240   3.511  66.518  1.00  0.00     0.000 HD 
BRANCH  30  32
HETATM   32  S   UNL     1      -8.461   2.779  67.926  1.00  0.00    -0.092 S  
HETATM   33  O   UNL     1      -8.947   2.862  69.279  1.00  0.00    -0.090 OA 
HETATM   34  O   UNL     1      -8.399   1.514  67.222  1.00  0.00    -0.070 OA 
HETATM   35  C   UNL     1      -6.845   3.517  67.832  1.00  0.00    -0.050 C  
ENDBRANCH  30  32
ENDBRANCH  28  30
ENDBRANCH  17  20
ENDBRANCH   7  12
ENDBRANCH   4   6
ENDBRANCH   2   4
TORSDOF 6
ENDMDL
MODEL      126
REMARK 921   NORMALIZED FREE ENERGY PREDICTED BY IDOCK:   -2.70 KCAL/MOL
REMARK 922        TOTAL FREE ENERGY PREDICTED BY IDOCK:   -4.13 KCAL/MOL
REMARK 923 INTER-LIGAND FREE ENERGY PREDICTED BY IDOCK:   -4.72 KCAL/MOL
REMARK 924 INTRA-LIGAND FREE ENERGY PREDICTED BY IDOCK:    0.59 KCAL/MOL
REMARK 927      BINDING AFFINITY PREDICTED BY RF-SCORE:    0.00 PKD
ROOT
HETATM    1  C   UNL     1      -9.447   7.253  73.260  1.00  0.00    -0.240 C  
HETATM    2  C   UNL     1     -10.031   6.535  72.041  1.00  0.00    -0.169 C  
HETATM    3  C   UNL     1     -11.156   7.387  71.444  1.00  0.00    -0.263 C  
ENDROOT
BRANCH   2   4
HETATM    4  N   UNL     1      -9.022   6.386  71.001  1.00  0.00    -0.146 NA 
HETATM    5  H   UNL     1      -8.412   7.187  70.842  1.00  0.00     0.000 HD 
BRANCH   4   6
HETATM    6  C   UNL     1      -8.799   5.267  70.197  1.00  0.00    -0.125 A  
HETATM    7  C   UNL     1      -8.081   5.167  68.973  1.00  0.00    -0.085 A  
HETATM    8  N   UNL     1      -7.928   3.968  68.338  1.00  0.00    -0.072 NA 
HETATM    9  C   UNL     1      -9.346   4.061  70.692  1.00  0.00    -0.217 A  
HETATM   10  C   UNL     1      -9.204   2.852  70.021  1.00  0.00    -0.211 A  
HETATM   11  C   UNL     1      -8.482   2.857  68.856  1.00  0.00    -0.067 A  
BRANCH   7  12
HETATM   12  N   UNL     1      -7.526   6.289  68.309  1.00  0.00    -0.089 NA 
HETATM   13  C   UNL     1      -6.278   6.727  68.991  1.00  0.00    -0.027 C  
HETATM   14  N   UNL     1      -6.489   8.969  67.979  1.00  0.00    -0.059 N  
HETATM   15  C   UNL     1      -5.603   7.813  68.151  1.00  0.00    -0.032 C  
HETATM   16  C   UNL     1      -7.819   8.618  67.443  1.00  0.00    -0.098 C  
HETATM   17  C   UNL     1      -6.116  10.165  68.585  1.00  0.00    -0.044 C  
HETATM   18  O   UNL     1      -5.194  10.191  69.403  1.00  0.00    -0.039 OA 
HETATM   19  C   UNL     1      -8.481   7.421  68.203  1.00  0.00    -0.124 C  
BRANCH  17  20
HETATM   20  C   UNL     1      -6.764  11.413  68.228  1.00  0.00    -0.059 A  
HETATM   21  C   UNL     1      -7.930  11.731  67.559  1.00  0.00    -0.148 A  
HETATM   22  C   UNL     1      -7.963  13.140  67.342  1.00  0.00    -0.174 A  
HETATM   23  C   UNL     1      -6.794  13.666  67.886  1.00  0.00    -0.153 A  
HETATM   24  N   UNL     1      -6.105  12.611  68.431  1.00  0.00    -0.059 NA 
HETATM   25  C   UNL     1      -6.463  15.024  67.809  1.00  0.00    -0.183 A  
HETATM   26  C   UNL     1      -7.369  15.875  67.165  1.00  0.00    -0.258 A  
HETATM   27  H   UNL     1      -5.216  12.700  68.923  1.00  0.00     0.000 HD 
HETATM   28  C   UNL     1      -8.561  15.382  66.643  1.00  0.00    -0.283 A  
HETATM   29  C   UNL     1      -8.864  14.015  66.702  1.00  0.00    -0.117 A  
BRANCH  28  30
HETATM   30  N   UNL     1      -9.482  16.287  66.036  1.00  0.00    -0.332 N  
HETATM   31  H   UNL     1      -9.974  16.039  65.178  1.00  0.00     0.000 HD 
BRANCH  30  32
HETATM   32  S   UNL     1      -9.731  17.784  66.782  1.00  0.00    -0.323 S  
HETATM   33  O   UNL     1      -8.715  18.725  66.385  1.00  0.00    -0.301 OA 
HETATM   34  O   UNL     1     -11.139  18.070  66.593  1.00  0.00     0.074 OA 
HETATM   35  C   UNL     1      -9.503  17.356  68.493  1.00  0.00    -0.297 C  
ENDBRANCH  30  32
ENDBRANCH  28  30
ENDBRANCH  17  20
ENDBRANCH   7  12
ENDBRANCH   4   6
ENDBRANCH   2   4
TORSDOF 6
ENDMDL
MODEL      127
REMARK 921   NORMALIZED FREE ENERGY PREDICTED BY IDOCK:   -2.69 KCAL/MOL
REMARK 922        TOTAL FREE ENERGY PREDICTED BY IDOCK:   -4.12 KCAL/MOL
REMARK 923 INTER-LIGAND FREE ENERGY PREDICTED BY IDOCK:   -5.63 KCAL/MOL
REMARK 924 INTRA-LIGAND FREE ENERGY PREDICTED BY IDOCK:    1.51 KCAL/MOL
REMARK 927      BINDING AFFINITY PREDICTED BY RF-SCORE:    0.00 PKD
ROOT
HETATM    1  C   UNL     1     -10.016   9.438  65.817  1.00  0.00    -0.278 C  
HETATM    2  C   UNL     1      -9.959  10.463  66.953  1.00  0.00    -0.206 C  
HETATM    3  C   UNL     1     -11.065  11.504  66.749  1.00  0.00    -0.361 C  
ENDROOT
BRANCH   2   4
HETATM    4  N   UNL     1     -10.219   9.823  68.236  1.00  0.00    -0.175 NA 
HETATM    5  H   UNL     1     -10.977  10.217  68.794  1.00  0.00     0.000 HD 
BRANCH   4   6
HETATM    6  C   UNL     1      -9.546   8.731  68.785  1.00  0.00    -0.158 A  
HETATM    7  C   UNL     1      -8.223   8.656  69.301  1.00  0.00    -0.113 A  
HETATM    8  N   UNL     1      -7.739   7.500  69.844  1.00  0.00    -0.096 NA 
HETATM    9  C   UNL     1     -10.307   7.541  68.860  1.00  0.00    -0.220 A  
HETATM   10  C   UNL     1      -9.792   6.365  69.393  1.00  0.00    -0.170 A  
HETATM   11  C   UNL     1      -8.510   6.399  69.877  1.00  0.00    -0.131 A  
BRANCH   7  12
HETATM   12  N   UNL     1      -7.309   9.737  69.244  1.00  0.00    -0.076 NA 
HETATM   13  C   UNL     1      -6.689   9.958  70.578  1.00  0.00    -0.123 C  
HETATM   14  N   UNL     1      -6.106  12.273  69.945  1.00  0.00    -0.144 N  
HETATM   15  C   UNL     1      -5.576  11.000  70.447  1.00  0.00    -0.118 C  
HETATM   16  C   UNL     1      -6.874  12.138  68.692  1.00  0.00    -0.089 C  
HETATM   17  C   UNL     1      -6.090  13.364  70.808  1.00  0.00     0.029 C  
HETATM   18  O   UNL     1      -5.839  13.212  72.006  1.00  0.00    -0.281 OA 
HETATM   19  C   UNL     1      -7.935  10.990  68.751  1.00  0.00    -0.144 C  
BRANCH  17  20
HETATM   20  C   UNL     1      -6.313  14.708  70.310  1.00  0.00    -0.171 A  
HETATM   21  C   UNL     1      -7.121  15.245  69.326  1.00  0.00    -0.177 A  
HETATM   22  C   UNL     1      -6.782  16.619  69.155  1.00  0.00    -0.217 A  
HETATM   23  C   UNL     1      -5.752  16.902  70.048  1.00  0.00    -0.224 A  
HETATM   24  N   UNL     1      -5.506  15.743  70.743  1.00  0.00    -0.124 NA 
HETATM   25  C   UNL     1      -5.129  18.153  70.120  1.00  0.00    -0.220 A  
HETATM   26  C   UNL     1      -5.588  19.155  69.257  1.00  0.00    -0.224 A  
HETATM   27  H   UNL     1      -4.813  15.657  71.486  1.00  0.00     0.000 HD 
HETATM   28  C   UNL     1      -6.641  18.910  68.379  1.00  0.00    -0.240 A  
HETATM   29  C   UNL     1      -7.234  17.644  68.298  1.00  0.00    -0.227 A  
BRANCH  28  30
HETATM   30  N   UNL     1      -7.115  19.970  67.549  1.00  0.00    -0.254 N  
HETATM   31  H   UNL     1      -7.401  20.863  67.949  1.00  0.00     0.000 HD 
BRANCH  30  32
HETATM   32  S   UNL     1      -7.186  19.699  65.881  1.00  0.00    -0.305 S  
HETATM   33  O   UNL     1      -8.318  18.872  65.549  1.00  0.00    -0.226 OA 
HETATM   34  O   UNL     1      -7.003  21.005  65.279  1.00  0.00     0.018 OA 
HETATM   35  C   UNL     1      -5.686  18.780  65.619  1.00  0.00    -0.179 C  
ENDBRANCH  30  32
ENDBRANCH  28  30
ENDBRANCH  17  20
ENDBRANCH   7  12
ENDBRANCH   4   6
ENDBRANCH   2   4
TORSDOF 6
ENDMDL
MODEL      128
REMARK 921   NORMALIZED FREE ENERGY PREDICTED BY IDOCK:   -2.63 KCAL/MOL
REMARK 922        TOTAL FREE ENERGY PREDICTED BY IDOCK:   -4.04 KCAL/MOL
REMARK 923 INTER-LIGAND FREE ENERGY PREDICTED BY IDOCK:   -6.18 KCAL/MOL
REMARK 924 INTRA-LIGAND FREE ENERGY PREDICTED BY IDOCK:    2.15 KCAL/MOL
REMARK 927      BINDING AFFINITY PREDICTED BY RF-SCORE:    0.00 PKD
ROOT
HETATM    1  C   UNL     1      -7.664  15.391  70.153  1.00  0.00     0.394 C  
HETATM    2  C   UNL     1      -8.296  16.346  69.137  1.00  0.00    -0.182 C  
HETATM    3  C   UNL     1      -9.520  17.017  69.769  1.00  0.00     0.702 C  
ENDROOT
BRANCH   2   4
HETATM    4  N   UNL     1      -7.367  17.413  68.789  1.00  0.00    -0.250 NA 
HETATM    5  H   UNL     1      -6.545  17.511  69.384  1.00  0.00     0.000 HD 
BRANCH   4   6
HETATM    6  C   UNL     1      -7.479  18.316  67.730  1.00  0.00    -0.221 A  
HETATM    7  C   UNL     1      -8.190  18.183  66.506  1.00  0.00    -0.267 A  
HETATM    8  N   UNL     1      -8.222  19.198  65.593  1.00  0.00    -0.314 NA 
HETATM    9  C   UNL     1      -6.808  19.546  67.926  1.00  0.00    -0.277 A  
HETATM   10  C   UNL     1      -6.829  20.560  66.976  1.00  0.00    -0.336 A  
HETATM   11  C   UNL     1      -7.555  20.341  65.833  1.00  0.00    -0.171 A  
BRANCH   7  12
HETATM   12  N   UNL     1      -8.860  16.994  66.126  1.00  0.00    -0.474 NA 
HETATM   13  C   UNL     1     -10.263  17.013  66.621  1.00  0.00    -0.310 C  
HETATM   14  N   UNL     1     -10.380  14.553  66.443  1.00  0.00    -0.286 N  
HETATM   15  C   UNL     1     -11.016  15.814  66.041  1.00  0.00    -0.177 C  
HETATM   16  C   UNL     1      -8.939  14.494  66.128  1.00  0.00     0.070 C  
HETATM   17  C   UNL     1     -11.089  13.716  67.299  1.00  0.00    -0.293 C  
HETATM   18  O   UNL     1     -12.111  14.116  67.861  1.00  0.00    -0.358 OA 
HETATM   19  C   UNL     1      -8.164  15.770  66.596  1.00  0.00    -0.270 C  
BRANCH  17  20
HETATM   20  C   UNL     1     -10.675  12.342  67.506  1.00  0.00    -0.225 A  
HETATM   21  C   UNL     1     -11.069  11.130  66.972  1.00  0.00    -0.339 A  
HETATM   22  C   UNL     1     -10.430  10.081  67.696  1.00  0.00    -0.297 A  
HETATM   23  C   UNL     1      -9.649  10.680  68.681  1.00  0.00    -0.179 A  
HETATM   24  N   UNL     1      -9.798  12.037  68.530  1.00  0.00    -0.295 NA 
HETATM   25  C   UNL     1      -8.916   9.946  69.621  1.00  0.00    -0.232 A  
HETATM   26  C   UNL     1      -8.973   8.550  69.540  1.00  0.00    -0.149 A  
HETATM   27  H   UNL     1      -9.320  12.733  69.102  1.00  0.00     0.000 HD 
HETATM   28  C   UNL     1      -9.718   7.926  68.543  1.00  0.00    -0.161 A  
HETATM   29  C   UNL     1     -10.470   8.674  67.628  1.00  0.00    -0.311 A  
BRANCH  28  30
HETATM   30  N   UNL     1      -9.713   6.501  68.461  1.00  0.00    -0.129 N  
HETATM   31  H   UNL     1      -9.632   6.026  67.562  1.00  0.00     0.000 HD 
BRANCH  30  32
HETATM   32  S   UNL     1      -9.848   5.624  69.901  1.00  0.00    -0.206 S  
HETATM   33  O   UNL     1     -10.059   4.225  69.626  1.00  0.00    -0.168 OA 
HETATM   34  O   UNL     1      -8.740   6.073  70.721  1.00  0.00    -0.132 OA 
HETATM   35  C   UNL     1     -11.333   6.321  70.589  1.00  0.00    -0.343 C  
ENDBRANCH  30  32
ENDBRANCH  28  30
ENDBRANCH  17  20
ENDBRANCH   7  12
ENDBRANCH   4   6
ENDBRANCH   2   4
TORSDOF 6
ENDMDL
MODEL      129
REMARK 921   NORMALIZED FREE ENERGY PREDICTED BY IDOCK:   -2.58 KCAL/MOL
REMARK 922        TOTAL FREE ENERGY PREDICTED BY IDOCK:   -3.96 KCAL/MOL
REMARK 923 INTER-LIGAND FREE ENERGY PREDICTED BY IDOCK:   -4.39 KCAL/MOL
REMARK 924 INTRA-LIGAND FREE ENERGY PREDICTED BY IDOCK:    0.43 KCAL/MOL
REMARK 927      BINDING AFFINITY PREDICTED BY RF-SCORE:    0.00 PKD
ROOT
HETATM    1  C   UNL     1     -10.297  20.312  69.691  1.00  0.00     0.211 C  
HETATM    2  C   UNL     1      -9.883  18.922  69.204  1.00  0.00    -0.238 C  
HETATM    3  C   UNL     1     -10.559  18.635  67.859  1.00  0.00    -0.397 C  
ENDROOT
BRANCH   2   4
HETATM    4  N   UNL     1      -8.446  18.867  68.969  1.00  0.00    -0.209 NA 
HETATM    5  H   UNL     1      -7.848  18.947  69.791  1.00  0.00     0.000 HD 
BRANCH   4   6
HETATM    6  C   UNL     1      -7.797  18.718  67.742  1.00  0.00    -0.242 A  
HETATM    7  C   UNL     1      -7.183  17.563  67.183  1.00  0.00    -0.174 A  
HETATM    8  N   UNL     1      -6.626  17.590  65.937  1.00  0.00    -0.197 NA 
HETATM    9  C   UNL     1      -7.777  19.880  66.936  1.00  0.00    -0.317 A  
HETATM   10  C   UNL     1      -7.183  19.899  65.680  1.00  0.00    -0.331 A  
HETATM   11  C   UNL     1      -6.630  18.730  65.224  1.00  0.00    -0.209 A  
BRANCH   7  12
HETATM   12  N   UNL     1      -7.061  16.337  67.884  1.00  0.00    -0.127 NA 
HETATM   13  C   UNL     1      -6.681  15.245  66.947  1.00  0.00     0.603 C  
HETATM   14  N   UNL     1      -7.541  13.560  68.534  1.00  0.00    -0.128 N  
HETATM   15  C   UNL     1      -6.373  13.980  67.752  1.00  0.00    -0.159 C  
HETATM   16  C   UNL     1      -8.091  14.628  69.392  1.00  0.00     0.031 C  
HETATM   17  C   UNL     1      -8.158  12.363  68.183  1.00  0.00    -0.163 C  
HETATM   18  O   UNL     1      -7.864  11.793  67.130  1.00  0.00    -0.152 OA 
HETATM   19  C   UNL     1      -8.296  15.976  68.625  1.00  0.00    -0.203 C  
BRANCH  17  20
HETATM   20  C   UNL     1      -9.116  11.732  69.071  1.00  0.00     0.257 A  
HETATM   21  C   UNL     1      -9.184  10.497  69.686  1.00  0.00     0.008 A  
HETATM   22  C   UNL     1     -10.462  10.363  70.302  1.00  0.00    -0.110 A  
HETATM   23  C   UNL     1     -11.168  11.534  70.043  1.00  0.00    -0.026 A  
HETATM   24  N   UNL     1     -10.328  12.347  69.321  1.00  0.00    -0.399 NA 
HETATM   25  C   UNL     1     -12.490  11.734  70.455  1.00  0.00    -0.280 A  
HETATM   26  C   UNL     1     -13.107  10.701  71.171  1.00  0.00    -0.415 A  
HETATM   27  H   UNL     1     -10.569  13.287  69.009  1.00  0.00     0.000 HD 
HETATM   28  C   UNL     1     -12.414   9.534  71.475  1.00  0.00    -0.376 A  
HETATM   29  C   UNL     1     -11.100   9.337  71.030  1.00  0.00    -0.396 A  
BRANCH  28  30
HETATM   30  N   UNL     1     -13.060   8.523  72.249  1.00  0.00    -0.490 N  
HETATM   31  H   UNL     1     -13.666   8.768  73.031  1.00  0.00     0.000 HD 
BRANCH  30  32
HETATM   32  S   UNL     1     -12.787   6.907  71.829  1.00  0.00    -0.221 S  
HETATM   33  O   UNL     1     -12.660   6.768  70.401  1.00  0.00    -0.141 OA 
HETATM   34  O   UNL     1     -11.742   6.456  72.727  1.00  0.00    -0.163 OA 
HETATM   35  C   UNL     1     -14.307   6.154  72.364  1.00  0.00     0.761 C  
ENDBRANCH  30  32
ENDBRANCH  28  30
ENDBRANCH  17  20
ENDBRANCH   7  12
ENDBRANCH   4   6
ENDBRANCH   2   4
TORSDOF 6
ENDMDL
MODEL      130
REMARK 921   NORMALIZED FREE ENERGY PREDICTED BY IDOCK:   -2.34 KCAL/MOL
REMARK 922        TOTAL FREE ENERGY PREDICTED BY IDOCK:   -3.64 KCAL/MOL
REMARK 923 INTER-LIGAND FREE ENERGY PREDICTED BY IDOCK:   -4.69 KCAL/MOL
REMARK 924 INTRA-LIGAND FREE ENERGY PREDICTED BY IDOCK:    1.05 KCAL/MOL
REMARK 927      BINDING AFFINITY PREDICTED BY RF-SCORE:    0.00 PKD
ROOT
HETATM    1  C   UNL     1      -5.680   5.749  70.189  1.00  0.00    -0.016 C  
HETATM    2  C   UNL     1      -6.282   6.971  69.491  1.00  0.00    -0.034 C  
HETATM    3  C   UNL     1      -5.771   7.032  68.048  1.00  0.00    -0.021 C  
ENDROOT
BRANCH   2   4
HETATM    4  N   UNL     1      -7.733   6.857  69.416  1.00  0.00    -0.103 NA 
HETATM    5  H   UNL     1      -8.214   7.560  68.856  1.00  0.00     0.000 HD 
BRANCH   4   6
HETATM    6  C   UNL     1      -8.536   5.892  70.025  1.00  0.00    -0.126 A  
HETATM    7  C   UNL     1      -9.637   6.064  70.907  1.00  0.00    -0.169 A  
HETATM    8  N   UNL     1     -10.341   4.993  71.379  1.00  0.00    -0.203 NA 
HETATM    9  C   UNL     1      -8.218   4.556  69.688  1.00  0.00    -0.066 A  
HETATM   10  C   UNL     1      -8.927   3.474  70.197  1.00  0.00    -0.174 A  
HETATM   11  C   UNL     1      -9.982   3.746  71.030  1.00  0.00    -0.048 A  
BRANCH   7  12
HETATM   12  N   UNL     1     -10.047   7.330  71.395  1.00  0.00    -0.188 NA 
HETATM   13  C   UNL     1     -11.531   7.391  71.489  1.00  0.00    -0.263 C  
HETATM   14  N   UNL     1     -11.452   9.858  71.446  1.00  0.00    -0.361 N  
HETATM   15  C   UNL     1     -11.936   8.689  72.189  1.00  0.00    -0.379 C  
HETATM   16  C   UNL     1     -10.003   9.821  71.167  1.00  0.00     0.214 C  
HETATM   17  C   UNL     1     -12.401  10.685  70.852  1.00  0.00    -0.401 C  
HETATM   18  O   UNL     1     -13.580  10.330  70.776  1.00  0.00    -0.181 OA 
HETATM   19  C   UNL     1      -9.536   8.454  70.568  1.00  0.00    -0.169 C  
BRANCH  17  20
HETATM   20  C   UNL     1     -12.039  12.000  70.360  1.00  0.00    -0.321 A  
HETATM   21  C   UNL     1     -11.605  12.482  69.140  1.00  0.00    -0.375 A  
HETATM   22  C   UNL     1     -11.223  13.846  69.296  1.00  0.00    -0.296 A  
HETATM   23  C   UNL     1     -11.426  14.178  70.633  1.00  0.00    -0.004 A  
HETATM   24  N   UNL     1     -11.937  13.059  71.243  1.00  0.00    -0.126 NA 
HETATM   25  C   UNL     1     -11.106  15.434  71.162  1.00  0.00    -0.362 A  
HETATM   26  C   UNL     1     -10.571  16.388  70.288  1.00  0.00    -0.035 A  
HETATM   27  H   UNL     1     -12.207  13.014  72.225  1.00  0.00     0.000 HD 
HETATM   28  C   UNL     1     -10.391  16.094  68.939  1.00  0.00    -0.250 A  
HETATM   29  C   UNL     1     -10.689  14.823  68.431  1.00  0.00    -0.243 A  
BRANCH  28  30
HETATM   30  N   UNL     1      -9.889  17.107  68.068  1.00  0.00    -0.273 N  
HETATM   31  H   UNL     1      -9.442  17.945  68.440  1.00  0.00     0.000 HD 
BRANCH  30  32
HETATM   32  S   UNL     1     -10.062  16.876  66.401  1.00  0.00    -0.333 S  
HETATM   33  O   UNL     1      -9.168  15.847  65.936  1.00  0.00    -0.337 OA 
HETATM   34  O   UNL     1     -11.492  16.792  66.179  1.00  0.00     0.580 OA 
HETATM   35  C   UNL     1      -9.521  18.453  65.780  1.00  0.00     0.374 C  
ENDBRANCH  30  32
ENDBRANCH  28  30
ENDBRANCH  17  20
ENDBRANCH   7  12
ENDBRANCH   4   6
ENDBRANCH   2   4
TORSDOF 6
ENDMDL
MODEL      131
REMARK 921   NORMALIZED FREE ENERGY PREDICTED BY IDOCK:   -2.15 KCAL/MOL
REMARK 922        TOTAL FREE ENERGY PREDICTED BY IDOCK:   -3.39 KCAL/MOL
REMARK 923 INTER-LIGAND FREE ENERGY PREDICTED BY IDOCK:   -3.38 KCAL/MOL
REMARK 924 INTRA-LIGAND FREE ENERGY PREDICTED BY IDOCK:   -0.01 KCAL/MOL
REMARK 927      BINDING AFFINITY PREDICTED BY RF-SCORE:    0.00 PKD
ROOT
HETATM    1  C   UNL     1     -11.013  17.218  65.582  1.00  0.00     0.108 C  
HETATM    2  C   UNL     1      -9.501  17.150  65.813  1.00  0.00     0.072 C  
HETATM    3  C   UNL     1      -9.061  18.366  66.636  1.00  0.00    -0.301 C  
ENDROOT
BRANCH   2   4
HETATM    4  N   UNL     1      -9.153  15.970  66.593  1.00  0.00    -0.228 NA 
HETATM    5  H   UNL     1      -9.925  15.360  66.862  1.00  0.00     0.000 HD 
BRANCH   4   6
HETATM    6  C   UNL     1      -7.880  15.582  67.014  1.00  0.00    -0.225 A  
HETATM    7  C   UNL     1      -7.397  14.286  67.341  1.00  0.00    -0.128 A  
HETATM    8  N   UNL     1      -6.094  14.085  67.698  1.00  0.00    -0.316 NA 
HETATM    9  C   UNL     1      -6.937  16.632  67.096  1.00  0.00    -0.226 A  
HETATM   10  C   UNL     1      -5.620  16.417  67.486  1.00  0.00    -0.174 A  
HETATM   11  C   UNL     1      -5.248  15.128  67.768  1.00  0.00    -0.047 A  
BRANCH   7  12
HETATM   12  N   UNL     1      -8.225  13.136  67.372  1.00  0.00    -0.181 NA 
HETATM   13  C   UNL     1      -8.302  12.594  68.756  1.00  0.00     0.139 C  
HETATM   14  N   UNL     1      -8.986  10.391  67.874  1.00  0.00    -0.128 N  
HETATM   15  C   UNL     1      -9.345  11.474  68.797  1.00  0.00    -0.079 C  
HETATM   16  C   UNL     1      -8.739  10.851  66.494  1.00  0.00    -0.163 C  
HETATM   17  C   UNL     1      -8.642   9.160  68.425  1.00  0.00    -0.129 C  
HETATM   18  O   UNL     1      -8.441   9.051  69.636  1.00  0.00    -0.117 OA 
HETATM   19  C   UNL     1      -7.775  12.082  66.428  1.00  0.00     0.284 C  
BRANCH  17  20
HETATM   20  C   UNL     1      -8.565   7.971  67.598  1.00  0.00    -0.130 A  
HETATM   21  C   UNL     1      -9.507   7.137  67.027  1.00  0.00    -0.192 A  
HETATM   22  C   UNL     1      -8.840   6.009  66.467  1.00  0.00    -0.131 A  
HETATM   23  C   UNL     1      -7.480   6.172  66.714  1.00  0.00    -0.087 A  
HETATM   24  N   UNL     1      -7.341   7.369  67.374  1.00  0.00    -0.099 NA 
HETATM   25  C   UNL     1      -6.520   5.222  66.348  1.00  0.00    -0.044 A  
HETATM   26  C   UNL     1      -6.968   4.069  65.692  1.00  0.00    -0.062 A  
HETATM   27  H   UNL     1      -6.447   7.763  67.664  1.00  0.00     0.000 HD 
HETATM   28  C   UNL     1      -8.319   3.897  65.401  1.00  0.00    -0.105 A  
HETATM   29  C   UNL     1      -9.271   4.843  65.800  1.00  0.00    -0.155 A  
BRANCH  28  30
HETATM   30  N   UNL     1      -8.733   2.731  64.688  1.00  0.00    -0.105 N  
HETATM   31  H   UNL     1      -8.735   1.815  65.135  1.00  0.00     0.000 HD 
BRANCH  30  32
HETATM   32  S   UNL     1      -9.218   2.917  63.078  1.00  0.00    -0.093 S  
HETATM   33  O   UNL     1      -8.807   4.200  62.569  1.00  0.00    -0.093 OA 
HETATM   34  O   UNL     1      -8.827   1.685  62.423  1.00  0.00    -0.071 OA 
HETATM   35  C   UNL     1     -10.988   2.888  63.249  1.00  0.00    -0.170 C  
ENDBRANCH  30  32
ENDBRANCH  28  30
ENDBRANCH  17  20
ENDBRANCH   7  12
ENDBRANCH   4   6
ENDBRANCH   2   4
TORSDOF 6
ENDMDL
MODEL      132
REMARK 921   NORMALIZED FREE ENERGY PREDICTED BY IDOCK:   -2.09 KCAL/MOL
REMARK 922        TOTAL FREE ENERGY PREDICTED BY IDOCK:   -3.30 KCAL/MOL
REMARK 923 INTER-LIGAND FREE ENERGY PREDICTED BY IDOCK:   -4.24 KCAL/MOL
REMARK 924 INTRA-LIGAND FREE ENERGY PREDICTED BY IDOCK:    0.94 KCAL/MOL
REMARK 927      BINDING AFFINITY PREDICTED BY RF-SCORE:    0.00 PKD
ROOT
HETATM    1  C   UNL     1      -7.762  10.124  69.438  1.00  0.00    -0.138 C  
HETATM    2  C   UNL     1      -7.512   9.058  70.507  1.00  0.00    -0.098 C  
HETATM    3  C   UNL     1      -6.211   9.383  71.249  1.00  0.00    -0.066 C  
ENDROOT
BRANCH   2   4
HETATM    4  N   UNL     1      -8.575   9.070  71.504  1.00  0.00    -0.340 NA 
HETATM    5  H   UNL     1      -8.526   9.803  72.210  1.00  0.00     0.000 HD 
BRANCH   4   6
HETATM    6  C   UNL     1      -9.652   8.188  71.598  1.00  0.00    -0.180 A  
HETATM    7  C   UNL     1     -10.976   8.328  71.099  1.00  0.00    -0.245 A  
HETATM    8  N   UNL     1     -11.899   7.333  71.250  1.00  0.00    -0.292 NA 
HETATM    9  C   UNL     1      -9.368   6.972  72.262  1.00  0.00    -0.150 A  
HETATM   10  C   UNL     1     -10.326   5.979  72.430  1.00  0.00    -0.224 A  
HETATM   11  C   UNL     1     -11.570   6.204  71.901  1.00  0.00    -0.296 A  
BRANCH   7  12
HETATM   12  N   UNL     1     -11.443   9.507  70.467  1.00  0.00    -0.271 NA 
HETATM   13  C   UNL     1     -11.628   9.272  69.009  1.00  0.00     0.625 C  
HETATM   14  N   UNL     1     -11.493  11.700  68.581  1.00  0.00    -0.261 N  
HETATM   15  C   UNL     1     -12.306  10.494  68.386  1.00  0.00     1.250 C  
HETATM   16  C   UNL     1     -11.126  11.942  69.990  1.00  0.00     0.294 C  
HETATM   17  C   UNL     1     -10.931  12.289  67.452  1.00  0.00    -0.253 C  
HETATM   18  O   UNL     1     -10.941  11.701  66.368  1.00  0.00    -0.278 OA 
HETATM   19  C   UNL     1     -10.548  10.670  70.693  1.00  0.00     0.613 C  
BRANCH  17  20
HETATM   20  C   UNL     1     -10.371  13.626  67.512  1.00  0.00    -0.241 A  
HETATM   21  C   UNL     1      -9.086  14.131  67.465  1.00  0.00    -0.195 A  
HETATM   22  C   UNL     1      -9.131  15.525  67.757  1.00  0.00    -0.178 A  
HETATM   23  C   UNL     1     -10.464  15.853  67.987  1.00  0.00    -0.274 A  
HETATM   24  N   UNL     1     -11.189  14.699  67.811  1.00  0.00    -0.294 NA 
HETATM   25  C   UNL     1     -10.879  17.138  68.356  1.00  0.00    -0.309 A  
HETATM   26  C   UNL     1      -9.895  18.125  68.480  1.00  0.00    -0.393 A  
HETATM   27  H   UNL     1     -12.203  14.642  67.892  1.00  0.00     0.000 HD 
HETATM   28  C   UNL     1      -8.559  17.833  68.221  1.00  0.00    -0.277 A  
HETATM   29  C   UNL     1      -8.155  16.535  67.882  1.00  0.00    -0.168 A  
BRANCH  28  30
HETATM   30  N   UNL     1      -7.589  18.877  68.310  1.00  0.00    -0.276 N  
HETATM   31  H   UNL     1      -6.973  18.955  69.119  1.00  0.00     0.000 HD 
BRANCH  30  32
HETATM   32  S   UNL     1      -7.495  19.982  67.033  1.00  0.00    -0.278 S  
HETATM   33  O   UNL     1      -7.239  21.311  67.529  1.00  0.00    -0.476 OA 
HETATM   34  O   UNL     1      -6.620  19.359  66.059  1.00  0.00    -0.203 OA 
HETATM   35  C   UNL     1      -9.150  19.901  66.387  1.00  0.00    -0.369 C  
ENDBRANCH  30  32
ENDBRANCH  28  30
ENDBRANCH  17  20
ENDBRANCH   7  12
ENDBRANCH   4   6
ENDBRANCH   2   4
TORSDOF 6
ENDMDL
MODEL      133
REMARK 921   NORMALIZED FREE ENERGY PREDICTED BY IDOCK:   -2.05 KCAL/MOL
REMARK 922        TOTAL FREE ENERGY PREDICTED BY IDOCK:   -3.25 KCAL/MOL
REMARK 923 INTER-LIGAND FREE ENERGY PREDICTED BY IDOCK:   -2.80 KCAL/MOL
REMARK 924 INTRA-LIGAND FREE ENERGY PREDICTED BY IDOCK:   -0.44 KCAL/MOL
REMARK 927      BINDING AFFINITY PREDICTED BY RF-SCORE:    0.00 PKD
ROOT
HETATM    1  C   UNL     1     -11.037  15.822  64.229  1.00  0.00     0.002 C  
HETATM    2  C   UNL     1     -10.187  16.270  65.420  1.00  0.00    -0.229 C  
HETATM    3  C   UNL     1     -10.991  17.259  66.270  1.00  0.00     0.225 C  
ENDROOT
BRANCH   2   4
HETATM    4  N   UNL     1      -9.872  15.138  66.282  1.00  0.00    -0.276 NA 
HETATM    5  H   UNL     1     -10.398  14.281  66.115  1.00  0.00     0.000 HD 
BRANCH   4   6
HETATM    6  C   UNL     1      -8.932  15.098  67.312  1.00  0.00    -0.199 A  
HETATM    7  C   UNL     1      -8.511  13.995  68.104  1.00  0.00    -0.172 A  
HETATM    8  N   UNL     1      -7.536  14.133  69.051  1.00  0.00    -0.098 NA 
HETATM    9  C   UNL     1      -8.290  16.330  67.578  1.00  0.00    -0.174 A  
HETATM   10  C   UNL     1      -7.318  16.461  68.562  1.00  0.00    -0.181 A  
HETATM   11  C   UNL     1      -6.972  15.335  69.263  1.00  0.00    -0.166 A  
BRANCH   7  12
HETATM   12  N   UNL     1      -9.096  12.708  68.010  1.00  0.00    -0.201 NA 
HETATM   13  C   UNL     1      -9.017  12.008  69.321  1.00  0.00     0.780 C  
HETATM   14  N   UNL     1      -9.285   9.827  68.195  1.00  0.00    -0.129 N  
HETATM   15  C   UNL     1      -9.817  10.706  69.243  1.00  0.00    -0.180 C  
HETATM   16  C   UNL     1      -9.182  10.480  66.876  1.00  0.00    -0.155 C  
HETATM   17  C   UNL     1      -8.687   8.636  68.593  1.00  0.00    -0.138 C  
HETATM   18  O   UNL     1      -8.426   8.433  69.781  1.00  0.00    -0.122 OA 
HETATM   19  C   UNL     1      -8.481  11.877  66.944  1.00  0.00    -0.174 C  
BRANCH  17  20
HETATM   20  C   UNL     1      -8.407   7.587  67.632  1.00  0.00    -0.118 A  
HETATM   21  C   UNL     1      -7.370   7.344  66.751  1.00  0.00    -0.092 A  
HETATM   22  C   UNL     1      -7.726   6.245  65.917  1.00  0.00    -0.093 A  
HETATM   23  C   UNL     1      -8.998   5.832  66.303  1.00  0.00    -0.146 A  
HETATM   24  N   UNL     1      -9.373   6.640  67.348  1.00  0.00    -0.127 NA 
HETATM   25  C   UNL     1      -9.691   4.801  65.659  1.00  0.00    -0.188 A  
HETATM   26  C   UNL     1      -9.052   4.159  64.592  1.00  0.00    -0.146 A  
HETATM   27  H   UNL     1     -10.255   6.552  67.852  1.00  0.00     0.000 HD 
HETATM   28  C   UNL     1      -7.766   4.528  64.208  1.00  0.00    -0.077 A  
HETATM   29  C   UNL     1      -7.097   5.583  64.842  1.00  0.00    -0.061 A  
BRANCH  28  30
HETATM   30  N   UNL     1      -7.127   3.819  63.146  1.00  0.00    -0.047 N  
HETATM   31  H   UNL     1      -6.755   4.312  62.335  1.00  0.00     0.000 HD 
BRANCH  30  32
HETATM   32  S   UNL     1      -7.008   2.137  63.275  1.00  0.00    -0.036 S  
HETATM   33  O   UNL     1      -6.861   1.742  64.653  1.00  0.00    -0.033 OA 
HETATM   34  O   UNL     1      -8.083   1.619  62.452  1.00  0.00    -0.053 OA 
HETATM   35  C   UNL     1      -5.484   1.835  62.409  1.00  0.00    -0.003 C  
ENDBRANCH  30  32
ENDBRANCH  28  30
ENDBRANCH  17  20
ENDBRANCH   7  12
ENDBRANCH   4   6
ENDBRANCH   2   4
TORSDOF 6
ENDMDL
MODEL      134
REMARK 921   NORMALIZED FREE ENERGY PREDICTED BY IDOCK:   -2.02 KCAL/MOL
REMARK 922        TOTAL FREE ENERGY PREDICTED BY IDOCK:   -3.20 KCAL/MOL
REMARK 923 INTER-LIGAND FREE ENERGY PREDICTED BY IDOCK:   -6.50 KCAL/MOL
REMARK 924 INTRA-LIGAND FREE ENERGY PREDICTED BY IDOCK:    3.30 KCAL/MOL
REMARK 927      BINDING AFFINITY PREDICTED BY RF-SCORE:    0.00 PKD
ROOT
HETATM    1  C   UNL     1      -9.278   4.389  65.915  1.00  0.00    -0.140 C  
HETATM    2  C   UNL     1      -7.880   4.104  66.469  1.00  0.00    -0.094 C  
HETATM    3  C   UNL     1      -6.848   4.910  65.673  1.00  0.00    -0.061 C  
ENDROOT
BRANCH   2   4
HETATM    4  N   UNL     1      -7.776   4.544  67.854  1.00  0.00    -0.081 NA 
HETATM    5  H   UNL     1      -7.258   5.407  68.017  1.00  0.00     0.000 HD 
BRANCH   4   6
HETATM    6  C   UNL     1      -8.306   3.916  68.981  1.00  0.00    -0.072 A  
HETATM    7  C   UNL     1      -9.517   4.186  69.677  1.00  0.00    -0.189 A  
HETATM    8  N   UNL     1      -9.901   3.433  70.748  1.00  0.00    -0.106 NA 
HETATM    9  C   UNL     1      -7.536   2.838  69.477  1.00  0.00    -0.043 A  
HETATM   10  C   UNL     1      -7.928   2.096  70.585  1.00  0.00    -0.049 A  
HETATM   11  C   UNL     1      -9.119   2.427  71.179  1.00  0.00    -0.102 A  
BRANCH   7  12
HETATM   12  N   UNL     1     -10.371   5.269  69.350  1.00  0.00    -0.255 NA 
HETATM   13  C   UNL     1     -10.179   5.665  67.928  1.00  0.00    -0.187 C  
HETATM   14  N   UNL     1     -11.131   7.893  68.401  1.00  0.00     0.234 N  
HETATM   15  C   UNL     1     -11.238   6.702  67.550  1.00  0.00    -0.191 C  
HETATM   16  C   UNL     1     -11.160   7.590  69.845  1.00  0.00    -0.171 C  
HETATM   17  C   UNL     1     -10.734   9.084  67.799  1.00  0.00    -0.151 C  
HETATM   18  O   UNL     1     -10.288   9.086  66.649  1.00  0.00    -0.263 OA 
HETATM   19  C   UNL     1     -10.177   6.440  70.242  1.00  0.00    -0.195 C  
BRANCH  17  20
HETATM   20  C   UNL     1     -10.886  10.352  68.487  1.00  0.00    -0.237 A  
HETATM   21  C   UNL     1     -11.502  10.738  69.662  1.00  0.00    -0.376 A  
HETATM   22  C   UNL     1     -11.486  12.160  69.741  1.00  0.00    -0.261 A  
HETATM   23  C   UNL     1     -10.857  12.628  68.591  1.00  0.00    -0.249 A  
HETATM   24  N   UNL     1     -10.487  11.521  67.867  1.00  0.00    -0.179 NA 
HETATM   25  C   UNL     1     -10.709  13.990  68.304  1.00  0.00    -0.262 A  
HETATM   26  C   UNL     1     -11.212  14.906  69.236  1.00  0.00    -0.300 A  
HETATM   27  H   UNL     1      -9.982  11.557  66.982  1.00  0.00     0.000 HD 
HETATM   28  C   UNL     1     -11.814  14.466  70.411  1.00  0.00    -0.312 A  
HETATM   29  C   UNL     1     -11.980  13.099  70.670  1.00  0.00    -0.246 A  
BRANCH  28  30
HETATM   30  N   UNL     1     -12.270  15.429  71.361  1.00  0.00    -0.335 N  
HETATM   31  H   UNL     1     -11.939  16.393  71.333  1.00  0.00     0.000 HD 
BRANCH  30  32
HETATM   32  S   UNL     1     -13.377  14.921  72.535  1.00  0.00    -0.472 S  
HETATM   33  O   UNL     1     -14.372  15.936  72.768  1.00  0.00    -0.454 OA 
HETATM   34  O   UNL     1     -13.748  13.575  72.146  1.00  0.00    -0.484 OA 
HETATM   35  C   UNL     1     -12.324  14.788  73.963  1.00  0.00    -0.217 C  
ENDBRANCH  30  32
ENDBRANCH  28  30
ENDBRANCH  17  20
ENDBRANCH   7  12
ENDBRANCH   4   6
ENDBRANCH   2   4
TORSDOF 6
ENDMDL
MODEL      135
REMARK 921   NORMALIZED FREE ENERGY PREDICTED BY IDOCK:   -1.17 KCAL/MOL
REMARK 922        TOTAL FREE ENERGY PREDICTED BY IDOCK:   -2.06 KCAL/MOL
REMARK 923 INTER-LIGAND FREE ENERGY PREDICTED BY IDOCK:   -1.55 KCAL/MOL
REMARK 924 INTRA-LIGAND FREE ENERGY PREDICTED BY IDOCK:   -0.52 KCAL/MOL
REMARK 927      BINDING AFFINITY PREDICTED BY RF-SCORE:    0.00 PKD
ROOT
HETATM    1  C   UNL     1     -11.350  17.320  65.564  1.00  0.00     0.806 C  
HETATM    2  C   UNL     1      -9.981  17.737  66.108  1.00  0.00    -0.276 C  
HETATM    3  C   UNL     1     -10.177  18.730  67.258  1.00  0.00    -0.438 C  
ENDROOT
BRANCH   2   4
HETATM    4  N   UNL     1      -9.277  16.588  66.662  1.00  0.00    -0.234 NA 
HETATM    5  H   UNL     1      -9.855  15.807  66.971  1.00  0.00     0.000 HD 
BRANCH   4   6
HETATM    6  C   UNL     1      -7.898  16.439  66.818  1.00  0.00    -0.266 A  
HETATM    7  C   UNL     1      -7.158  15.303  67.246  1.00  0.00    -0.152 A  
HETATM    8  N   UNL     1      -5.794  15.325  67.299  1.00  0.00    -0.299 NA 
HETATM    9  C   UNL     1      -7.135  17.578  66.470  1.00  0.00    -0.289 A  
HETATM   10  C   UNL     1      -5.748  17.594  66.554  1.00  0.00    -0.230 A  
HETATM   11  C   UNL     1      -5.126  16.443  66.965  1.00  0.00     0.036 A  
BRANCH   7  12
HETATM   12  N   UNL     1      -7.770  14.104  67.690  1.00  0.00    -0.160 NA 
HETATM   13  C   UNL     1      -7.266  13.738  69.041  1.00  0.00    -0.063 C  
HETATM   14  N   UNL     1      -7.952  11.394  68.683  1.00  0.00    -0.141 N  
HETATM   15  C   UNL     1      -8.075  12.554  69.574  1.00  0.00     1.214 C  
HETATM   16  C   UNL     1      -8.289  11.692  67.277  1.00  0.00    -0.158 C  
HETATM   17  C   UNL     1      -7.281  10.275  69.168  1.00  0.00    -0.083 C  
HETATM   18  O   UNL     1      -6.637  10.337  70.217  1.00  0.00    -0.118 OA 
HETATM   19  C   UNL     1      -7.574  12.977  66.743  1.00  0.00     0.473 C  
BRANCH  17  20
HETATM   20  C   UNL     1      -7.370   9.000  68.482  1.00  0.00    -0.077 A  
HETATM   21  C   UNL     1      -6.542   8.321  67.609  1.00  0.00    -0.058 A  
HETATM   22  C   UNL     1      -7.238   7.182  67.110  1.00  0.00    -0.085 A  
HETATM   23  C   UNL     1      -8.503   7.187  67.692  1.00  0.00    -0.120 A  
HETATM   24  N   UNL     1      -8.547   8.277  68.527  1.00  0.00    -0.133 NA 
HETATM   25  C   UNL     1      -9.484   6.236  67.388  1.00  0.00    -0.120 A  
HETATM   26  C   UNL     1      -9.152   5.235  66.468  1.00  0.00    -0.129 A  
HETATM   27  H   UNL     1      -9.348   8.521  69.108  1.00  0.00     0.000 HD 
HETATM   28  C   UNL     1      -7.883   5.185  65.899  1.00  0.00    -0.102 A  
HETATM   29  C   UNL     1      -6.921   6.162  66.190  1.00  0.00    -0.066 A  
BRANCH  28  30
HETATM   30  N   UNL     1      -7.565   4.121  65.001  1.00  0.00    -0.077 N  
HETATM   31  H   UNL     1      -7.515   4.281  63.995  1.00  0.00     0.000 HD 
BRANCH  30  32
HETATM   32  S   UNL     1      -7.275   2.590  65.657  1.00  0.00    -0.067 S  
HETATM   33  O   UNL     1      -8.450   2.092  66.324  1.00  0.00    -0.091 OA 
HETATM   34  O   UNL     1      -6.636   1.840  64.594  1.00  0.00    -0.021 OA 
HETATM   35  C   UNL     1      -6.025   2.966  66.865  1.00  0.00    -0.024 C  
ENDBRANCH  30  32
ENDBRANCH  28  30
ENDBRANCH  17  20
ENDBRANCH   7  12
ENDBRANCH   4   6
ENDBRANCH   2   4
TORSDOF 6
ENDMDL
MODEL      136
REMARK 921   NORMALIZED FREE ENERGY PREDICTED BY IDOCK:   -0.23 KCAL/MOL
REMARK 922        TOTAL FREE ENERGY PREDICTED BY IDOCK:   -0.79 KCAL/MOL
REMARK 923 INTER-LIGAND FREE ENERGY PREDICTED BY IDOCK:   -0.79 KCAL/MOL
REMARK 924 INTRA-LIGAND FREE ENERGY PREDICTED BY IDOCK:    0.01 KCAL/MOL
REMARK 927      BINDING AFFINITY PREDICTED BY RF-SCORE:    0.00 PKD
ROOT
HETATM    1  C   UNL     1      -5.890  16.658  68.746  1.00  0.00    -0.136 C  
HETATM    2  C   UNL     1      -7.393  16.758  69.017  1.00  0.00    -0.231 C  
HETATM    3  C   UNL     1      -8.148  16.741  67.684  1.00  0.00    -0.188 C  
ENDROOT
BRANCH   2   4
HETATM    4  N   UNL     1      -7.856  15.604  69.775  1.00  0.00    -0.089 NA 
HETATM    5  H   UNL     1      -7.164  15.139  70.362  1.00  0.00     0.000 HD 
BRANCH   4   6
HETATM    6  C   UNL     1      -9.143  15.064  69.787  1.00  0.00     0.119 A  
HETATM    7  C   UNL     1      -9.586  13.785  69.351  1.00  0.00     0.666 A  
HETATM    8  N   UNL     1     -10.893  13.407  69.479  1.00  0.00     0.037 NA 
HETATM    9  C   UNL     1     -10.136  15.907  70.338  1.00  0.00     0.275 A  
HETATM   10  C   UNL     1     -11.466  15.519  70.437  1.00  0.00    -0.364 A  
HETATM   11  C   UNL     1     -11.791  14.260  70.002  1.00  0.00    -0.314 A  
BRANCH   7  12
HETATM   12  N   UNL     1      -8.735  12.846  68.719  1.00  0.00     0.081 NA 
HETATM   13  C   UNL     1      -9.190  12.595  67.324  1.00  0.00    -0.195 C  
HETATM   14  N   UNL     1      -7.979  10.444  67.295  1.00  0.00    -0.110 N  
HETATM   15  C   UNL     1      -8.153  11.728  66.607  1.00  0.00    -0.094 C  
HETATM   16  C   UNL     1      -7.670  10.582  68.732  1.00  0.00    -0.109 C  
HETATM   17  C   UNL     1      -8.395   9.294  66.631  1.00  0.00    -0.122 C  
HETATM   18  O   UNL     1      -9.073   9.374  65.604  1.00  0.00    -0.177 OA 
HETATM   19  C   UNL     1      -8.638  11.567  69.467  1.00  0.00     0.854 C  
BRANCH  17  20
HETATM   20  C   UNL     1      -7.997   7.980  67.099  1.00  0.00    -0.113 A  
HETATM   21  C   UNL     1      -8.247   7.254  68.248  1.00  0.00    -0.125 A  
HETATM   22  C   UNL     1      -7.433   6.084  68.236  1.00  0.00    -0.086 A  
HETATM   23  C   UNL     1      -6.682   6.118  67.064  1.00  0.00    -0.061 A  
HETATM   24  N   UNL     1      -7.057   7.255  66.390  1.00  0.00    -0.075 NA 
HETATM   25  C   UNL     1      -5.728   5.146  66.743  1.00  0.00    -0.018 A  
HETATM   26  C   UNL     1      -5.547   4.094  67.648  1.00  0.00    -0.021 A  
HETATM   27  H   UNL     1      -6.688   7.530  65.481  1.00  0.00     0.000 HD 
HETATM   28  C   UNL     1      -6.309   4.016  68.810  1.00  0.00    -0.033 A  
HETATM   29  C   UNL     1      -7.239   5.013  69.132  1.00  0.00    -0.057 A  
BRANCH  28  30
HETATM   30  N   UNL     1      -6.130   2.903  69.686  1.00  0.00    -0.024 N  
HETATM   31  H   UNL     1      -6.016   1.958  69.318  1.00  0.00     0.000 HD 
BRANCH  30  32
HETATM   32  S   UNL     1      -6.116   3.197  71.351  1.00  0.00    -0.015 S  
HETATM   33  O   UNL     1      -5.388   2.165  72.043  1.00  0.00    -0.003 OA 
HETATM   34  O   UNL     1      -5.753   4.595  71.483  1.00  0.00    -0.011 OA 
HETATM   35  C   UNL     1      -7.847   3.061  71.738  1.00  0.00    -0.053 C  
ENDBRANCH  30  32
ENDBRANCH  28  30
ENDBRANCH  17  20
ENDBRANCH   7  12
ENDBRANCH   4   6
ENDBRANCH   2   4
TORSDOF 6
ENDMDL
MODEL      137
REMARK 921   NORMALIZED FREE ENERGY PREDICTED BY IDOCK:   -0.19 KCAL/MOL
REMARK 922        TOTAL FREE ENERGY PREDICTED BY IDOCK:   -0.73 KCAL/MOL
REMARK 923 INTER-LIGAND FREE ENERGY PREDICTED BY IDOCK:   -0.61 KCAL/MOL
REMARK 924 INTRA-LIGAND FREE ENERGY PREDICTED BY IDOCK:   -0.12 KCAL/MOL
REMARK 927      BINDING AFFINITY PREDICTED BY RF-SCORE:    0.00 PKD
ROOT
HETATM    1  C   UNL     1     -10.845  16.161  67.870  1.00  0.00    -0.332 C  
HETATM    2  C   UNL     1     -10.354  17.061  69.007  1.00  0.00    -0.330 C  
HETATM    3  C   UNL     1     -10.069  18.461  68.455  1.00  0.00    -0.413 C  
ENDROOT
BRANCH   2   4
HETATM    4  N   UNL     1     -11.388  17.215  70.023  1.00  0.00     0.103 NA 
HETATM    5  H   UNL     1     -12.010  18.016  69.919  1.00  0.00     0.000 HD 
BRANCH   4   6
HETATM    6  C   UNL     1     -11.619  16.387  71.122  1.00  0.00    -0.204 A  
HETATM    7  C   UNL     1     -11.656  14.967  71.188  1.00  0.00    -0.330 A  
HETATM    8  N   UNL     1     -11.858  14.318  72.373  1.00  0.00     0.259 NA 
HETATM    9  C   UNL     1     -11.815  17.068  72.347  1.00  0.00     0.544 A  
HETATM   10  C   UNL     1     -12.044  16.393  73.540  1.00  0.00    -0.518 A  
HETATM   11  C   UNL     1     -12.048  15.023  73.502  1.00  0.00    -0.386 A  
BRANCH   7  12
HETATM   12  N   UNL     1     -11.543  14.137  70.045  1.00  0.00    -0.265 NA 
HETATM   13  C   UNL     1     -12.622  13.113  70.043  1.00  0.00     0.051 C  
HETATM   14  N   UNL     1     -11.296  11.692  68.520  1.00  0.00    -0.248 N  
HETATM   15  C   UNL     1     -12.590  12.355  68.714  1.00  0.00     0.924 C  
HETATM   16  C   UNL     1     -10.142  12.602  68.653  1.00  0.00    -0.122 C  
HETATM   17  C   UNL     1     -11.274  10.300  68.530  1.00  0.00    -0.214 C  
HETATM   18  O   UNL     1     -12.263   9.662  68.898  1.00  0.00     0.842 OA 
HETATM   19  C   UNL     1     -10.212  13.486  69.942  1.00  0.00     1.307 C  
BRANCH  17  20
HETATM   20  C   UNL     1     -10.113   9.571  68.058  1.00  0.00    -0.188 A  
HETATM   21  C   UNL     1      -9.846   8.818  66.930  1.00  0.00    -0.295 A  
HETATM   22  C   UNL     1      -8.581   8.183  67.093  1.00  0.00    -0.124 A  
HETATM   23  C   UNL     1      -8.091   8.558  68.341  1.00  0.00    -0.122 A  
HETATM   24  N   UNL     1      -9.020   9.409  68.888  1.00  0.00    -0.134 NA 
HETATM   25  C   UNL     1      -6.885   8.076  68.861  1.00  0.00    -0.061 A  
HETATM   26  C   UNL     1      -6.146   7.189  68.068  1.00  0.00    -0.034 A  
HETATM   27  H   UNL     1      -8.917   9.864  69.794  1.00  0.00     0.000 HD 
HETATM   28  C   UNL     1      -6.595   6.825  66.802  1.00  0.00    -0.044 A  
HETATM   29  C   UNL     1      -7.820   7.293  66.307  1.00  0.00    -0.106 A  
BRANCH  28  30
HETATM   30  N   UNL     1      -5.792   5.957  66.003  1.00  0.00    -0.026 N  
HETATM   31  H   UNL     1      -5.022   6.321  65.443  1.00  0.00     0.000 HD 
BRANCH  30  32
HETATM   32  S   UNL     1      -6.159   4.306  66.012  1.00  0.00    -0.032 S  
HETATM   33  O   UNL     1      -5.280   3.595  66.905  1.00  0.00    -0.011 OA 
HETATM   34  O   UNL     1      -7.599   4.241  66.160  1.00  0.00    -0.087 OA 
HETATM   35  C   UNL     1      -5.778   3.862  64.332  1.00  0.00    -0.014 C  
ENDBRANCH  30  32
ENDBRANCH  28  30
ENDBRANCH  17  20
ENDBRANCH   7  12
ENDBRANCH   4   6
ENDBRANCH   2   4
TORSDOF 6
ENDMDL
MODEL      138
REMARK 921   NORMALIZED FREE ENERGY PREDICTED BY IDOCK:   -0.08 KCAL/MOL
REMARK 922        TOTAL FREE ENERGY PREDICTED BY IDOCK:   -0.59 KCAL/MOL
REMARK 923 INTER-LIGAND FREE ENERGY PREDICTED BY IDOCK:   -0.99 KCAL/MOL
REMARK 924 INTRA-LIGAND FREE ENERGY PREDICTED BY IDOCK:    0.39 KCAL/MOL
REMARK 927      BINDING AFFINITY PREDICTED BY RF-SCORE:    0.00 PKD
ROOT
HETATM    1  C   UNL     1      -9.626  18.079  67.125  1.00  0.00    -0.281 C  
HETATM    2  C   UNL     1     -10.837  17.379  67.747  1.00  0.00    -0.257 C  
HETATM    3  C   UNL     1     -11.485  16.468  66.700  1.00  0.00     0.741 C  
ENDROOT
BRANCH   2   4
HETATM    4  N   UNL     1     -10.424  16.521  68.850  1.00  0.00    -0.282 NA 
HETATM    5  H   UNL     1      -9.625  15.912  68.676  1.00  0.00     0.000 HD 
BRANCH   4   6
HETATM    6  C   UNL     1     -11.001  16.440  70.117  1.00  0.00    -0.285 A  
HETATM    7  C   UNL     1     -11.700  15.359  70.721  1.00  0.00    -0.348 A  
HETATM    8  N   UNL     1     -12.167  15.443  72.002  1.00  0.00    -0.346 NA 
HETATM    9  C   UNL     1     -10.839  17.594  70.919  1.00  0.00     1.860 A  
HETATM   10  C   UNL     1     -11.342  17.675  72.212  1.00  0.00     2.040 A  
HETATM   11  C   UNL     1     -11.989  16.573  72.708  1.00  0.00    -0.394 A  
BRANCH   7  12
HETATM   12  N   UNL     1     -12.005  14.157  70.035  1.00  0.00    -0.319 NA 
HETATM   13  C   UNL     1     -12.479  13.122  70.994  1.00  0.00    -0.318 C  
HETATM   14  N   UNL     1     -11.903  11.340  69.386  1.00  0.00    -0.327 N  
HETATM   15  C   UNL     1     -12.976  11.905  70.212  1.00  0.00     0.420 C  
HETATM   16  C   UNL     1     -11.260  12.329  68.499  1.00  0.00    -0.271 C  
HETATM   17  C   UNL     1     -11.428  10.075  69.720  1.00  0.00    -0.184 C  
HETATM   18  O   UNL     1     -11.747   9.549  70.789  1.00  0.00    -0.278 OA 
HETATM   19  C   UNL     1     -10.856  13.642  69.247  1.00  0.00    -0.082 C  
BRANCH  17  20
HETATM   20  C   UNL     1     -10.594   9.327  68.799  1.00  0.00    -0.193 A  
HETATM   21  C   UNL     1      -9.716   9.684  67.794  1.00  0.00    -0.173 A  
HETATM   22  C   UNL     1      -9.318   8.507  67.095  1.00  0.00    -0.191 A  
HETATM   23  C   UNL     1      -9.975   7.434  67.691  1.00  0.00    -0.167 A  
HETATM   24  N   UNL     1     -10.717   7.952  68.725  1.00  0.00    -0.394 NA 
HETATM   25  C   UNL     1      -9.861   6.119  67.227  1.00  0.00    -0.158 A  
HETATM   26  C   UNL     1      -9.033   5.892  66.121  1.00  0.00    -0.157 A  
HETATM   27  H   UNL     1     -11.286   7.392  69.358  1.00  0.00     0.000 HD 
HETATM   28  C   UNL     1      -8.336   6.941  65.528  1.00  0.00    -0.137 A  
HETATM   29  C   UNL     1      -8.484   8.257  65.986  1.00  0.00    -0.148 A  
BRANCH  28  30
HETATM   30  N   UNL     1      -7.463   6.664  64.433  1.00  0.00    -0.088 N  
HETATM   31  H   UNL     1      -6.870   7.393  64.038  1.00  0.00     0.000 HD 
BRANCH  30  32
HETATM   32  S   UNL     1      -7.445   5.092  63.811  1.00  0.00    -0.063 S  
HETATM   33  O   UNL     1      -6.912   4.169  64.780  1.00  0.00    -0.048 OA 
HETATM   34  O   UNL     1      -8.759   4.901  63.230  1.00  0.00    -0.139 OA 
HETATM   35  C   UNL     1      -6.293   5.269  62.467  1.00  0.00    -0.021 C  
ENDBRANCH  30  32
ENDBRANCH  28  30
ENDBRANCH  17  20
ENDBRANCH   7  12
ENDBRANCH   4   6
ENDBRANCH   2   4
TORSDOF 6
ENDMDL
MODEL      139
REMARK 921   NORMALIZED FREE ENERGY PREDICTED BY IDOCK:    0.04 KCAL/MOL
REMARK 922        TOTAL FREE ENERGY PREDICTED BY IDOCK:   -0.43 KCAL/MOL
REMARK 923 INTER-LIGAND FREE ENERGY PREDICTED BY IDOCK:   -4.03 KCAL/MOL
REMARK 924 INTRA-LIGAND FREE ENERGY PREDICTED BY IDOCK:    3.60 KCAL/MOL
REMARK 927      BINDING AFFINITY PREDICTED BY RF-SCORE:    0.00 PKD
ROOT
HETATM    1  C   UNL     1     -10.368   9.313  65.441  1.00  0.00     0.853 C  
HETATM    2  C   UNL     1     -10.169   9.933  66.826  1.00  0.00    -0.236 C  
HETATM    3  C   UNL     1     -11.352  10.855  67.140  1.00  0.00    -0.168 C  
ENDROOT
BRANCH   2   4
HETATM    4  N   UNL     1     -10.160   8.901  67.854  1.00  0.00    -0.194 NA 
HETATM    5  H   UNL     1     -10.846   8.999  68.602  1.00  0.00     0.000 HD 
BRANCH   4   6
HETATM    6  C   UNL     1      -9.315   7.793  67.929  1.00  0.00    -0.140 A  
HETATM    7  C   UNL     1      -7.894   7.745  67.957  1.00  0.00    -0.124 A  
HETATM    8  N   UNL     1      -7.228   6.558  68.076  1.00  0.00    -0.085 NA 
HETATM    9  C   UNL     1      -9.977   6.546  68.017  1.00  0.00    -0.146 A  
HETATM   10  C   UNL     1      -9.285   5.345  68.111  1.00  0.00    -0.122 A  
HETATM   11  C   UNL     1      -7.915   5.405  68.145  1.00  0.00    -0.095 A  
BRANCH   7  12
HETATM   12  N   UNL     1      -7.079   8.895  67.814  1.00  0.00    -0.079 NA 
HETATM   13  C   UNL     1      -6.156   9.019  68.975  1.00  0.00    -0.043 C  
HETATM   14  N   UNL     1      -5.867  11.427  68.512  1.00  0.00    -0.042 N  
HETATM   15  C   UNL     1      -5.165  10.154  68.707  1.00  0.00    -0.035 C  
HETATM   16  C   UNL     1      -6.917  11.368  67.476  1.00  0.00    -0.101 C  
HETATM   17  C   UNL     1      -5.690  12.417  69.474  1.00  0.00    -0.096 C  
HETATM   18  O   UNL     1      -5.139  12.157  70.546  1.00  0.00    -0.089 OA 
HETATM   19  C   UNL     1      -7.871  10.140  67.649  1.00  0.00    -0.098 C  
BRANCH  17  20
HETATM   20  C   UNL     1      -6.098  13.785  69.217  1.00  0.00    -0.100 A  
HETATM   21  C   UNL     1      -5.455  15.006  69.283  1.00  0.00    -0.094 A  
HETATM   22  C   UNL     1      -6.417  16.041  69.095  1.00  0.00    -0.157 A  
HETATM   23  C   UNL     1      -7.653  15.424  68.921  1.00  0.00    -0.164 A  
HETATM   24  N   UNL     1      -7.429  14.071  68.977  1.00  0.00    -0.242 NA 
HETATM   25  C   UNL     1      -8.845  16.141  68.761  1.00  0.00    -0.233 A  
HETATM   26  C   UNL     1      -8.765  17.538  68.765  1.00  0.00    -0.214 A  
HETATM   27  H   UNL     1      -8.154  13.364  68.856  1.00  0.00     0.000 HD 
HETATM   28  C   UNL     1      -7.538  18.180  68.901  1.00  0.00    -0.214 A  
HETATM   29  C   UNL     1      -6.357  17.450  69.090  1.00  0.00    -0.234 A  
BRANCH  28  30
HETATM   30  N   UNL     1      -7.489  19.606  68.851  1.00  0.00    -0.347 N  
HETATM   31  H   UNL     1      -8.160  20.173  69.371  1.00  0.00     0.000 HD 
BRANCH  30  32
HETATM   32  S   UNL     1      -6.287  20.326  67.905  1.00  0.00    -0.263 S  
HETATM   33  O   UNL     1      -6.814  20.710  66.620  1.00  0.00    -0.257 OA 
HETATM   34  O   UNL     1      -5.649  21.292  68.778  1.00  0.00    -0.307 OA 
HETATM   35  C   UNL     1      -5.156  18.970  67.698  1.00  0.00    -0.167 C  
ENDBRANCH  30  32
ENDBRANCH  28  30
ENDBRANCH  17  20
ENDBRANCH   7  12
ENDBRANCH   4   6
ENDBRANCH   2   4
TORSDOF 6
ENDMDL
MODEL      140
REMARK 921   NORMALIZED FREE ENERGY PREDICTED BY IDOCK:    0.06 KCAL/MOL
REMARK 922        TOTAL FREE ENERGY PREDICTED BY IDOCK:   -0.39 KCAL/MOL
REMARK 923 INTER-LIGAND FREE ENERGY PREDICTED BY IDOCK:   -2.38 KCAL/MOL
REMARK 924 INTRA-LIGAND FREE ENERGY PREDICTED BY IDOCK:    1.98 KCAL/MOL
REMARK 927      BINDING AFFINITY PREDICTED BY RF-SCORE:    0.00 PKD
ROOT
HETATM    1  C   UNL     1      -7.976  11.839  63.760  1.00  0.00     2.051 C  
HETATM    2  C   UNL     1      -8.574  11.389  65.095  1.00  0.00     0.271 C  
HETATM    3  C   UNL     1      -7.447  10.905  66.015  1.00  0.00    -0.086 C  
ENDROOT
BRANCH   2   4
HETATM    4  N   UNL     1      -9.216  12.507  65.774  1.00  0.00    -0.444 NA 
HETATM    5  H   UNL     1      -8.624  13.066  66.387  1.00  0.00     0.000 HD 
BRANCH   4   6
HETATM    6  C   UNL     1     -10.552  12.896  65.678  1.00  0.00    -0.277 A  
HETATM    7  C   UNL     1     -11.652  12.551  66.510  1.00  0.00    -0.388 A  
HETATM    8  N   UNL     1     -12.898  13.065  66.288  1.00  0.00     0.020 NA 
HETATM    9  C   UNL     1     -10.838  13.782  64.613  1.00  0.00    -0.416 A  
HETATM   10  C   UNL     1     -12.116  14.277  64.384  1.00  0.00    -0.490 A  
HETATM   11  C   UNL     1     -13.107  13.895  65.251  1.00  0.00    -0.158 A  
BRANCH   7  12
HETATM   12  N   UNL     1     -11.552  11.626  67.580  1.00  0.00    -0.531 NA 
HETATM   13  C   UNL     1     -10.587  12.120  68.599  1.00  0.00    -0.223 C  
HETATM   14  N   UNL     1     -10.291   9.824  69.458  1.00  0.00    -0.214 N  
HETATM   15  C   UNL     1     -10.638  11.203  69.823  1.00  0.00     0.075 C  
HETATM   16  C   UNL     1     -11.098   9.288  68.345  1.00  0.00     0.122 C  
HETATM   17  C   UNL     1      -9.106   9.300  69.966  1.00  0.00    -0.210 C  
HETATM   18  O   UNL     1      -8.284  10.034  70.520  1.00  0.00    -0.160 OA 
HETATM   19  C   UNL     1     -11.172  10.265  67.125  1.00  0.00     0.055 C  
BRANCH  17  20
HETATM   20  C   UNL     1      -8.836   7.877  69.904  1.00  0.00    -0.141 A  
HETATM   21  C   UNL     1      -7.844   7.113  69.318  1.00  0.00    -0.117 A  
HETATM   22  C   UNL     1      -8.198   5.737  69.434  1.00  0.00    -0.108 A  
HETATM   23  C   UNL     1      -9.423   5.683  70.095  1.00  0.00    -0.159 A  
HETATM   24  N   UNL     1      -9.771   6.979  70.384  1.00  0.00    -0.176 NA 
HETATM   25  C   UNL     1     -10.103   4.484  70.338  1.00  0.00    -0.229 A  
HETATM   26  C   UNL     1      -9.501   3.298  69.902  1.00  0.00    -0.216 A  
HETATM   27  H   UNL     1     -10.615   7.246  70.890  1.00  0.00     0.000 HD 
HETATM   28  C   UNL     1      -8.261   3.320  69.271  1.00  0.00    -0.059 A  
HETATM   29  C   UNL     1      -7.605   4.531  69.008  1.00  0.00    -0.056 A  
BRANCH  28  30
HETATM   30  N   UNL     1      -7.655   2.087  68.884  1.00  0.00    -0.043 N  
HETATM   31  H   UNL     1      -8.207   1.233  68.807  1.00  0.00     0.000 HD 
BRANCH  30  32
HETATM   32  S   UNL     1      -5.995   2.086  68.559  1.00  0.00    -0.024 S  
HETATM   33  O   UNL     1      -5.260   1.546  69.673  1.00  0.00    -0.007 OA 
HETATM   34  O   UNL     1      -5.873   1.522  67.229  1.00  0.00    -0.018 OA 
HETATM   35  C   UNL     1      -5.672   3.830  68.427  1.00  0.00    -0.022 C  
ENDBRANCH  30  32
ENDBRANCH  28  30
ENDBRANCH  17  20
ENDBRANCH   7  12
ENDBRANCH   4   6
ENDBRANCH   2   4
TORSDOF 6
ENDMDL
MODEL      141
REMARK 921   NORMALIZED FREE ENERGY PREDICTED BY IDOCK:    0.43 KCAL/MOL
REMARK 922        TOTAL FREE ENERGY PREDICTED BY IDOCK:    0.10 KCAL/MOL
REMARK 923 INTER-LIGAND FREE ENERGY PREDICTED BY IDOCK:    0.15 KCAL/MOL
REMARK 924 INTRA-LIGAND FREE ENERGY PREDICTED BY IDOCK:   -0.05 KCAL/MOL
REMARK 927      BINDING AFFINITY PREDICTED BY RF-SCORE:    0.00 PKD
ROOT
HETATM    1  C   UNL     1      -7.770  17.715  68.197  1.00  0.00    -0.244 C  
HETATM    2  C   UNL     1      -8.812  18.616  67.529  1.00  0.00    -0.270 C  
HETATM    3  C   UNL     1      -8.155  19.372  66.369  1.00  0.00    -0.329 C  
ENDROOT
BRANCH   2   4
HETATM    4  N   UNL     1      -9.887  17.819  66.953  1.00  0.00    -0.298 NA 
HETATM    5  H   UNL     1     -10.041  17.923  65.950  1.00  0.00     0.000 HD 
BRANCH   4   6
HETATM    6  C   UNL     1     -10.729  16.931  67.622  1.00  0.00    -0.290 A  
HETATM    7  C   UNL     1     -10.786  15.512  67.542  1.00  0.00    -0.300 A  
HETATM    8  N   UNL     1     -11.657  14.794  68.311  1.00  0.00    -0.311 NA 
HETATM    9  C   UNL     1     -11.632  17.535  68.527  1.00  0.00     1.207 A  
HETATM   10  C   UNL     1     -12.531  16.793  69.283  1.00  0.00     2.359 A  
HETATM   11  C   UNL     1     -12.499  15.429  69.145  1.00  0.00     0.076 A  
BRANCH   7  12
HETATM   12  N   UNL     1      -9.996  14.756  66.641  1.00  0.00    -0.256 NA 
HETATM   13  C   UNL     1     -10.830  14.268  65.509  1.00  0.00    -0.322 C  
HETATM   14  N   UNL     1      -9.183  12.490  65.037  1.00  0.00     0.430 N  
HETATM   15  C   UNL     1      -9.923  13.619  64.462  1.00  0.00     0.092 C  
HETATM   16  C   UNL     1      -8.436  12.838  66.261  1.00  0.00     0.447 C  
HETATM   17  C   UNL     1      -9.486  11.214  64.570  1.00  0.00    -0.223 C  
HETATM   18  O   UNL     1     -10.478  11.025  63.863  1.00  0.00    -0.357 OA 
HETATM   19  C   UNL     1      -9.305  13.619  67.301  1.00  0.00    -0.233 C  
BRANCH  17  20
HETATM   20  C   UNL     1      -8.614  10.091  64.859  1.00  0.00    -0.173 A  
HETATM   21  C   UNL     1      -8.154   9.019  64.118  1.00  0.00    -0.157 A  
HETATM   22  C   UNL     1      -7.465   8.125  64.987  1.00  0.00    -0.087 A  
HETATM   23  C   UNL     1      -7.523   8.670  66.267  1.00  0.00    -0.090 A  
HETATM   24  N   UNL     1      -8.199   9.861  66.156  1.00  0.00    -0.117 NA 
HETATM   25  C   UNL     1      -6.991   8.030  67.392  1.00  0.00    -0.075 A  
HETATM   26  C   UNL     1      -6.365   6.793  67.197  1.00  0.00    -0.041 A  
HETATM   27  H   UNL     1      -8.373  10.495  66.935  1.00  0.00     0.000 HD 
HETATM   28  C   UNL     1      -6.261   6.241  65.923  1.00  0.00    -0.037 A  
HETATM   29  C   UNL     1      -6.825   6.880  64.811  1.00  0.00    -0.046 A  
BRANCH  28  30
HETATM   30  N   UNL     1      -5.573   5.002  65.756  1.00  0.00    -0.013 N  
HETATM   31  H   UNL     1      -4.557   4.972  65.680  1.00  0.00     0.000 HD 
BRANCH  30  32
HETATM   32  S   UNL     1      -6.496   3.586  65.687  1.00  0.00    -0.033 S  
HETATM   33  O   UNL     1      -6.247   2.878  64.457  1.00  0.00    -0.021 OA 
HETATM   34  O   UNL     1      -6.306   2.950  66.975  1.00  0.00    -0.033 OA 
HETATM   35  C   UNL     1      -8.144   4.252  65.662  1.00  0.00    -0.105 C  
ENDBRANCH  30  32
ENDBRANCH  28  30
ENDBRANCH  17  20
ENDBRANCH   7  12
ENDBRANCH   4   6
ENDBRANCH   2   4
TORSDOF 6
ENDMDL
MODEL      142
REMARK 921   NORMALIZED FREE ENERGY PREDICTED BY IDOCK:    2.19 KCAL/MOL
REMARK 922        TOTAL FREE ENERGY PREDICTED BY IDOCK:    2.48 KCAL/MOL
REMARK 923 INTER-LIGAND FREE ENERGY PREDICTED BY IDOCK:    0.53 KCAL/MOL
REMARK 924 INTRA-LIGAND FREE ENERGY PREDICTED BY IDOCK:    1.95 KCAL/MOL
REMARK 927      BINDING AFFINITY PREDICTED BY RF-SCORE:    0.00 PKD
ROOT
HETATM    1  C   UNL     1     -13.519  15.023  63.410  1.00  0.00     3.730 C  
HETATM    2  C   UNL     1     -12.417  14.338  64.222  1.00  0.00    -0.272 C  
HETATM    3  C   UNL     1     -11.152  14.230  63.365  1.00  0.00     1.912 C  
ENDROOT
BRANCH   2   4
HETATM    4  N   UNL     1     -12.065  15.138  65.388  1.00  0.00     0.040 NA 
HETATM    5  H   UNL     1     -12.825  15.361  66.031  1.00  0.00     0.000 HD 
BRANCH   4   6
HETATM    6  C   UNL     1     -10.805  15.634  65.721  1.00  0.00    -0.306 A  
HETATM    7  C   UNL     1      -9.623  14.926  66.075  1.00  0.00    -0.313 A  
HETATM    8  N   UNL     1      -8.454  15.582  66.331  1.00  0.00    -0.256 NA 
HETATM    9  C   UNL     1     -10.687  17.043  65.668  1.00  0.00    -0.150 A  
HETATM   10  C   UNL     1      -9.497  17.698  65.957  1.00  0.00    -0.089 A  
HETATM   11  C   UNL     1      -8.410  16.925  66.275  1.00  0.00    -0.296 A  
BRANCH   7  12
HETATM   12  N   UNL     1      -9.585  13.518  66.235  1.00  0.00    -0.261 NA 
HETATM   13  C   UNL     1     -10.966  12.963  66.244  1.00  0.00    -0.281 C  
HETATM   14  N   UNL     1     -10.163  10.935  67.401  1.00  0.00    -0.194 N  
HETATM   15  C   UNL     1     -10.891  11.435  66.229  1.00  0.00    -0.263 C  
HETATM   16  C   UNL     1      -8.828  11.542  67.569  1.00  0.00    -0.155 C  
HETATM   17  C   UNL     1     -10.882  10.209  68.346  1.00  0.00    -0.242 C  
HETATM   18  O   UNL     1     -12.114  10.173  68.304  1.00  0.00     0.163 OA 
HETATM   19  C   UNL     1      -8.854  13.102  67.459  1.00  0.00    -0.199 C  
BRANCH  17  20
HETATM   20  C   UNL     1     -10.199   9.436  69.366  1.00  0.00    -0.207 A  
HETATM   21  C   UNL     1      -9.292   8.394  69.334  1.00  0.00    -0.154 A  
HETATM   22  C   UNL     1      -9.107   7.908  70.661  1.00  0.00    -0.153 A  
HETATM   23  C   UNL     1      -9.921   8.670  71.495  1.00  0.00    -0.274 A  
HETATM   24  N   UNL     1     -10.548   9.593  70.694  1.00  0.00    -0.299 NA 
HETATM   25  C   UNL     1     -10.034   8.435  72.870  1.00  0.00    -0.209 A  
HETATM   26  C   UNL     1      -9.274   7.393  73.413  1.00  0.00    -0.249 A  
HETATM   27  H   UNL     1     -11.191  10.306  71.038  1.00  0.00     0.000 HD 
HETATM   28  C   UNL     1      -8.424   6.638  72.609  1.00  0.00    -0.123 A  
HETATM   29  C   UNL     1      -8.345   6.866  71.229  1.00  0.00    -0.119 A  
BRANCH  28  30
HETATM   30  N   UNL     1      -7.628   5.615  73.206  1.00  0.00    -0.095 N  
HETATM   31  H   UNL     1      -8.058   4.776  73.595  1.00  0.00     0.000 HD 
BRANCH  30  32
HETATM   32  S   UNL     1      -5.952   5.838  73.250  1.00  0.00    -0.049 S  
HETATM   33  O   UNL     1      -5.321   4.795  74.018  1.00  0.00    -0.008 OA 
HETATM   34  O   UNL     1      -5.572   6.099  71.876  1.00  0.00    -0.026 OA 
HETATM   35  C   UNL     1      -5.835   7.377  74.134  1.00  0.00    -0.071 C  
ENDBRANCH  30  32
ENDBRANCH  28  30
ENDBRANCH  17  20
ENDBRANCH   7  12
ENDBRANCH   4   6
ENDBRANCH   2   4
TORSDOF 6
ENDMDL
MODEL      143
REMARK 921   NORMALIZED FREE ENERGY PREDICTED BY IDOCK:    2.25 KCAL/MOL
REMARK 922        TOTAL FREE ENERGY PREDICTED BY IDOCK:    2.56 KCAL/MOL
REMARK 923 INTER-LIGAND FREE ENERGY PREDICTED BY IDOCK:    0.34 KCAL/MOL
REMARK 924 INTRA-LIGAND FREE ENERGY PREDICTED BY IDOCK:    2.22 KCAL/MOL
REMARK 927      BINDING AFFINITY PREDICTED BY RF-SCORE:    0.00 PKD
ROOT
HETATM    1  C   UNL     1     -10.929  16.189  72.322  1.00  0.00     0.994 C  
HETATM    2  C   UNL     1     -11.245  16.033  70.833  1.00  0.00    -0.329 C  
HETATM    3  C   UNL     1     -11.967  17.289  70.336  1.00  0.00     3.385 C  
ENDROOT
BRANCH   2   4
HETATM    4  N   UNL     1     -10.017  15.922  70.056  1.00  0.00    -0.150 NA 
HETATM    5  H   UNL     1      -9.310  15.281  70.414  1.00  0.00     0.000 HD 
BRANCH   4   6
HETATM    6  C   UNL     1      -9.702  16.597  68.876  1.00  0.00    -0.255 A  
HETATM    7  C   UNL     1      -9.022  16.122  67.721  1.00  0.00    -0.192 A  
HETATM    8  N   UNL     1      -8.837  16.920  66.629  1.00  0.00    -0.229 NA 
HETATM    9  C   UNL     1     -10.153  17.937  68.820  1.00  0.00    -0.384 A  
HETATM   10  C   UNL     1      -9.934  18.746  67.711  1.00  0.00    -0.396 A  
HETATM   11  C   UNL     1      -9.281  18.190  66.642  1.00  0.00    -0.290 A  
BRANCH   7  12
HETATM   12  N   UNL     1      -8.451  14.827  67.638  1.00  0.00    -0.166 NA 
HETATM   13  C   UNL     1      -9.098  14.048  66.547  1.00  0.00    -0.150 C  
HETATM   14  N   UNL     1      -8.355  11.937  67.589  1.00  0.00    -0.144 N  
HETATM   15  C   UNL     1      -8.341  12.732  66.356  1.00  0.00     0.387 C  
HETATM   16  C   UNL     1      -7.869  12.675  68.771  1.00  0.00     0.039 C  
HETATM   17  C   UNL     1      -9.064  10.739  67.578  1.00  0.00    -0.139 C  
HETATM   18  O   UNL     1      -9.820  10.468  66.642  1.00  0.00    -0.186 OA 
HETATM   19  C   UNL     1      -8.532  14.084  68.921  1.00  0.00     0.046 C  
BRANCH  17  20
HETATM   20  C   UNL     1      -8.889   9.762  68.635  1.00  0.00    -0.126 A  
HETATM   21  C   UNL     1      -9.728   8.848  69.244  1.00  0.00    -0.165 A  
HETATM   22  C   UNL     1      -9.048   8.276  70.359  1.00  0.00    -0.148 A  
HETATM   23  C   UNL     1      -7.788   8.865  70.417  1.00  0.00    -0.102 A  
HETATM   24  N   UNL     1      -7.712   9.736  69.358  1.00  0.00    -0.097 NA 
HETATM   25  C   UNL     1      -6.860   8.579  71.426  1.00  0.00    -0.076 A  
HETATM   26  C   UNL     1      -7.232   7.646  72.401  1.00  0.00    -0.082 A  
HETATM   27  H   UNL     1      -6.889  10.294  69.133  1.00  0.00     0.000 HD 
HETATM   28  C   UNL     1      -8.471   7.016  72.347  1.00  0.00    -0.113 A  
HETATM   29  C   UNL     1      -9.401   7.335  71.348  1.00  0.00    -0.153 A  
BRANCH  28  30
HETATM   30  N   UNL     1      -8.796   6.034  73.331  1.00  0.00    -0.126 N  
HETATM   31  H   UNL     1      -9.662   6.093  73.866  1.00  0.00     0.000 HD 
BRANCH  30  32
HETATM   32  S   UNL     1      -7.700   4.771  73.583  1.00  0.00    -0.096 S  
HETATM   33  O   UNL     1      -6.441   5.280  74.065  1.00  0.00    -0.068 OA 
HETATM   34  O   UNL     1      -8.443   3.771  74.323  1.00  0.00    -0.087 OA 
HETATM   35  C   UNL     1      -7.495   4.160  71.925  1.00  0.00    -0.065 C  
ENDBRANCH  30  32
ENDBRANCH  28  30
ENDBRANCH  17  20
ENDBRANCH   7  12
ENDBRANCH   4   6
ENDBRANCH   2   4
TORSDOF 6
ENDMDL
MODEL      144
REMARK 921   NORMALIZED FREE ENERGY PREDICTED BY IDOCK:    4.39 KCAL/MOL
REMARK 922        TOTAL FREE ENERGY PREDICTED BY IDOCK:    5.45 KCAL/MOL
REMARK 923 INTER-LIGAND FREE ENERGY PREDICTED BY IDOCK:    2.75 KCAL/MOL
REMARK 924 INTRA-LIGAND FREE ENERGY PREDICTED BY IDOCK:    2.69 KCAL/MOL
REMARK 927      BINDING AFFINITY PREDICTED BY RF-SCORE:    0.00 PKD
ROOT
HETATM    1  C   UNL     1     -10.747  17.833  67.585  1.00  0.00    -0.330 C  
HETATM    2  C   UNL     1     -10.256  17.499  68.995  1.00  0.00    -0.314 C  
HETATM    3  C   UNL     1     -10.753  18.572  69.970  1.00  0.00     1.767 C  
ENDROOT
BRANCH   2   4
HETATM    4  N   UNL     1     -10.815  16.232  69.448  1.00  0.00    -0.309 NA 
HETATM    5  H   UNL     1     -10.866  15.485  68.755  1.00  0.00     0.000 HD 
BRANCH   4   6
HETATM    6  C   UNL     1     -11.290  15.928  70.724  1.00  0.00    -0.395 A  
HETATM    7  C   UNL     1     -11.741  14.683  71.243  1.00  0.00    -0.264 A  
HETATM    8  N   UNL     1     -12.136  14.561  72.545  1.00  0.00    -0.138 NA 
HETATM    9  C   UNL     1     -11.294  17.014  71.630  1.00  0.00     0.796 A  
HETATM   10  C   UNL     1     -11.723  16.879  72.945  1.00  0.00     0.147 A  
HETATM   11  C   UNL     1     -12.126  15.634  73.355  1.00  0.00    -0.489 A  
BRANCH   7  12
HETATM   12  N   UNL     1     -11.861  13.514  70.453  1.00  0.00    -0.269 NA 
HETATM   13  C   UNL     1     -13.071  12.745  70.851  1.00  0.00     0.116 C  
HETATM   14  N   UNL     1     -12.120  10.695  69.855  1.00  0.00    -0.309 N  
HETATM   15  C   UNL     1     -13.280  11.594  69.864  1.00  0.00     1.228 C  
HETATM   16  C   UNL     1     -10.840  11.389  69.616  1.00  0.00    -0.047 C  
HETATM   17  C   UNL     1     -12.299   9.404  70.343  1.00  0.00     0.179 C  
HETATM   18  O   UNL     1     -13.329   9.102  70.951  1.00  0.00    -0.098 OA 
HETATM   19  C   UNL     1     -10.655  12.650  70.523  1.00  0.00     3.041 C  
BRANCH  17  20
HETATM   20  C   UNL     1     -11.307   8.374  70.102  1.00  0.00    -0.065 A  
HETATM   21  C   UNL     1     -10.904   7.250  70.797  1.00  0.00    -0.260 A  
HETATM   22  C   UNL     1      -9.748   6.710  70.161  1.00  0.00    -0.174 A  
HETATM   23  C   UNL     1      -9.456   7.531  69.075  1.00  0.00    -0.145 A  
HETATM   24  N   UNL     1     -10.421   8.508  69.051  1.00  0.00    -0.260 NA 
HETATM   25  C   UNL     1      -8.345   7.331  68.247  1.00  0.00    -0.125 A  
HETATM   26  C   UNL     1      -7.512   6.243  68.533  1.00  0.00    -0.088 A  
HETATM   27  H   UNL     1     -10.476   9.241  68.344  1.00  0.00     0.000 HD 
HETATM   28  C   UNL     1      -7.800   5.386  69.591  1.00  0.00    -0.078 A  
HETATM   29  C   UNL     1      -8.899   5.616  70.429  1.00  0.00    -0.143 A  
BRANCH  28  30
HETATM   30  N   UNL     1      -6.955   4.259  69.823  1.00  0.00    -0.041 N  
HETATM   31  H   UNL     1      -6.280   3.955  69.121  1.00  0.00     0.000 HD 
BRANCH  30  32
HETATM   32  S   UNL     1      -7.109   3.442  71.295  1.00  0.00    -0.033 S  
HETATM   33  O   UNL     1      -8.207   2.511  71.248  1.00  0.00    -0.056 OA 
HETATM   34  O   UNL     1      -5.766   3.008  71.627  1.00  0.00    -0.008 OA 
HETATM   35  C   UNL     1      -7.518   4.783  72.390  1.00  0.00    -0.085 C  
ENDBRANCH  30  32
ENDBRANCH  28  30
ENDBRANCH  17  20
ENDBRANCH   7  12
ENDBRANCH   4   6
ENDBRANCH   2   4
TORSDOF 6
ENDMDL
MODEL      145
REMARK 921   NORMALIZED FREE ENERGY PREDICTED BY IDOCK:    4.88 KCAL/MOL
REMARK 922        TOTAL FREE ENERGY PREDICTED BY IDOCK:    6.11 KCAL/MOL
REMARK 923 INTER-LIGAND FREE ENERGY PREDICTED BY IDOCK:    5.70 KCAL/MOL
REMARK 924 INTRA-LIGAND FREE ENERGY PREDICTED BY IDOCK:    0.41 KCAL/MOL
REMARK 927      BINDING AFFINITY PREDICTED BY RF-SCORE:    0.00 PKD
ROOT
HETATM    1  C   UNL     1      -8.352  14.935  71.196  1.00  0.00     3.151 C  
HETATM    2  C   UNL     1      -8.498  15.866  69.990  1.00  0.00     0.693 C  
HETATM    3  C   UNL     1      -8.326  17.317  70.449  1.00  0.00     3.553 C  
ENDROOT
BRANCH   2   4
HETATM    4  N   UNL     1      -7.449  15.610  69.012  1.00  0.00    -0.165 NA 
HETATM    5  H   UNL     1      -6.767  14.892  69.257  1.00  0.00     0.000 HD 
BRANCH   4   6
HETATM    6  C   UNL     1      -7.273  16.239  67.779  1.00  0.00    -0.134 A  
HETATM    7  C   UNL     1      -7.659  15.800  66.482  1.00  0.00     0.112 A  
HETATM    8  N   UNL     1      -7.441  16.575  65.379  1.00  0.00     1.607 NA 
HETATM    9  C   UNL     1      -6.647  17.505  67.842  1.00  0.00    -0.179 A  
HETATM   10  C   UNL     1      -6.408  18.271  66.707  1.00  0.00    -0.207 A  
HETATM   11  C   UNL     1      -6.830  17.766  65.504  1.00  0.00     0.088 A  
BRANCH   7  12
HETATM   12  N   UNL     1      -8.238  14.531  66.236  1.00  0.00     0.655 NA 
HETATM   13  C   UNL     1      -9.708  14.583  66.463  1.00  0.00    -0.285 C  
HETATM   14  N   UNL     1      -9.768  12.133  66.763  1.00  0.00    -0.203 N  
HETATM   15  C   UNL     1     -10.331  13.260  66.012  1.00  0.00    -0.289 C  
HETATM   16  C   UNL     1      -8.293  12.078  66.725  1.00  0.00    -0.135 C  
HETATM   17  C   UNL     1     -10.613  11.447  67.631  1.00  0.00    -0.202 C  
HETATM   18  O   UNL     1     -11.723  11.903  67.912  1.00  0.00    -0.404 OA 
HETATM   19  C   UNL     1      -7.627  13.454  67.057  1.00  0.00     0.206 C  
BRANCH  17  20
HETATM   20  C   UNL     1     -10.230  10.160  68.179  1.00  0.00    -0.171 A  
HETATM   21  C   UNL     1      -9.110   9.694  68.841  1.00  0.00    -0.144 A  
HETATM   22  C   UNL     1      -9.217   8.279  68.979  1.00  0.00    -0.147 A  
HETATM   23  C   UNL     1     -10.416   7.898  68.384  1.00  0.00    -0.166 A  
HETATM   24  N   UNL     1     -11.014   9.049  67.932  1.00  0.00    -0.497 NA 
HETATM   25  C   UNL     1     -10.827   6.564  68.287  1.00  0.00    -0.359 A  
HETATM   26  C   UNL     1      -9.986   5.586  68.831  1.00  0.00    -0.236 A  
HETATM   27  H   UNL     1     -11.923   9.080  67.472  1.00  0.00     0.000 HD 
HETATM   28  C   UNL     1      -8.798   5.942  69.463  1.00  0.00    -0.123 A  
HETATM   29  C   UNL     1      -8.386   7.280  69.527  1.00  0.00    -0.133 A  
BRANCH  28  30
HETATM   30  N   UNL     1      -7.989   4.923  70.050  1.00  0.00    -0.072 N  
HETATM   31  H   UNL     1      -8.328   4.373  70.839  1.00  0.00     0.000 HD 
BRANCH  30  32
HETATM   32  S   UNL     1      -6.453   4.655  69.396  1.00  0.00    -0.037 S  
HETATM   33  O   UNL     1      -6.026   3.301  69.639  1.00  0.00    -0.022 OA 
HETATM   34  O   UNL     1      -6.516   5.196  68.052  1.00  0.00    -0.044 OA 
HETATM   35  C   UNL     1      -5.467   5.770  70.370  1.00  0.00    -0.012 C  
ENDBRANCH  30  32
ENDBRANCH  28  30
ENDBRANCH  17  20
ENDBRANCH   7  12
ENDBRANCH   4   6
ENDBRANCH   2   4
TORSDOF 6
ENDMDL
MODEL      146
REMARK 921   NORMALIZED FREE ENERGY PREDICTED BY IDOCK:    6.28 KCAL/MOL
REMARK 922        TOTAL FREE ENERGY PREDICTED BY IDOCK:    8.00 KCAL/MOL
REMARK 923 INTER-LIGAND FREE ENERGY PREDICTED BY IDOCK:    1.85 KCAL/MOL
REMARK 924 INTRA-LIGAND FREE ENERGY PREDICTED BY IDOCK:    6.15 KCAL/MOL
REMARK 927      BINDING AFFINITY PREDICTED BY RF-SCORE:    0.00 PKD
ROOT
HETATM    1  C   UNL     1     -10.893   7.559  67.561  1.00  0.00    -0.232 C  
HETATM    2  C   UNL     1     -11.007   7.783  66.051  1.00  0.00     2.673 C  
HETATM    3  C   UNL     1     -11.534   9.198  65.790  1.00  0.00     4.620 C  
ENDROOT
BRANCH   2   4
HETATM    4  N   UNL     1      -9.696   7.703  65.419  1.00  0.00     0.322 NA 
HETATM    5  H   UNL     1      -9.686   7.673  64.400  1.00  0.00     0.000 HD 
BRANCH   4   6
HETATM    6  C   UNL     1      -8.455   7.661  66.054  1.00  0.00    -0.144 A  
HETATM    7  C   UNL     1      -7.916   8.538  67.036  1.00  0.00    -0.100 A  
HETATM    8  N   UNL     1      -6.685   8.317  67.584  1.00  0.00    -0.061 NA 
HETATM    9  C   UNL     1      -7.634   6.571  65.683  1.00  0.00    -0.086 A  
HETATM   10  C   UNL     1      -6.372   6.374  66.231  1.00  0.00    -0.042 A  
HETATM   11  C   UNL     1      -5.948   7.268  67.180  1.00  0.00    -0.041 A  
BRANCH   7  12
HETATM   12  N   UNL     1      -8.580   9.712  67.471  1.00  0.00    -0.125 NA 
HETATM   13  C   UNL     1      -9.651  10.085  66.508  1.00  0.00    -0.187 C  
HETATM   14  N   UNL     1      -9.621  12.408  67.346  1.00  0.00    -0.181 N  
HETATM   15  C   UNL     1     -10.471  11.238  67.093  1.00  0.00    -0.222 C  
HETATM   16  C   UNL     1      -8.438  12.108  68.176  1.00  0.00    -0.175 C  
HETATM   17  C   UNL     1      -9.842  13.545  66.576  1.00  0.00    -0.291 C  
HETATM   18  O   UNL     1     -10.573  13.497  65.584  1.00  0.00    -0.273 OA 
HETATM   19  C   UNL     1      -7.650  10.852  67.676  1.00  0.00    -0.096 C  
BRANCH  17  20
HETATM   20  C   UNL     1      -9.264  14.821  66.951  1.00  0.00    -0.245 A  
HETATM   21  C   UNL     1      -9.195  15.533  68.134  1.00  0.00    -0.189 A  
HETATM   22  C   UNL     1      -8.659  16.824  67.860  1.00  0.00    -0.202 A  
HETATM   23  C   UNL     1      -8.410  16.884  66.491  1.00  0.00    -0.280 A  
HETATM   24  N   UNL     1      -8.762  15.661  65.975  1.00  0.00    -0.378 NA 
HETATM   25  C   UNL     1      -7.925  18.032  65.855  1.00  0.00    -0.056 A  
HETATM   26  C   UNL     1      -7.672  19.155  66.652  1.00  0.00    -0.263 A  
HETATM   27  H   UNL     1      -8.665  15.405  64.993  1.00  0.00     0.000 HD 
HETATM   28  C   UNL     1      -7.877  19.112  68.028  1.00  0.00    -0.290 A  
HETATM   29  C   UNL     1      -8.391  17.965  68.646  1.00  0.00    -0.276 A  
BRANCH  28  30
HETATM   30  N   UNL     1      -7.562  20.261  68.815  1.00  0.00     0.016 N  
HETATM   31  H   UNL     1      -8.157  21.089  68.797  1.00  0.00     0.000 HD 
BRANCH  30  32
HETATM   32  S   UNL     1      -6.171  20.207  69.775  1.00  0.00    -0.322 S  
HETATM   33  O   UNL     1      -5.136  21.038  69.216  1.00  0.00    -0.313 OA 
HETATM   34  O   UNL     1      -6.643  20.399  71.132  1.00  0.00    -0.470 OA 
HETATM   35  C   UNL     1      -5.709  18.497  69.612  1.00  0.00    -0.240 C  
ENDBRANCH  30  32
ENDBRANCH  28  30
ENDBRANCH  17  20
ENDBRANCH   7  12
ENDBRANCH   4   6
ENDBRANCH   2   4
TORSDOF 6
ENDMDL
MODEL      147
REMARK 921   NORMALIZED FREE ENERGY PREDICTED BY IDOCK:    6.76 KCAL/MOL
REMARK 922        TOTAL FREE ENERGY PREDICTED BY IDOCK:    8.65 KCAL/MOL
REMARK 923 INTER-LIGAND FREE ENERGY PREDICTED BY IDOCK:    7.96 KCAL/MOL
REMARK 924 INTRA-LIGAND FREE ENERGY PREDICTED BY IDOCK:    0.69 KCAL/MOL
REMARK 927      BINDING AFFINITY PREDICTED BY RF-SCORE:    0.00 PKD
ROOT
HETATM    1  C   UNL     1     -10.598   8.809  64.577  1.00  0.00     5.678 C  
HETATM    2  C   UNL     1     -10.588   8.613  66.095  1.00  0.00     0.802 C  
HETATM    3  C   UNL     1     -10.995   7.172  66.421  1.00  0.00     0.805 C  
ENDROOT
BRANCH   2   4
HETATM    4  N   UNL     1      -9.246   8.799  66.629  1.00  0.00    -0.165 NA 
HETATM    5  H   UNL     1      -8.724   9.600  66.275  1.00  0.00     0.000 HD 
BRANCH   4   6
HETATM    6  C   UNL     1      -8.595   8.001  67.571  1.00  0.00    -0.126 A  
HETATM    7  C   UNL     1      -8.188   8.323  68.895  1.00  0.00    -0.116 A  
HETATM    8  N   UNL     1      -7.593   7.392  69.699  1.00  0.00    -0.093 NA 
HETATM    9  C   UNL     1      -8.331   6.678  67.148  1.00  0.00    -0.113 A  
HETATM   10  C   UNL     1      -7.701   5.750  67.968  1.00  0.00    -0.096 A  
HETATM   11  C   UNL     1      -7.360   6.152  69.233  1.00  0.00    -0.088 A  
BRANCH   7  12
HETATM   12  N   UNL     1      -8.320   9.619  69.451  1.00  0.00    -0.132 NA 
HETATM   13  C   UNL     1      -9.758   9.964  69.620  1.00  0.00    -0.229 C  
HETATM   14  N   UNL     1      -9.195  12.367  69.670  1.00  0.00     1.637 N  
HETATM   15  C   UNL     1      -9.870  11.281  70.391  1.00  0.00     2.498 C  
HETATM   16  C   UNL     1      -7.795  12.061  69.320  1.00  0.00     0.387 C  
HETATM   17  C   UNL     1      -9.986  13.391  69.157  1.00  0.00     0.309 C  
HETATM   18  O   UNL     1     -11.214  13.278  69.125  1.00  0.00    -0.262 OA 
HETATM   19  C   UNL     1      -7.631  10.659  68.646  1.00  0.00    -0.103 C  
BRANCH  17  20
HETATM   20  C   UNL     1      -9.392  14.632  68.700  1.00  0.00    -0.206 A  
HETATM   21  C   UNL     1      -9.387  15.928  69.181  1.00  0.00    -0.252 A  
HETATM   22  C   UNL     1      -8.784  16.775  68.206  1.00  0.00    -0.227 A  
HETATM   23  C   UNL     1      -8.430  15.971  67.126  1.00  0.00    -0.196 A  
HETATM   24  N   UNL     1      -8.786  14.687  67.459  1.00  0.00    -0.177 NA 
HETATM   25  C   UNL     1      -7.857  16.479  65.955  1.00  0.00     0.080 A  
HETATM   26  C   UNL     1      -7.623  17.858  65.894  1.00  0.00    -0.177 A  
HETATM   27  H   UNL     1      -8.624  13.875  66.864  1.00  0.00     0.000 HD 
HETATM   28  C   UNL     1      -7.934  18.680  66.974  1.00  0.00    -0.246 A  
HETATM   29  C   UNL     1      -8.536  18.161  68.128  1.00  0.00    -0.282 A  
BRANCH  28  30
HETATM   30  N   UNL     1      -7.637  20.074  66.894  1.00  0.00    -0.269 N  
HETATM   31  H   UNL     1      -8.350  20.748  66.614  1.00  0.00     0.000 HD 
BRANCH  30  32
HETATM   32  S   UNL     1      -6.068  20.574  67.277  1.00  0.00    -0.227 S  
HETATM   33  O   UNL     1      -5.406  21.107  66.114  1.00  0.00    -0.197 OA 
HETATM   34  O   UNL     1      -6.207  21.355  68.490  1.00  0.00    -0.083 OA 
HETATM   35  C   UNL     1      -5.316  19.026  67.727  1.00  0.00    -0.170 C  
ENDBRANCH  30  32
ENDBRANCH  28  30
ENDBRANCH  17  20
ENDBRANCH   7  12
ENDBRANCH   4   6
ENDBRANCH   2   4
TORSDOF 6
ENDMDL
MODEL      148
REMARK 921   NORMALIZED FREE ENERGY PREDICTED BY IDOCK:    7.51 KCAL/MOL
REMARK 922        TOTAL FREE ENERGY PREDICTED BY IDOCK:    9.66 KCAL/MOL
REMARK 923 INTER-LIGAND FREE ENERGY PREDICTED BY IDOCK:    9.11 KCAL/MOL
REMARK 924 INTRA-LIGAND FREE ENERGY PREDICTED BY IDOCK:    0.56 KCAL/MOL
REMARK 927      BINDING AFFINITY PREDICTED BY RF-SCORE:    0.00 PKD
ROOT
HETATM    1  C   UNL     1      -8.947  17.744  70.204  1.00  0.00     2.500 C  
HETATM    2  C   UNL     1      -8.360  17.023  68.988  1.00  0.00    -0.125 C  
HETATM    3  C   UNL     1      -6.932  16.571  69.311  1.00  0.00    -0.227 C  
ENDROOT
BRANCH   2   4
HETATM    4  N   UNL     1      -9.122  15.818  68.688  1.00  0.00    -0.193 NA 
HETATM    5  H   UNL     1      -8.591  14.949  68.626  1.00  0.00     0.000 HD 
BRANCH   4   6
HETATM    6  C   UNL     1     -10.497  15.721  68.476  1.00  0.00    -0.236 A  
HETATM    7  C   UNL     1     -11.244  14.668  67.880  1.00  0.00    -0.304 A  
HETATM    8  N   UNL     1     -12.606  14.726  67.793  1.00  0.00     0.450 NA 
HETATM    9  C   UNL     1     -11.250  16.821  68.950  1.00  0.00    -0.113 A  
HETATM   10  C   UNL     1     -12.634  16.878  68.830  1.00  0.00     3.109 A  
HETATM   11  C   UNL     1     -13.263  15.805  68.253  1.00  0.00     3.496 A  
BRANCH   7  12
HETATM   12  N   UNL     1     -10.641  13.525  67.298  1.00  0.00    -0.261 NA 
HETATM   13  C   UNL     1     -11.627  12.792  66.459  1.00  0.00    -0.376 C  
HETATM   14  N   UNL     1     -10.270  10.737  66.626  1.00  0.00    -0.225 N  
HETATM   15  C   UNL     1     -10.907  11.678  65.697  1.00  0.00    -0.276 C  
HETATM   16  C   UNL     1      -9.379  11.387  67.606  1.00  0.00    -0.159 C  
HETATM   17  C   UNL     1     -10.774   9.440  66.678  1.00  0.00    -0.006 C  
HETATM   18  O   UNL     1     -11.841   9.161  66.127  1.00  0.00     3.881 OA 
HETATM   19  C   UNL     1     -10.046  12.615  68.310  1.00  0.00    -0.233 C  
BRANCH  17  20
HETATM   20  C   UNL     1     -10.032   8.380  67.333  1.00  0.00    -0.212 A  
HETATM   21  C   UNL     1      -8.970   7.580  66.959  1.00  0.00    -0.143 A  
HETATM   22  C   UNL     1      -8.780   6.577  67.953  1.00  0.00    -0.116 A  
HETATM   23  C   UNL     1      -9.750   6.780  68.931  1.00  0.00    -0.137 A  
HETATM   24  N   UNL     1     -10.473   7.882  68.545  1.00  0.00    -0.295 NA 
HETATM   25  C   UNL     1      -9.897   5.942  70.043  1.00  0.00    -0.225 A  
HETATM   26  C   UNL     1      -9.010   4.866  70.164  1.00  0.00    -0.146 A  
HETATM   27  H   UNL     1     -11.239   8.282  69.085  1.00  0.00     0.000 HD 
HETATM   28  C   UNL     1      -8.008   4.660  69.220  1.00  0.00    -0.070 A  
HETATM   29  C   UNL     1      -7.892   5.490  68.097  1.00  0.00    -0.092 A  
BRANCH  28  30
HETATM   30  N   UNL     1      -7.092   3.581  69.402  1.00  0.00    -0.042 N  
HETATM   31  H   UNL     1      -6.865   3.236  70.334  1.00  0.00     0.000 HD 
BRANCH  30  32
HETATM   32  S   UNL     1      -6.392   2.894  68.024  1.00  0.00    -0.033 S  
HETATM   33  O   UNL     1      -7.378   2.175  67.259  1.00  0.00    -0.054 OA 
HETATM   34  O   UNL     1      -5.605   3.957  67.431  1.00  0.00    -0.019 OA 
HETATM   35  C   UNL     1      -5.256   1.739  68.757  1.00  0.00    -0.012 C  
ENDBRANCH  30  32
ENDBRANCH  28  30
ENDBRANCH  17  20
ENDBRANCH   7  12
ENDBRANCH   4   6
ENDBRANCH   2   4
TORSDOF 6
ENDMDL
MODEL      149
REMARK 921   NORMALIZED FREE ENERGY PREDICTED BY IDOCK:    7.87 KCAL/MOL
REMARK 922        TOTAL FREE ENERGY PREDICTED BY IDOCK:   10.15 KCAL/MOL
REMARK 923 INTER-LIGAND FREE ENERGY PREDICTED BY IDOCK:    4.57 KCAL/MOL
REMARK 924 INTRA-LIGAND FREE ENERGY PREDICTED BY IDOCK:    5.58 KCAL/MOL
REMARK 927      BINDING AFFINITY PREDICTED BY RF-SCORE:    0.00 PKD
ROOT
HETATM    1  C   UNL     1     -11.162  15.970  68.399  1.00  0.00    -0.364 C  
HETATM    2  C   UNL     1     -10.083  17.048  68.518  1.00  0.00    -0.303 C  
HETATM    3  C   UNL     1     -10.069  17.892  67.239  1.00  0.00    -0.344 C  
ENDROOT
BRANCH   2   4
HETATM    4  N   UNL     1     -10.383  17.958  69.616  1.00  0.00    -0.148 NA 
HETATM    5  H   UNL     1     -10.234  18.951  69.436  1.00  0.00     0.000 HD 
BRANCH   4   6
HETATM    6  C   UNL     1     -10.853  17.621  70.886  1.00  0.00     1.895 A  
HETATM    7  C   UNL     1     -11.452  16.411  71.332  1.00  0.00    -0.202 A  
HETATM    8  N   UNL     1     -11.816  16.240  72.637  1.00  0.00    -0.536 NA 
HETATM    9  C   UNL     1     -10.677  18.623  71.869  1.00  0.00     3.448 A  
HETATM   10  C   UNL     1     -11.077  18.444  73.188  1.00  0.00     2.445 A  
HETATM   11  C   UNL     1     -11.633  17.236  73.522  1.00  0.00     0.741 A  
BRANCH   7  12
HETATM   12  N   UNL     1     -11.757  15.333  70.464  1.00  0.00    -0.290 NA 
HETATM   13  C   UNL     1     -12.809  14.470  71.065  1.00  0.00    -0.350 C  
HETATM   14  N   UNL     1     -12.121  12.591  69.618  1.00  0.00    -0.251 N  
HETATM   15  C   UNL     1     -13.252  13.429  70.034  1.00  0.00     0.988 C  
HETATM   16  C   UNL     1     -10.958  13.366  69.142  1.00  0.00    -0.168 C  
HETATM   17  C   UNL     1     -12.147  11.247  69.976  1.00  0.00    -0.348 C  
HETATM   18  O   UNL     1     -12.977  10.831  70.788  1.00  0.00    -0.336 OA 
HETATM   19  C   UNL     1     -10.561  14.524  70.116  1.00  0.00     0.239 C  
BRANCH  17  20
HETATM   20  C   UNL     1     -11.238  10.297  69.365  1.00  0.00    -0.239 A  
HETATM   21  C   UNL     1      -9.863  10.160  69.347  1.00  0.00    -0.247 A  
HETATM   22  C   UNL     1      -9.517   9.134  68.420  1.00  0.00    -0.150 A  
HETATM   23  C   UNL     1     -10.706   8.657  67.873  1.00  0.00    -0.093 A  
HETATM   24  N   UNL     1     -11.723   9.358  68.475  1.00  0.00     0.174 NA 
HETATM   25  C   UNL     1     -10.745   7.673  66.880  1.00  0.00    -0.271 A  
HETATM   26  C   UNL     1      -9.525   7.147  66.441  1.00  0.00    -0.177 A  
HETATM   27  H   UNL     1     -12.713   9.203  68.287  1.00  0.00     0.000 HD 
HETATM   28  C   UNL     1      -8.324   7.579  66.995  1.00  0.00    -0.121 A  
HETATM   29  C   UNL     1      -8.298   8.587  67.968  1.00  0.00    -0.127 A  
BRANCH  28  30
HETATM   30  N   UNL     1      -7.102   6.985  66.557  1.00  0.00    -0.075 N  
HETATM   31  H   UNL     1      -6.743   6.138  66.996  1.00  0.00     0.000 HD 
BRANCH  30  32
HETATM   32  S   UNL     1      -6.268   7.731  65.289  1.00  0.00    -0.038 S  
HETATM   33  O   UNL     1      -5.980   9.106  65.609  1.00  0.00    -0.053 OA 
HETATM   34  O   UNL     1      -5.213   6.803  64.935  1.00  0.00    -0.025 OA 
HETATM   35  C   UNL     1      -7.485   7.668  63.995  1.00  0.00    -0.107 C  
ENDBRANCH  30  32
ENDBRANCH  28  30
ENDBRANCH  17  20
ENDBRANCH   7  12
ENDBRANCH   4   6
ENDBRANCH   2   4
TORSDOF 6
ENDMDL
MODEL      150
REMARK 921   NORMALIZED FREE ENERGY PREDICTED BY IDOCK:    8.42 KCAL/MOL
REMARK 922        TOTAL FREE ENERGY PREDICTED BY IDOCK:   10.89 KCAL/MOL
REMARK 923 INTER-LIGAND FREE ENERGY PREDICTED BY IDOCK:    2.62 KCAL/MOL
REMARK 924 INTRA-LIGAND FREE ENERGY PREDICTED BY IDOCK:    8.27 KCAL/MOL
REMARK 927      BINDING AFFINITY PREDICTED BY RF-SCORE:    0.00 PKD
ROOT
HETATM    1  C   UNL     1      -8.476  12.667  66.765  1.00  0.00    -0.054 C  
HETATM    2  C   UNL     1      -8.365  13.682  65.626  1.00  0.00     2.538 C  
HETATM    3  C   UNL     1      -9.463  13.404  64.593  1.00  0.00     0.790 C  
ENDROOT
BRANCH   2   4
HETATM    4  N   UNL     1      -8.589  15.035  66.119  1.00  0.00    -0.374 NA 
HETATM    5  H   UNL     1      -8.110  15.784  65.620  1.00  0.00     0.000 HD 
BRANCH   4   6
HETATM    6  C   UNL     1      -9.385  15.417  67.199  1.00  0.00    -0.214 A  
HETATM    7  C   UNL     1      -9.326  14.995  68.555  1.00  0.00    -0.196 A  
HETATM    8  N   UNL     1     -10.169  15.513  69.496  1.00  0.00    -0.261 NA 
HETATM    9  C   UNL     1     -10.372  16.385  66.896  1.00  0.00    -0.300 A  
HETATM   10  C   UNL     1     -11.240  16.884  67.859  1.00  0.00    -0.031 A  
HETATM   11  C   UNL     1     -11.094  16.423  69.142  1.00  0.00    -0.303 A  
BRANCH   7  12
HETATM   12  N   UNL     1      -8.441  13.987  69.013  1.00  0.00     0.059 NA 
HETATM   13  C   UNL     1      -7.319  13.811  68.051  1.00  0.00    -0.134 C  
HETATM   14  N   UNL     1      -6.884  11.550  68.943  1.00  0.00    -0.088 N  
HETATM   15  C   UNL     1      -6.285  12.859  68.657  1.00  0.00    -0.071 C  
HETATM   16  C   UNL     1      -8.102  11.629  69.773  1.00  0.00     1.274 C  
HETATM   17  C   UNL     1      -6.444  10.461  68.197  1.00  0.00    -0.056 C  
HETATM   18  O   UNL     1      -5.739  10.629  67.199  1.00  0.00    -0.041 OA 
HETATM   19  C   UNL     1      -9.125  12.691  69.251  1.00  0.00     0.978 C  
BRANCH  17  20
HETATM   20  C   UNL     1      -6.756   9.105  68.606  1.00  0.00    -0.058 A  
HETATM   21  C   UNL     1      -6.077   8.139  69.324  1.00  0.00    -0.038 A  
HETATM   22  C   UNL     1      -6.809   6.918  69.255  1.00  0.00    -0.058 A  
HETATM   23  C   UNL     1      -7.939   7.161  68.478  1.00  0.00    -0.124 A  
HETATM   24  N   UNL     1      -7.893   8.486  68.121  1.00  0.00    -0.102 NA 
HETATM   25  C   UNL     1      -8.867   6.165  68.153  1.00  0.00    -0.112 A  
HETATM   26  C   UNL     1      -8.637   4.878  68.654  1.00  0.00    -0.099 A  
HETATM   27  H   UNL     1      -8.608   8.955  67.566  1.00  0.00     0.000 HD 
HETATM   28  C   UNL     1      -7.535   4.616  69.463  1.00  0.00    -0.052 A  
HETATM   29  C   UNL     1      -6.599   5.616  69.755  1.00  0.00    -0.050 A  
BRANCH  28  30
HETATM   30  N   UNL     1      -7.360   3.303  69.995  1.00  0.00    -0.041 N  
HETATM   31  H   UNL     1      -7.197   2.505  69.381  1.00  0.00     0.000 HD 
BRANCH  30  32
HETATM   32  S   UNL     1      -7.432   3.112  71.674  1.00  0.00    -0.048 S  
HETATM   33  O   UNL     1      -6.596   4.083  72.332  1.00  0.00    -0.020 OA 
HETATM   34  O   UNL     1      -8.844   3.000  71.980  1.00  0.00    -0.079 OA 
HETATM   35  C   UNL     1      -6.719   1.493  71.865  1.00  0.00    -0.018 C  
ENDBRANCH  30  32
ENDBRANCH  28  30
ENDBRANCH  17  20
ENDBRANCH   7  12
ENDBRANCH   4   6
ENDBRANCH   2   4
TORSDOF 6
ENDMDL
MODEL      151
REMARK 921   NORMALIZED FREE ENERGY PREDICTED BY IDOCK:    9.07 KCAL/MOL
REMARK 922        TOTAL FREE ENERGY PREDICTED BY IDOCK:   11.77 KCAL/MOL
REMARK 923 INTER-LIGAND FREE ENERGY PREDICTED BY IDOCK:   11.40 KCAL/MOL
REMARK 924 INTRA-LIGAND FREE ENERGY PREDICTED BY IDOCK:    0.36 KCAL/MOL
REMARK 927      BINDING AFFINITY PREDICTED BY RF-SCORE:    0.00 PKD
ROOT
HETATM    1  C   UNL     1      -7.490  14.540  72.749  1.00  0.00     5.195 C  
HETATM    2  C   UNL     1      -7.450  15.372  71.465  1.00  0.00     3.435 C  
HETATM    3  C   UNL     1      -7.127  16.828  71.816  1.00  0.00     6.573 C  
ENDROOT
BRANCH   2   4
HETATM    4  N   UNL     1      -6.386  14.908  70.584  1.00  0.00    -0.057 NA 
HETATM    5  H   UNL     1      -5.762  14.196  70.963  1.00  0.00     0.000 HD 
BRANCH   4   6
HETATM    6  C   UNL     1      -6.126  15.331  69.280  1.00  0.00    -0.110 A  
HETATM    7  C   UNL     1      -6.418  14.683  68.049  1.00  0.00    -0.152 A  
HETATM    8  N   UNL     1      -6.125  15.272  66.852  1.00  0.00     0.129 NA 
HETATM    9  C   UNL     1      -5.509  16.600  69.180  1.00  0.00    -0.135 A  
HETATM   10  C   UNL     1      -5.193  17.175  67.954  1.00  0.00    -0.122 A  
HETATM   11  C   UNL     1      -5.527  16.476  66.823  1.00  0.00     0.117 A  
BRANCH   7  12
HETATM   12  N   UNL     1      -6.976  13.383  67.973  1.00  0.00    -0.109 NA 
HETATM   13  C   UNL     1      -8.460  13.462  67.897  1.00  0.00    -0.173 C  
HETATM   14  N   UNL     1      -8.644  11.133  68.696  1.00  0.00    -0.156 N  
HETATM   15  C   UNL     1      -9.023  12.065  67.628  1.00  0.00    -0.172 C  
HETATM   16  C   UNL     1      -7.191  11.092  68.954  1.00  0.00    -0.106 C  
HETATM   17  C   UNL     1      -9.657  10.639  69.512  1.00  0.00    -0.031 C  
HETATM   18  O   UNL     1     -10.788  11.129  69.472  1.00  0.00    -0.239 OA 
HETATM   19  C   UNL     1      -6.562  12.516  69.105  1.00  0.00    -0.100 C  
BRANCH  17  20
HETATM   20  C   UNL     1      -9.422   9.505  70.385  1.00  0.00    -0.262 A  
HETATM   21  C   UNL     1      -8.657   8.358  70.283  1.00  0.00    -0.128 A  
HETATM   22  C   UNL     1      -8.963   7.506  71.384  1.00  0.00    -0.140 A  
HETATM   23  C   UNL     1      -9.930   8.153  72.148  1.00  0.00    -0.247 A  
HETATM   24  N   UNL     1     -10.170   9.360  71.538  1.00  0.00    -0.259 NA 
HETATM   25  C   UNL     1     -10.508   7.582  73.287  1.00  0.00    -0.426 A  
HETATM   26  C   UNL     1     -10.070   6.307  73.665  1.00  0.00    -0.241 A  
HETATM   27  H   UNL     1     -10.820  10.061  71.891  1.00  0.00     0.000 HD 
HETATM   28  C   UNL     1      -9.079   5.652  72.940  1.00  0.00    -0.125 A  
HETATM   29  C   UNL     1      -8.531   6.225  71.785  1.00  0.00    -0.129 A  
BRANCH  28  30
HETATM   30  N   UNL     1      -8.622   4.374  73.383  1.00  0.00    -0.097 N  
HETATM   31  H   UNL     1      -8.192   4.259  74.300  1.00  0.00     0.000 HD 
BRANCH  30  32
HETATM   32  S   UNL     1      -8.816   3.057  72.339  1.00  0.00    -0.084 S  
HETATM   33  O   UNL     1     -10.198   2.907  71.961  1.00  0.00    -0.146 OA 
HETATM   34  O   UNL     1      -7.773   3.210  71.344  1.00  0.00    -0.049 OA 
HETATM   35  C   UNL     1      -8.343   1.709  73.399  1.00  0.00    -0.050 C  
ENDBRANCH  30  32
ENDBRANCH  28  30
ENDBRANCH  17  20
ENDBRANCH   7  12
ENDBRANCH   4   6
ENDBRANCH   2   4
TORSDOF 6
ENDMDL
MODEL      152
REMARK 921   NORMALIZED FREE ENERGY PREDICTED BY IDOCK:    9.82 KCAL/MOL
REMARK 922        TOTAL FREE ENERGY PREDICTED BY IDOCK:   12.79 KCAL/MOL
REMARK 923 INTER-LIGAND FREE ENERGY PREDICTED BY IDOCK:   -0.21 KCAL/MOL
REMARK 924 INTRA-LIGAND FREE ENERGY PREDICTED BY IDOCK:   13.00 KCAL/MOL
REMARK 927      BINDING AFFINITY PREDICTED BY RF-SCORE:    0.00 PKD
ROOT
HETATM    1  C   UNL     1      -8.209  14.610  69.861  1.00  0.00     0.470 C  
HETATM    2  C   UNL     1      -9.671  15.040  69.716  1.00  0.00     0.010 C  
HETATM    3  C   UNL     1     -10.224  15.419  71.093  1.00  0.00     0.806 C  
ENDROOT
BRANCH   2   4
HETATM    4  N   UNL     1      -9.775  16.231  68.882  1.00  0.00    -0.237 NA 
HETATM    5  H   UNL     1     -10.632  16.775  68.974  1.00  0.00     0.000 HD 
BRANCH   4   6
HETATM    6  C   UNL     1      -8.833  16.707  67.970  1.00  0.00    -0.206 A  
HETATM    7  C   UNL     1      -7.591  16.135  67.577  1.00  0.00    -0.148 A  
HETATM    8  N   UNL     1      -6.807  16.727  66.629  1.00  0.00    -0.229 NA 
HETATM    9  C   UNL     1      -9.184  17.919  67.331  1.00  0.00    -0.253 A  
HETATM   10  C   UNL     1      -8.363  18.523  66.386  1.00  0.00    -0.278 A  
HETATM   11  C   UNL     1      -7.193  17.885  66.065  1.00  0.00    -0.290 A  
BRANCH   7  12
HETATM   12  N   UNL     1      -7.061  14.960  68.165  1.00  0.00    -0.108 NA 
HETATM   13  C   UNL     1      -6.028  14.361  67.278  1.00  0.00     0.534 C  
HETATM   14  N   UNL     1      -6.314  12.174  68.388  1.00  0.00    -0.051 N  
HETATM   15  C   UNL     1      -5.342  13.208  68.015  1.00  0.00    -0.106 C  
HETATM   16  C   UNL     1      -7.466  12.696  69.150  1.00  0.00     0.193 C  
HETATM   17  C   UNL     1      -6.211  10.934  67.765  1.00  0.00    -0.051 C  
HETATM   18  O   UNL     1      -5.470  10.783  66.791  1.00  0.00    -0.048 OA 
HETATM   19  C   UNL     1      -8.110  13.958  68.486  1.00  0.00    -0.133 C  
BRANCH  17  20
HETATM   20  C   UNL     1      -6.926   9.781  68.279  1.00  0.00    -0.073 A  
HETATM   21  C   UNL     1      -7.475   8.655  67.696  1.00  0.00    -0.090 A  
HETATM   22  C   UNL     1      -8.224   7.949  68.682  1.00  0.00    -0.127 A  
HETATM   23  C   UNL     1      -8.124   8.671  69.868  1.00  0.00    -0.111 A  
HETATM   24  N   UNL     1      -7.321   9.753  69.603  1.00  0.00    -0.088 NA 
HETATM   25  C   UNL     1      -8.784   8.297  71.044  1.00  0.00    -0.169 A  
HETATM   26  C   UNL     1      -9.562   7.134  71.008  1.00  0.00    -0.158 A  
HETATM   27  H   UNL     1      -7.051  10.450  70.297  1.00  0.00     0.000 HD 
HETATM   28  C   UNL     1      -9.651   6.374  69.845  1.00  0.00    -0.153 A  
HETATM   29  C   UNL     1      -9.008   6.777  68.667  1.00  0.00    -0.125 A  
BRANCH  28  30
HETATM   30  N   UNL     1     -10.414   5.168  69.859  1.00  0.00    -0.281 N  
HETATM   31  H   UNL     1     -11.209   5.042  69.233  1.00  0.00     0.000 HD 
BRANCH  30  32
HETATM   32  S   UNL     1      -9.962   3.955  70.948  1.00  0.00     0.045 S  
HETATM   33  O   UNL     1     -10.762   2.773  70.753  1.00  0.00     1.512 OA 
HETATM   34  O   UNL     1      -8.515   3.907  70.877  1.00  0.00    -0.069 OA 
HETATM   35  C   UNL     1     -10.391   4.710  72.500  1.00  0.00    -0.199 C  
ENDBRANCH  30  32
ENDBRANCH  28  30
ENDBRANCH  17  20
ENDBRANCH   7  12
ENDBRANCH   4   6
ENDBRANCH   2   4
TORSDOF 6
ENDMDL
MODEL      153
REMARK 921   NORMALIZED FREE ENERGY PREDICTED BY IDOCK:   10.24 KCAL/MOL
REMARK 922        TOTAL FREE ENERGY PREDICTED BY IDOCK:   13.35 KCAL/MOL
REMARK 923 INTER-LIGAND FREE ENERGY PREDICTED BY IDOCK:   13.88 KCAL/MOL
REMARK 924 INTRA-LIGAND FREE ENERGY PREDICTED BY IDOCK:   -0.53 KCAL/MOL
REMARK 927      BINDING AFFINITY PREDICTED BY RF-SCORE:    0.00 PKD
ROOT
HETATM    1  C   UNL     1     -11.171  15.501  74.218  1.00  0.00     2.076 C  
HETATM    2  C   UNL     1     -10.177  15.563  73.056  1.00  0.00     4.731 C  
HETATM    3  C   UNL     1      -9.723  14.142  72.704  1.00  0.00     8.511 C  
ENDROOT
BRANCH   2   4
HETATM    4  N   UNL     1     -10.815  16.105  71.863  1.00  0.00     0.744 NA 
HETATM    5  H   UNL     1     -10.377  16.928  71.449  1.00  0.00     0.000 HD 
BRANCH   4   6
HETATM    6  C   UNL     1     -11.958  15.623  71.225  1.00  0.00    -0.415 A  
HETATM    7  C   UNL     1     -12.066  14.832  70.049  1.00  0.00    -0.329 A  
HETATM    8  N   UNL     1     -13.281  14.412  69.587  1.00  0.00     0.742 NA 
HETATM    9  C   UNL     1     -13.177  15.950  71.864  1.00  0.00    -0.354 A  
HETATM   10  C   UNL     1     -14.407  15.537  71.367  1.00  0.00    -0.366 A  
HETATM   11  C   UNL     1     -14.405  14.766  70.234  1.00  0.00     1.857 A  
BRANCH   7  12
HETATM   12  N   UNL     1     -10.949  14.471  69.255  1.00  0.00    -0.256 NA 
HETATM   13  C   UNL     1     -11.078  15.052  67.891  1.00  0.00    -0.307 C  
HETATM   14  N   UNL     1      -9.501  13.370  67.006  1.00  0.00    -0.239 N  
HETATM   15  C   UNL     1      -9.780  14.807  67.118  1.00  0.00    -0.233 C  
HETATM   16  C   UNL     1      -9.501  12.667  68.303  1.00  0.00    -0.203 C  
HETATM   17  C   UNL     1      -9.561  12.798  65.738  1.00  0.00    -0.092 C  
HETATM   18  O   UNL     1     -10.036  13.426  64.789  1.00  0.00    -0.258 OA 
HETATM   19  C   UNL     1     -10.757  13.000  69.173  1.00  0.00    -0.022 C  
BRANCH  17  20
HETATM   20  C   UNL     1      -9.019  11.475  65.494  1.00  0.00    -0.031 A  
HETATM   21  C   UNL     1      -9.571  10.268  65.108  1.00  0.00    -0.337 A  
HETATM   22  C   UNL     1      -8.573   9.256  65.208  1.00  0.00    -0.188 A  
HETATM   23  C   UNL     1      -7.411   9.870  65.668  1.00  0.00    -0.116 A  
HETATM   24  N   UNL     1      -7.701  11.205  65.810  1.00  0.00    -0.369 NA 
HETATM   25  C   UNL     1      -6.232   9.164  65.936  1.00  0.00    -0.059 A  
HETATM   26  C   UNL     1      -6.240   7.782  65.712  1.00  0.00    -0.042 A  
HETATM   27  H   UNL     1      -7.027  11.908  66.110  1.00  0.00     0.000 HD 
HETATM   28  C   UNL     1      -7.377   7.148  65.218  1.00  0.00    -0.080 A  
HETATM   29  C   UNL     1      -8.558   7.864  64.983  1.00  0.00    -0.010 A  
BRANCH  28  30
HETATM   30  N   UNL     1      -7.333   5.746  64.956  1.00  0.00    -0.073 N  
HETATM   31  H   UNL     1      -6.814   5.377  64.159  1.00  0.00     0.000 HD 
BRANCH  30  32
HETATM   32  S   UNL     1      -8.168   4.716  66.005  1.00  0.00    -0.111 S  
HETATM   33  O   UNL     1      -8.675   5.447  67.138  1.00  0.00    -0.109 OA 
HETATM   34  O   UNL     1      -9.047   3.941  65.152  1.00  0.00    -0.128 OA 
HETATM   35  C   UNL     1      -6.859   3.635  66.537  1.00  0.00    -0.054 C  
ENDBRANCH  30  32
ENDBRANCH  28  30
ENDBRANCH  17  20
ENDBRANCH   7  12
ENDBRANCH   4   6
ENDBRANCH   2   4
TORSDOF 6
ENDMDL
MODEL      154
REMARK 921   NORMALIZED FREE ENERGY PREDICTED BY IDOCK:   12.42 KCAL/MOL
REMARK 922        TOTAL FREE ENERGY PREDICTED BY IDOCK:   16.30 KCAL/MOL
REMARK 923 INTER-LIGAND FREE ENERGY PREDICTED BY IDOCK:   15.73 KCAL/MOL
REMARK 924 INTRA-LIGAND FREE ENERGY PREDICTED BY IDOCK:    0.57 KCAL/MOL
REMARK 927      BINDING AFFINITY PREDICTED BY RF-SCORE:    0.00 PKD
ROOT
HETATM    1  C   UNL     1      -7.976  19.184  69.929  1.00  0.00     0.725 C  
HETATM    2  C   UNL     1      -7.890  18.328  68.663  1.00  0.00    -0.296 C  
HETATM    3  C   UNL     1      -8.859  18.882  67.612  1.00  0.00    -0.312 C  
ENDROOT
BRANCH   2   4
HETATM    4  N   UNL     1      -6.556  18.403  68.081  1.00  0.00    -0.213 NA 
HETATM    5  H   UNL     1      -5.781  18.493  68.737  1.00  0.00     0.000 HD 
BRANCH   4   6
HETATM    6  C   UNL     1      -6.224  18.364  66.727  1.00  0.00    -0.173 A  
HETATM    7  C   UNL     1      -5.756  17.272  65.945  1.00  0.00     0.228 A  
HETATM    8  N   UNL     1      -5.518  17.409  64.608  1.00  0.00     1.007 NA 
HETATM    9  C   UNL     1      -6.408  19.585  66.036  1.00  0.00    -0.209 A  
HETATM   10  C   UNL     1      -6.137  19.715  64.679  1.00  0.00    -0.313 A  
HETATM   11  C   UNL     1      -5.703  18.600  64.010  1.00  0.00     0.141 A  
BRANCH   7  12
HETATM   12  N   UNL     1      -5.458  16.000  66.494  1.00  0.00     0.309 NA 
HETATM   13  C   UNL     1      -5.632  14.941  65.464  1.00  0.00    10.391 C  
HETATM   14  N   UNL     1      -5.871  13.234  67.232  1.00  0.00     0.084 N  
HETATM   15  C   UNL     1      -5.126  13.610  66.024  1.00  0.00     5.360 C  
HETATM   16  C   UNL     1      -5.886  14.287  68.266  1.00  0.00    -0.117 C  
HETATM   17  C   UNL     1      -6.690  12.111  67.163  1.00  0.00    -0.123 C  
HETATM   18  O   UNL     1      -6.941  11.586  66.076  1.00  0.00     0.131 OA 
HETATM   19  C   UNL     1      -6.274  15.691  67.696  1.00  0.00    -0.154 C  
BRANCH  17  20
HETATM   20  C   UNL     1      -7.221  11.503  68.368  1.00  0.00    -0.089 A  
HETATM   21  C   UNL     1      -6.646  10.925  69.483  1.00  0.00    -0.109 A  
HETATM   22  C   UNL     1      -7.674  10.325  70.268  1.00  0.00     0.136 A  
HETATM   23  C   UNL     1      -8.878  10.546  69.605  1.00  0.00     0.067 A  
HETATM   24  N   UNL     1      -8.579  11.273  68.479  1.00  0.00    -0.154 NA 
HETATM   25  C   UNL     1     -10.102  10.047  70.065  1.00  0.00    -0.289 A  
HETATM   26  C   UNL     1     -10.095   9.310  71.254  1.00  0.00    -0.361 A  
HETATM   27  H   UNL     1      -9.273  11.603  67.809  1.00  0.00     0.000 HD 
HETATM   28  C   UNL     1      -8.911   9.105  71.957  1.00  0.00     0.377 A  
HETATM   29  C   UNL     1      -7.689   9.585  71.468  1.00  0.00     0.575 A  
BRANCH  28  30
HETATM   30  N   UNL     1      -8.950   8.389  73.191  1.00  0.00    -0.214 N  
HETATM   31  H   UNL     1      -8.620   8.816  74.057  1.00  0.00     0.000 HD 
BRANCH  30  32
HETATM   32  S   UNL     1      -9.559   6.811  73.174  1.00  0.00    -0.164 S  
HETATM   33  O   UNL     1     -10.953   6.801  73.539  1.00  0.00    -0.252 OA 
HETATM   34  O   UNL     1      -9.103   6.245  71.920  1.00  0.00    -0.143 OA 
HETATM   35  C   UNL     1      -8.603   6.061  74.473  1.00  0.00    -0.118 C  
ENDBRANCH  30  32
ENDBRANCH  28  30
ENDBRANCH  17  20
ENDBRANCH   7  12
ENDBRANCH   4   6
ENDBRANCH   2   4
TORSDOF 6
ENDMDL
MODEL      155
REMARK 921   NORMALIZED FREE ENERGY PREDICTED BY IDOCK:   13.63 KCAL/MOL
REMARK 922        TOTAL FREE ENERGY PREDICTED BY IDOCK:   17.93 KCAL/MOL
REMARK 923 INTER-LIGAND FREE ENERGY PREDICTED BY IDOCK:   11.66 KCAL/MOL
REMARK 924 INTRA-LIGAND FREE ENERGY PREDICTED BY IDOCK:    6.27 KCAL/MOL
REMARK 927      BINDING AFFINITY PREDICTED BY RF-SCORE:    0.00 PKD
ROOT
HETATM    1  C   UNL     1      -6.740  17.107  64.413  1.00  0.00     6.536 C  
HETATM    2  C   UNL     1      -7.205  16.272  65.609  1.00  0.00     2.569 C  
HETATM    3  C   UNL     1      -6.078  16.204  66.645  1.00  0.00     0.532 C  
ENDROOT
BRANCH   2   4
HETATM    4  N   UNL     1      -8.340  16.906  66.267  1.00  0.00    -0.357 NA 
HETATM    5  H   UNL     1      -8.968  17.443  65.670  1.00  0.00     0.000 HD 
BRANCH   4   6
HETATM    6  C   UNL     1      -8.661  16.859  67.624  1.00  0.00    -0.209 A  
HETATM    7  C   UNL     1      -8.342  15.866  68.590  1.00  0.00    -0.195 A  
HETATM    8  N   UNL     1      -8.708  16.007  69.899  1.00  0.00     0.308 NA 
HETATM    9  C   UNL     1      -9.385  17.976  68.102  1.00  0.00    -0.287 A  
HETATM   10  C   UNL     1      -9.773  18.093  69.431  1.00  0.00     0.144 A  
HETATM   11  C   UNL     1      -9.405  17.089  70.288  1.00  0.00     2.207 A  
BRANCH   7  12
HETATM   12  N   UNL     1      -7.679  14.656  68.266  1.00  0.00    -0.115 NA 
HETATM   13  C   UNL     1      -7.828  14.360  66.815  1.00  0.00     0.411 C  
HETATM   14  N   UNL     1      -7.343  11.975  67.233  1.00  0.00    -0.145 N  
HETATM   15  C   UNL     1      -6.952  13.158  66.457  1.00  0.00     1.831 C  
HETATM   16  C   UNL     1      -7.373  12.210  68.690  1.00  0.00    -0.109 C  
HETATM   17  C   UNL     1      -7.904  10.906  66.542  1.00  0.00    -0.152 C  
HETATM   18  O   UNL     1      -8.252  11.034  65.365  1.00  0.00    -0.076 OA 
HETATM   19  C   UNL     1      -8.155  13.508  69.079  1.00  0.00     0.245 C  
BRANCH  17  20
HETATM   20  C   UNL     1      -8.043   9.605  67.169  1.00  0.00    -0.110 A  
HETATM   21  C   UNL     1      -8.485   9.180  68.408  1.00  0.00    -0.128 A  
HETATM   22  C   UNL     1      -8.221   7.785  68.533  1.00  0.00    -0.128 A  
HETATM   23  C   UNL     1      -7.606   7.376  67.353  1.00  0.00    -0.112 A  
HETATM   24  N   UNL     1      -7.532   8.484  66.544  1.00  0.00    -0.087 NA 
HETATM   25  C   UNL     1      -7.155   6.068  67.144  1.00  0.00    -0.070 A  
HETATM   26  C   UNL     1      -7.354   5.142  68.175  1.00  0.00    -0.075 A  
HETATM   27  H   UNL     1      -7.148   8.479  65.600  1.00  0.00     0.000 HD 
HETATM   28  C   UNL     1      -7.998   5.515  69.351  1.00  0.00    -0.094 A  
HETATM   29  C   UNL     1      -8.417   6.836  69.557  1.00  0.00    -0.133 A  
BRANCH  28  30
HETATM   30  N   UNL     1      -8.227   4.532  70.360  1.00  0.00    -0.070 N  
HETATM   31  H   UNL     1      -8.162   3.537  70.149  1.00  0.00     0.000 HD 
BRANCH  30  32
HETATM   32  S   UNL     1      -8.611   5.069  71.918  1.00  0.00    -0.130 S  
HETATM   33  O   UNL     1      -9.528   6.179  71.861  1.00  0.00    -0.151 OA 
HETATM   34  O   UNL     1      -8.926   3.867  72.663  1.00  0.00    -0.103 OA 
HETATM   35  C   UNL     1      -7.025   5.642  72.483  1.00  0.00    -0.083 C  
ENDBRANCH  30  32
ENDBRANCH  28  30
ENDBRANCH  17  20
ENDBRANCH   7  12
ENDBRANCH   4   6
ENDBRANCH   2   4
TORSDOF 6
ENDMDL
MODEL      156
REMARK 921   NORMALIZED FREE ENERGY PREDICTED BY IDOCK:   14.94 KCAL/MOL
REMARK 922        TOTAL FREE ENERGY PREDICTED BY IDOCK:   19.70 KCAL/MOL
REMARK 923 INTER-LIGAND FREE ENERGY PREDICTED BY IDOCK:   19.98 KCAL/MOL
REMARK 924 INTRA-LIGAND FREE ENERGY PREDICTED BY IDOCK:   -0.28 KCAL/MOL
REMARK 927      BINDING AFFINITY PREDICTED BY RF-SCORE:    0.00 PKD
ROOT
HETATM    1  C   UNL     1      -8.064  17.925  67.823  1.00  0.00    -0.231 C  
HETATM    2  C   UNL     1      -8.858  18.933  66.989  1.00  0.00    -0.294 C  
HETATM    3  C   UNL     1      -7.902  19.677  66.051  1.00  0.00    -0.335 C  
ENDROOT
BRANCH   2   4
HETATM    4  N   UNL     1      -9.826  18.249  66.141  1.00  0.00    -0.505 NA 
HETATM    5  H   UNL     1      -9.565  18.127  65.163  1.00  0.00     0.000 HD 
BRANCH   4   6
HETATM    6  C   UNL     1     -11.070  17.743  66.520  1.00  0.00     0.485 A  
HETATM    7  C   UNL     1     -11.461  16.395  66.749  1.00  0.00     0.621 A  
HETATM    8  N   UNL     1     -12.726  16.085  67.160  1.00  0.00     2.493 NA 
HETATM    9  C   UNL     1     -12.070  18.721  66.731  1.00  0.00     3.435 A  
HETATM   10  C   UNL     1     -13.360  18.387  67.124  1.00  0.00     9.434 A  
HETATM   11  C   UNL     1     -13.635  17.060  67.333  1.00  0.00     8.571 A  
BRANCH   7  12
HETATM   12  N   UNL     1     -10.602  15.291  66.522  1.00  0.00    -0.298 NA 
HETATM   13  C   UNL     1     -11.097  14.479  65.378  1.00  0.00    -0.345 C  
HETATM   14  N   UNL     1      -9.817  12.528  66.184  1.00  0.00    -0.255 N  
HETATM   15  C   UNL     1     -10.058  13.409  65.036  1.00  0.00    -0.239 C  
HETATM   16  C   UNL     1      -9.463  13.253  67.420  1.00  0.00    -0.218 C  
HETATM   17  C   UNL     1     -10.218  11.200  66.075  1.00  0.00    -0.250 C  
HETATM   18  O   UNL     1     -10.934  10.837  65.138  1.00  0.00    -0.075 OA 
HETATM   19  C   UNL     1     -10.436  14.439  67.727  1.00  0.00    -0.245 C  
BRANCH  17  20
HETATM   20  C   UNL     1      -9.760  10.204  67.024  1.00  0.00    -0.180 A  
HETATM   21  C   UNL     1      -9.012   9.047  66.916  1.00  0.00    -0.144 A  
HETATM   22  C   UNL     1      -9.034   8.369  68.169  1.00  0.00    -0.139 A  
HETATM   23  C   UNL     1      -9.812   9.132  69.035  1.00  0.00    -0.174 A  
HETATM   24  N   UNL     1     -10.217  10.238  68.328  1.00  0.00    -0.153 NA 
HETATM   25  C   UNL     1     -10.097   8.740  70.348  1.00  0.00    -0.223 A  
HETATM   26  C   UNL     1      -9.553   7.530  70.795  1.00  0.00    -0.166 A  
HETATM   27  H   UNL     1     -10.783  10.991  68.717  1.00  0.00     0.000 HD 
HETATM   28  C   UNL     1      -8.742   6.765  69.962  1.00  0.00    -0.141 A  
HETATM   29  C   UNL     1      -8.490   7.156  68.640  1.00  0.00    -0.125 A  
BRANCH  28  30
HETATM   30  N   UNL     1      -8.165   5.561  70.467  1.00  0.00    -0.109 N  
HETATM   31  H   UNL     1      -8.176   5.352  71.465  1.00  0.00     0.000 HD 
BRANCH  30  32
HETATM   32  S   UNL     1      -7.462   4.493  69.361  1.00  0.00    -0.055 S  
HETATM   33  O   UNL     1      -8.468   3.898  68.519  1.00  0.00    -0.087 OA 
HETATM   34  O   UNL     1      -6.339   5.218  68.798  1.00  0.00    -0.032 OA 
HETATM   35  C   UNL     1      -6.799   3.255  70.453  1.00  0.00    -0.033 C  
ENDBRANCH  30  32
ENDBRANCH  28  30
ENDBRANCH  17  20
ENDBRANCH   7  12
ENDBRANCH   4   6
ENDBRANCH   2   4
TORSDOF 6
ENDMDL
MODEL      157
REMARK 921   NORMALIZED FREE ENERGY PREDICTED BY IDOCK:   18.52 KCAL/MOL
REMARK 922        TOTAL FREE ENERGY PREDICTED BY IDOCK:   24.53 KCAL/MOL
REMARK 923 INTER-LIGAND FREE ENERGY PREDICTED BY IDOCK:   18.35 KCAL/MOL
REMARK 924 INTRA-LIGAND FREE ENERGY PREDICTED BY IDOCK:    6.19 KCAL/MOL
REMARK 927      BINDING AFFINITY PREDICTED BY RF-SCORE:    0.00 PKD
ROOT
HETATM    1  C   UNL     1     -10.810   9.164  64.973  1.00  0.00     4.078 C  
HETATM    2  C   UNL     1     -11.398   9.582  66.322  1.00  0.00     1.890 C  
HETATM    3  C   UNL     1     -12.895   9.864  66.155  1.00  0.00    12.620 C  
ENDROOT
BRANCH   2   4
HETATM    4  N   UNL     1     -11.283   8.498  67.290  1.00  0.00    -0.097 NA 
HETATM    5  H   UNL     1     -11.985   8.475  68.029  1.00  0.00     0.000 HD 
BRANCH   4   6
HETATM    6  C   UNL     1     -10.319   7.491  67.317  1.00  0.00    -0.296 A  
HETATM    7  C   UNL     1      -8.934   7.562  67.002  1.00  0.00    -0.130 A  
HETATM    8  N   UNL     1      -8.122   6.470  67.127  1.00  0.00    -0.112 NA 
HETATM    9  C   UNL     1     -10.791   6.229  67.748  1.00  0.00    -0.424 A  
HETATM   10  C   UNL     1      -9.958   5.120  67.845  1.00  0.00    -0.202 A  
HETATM   11  C   UNL     1      -8.634   5.295  67.532  1.00  0.00    -0.104 A  
BRANCH   7  12
HETATM   12  N   UNL     1      -8.315   8.732  66.497  1.00  0.00    -0.110 NA 
HETATM   13  C   UNL     1      -6.915   8.830  66.993  1.00  0.00    -0.074 C  
HETATM   14  N   UNL     1      -6.908  11.259  66.549  1.00  0.00    -0.128 N  
HETATM   15  C   UNL     1      -6.215   9.993  66.287  1.00  0.00    -0.070 C  
HETATM   16  C   UNL     1      -8.349  11.219  66.229  1.00  0.00    -0.142 C  
HETATM   17  C   UNL     1      -6.243  12.215  67.310  1.00  0.00    -0.152 C  
HETATM   18  O   UNL     1      -5.207  11.925  67.913  1.00  0.00    -0.047 OA 
HETATM   19  C   UNL     1      -9.069   9.967  66.830  1.00  0.00    -0.142 C  
BRANCH  17  20
HETATM   20  C   UNL     1      -6.719  13.584  67.367  1.00  0.00    -0.027 A  
HETATM   21  C   UNL     1      -6.126  14.815  67.169  1.00  0.00     0.664 A  
HETATM   22  C   UNL     1      -7.049  15.834  67.545  1.00  0.00    -0.215 A  
HETATM   23  C   UNL     1      -8.208  15.197  67.980  1.00  0.00    -0.142 A  
HETATM   24  N   UNL     1      -7.990  13.848  67.842  1.00  0.00    -0.144 NA 
HETATM   25  C   UNL     1      -9.316  15.891  68.479  1.00  0.00    -0.206 A  
HETATM   26  C   UNL     1      -9.240  17.289  68.518  1.00  0.00    -0.273 A  
HETATM   27  H   UNL     1      -8.680  13.131  68.063  1.00  0.00     0.000 HD 
HETATM   28  C   UNL     1      -8.108  17.953  68.056  1.00  0.00    -0.252 A  
HETATM   29  C   UNL     1      -6.995  17.243  67.588  1.00  0.00    -0.169 A  
BRANCH  28  30
HETATM   30  N   UNL     1      -8.086  19.380  68.067  1.00  0.00    -0.301 N  
HETATM   31  H   UNL     1      -7.573  19.903  67.357  1.00  0.00     0.000 HD 
BRANCH  30  32
HETATM   32  S   UNL     1      -8.936  20.177  69.293  1.00  0.00     0.719 S  
HETATM   33  O   UNL     1      -8.034  20.646  70.314  1.00  0.00     1.103 OA 
HETATM   34  O   UNL     1      -9.831  21.084  68.602  1.00  0.00     0.509 OA 
HETATM   35  C   UNL     1      -9.925  18.849  69.942  1.00  0.00     0.721 C  
ENDBRANCH  30  32
ENDBRANCH  28  30
ENDBRANCH  17  20
ENDBRANCH   7  12
ENDBRANCH   4   6
ENDBRANCH   2   4
TORSDOF 6
ENDMDL
MODEL      158
REMARK 921   NORMALIZED FREE ENERGY PREDICTED BY IDOCK:   19.27 KCAL/MOL
REMARK 922        TOTAL FREE ENERGY PREDICTED BY IDOCK:   25.55 KCAL/MOL
REMARK 923 INTER-LIGAND FREE ENERGY PREDICTED BY IDOCK:   25.14 KCAL/MOL
REMARK 924 INTRA-LIGAND FREE ENERGY PREDICTED BY IDOCK:    0.42 KCAL/MOL
REMARK 927      BINDING AFFINITY PREDICTED BY RF-SCORE:    0.00 PKD
ROOT
HETATM    1  C   UNL     1      -9.108   5.372  69.920  1.00  0.00    -0.165 C  
HETATM    2  C   UNL     1      -9.782   4.027  69.635  1.00  0.00    -0.175 C  
HETATM    3  C   UNL     1     -10.775   3.713  70.759  1.00  0.00     1.701 C  
ENDROOT
BRANCH   2   4
HETATM    4  N   UNL     1     -10.554   4.090  68.401  1.00  0.00     1.114 NA 
HETATM    5  H   UNL     1     -11.488   3.680  68.429  1.00  0.00     0.000 HD 
BRANCH   4   6
HETATM    6  C   UNL     1     -10.158   4.649  67.186  1.00  0.00    -0.143 A  
HETATM    7  C   UNL     1     -10.134   6.014  66.788  1.00  0.00    -0.187 A  
HETATM    8  N   UNL     1      -9.669   6.385  65.558  1.00  0.00     0.524 NA 
HETATM    9  C   UNL     1      -9.687   3.718  66.230  1.00  0.00    -0.138 A  
HETATM   10  C   UNL     1      -9.242   4.109  64.973  1.00  0.00    -0.154 A  
HETATM   11  C   UNL     1      -9.245   5.450  64.690  1.00  0.00     0.259 A  
BRANCH   7  12
HETATM   12  N   UNL     1     -10.629   7.064  67.600  1.00  0.00    -0.235 NA 
HETATM   13  C   UNL     1     -11.938   7.543  67.081  1.00  0.00     3.546 C  
HETATM   14  N   UNL     1     -11.644   9.690  68.264  1.00  0.00     0.391 N  
HETATM   15  C   UNL     1     -12.536   8.541  68.075  1.00  0.00     8.196 C  
HETATM   16  C   UNL     1     -10.267   9.312  68.637  1.00  0.00    -0.199 C  
HETATM   17  C   UNL     1     -12.080  10.930  67.805  1.00  0.00     0.772 C  
HETATM   18  O   UNL     1     -13.076  11.015  67.084  1.00  0.00     5.016 OA 
HETATM   19  C   UNL     1      -9.674   8.196  67.715  1.00  0.00    -0.157 C  
BRANCH  17  20
HETATM   20  C   UNL     1     -11.408  12.150  68.208  1.00  0.00    -0.289 A  
HETATM   21  C   UNL     1     -10.354  12.430  69.057  1.00  0.00     0.023 A  
HETATM   22  C   UNL     1     -10.249  13.843  69.206  1.00  0.00     0.119 A  
HETATM   23  C   UNL     1     -11.261  14.413  68.439  1.00  0.00    -0.273 A  
HETATM   24  N   UNL     1     -11.927  13.375  67.834  1.00  0.00    -0.347 NA 
HETATM   25  C   UNL     1     -11.494  15.792  68.388  1.00  0.00    -0.367 A  
HETATM   26  C   UNL     1     -10.650  16.618  69.140  1.00  0.00    -0.340 A  
HETATM   27  H   UNL     1     -12.707  13.494  67.188  1.00  0.00     0.000 HD 
HETATM   28  C   UNL     1      -9.607  16.078  69.888  1.00  0.00     0.140 A  
HETATM   29  C   UNL     1      -9.406  14.693  69.951  1.00  0.00     0.539 A  
BRANCH  28  30
HETATM   30  N   UNL     1      -8.737  16.955  70.602  1.00  0.00     3.732 N  
HETATM   31  H   UNL     1      -9.086  17.535  71.365  1.00  0.00     0.000 HD 
BRANCH  30  32
HETATM   32  S   UNL     1      -7.110  17.004  70.144  1.00  0.00     1.478 S  
HETATM   33  O   UNL     1      -6.723  18.345  69.785  1.00  0.00    -0.105 OA 
HETATM   34  O   UNL     1      -6.406  16.267  71.175  1.00  0.00     1.000 OA 
HETATM   35  C   UNL     1      -7.133  15.986  68.687  1.00  0.00    -0.136 C  
ENDBRANCH  30  32
ENDBRANCH  28  30
ENDBRANCH  17  20
ENDBRANCH   7  12
ENDBRANCH   4   6
ENDBRANCH   2   4
TORSDOF 6
ENDMDL
MODEL      159
REMARK 921   NORMALIZED FREE ENERGY PREDICTED BY IDOCK:   19.50 KCAL/MOL
REMARK 922        TOTAL FREE ENERGY PREDICTED BY IDOCK:   25.85 KCAL/MOL
REMARK 923 INTER-LIGAND FREE ENERGY PREDICTED BY IDOCK:   24.34 KCAL/MOL
REMARK 924 INTRA-LIGAND FREE ENERGY PREDICTED BY IDOCK:    1.52 KCAL/MOL
REMARK 927      BINDING AFFINITY PREDICTED BY RF-SCORE:    0.00 PKD
ROOT
HETATM    1  C   UNL     1     -12.540  10.851  71.712  1.00  0.00    -0.345 C  
HETATM    2  C   UNL     1     -12.578   9.467  72.364  1.00  0.00    -0.237 C  
HETATM    3  C   UNL     1     -13.930   8.808  72.071  1.00  0.00    -0.511 C  
ENDROOT
BRANCH   2   4
HETATM    4  N   UNL     1     -11.558   8.600  71.788  1.00  0.00    -0.308 NA 
HETATM    5  H   UNL     1     -10.613   8.981  71.743  1.00  0.00     0.000 HD 
BRANCH   4   6
HETATM    6  C   UNL     1     -11.731   7.308  71.292  1.00  0.00    -0.296 A  
HETATM    7  C   UNL     1     -11.762   6.859  69.943  1.00  0.00    -0.145 A  
HETATM    8  N   UNL     1     -11.902   5.534  69.640  1.00  0.00     1.893 NA 
HETATM    9  C   UNL     1     -11.867   6.305  72.280  1.00  0.00    -0.326 A  
HETATM   10  C   UNL     1     -12.035   4.964  71.956  1.00  0.00     1.195 A  
HETATM   11  C   UNL     1     -12.037   4.630  70.626  1.00  0.00     6.579 A  
BRANCH   7  12
HETATM   12  N   UNL     1     -11.704   7.739  68.834  1.00  0.00     1.101 NA 
HETATM   13  C   UNL     1     -10.299   7.887  68.367  1.00  0.00    -0.199 C  
HETATM   14  N   UNL     1     -10.872  10.018  67.258  1.00  0.00    -0.253 N  
HETATM   15  C   UNL     1     -10.286   8.686  67.062  1.00  0.00    -0.298 C  
HETATM   16  C   UNL     1     -12.218   9.986  67.862  1.00  0.00     3.058 C  
HETATM   17  C   UNL     1     -10.028  11.118  67.142  1.00  0.00    -0.186 C  
HETATM   18  O   UNL     1      -8.805  10.967  67.089  1.00  0.00    -0.134 OA 
HETATM   19  C   UNL     1     -12.293   9.070  69.128  1.00  0.00     2.560 C  
BRANCH  17  20
HETATM   20  C   UNL     1     -10.567  12.459  67.026  1.00  0.00    -0.225 A  
HETATM   21  C   UNL     1     -10.099  13.637  66.475  1.00  0.00    -0.286 A  
HETATM   22  C   UNL     1     -10.992  14.692  66.824  1.00  0.00    -0.323 A  
HETATM   23  C   UNL     1     -12.003  14.133  67.600  1.00  0.00    -0.370 A  
HETATM   24  N   UNL     1     -11.735  12.789  67.687  1.00  0.00    -0.360 NA 
HETATM   25  C   UNL     1     -13.034  14.891  68.167  1.00  0.00     1.996 A  
HETATM   26  C   UNL     1     -13.038  16.268  67.917  1.00  0.00     4.034 A  
HETATM   27  H   UNL     1     -12.325  12.118  68.178  1.00  0.00     0.000 HD 
HETATM   28  C   UNL     1     -12.059  16.848  67.115  1.00  0.00     2.266 A  
HETATM   29  C   UNL     1     -11.016  16.080  66.579  1.00  0.00    -0.080 A  
BRANCH  28  30
HETATM   30  N   UNL     1     -12.122  18.248  66.842  1.00  0.00     3.132 N  
HETATM   31  H   UNL     1     -13.016  18.738  66.818  1.00  0.00     0.000 HD 
BRANCH  30  32
HETATM   32  S   UNL     1     -10.669  19.067  66.561  1.00  0.00    -0.246 S  
HETATM   33  O   UNL     1      -9.644  18.608  67.463  1.00  0.00    -0.287 OA 
HETATM   34  O   UNL     1     -10.485  19.024  65.124  1.00  0.00    -0.181 OA 
HETATM   35  C   UNL     1     -11.128  20.732  66.987  1.00  0.00     2.122 C  
ENDBRANCH  30  32
ENDBRANCH  28  30
ENDBRANCH  17  20
ENDBRANCH   7  12
ENDBRANCH   4   6
ENDBRANCH   2   4
TORSDOF 6
ENDMDL
MODEL      160
REMARK 921   NORMALIZED FREE ENERGY PREDICTED BY IDOCK:   20.73 KCAL/MOL
REMARK 922        TOTAL FREE ENERGY PREDICTED BY IDOCK:   27.52 KCAL/MOL
REMARK 923 INTER-LIGAND FREE ENERGY PREDICTED BY IDOCK:   27.62 KCAL/MOL
REMARK 924 INTRA-LIGAND FREE ENERGY PREDICTED BY IDOCK:   -0.10 KCAL/MOL
REMARK 927      BINDING AFFINITY PREDICTED BY RF-SCORE:    0.00 PKD
ROOT
HETATM    1  C   UNL     1     -11.163  15.538  74.399  1.00  0.00     2.343 C  
HETATM    2  C   UNL     1     -10.105  15.510  73.293  1.00  0.00     6.044 C  
HETATM    3  C   UNL     1      -9.889  14.062  72.838  1.00  0.00     9.163 C  
ENDROOT
BRANCH   2   4
HETATM    4  N   UNL     1     -10.562  16.251  72.125  1.00  0.00     2.019 NA 
HETATM    5  H   UNL     1      -9.914  16.940  71.743  1.00  0.00     0.000 HD 
BRANCH   4   6
HETATM    6  C   UNL     1     -11.788  16.123  71.472  1.00  0.00    -0.463 A  
HETATM    7  C   UNL     1     -12.115  15.368  70.312  1.00  0.00    -0.369 A  
HETATM    8  N   UNL     1     -13.393  15.326  69.831  1.00  0.00     0.369 NA 
HETATM    9  C   UNL     1     -12.858  16.826  72.073  1.00  0.00     2.122 A  
HETATM   10  C   UNL     1     -14.148  16.794  71.557  1.00  0.00     5.671 A  
HETATM   11  C   UNL     1     -14.364  16.026  70.443  1.00  0.00     2.883 A  
BRANCH   7  12
HETATM   12  N   UNL     1     -11.151  14.659  69.554  1.00  0.00    -0.262 NA 
HETATM   13  C   UNL     1     -11.380  14.874  68.099  1.00  0.00    -0.312 C  
HETATM   14  N   UNL     1     -10.119  12.817  67.576  1.00  0.00    -0.211 N  
HETATM   15  C   UNL     1     -10.221  14.257  67.313  1.00  0.00    -0.252 C  
HETATM   16  C   UNL     1     -10.038  12.485  69.012  1.00  0.00     0.175 C  
HETATM   17  C   UNL     1     -10.396  11.946  66.526  1.00  0.00    -0.216 C  
HETATM   18  O   UNL     1     -10.911  12.364  65.486  1.00  0.00    -0.267 OA 
HETATM   19  C   UNL     1     -11.134  13.207  69.864  1.00  0.00     0.270 C  
BRANCH  17  20
HETATM   20  C   UNL     1     -10.038  10.543  66.609  1.00  0.00    -0.222 A  
HETATM   21  C   UNL     1      -9.525   9.630  65.708  1.00  0.00    -0.308 A  
HETATM   22  C   UNL     1      -9.551   8.336  66.305  1.00  0.00    -0.266 A  
HETATM   23  C   UNL     1     -10.093   8.482  67.579  1.00  0.00    -0.221 A  
HETATM   24  N   UNL     1     -10.356   9.820  67.743  1.00  0.00    -0.209 NA 
HETATM   25  C   UNL     1     -10.319   7.401  68.439  1.00  0.00    -0.224 A  
HETATM   26  C   UNL     1      -9.962   6.126  67.983  1.00  0.00    -0.156 A  
HETATM   27  H   UNL     1     -10.738  10.228  68.595  1.00  0.00     0.000 HD 
HETATM   28  C   UNL     1      -9.385   5.955  66.728  1.00  0.00    -0.136 A  
HETATM   29  C   UNL     1      -9.193   7.044  65.867  1.00  0.00     0.005 A  
BRANCH  28  30
HETATM   30  N   UNL     1      -8.990   4.647  66.316  1.00  0.00    -0.116 N  
HETATM   31  H   UNL     1      -8.115   4.236  66.641  1.00  0.00     0.000 HD 
BRANCH  30  32
HETATM   32  S   UNL     1     -10.017   3.800  65.272  1.00  0.00    -0.055 S  
HETATM   33  O   UNL     1     -11.392   4.154  65.515  1.00  0.00     0.489 OA 
HETATM   34  O   UNL     1      -9.421   3.945  63.959  1.00  0.00    -0.142 OA 
HETATM   35  C   UNL     1      -9.735   2.125  65.800  1.00  0.00     0.477 C  
ENDBRANCH  30  32
ENDBRANCH  28  30
ENDBRANCH  17  20
ENDBRANCH   7  12
ENDBRANCH   4   6
ENDBRANCH   2   4
TORSDOF 6
ENDMDL
MODEL      161
REMARK 921   NORMALIZED FREE ENERGY PREDICTED BY IDOCK:   22.84 KCAL/MOL
REMARK 922        TOTAL FREE ENERGY PREDICTED BY IDOCK:   30.37 KCAL/MOL
REMARK 923 INTER-LIGAND FREE ENERGY PREDICTED BY IDOCK:   29.74 KCAL/MOL
REMARK 924 INTRA-LIGAND FREE ENERGY PREDICTED BY IDOCK:    0.63 KCAL/MOL
REMARK 927      BINDING AFFINITY PREDICTED BY RF-SCORE:    0.00 PKD
ROOT
HETATM    1  C   UNL     1     -11.162  15.540  74.399  1.00  0.00     2.343 C  
HETATM    2  C   UNL     1     -10.098  15.512  73.299  1.00  0.00     6.044 C  
HETATM    3  C   UNL     1      -9.887  14.067  72.837  1.00  0.00     9.163 C  
ENDROOT
BRANCH   2   4
HETATM    4  N   UNL     1     -10.545  16.263  72.133  1.00  0.00     2.019 NA 
HETATM    5  H   UNL     1      -9.885  16.939  71.749  1.00  0.00     0.000 HD 
BRANCH   4   6
HETATM    6  C   UNL     1     -11.776  16.159  71.485  1.00  0.00    -0.464 A  
HETATM    7  C   UNL     1     -12.126  15.398  70.336  1.00  0.00    -0.372 A  
HETATM    8  N   UNL     1     -13.406  15.383  69.859  1.00  0.00     0.302 NA 
HETATM    9  C   UNL     1     -12.825  16.898  72.079  1.00  0.00     2.831 A  
HETATM   10  C   UNL     1     -14.117  16.894  71.567  1.00  0.00     6.842 A  
HETATM   11  C   UNL     1     -14.357  16.117  70.464  1.00  0.00     3.254 A  
BRANCH   7  12
HETATM   12  N   UNL     1     -11.183  14.653  69.584  1.00  0.00    -0.268 NA 
HETATM   13  C   UNL     1     -11.573  14.629  68.148  1.00  0.00    -0.335 C  
HETATM   14  N   UNL     1     -10.194  12.612  67.789  1.00  0.00    -0.217 N  
HETATM   15  C   UNL     1     -10.448  13.985  67.335  1.00  0.00    -0.263 C  
HETATM   16  C   UNL     1      -9.943  12.508  69.240  1.00  0.00     0.572 C  
HETATM   17  C   UNL     1     -10.497  11.575  66.911  1.00  0.00    -0.235 C  
HETATM   18  O   UNL     1     -11.146  11.793  65.886  1.00  0.00    -0.309 OA 
HETATM   19  C   UNL     1     -11.009  13.270  70.095  1.00  0.00     0.742 C  
BRANCH  17  20
HETATM   20  C   UNL     1     -10.010  10.231  67.154  1.00  0.00    -0.197 A  
HETATM   21  C   UNL     1     -10.530   8.969  66.936  1.00  0.00    -0.293 A  
HETATM   22  C   UNL     1      -9.673   8.009  67.549  1.00  0.00    -0.206 A  
HETATM   23  C   UNL     1      -8.631   8.712  68.146  1.00  0.00    -0.141 A  
HETATM   24  N   UNL     1      -8.846  10.041  67.874  1.00  0.00    -0.125 NA 
HETATM   25  C   UNL     1      -7.621   8.091  68.890  1.00  0.00    -0.099 A  
HETATM   26  C   UNL     1      -7.674   6.697  69.015  1.00  0.00    -0.109 A  
HETATM   27  H   UNL     1      -8.225  10.794  68.168  1.00  0.00     0.000 HD 
HETATM   28  C   UNL     1      -8.685   5.966  68.398  1.00  0.00    -0.112 A  
HETATM   29  C   UNL     1      -9.705   6.606  67.681  1.00  0.00    -0.142 A  
BRANCH  28  30
HETATM   30  N   UNL     1      -8.679   4.543  68.506  1.00  0.00    -0.097 N  
HETATM   31  H   UNL     1      -8.728   3.953  67.676  1.00  0.00     0.000 HD 
BRANCH  30  32
HETATM   32  S   UNL     1      -8.587   3.866  70.053  1.00  0.00    -0.068 S  
HETATM   33  O   UNL     1      -9.173   2.550  70.067  1.00  0.00    -0.106 OA 
HETATM   34  O   UNL     1      -7.220   4.088  70.481  1.00  0.00    -0.040 OA 
HETATM   35  C   UNL     1      -9.619   4.981  70.977  1.00  0.00    -0.170 C  
ENDBRANCH  30  32
ENDBRANCH  28  30
ENDBRANCH  17  20
ENDBRANCH   7  12
ENDBRANCH   4   6
ENDBRANCH   2   4
TORSDOF 6
ENDMDL
MODEL      162
REMARK 921   NORMALIZED FREE ENERGY PREDICTED BY IDOCK:   31.88 KCAL/MOL
REMARK 922        TOTAL FREE ENERGY PREDICTED BY IDOCK:   42.59 KCAL/MOL
REMARK 923 INTER-LIGAND FREE ENERGY PREDICTED BY IDOCK:   29.86 KCAL/MOL
REMARK 924 INTRA-LIGAND FREE ENERGY PREDICTED BY IDOCK:   12.73 KCAL/MOL
REMARK 927      BINDING AFFINITY PREDICTED BY RF-SCORE:    0.00 PKD
ROOT
HETATM    1  C   UNL     1     -10.173   7.656  65.887  1.00  0.00     0.961 C  
HETATM    2  C   UNL     1     -10.845   7.512  64.520  1.00  0.00    10.440 C  
HETATM    3  C   UNL     1     -11.741   8.729  64.267  1.00  0.00    15.078 C  
ENDROOT
BRANCH   2   4
HETATM    4  N   UNL     1      -9.849   7.499  63.457  1.00  0.00     3.597 NA 
HETATM    5  H   UNL     1     -10.202   7.394  62.506  1.00  0.00     0.000 HD 
BRANCH   4   6
HETATM    6  C   UNL     1      -8.465   7.613  63.596  1.00  0.00     0.279 A  
HETATM    7  C   UNL     1      -7.714   8.279  64.604  1.00  0.00    -0.117 A  
HETATM    8  N   UNL     1      -6.349   8.251  64.604  1.00  0.00    -0.064 NA 
HETATM    9  C   UNL     1      -7.711   6.944  62.604  1.00  0.00    -0.105 A  
HETATM   10  C   UNL     1      -6.321   6.947  62.603  1.00  0.00    -0.047 A  
HETATM   11  C   UNL     1      -5.689   7.606  63.626  1.00  0.00    -0.045 A  
BRANCH   7  12
HETATM   12  N   UNL     1      -8.312   9.048  65.632  1.00  0.00    -0.125 NA 
HETATM   13  C   UNL     1      -9.738   9.324  65.307  1.00  0.00    -0.018 C  
HETATM   14  N   UNL     1      -9.738  11.251  66.851  1.00  0.00    -0.189 N  
HETATM   15  C   UNL     1     -10.407   9.990  66.511  1.00  0.00    -0.198 C  
HETATM   16  C   UNL     1      -8.282  11.111  67.048  1.00  0.00    -0.146 C  
HETATM   17  C   UNL     1     -10.451  12.431  66.666  1.00  0.00    -0.229 C  
HETATM   18  O   UNL     1     -11.517  12.428  66.046  1.00  0.00    -0.343 OA 
HETATM   19  C   UNL     1      -7.587  10.318  65.892  1.00  0.00    -0.134 C  
BRANCH  17  20
HETATM   20  C   UNL     1      -9.988  13.678  67.245  1.00  0.00    -0.240 A  
HETATM   21  C   UNL     1      -9.207  13.996  68.339  1.00  0.00    -0.196 A  
HETATM   22  C   UNL     1      -9.239  15.409  68.529  1.00  0.00    -0.198 A  
HETATM   23  C   UNL     1     -10.058  15.938  67.535  1.00  0.00    -0.247 A  
HETATM   24  N   UNL     1     -10.476  14.880  66.765  1.00  0.00    -0.279 NA 
HETATM   25  C   UNL     1     -10.361  17.301  67.445  1.00  0.00    -0.338 A  
HETATM   26  C   UNL     1      -9.795  18.155  68.399  1.00  0.00    -0.380 A  
HETATM   27  H   UNL     1     -11.071  14.969  65.943  1.00  0.00     0.000 HD 
HETATM   28  C   UNL     1      -8.944  17.657  69.382  1.00  0.00     0.436 A  
HETATM   29  C   UNL     1      -8.673  16.286  69.477  1.00  0.00     0.103 A  
BRANCH  28  30
HETATM   30  N   UNL     1      -8.346  18.564  70.308  1.00  0.00     2.214 N  
HETATM   31  H   UNL     1      -8.904  19.027  71.025  1.00  0.00     0.000 HD 
BRANCH  30  32
HETATM   32  S   UNL     1      -6.684  18.849  70.178  1.00  0.00     0.439 S  
HETATM   33  O   UNL     1      -6.096  19.028  71.481  1.00  0.00     0.239 OA 
HETATM   34  O   UNL     1      -6.198  17.834  69.264  1.00  0.00    -0.218 OA 
HETATM   35  C   UNL     1      -6.669  20.398  69.305  1.00  0.00    -0.072 C  
ENDBRANCH  30  32
ENDBRANCH  28  30
ENDBRANCH  17  20
ENDBRANCH   7  12
ENDBRANCH   4   6
ENDBRANCH   2   4
TORSDOF 6
ENDMDL
MODEL      163
REMARK 921   NORMALIZED FREE ENERGY PREDICTED BY IDOCK:   32.07 KCAL/MOL
REMARK 922        TOTAL FREE ENERGY PREDICTED BY IDOCK:   42.85 KCAL/MOL
REMARK 923 INTER-LIGAND FREE ENERGY PREDICTED BY IDOCK:   43.07 KCAL/MOL
REMARK 924 INTRA-LIGAND FREE ENERGY PREDICTED BY IDOCK:   -0.23 KCAL/MOL
REMARK 927      BINDING AFFINITY PREDICTED BY RF-SCORE:    0.00 PKD
ROOT
HETATM    1  C   UNL     1      -5.171  17.062  69.132  1.00  0.00    -0.133 C  
HETATM    2  C   UNL     1      -6.392  16.905  70.042  1.00  0.00     0.044 C  
HETATM    3  C   UNL     1      -7.663  16.910  69.186  1.00  0.00    -0.138 C  
ENDROOT
BRANCH   2   4
HETATM    4  N   UNL     1      -6.358  15.621  70.731  1.00  0.00     0.327 NA 
HETATM    5  H   UNL     1      -5.434  15.237  70.927  1.00  0.00     0.000 HD 
BRANCH   4   6
HETATM    6  C   UNL     1      -7.449  14.860  71.151  1.00  0.00     2.018 A  
HETATM    7  C   UNL     1      -8.073  13.753  70.512  1.00  0.00     3.297 A  
HETATM    8  N   UNL     1      -9.118  13.095  71.097  1.00  0.00     9.638 NA 
HETATM    9  C   UNL     1      -7.986  15.234  72.405  1.00  0.00     7.181 A  
HETATM   10  C   UNL     1      -9.067  14.571  72.975  1.00  0.00     8.916 A  
HETATM   11  C   UNL     1      -9.590  13.507  72.287  1.00  0.00    13.236 A  
BRANCH   7  12
HETATM   12  N   UNL     1      -7.700  13.292  69.226  1.00  0.00     0.296 NA 
HETATM   13  C   UNL     1      -8.670  13.773  68.205  1.00  0.00    -0.183 C  
HETATM   14  N   UNL     1      -7.973  11.972  66.666  1.00  0.00    -0.055 N  
HETATM   15  C   UNL     1      -8.145  13.422  66.811  1.00  0.00     0.274 C  
HETATM   16  C   UNL     1      -7.143  11.368  67.727  1.00  0.00    -0.081 C  
HETATM   17  C   UNL     1      -8.807  11.308  65.772  1.00  0.00    -0.148 C  
HETATM   18  O   UNL     1      -9.785  11.881  65.285  1.00  0.00    -0.240 OA 
HETATM   19  C   UNL     1      -7.576  11.813  69.163  1.00  0.00     0.081 C  
BRANCH  17  20
HETATM   20  C   UNL     1      -8.517   9.951  65.350  1.00  0.00    -0.147 A  
HETATM   21  C   UNL     1      -8.796   8.704  65.874  1.00  0.00    -0.221 A  
HETATM   22  C   UNL     1      -8.094   7.722  65.116  1.00  0.00    -0.137 A  
HETATM   23  C   UNL     1      -7.381   8.398  64.129  1.00  0.00    -0.101 A  
HETATM   24  N   UNL     1      -7.671   9.732  64.279  1.00  0.00    -0.128 NA 
HETATM   25  C   UNL     1      -6.531   7.750  63.226  1.00  0.00    -0.067 A  
HETATM   26  C   UNL     1      -6.418   6.358  63.328  1.00  0.00    -0.033 A  
HETATM   27  H   UNL     1      -7.307  10.469  63.676  1.00  0.00     0.000 HD 
HETATM   28  C   UNL     1      -7.146   5.654  64.281  1.00  0.00    -0.053 A  
HETATM   29  C   UNL     1      -7.971   6.319  65.198  1.00  0.00    -0.115 A  
BRANCH  28  30
HETATM   30  N   UNL     1      -7.043   4.231  64.324  1.00  0.00    -0.046 N  
HETATM   31  H   UNL     1      -6.994   3.682  63.465  1.00  0.00     0.000 HD 
BRANCH  30  32
HETATM   32  S   UNL     1      -7.005   3.483  65.840  1.00  0.00    -0.063 S  
HETATM   33  O   UNL     1      -6.803   4.457  66.882  1.00  0.00    -0.050 OA 
HETATM   34  O   UNL     1      -8.151   2.595  65.850  1.00  0.00    -0.081 OA 
HETATM   35  C   UNL     1      -5.551   2.470  65.687  1.00  0.00    -0.017 C  
ENDBRANCH  30  32
ENDBRANCH  28  30
ENDBRANCH  17  20
ENDBRANCH   7  12
ENDBRANCH   4   6
ENDBRANCH   2   4
TORSDOF 6
ENDMDL
MODEL      164
REMARK 921   NORMALIZED FREE ENERGY PREDICTED BY IDOCK:   42.56 KCAL/MOL
REMARK 922        TOTAL FREE ENERGY PREDICTED BY IDOCK:   57.01 KCAL/MOL
REMARK 923 INTER-LIGAND FREE ENERGY PREDICTED BY IDOCK:   56.75 KCAL/MOL
REMARK 924 INTRA-LIGAND FREE ENERGY PREDICTED BY IDOCK:    0.27 KCAL/MOL
REMARK 927      BINDING AFFINITY PREDICTED BY RF-SCORE:    0.00 PKD
ROOT
HETATM    1  C   UNL     1     -11.474  19.023  69.261  1.00  0.00     3.747 C  
HETATM    2  C   UNL     1     -11.407  18.192  70.544  1.00  0.00     3.847 C  
HETATM    3  C   UNL     1     -12.089  16.841  70.307  1.00  0.00     1.651 C  
ENDROOT
BRANCH   2   4
HETATM    4  N   UNL     1     -10.023  17.905  70.898  1.00  0.00     2.805 NA 
HETATM    5  H   UNL     1      -9.804  17.888  71.894  1.00  0.00     0.000 HD 
BRANCH   4   6
HETATM    6  C   UNL     1      -8.965  17.651  70.026  1.00  0.00     2.037 A  
HETATM    7  C   UNL     1      -8.028  16.580  70.034  1.00  0.00     1.297 A  
HETATM    8  N   UNL     1      -7.073  16.467  69.064  1.00  0.00    -0.202 NA 
HETATM    9  C   UNL     1      -8.830  18.581  68.968  1.00  0.00    -0.081 A  
HETATM   10  C   UNL     1      -7.836  18.467  68.004  1.00  0.00    -0.286 A  
HETATM   11  C   UNL     1      -6.990  17.391  68.091  1.00  0.00    -0.190 A  
BRANCH   7  12
HETATM   12  N   UNL     1      -7.984  15.600  71.056  1.00  0.00     2.613 NA 
HETATM   13  C   UNL     1      -6.580  15.380  71.498  1.00  0.00     1.577 C  
HETATM   14  N   UNL     1      -7.193  13.168  72.408  1.00  0.00     6.927 N  
HETATM   15  C   UNL     1      -6.578  14.463  72.723  1.00  0.00     1.902 C  
HETATM   16  C   UNL     1      -8.541  13.284  71.819  1.00  0.00    14.312 C  
HETATM   17  C   UNL     1      -6.372  12.044  72.415  1.00  0.00     4.257 C  
HETATM   18  O   UNL     1      -5.146  12.164  72.474  1.00  0.00    -0.357 OA 
HETATM   19  C   UNL     1      -8.603  14.315  70.644  1.00  0.00     3.089 C  
BRANCH  17  20
HETATM   20  C   UNL     1      -6.940  10.709  72.410  1.00  0.00     4.549 A  
HETATM   21  C   UNL     1      -7.311   9.829  71.412  1.00  0.00     0.684 A  
HETATM   22  C   UNL     1      -7.988   8.724  72.005  1.00  0.00    -0.050 A  
HETATM   23  C   UNL     1      -8.024   8.954  73.378  1.00  0.00     0.563 A  
HETATM   24  N   UNL     1      -7.368  10.141  73.595  1.00  0.00     3.111 NA 
HETATM   25  C   UNL     1      -8.663   8.093  74.277  1.00  0.00    -0.011 A  
HETATM   26  C   UNL     1      -9.274   6.947  73.753  1.00  0.00    -0.209 A  
HETATM   27  H   UNL     1      -7.217  10.552  74.515  1.00  0.00     0.000 HD 
HETATM   28  C   UNL     1      -9.222   6.674  72.389  1.00  0.00    -0.135 A  
HETATM   29  C   UNL     1      -8.604   7.561  71.498  1.00  0.00    -0.123 A  
BRANCH  28  30
HETATM   30  N   UNL     1      -9.814   5.472  71.898  1.00  0.00    -0.165 N  
HETATM   31  H   UNL     1     -10.796   5.260  72.076  1.00  0.00     0.000 HD 
BRANCH  30  32
HETATM   32  S   UNL     1      -8.839   4.412  71.012  1.00  0.00    -0.110 S  
HETATM   33  O   UNL     1      -7.445   4.661  71.279  1.00  0.00    -0.070 OA 
HETATM   34  O   UNL     1      -9.424   3.102  71.218  1.00  0.00    -0.127 OA 
HETATM   35  C   UNL     1      -9.219   4.906  69.347  1.00  0.00    -0.109 C  
ENDBRANCH  30  32
ENDBRANCH  28  30
ENDBRANCH  17  20
ENDBRANCH   7  12
ENDBRANCH   4   6
ENDBRANCH   2   4
TORSDOF 6
ENDMDL
MODEL      165
REMARK 921   NORMALIZED FREE ENERGY PREDICTED BY IDOCK:   47.77 KCAL/MOL
REMARK 922        TOTAL FREE ENERGY PREDICTED BY IDOCK:   64.05 KCAL/MOL
REMARK 923 INTER-LIGAND FREE ENERGY PREDICTED BY IDOCK:   58.55 KCAL/MOL
REMARK 924 INTRA-LIGAND FREE ENERGY PREDICTED BY IDOCK:    5.50 KCAL/MOL
REMARK 927      BINDING AFFINITY PREDICTED BY RF-SCORE:    0.00 PKD
ROOT
HETATM    1  C   UNL     1     -13.256   7.283  67.026  1.00  0.00    15.003 C  
HETATM    2  C   UNL     1     -11.802   7.110  67.473  1.00  0.00     1.886 C  
HETATM    3  C   UNL     1     -11.660   7.586  68.922  1.00  0.00     0.830 C  
ENDROOT
BRANCH   2   4
HETATM    4  N   UNL     1     -11.423   5.703  67.456  1.00  0.00     0.387 NA 
HETATM    5  H   UNL     1     -11.577   5.182  68.318  1.00  0.00     0.000 HD 
BRANCH   4   6
HETATM    6  C   UNL     1     -10.873   4.991  66.390  1.00  0.00    -0.044 A  
HETATM    7  C   UNL     1     -10.279   5.478  65.193  1.00  0.00     0.900 A  
HETATM    8  N   UNL     1      -9.749   4.625  64.267  1.00  0.00     0.045 NA 
HETATM    9  C   UNL     1     -10.888   3.585  66.544  1.00  0.00     2.889 A  
HETATM   10  C   UNL     1     -10.368   2.729  65.581  1.00  0.00     1.357 A  
HETATM   11  C   UNL     1      -9.804   3.297  64.468  1.00  0.00    -0.145 A  
BRANCH   7  12
HETATM   12  N   UNL     1     -10.241   6.853  64.853  1.00  0.00     3.444 NA 
HETATM   13  C   UNL     1      -8.831   7.307  64.704  1.00  0.00     0.593 C  
HETATM   14  N   UNL     1      -9.528   9.649  65.063  1.00  0.00    -0.267 N  
HETATM   15  C   UNL     1      -8.821   8.736  64.157  1.00  0.00     0.123 C  
HETATM   16  C   UNL     1     -10.895   9.205  65.397  1.00  0.00     2.924 C  
HETATM   17  C   UNL     1      -8.776  10.622  65.716  1.00  0.00    -0.182 C  
HETATM   18  O   UNL     1      -7.544  10.580  65.695  1.00  0.00    -0.148 OA 
HETATM   19  C   UNL     1     -10.956   7.705  65.837  1.00  0.00     3.188 C  
BRANCH  17  20
HETATM   20  C   UNL     1      -9.421  11.734  66.386  1.00  0.00    -0.221 A  
HETATM   21  C   UNL     1      -9.984  12.920  65.952  1.00  0.00    -0.273 A  
HETATM   22  C   UNL     1     -10.305  13.717  67.090  1.00  0.00    -0.250 A  
HETATM   23  C   UNL     1      -9.920  12.996  68.217  1.00  0.00    -0.235 A  
HETATM   24  N   UNL     1      -9.414  11.802  67.766  1.00  0.00    -0.176 NA 
HETATM   25  C   UNL     1     -10.038  13.499  69.518  1.00  0.00     0.669 A  
HETATM   26  C   UNL     1     -10.583  14.779  69.671  1.00  0.00    -0.167 A  
HETATM   27  H   UNL     1      -9.074  11.057  68.374  1.00  0.00     0.000 HD 
HETATM   28  C   UNL     1     -11.009  15.507  68.563  1.00  0.00    -0.288 A  
HETATM   29  C   UNL     1     -10.857  15.002  67.265  1.00  0.00    -0.310 A  
BRANCH  28  30
HETATM   30  N   UNL     1     -11.604  16.789  68.761  1.00  0.00    -0.057 N  
HETATM   31  H   UNL     1     -11.196  17.627  68.347  1.00  0.00     0.000 HD 
BRANCH  30  32
HETATM   32  S   UNL     1     -13.006  16.875  69.703  1.00  0.00     6.240 S  
HETATM   33  O   UNL     1     -13.379  15.568  70.181  1.00  0.00    -0.103 OA 
HETATM   34  O   UNL     1     -12.778  17.976  70.618  1.00  0.00    10.608 OA 
HETATM   35  C   UNL     1     -14.194  17.425  68.499  1.00  0.00    10.331 C  
ENDBRANCH  30  32
ENDBRANCH  28  30
ENDBRANCH  17  20
ENDBRANCH   7  12
ENDBRANCH   4   6
ENDBRANCH   2   4
TORSDOF 6
ENDMDL
MODEL      166
REMARK 921   NORMALIZED FREE ENERGY PREDICTED BY IDOCK:   52.33 KCAL/MOL
REMARK 922        TOTAL FREE ENERGY PREDICTED BY IDOCK:   70.20 KCAL/MOL
REMARK 923 INTER-LIGAND FREE ENERGY PREDICTED BY IDOCK:   68.45 KCAL/MOL
REMARK 924 INTRA-LIGAND FREE ENERGY PREDICTED BY IDOCK:    1.75 KCAL/MOL
REMARK 927      BINDING AFFINITY PREDICTED BY RF-SCORE:    0.00 PKD
ROOT
HETATM    1  C   UNL     1     -10.435   6.313  74.475  1.00  0.00    -0.084 C  
HETATM    2  C   UNL     1     -10.758   5.900  73.037  1.00  0.00    -0.256 C  
HETATM    3  C   UNL     1     -11.972   6.695  72.544  1.00  0.00    -0.089 C  
ENDROOT
BRANCH   2   4
HETATM    4  N   UNL     1      -9.653   6.230  72.146  1.00  0.00    -0.151 NA 
HETATM    5  H   UNL     1      -9.296   7.183  72.201  1.00  0.00     0.000 HD 
BRANCH   4   6
HETATM    6  C   UNL     1      -9.031   5.386  71.226  1.00  0.00    -0.141 A  
HETATM    7  C   UNL     1      -8.283   5.717  70.063  1.00  0.00    -0.115 A  
HETATM    8  N   UNL     1      -7.703   4.749  69.294  1.00  0.00    -0.063 NA 
HETATM    9  C   UNL     1      -9.143   4.006  71.516  1.00  0.00    -0.174 A  
HETATM   10  C   UNL     1      -8.570   3.030  70.709  1.00  0.00    -0.116 A  
HETATM   11  C   UNL     1      -7.856   3.453  69.617  1.00  0.00    -0.050 A  
BRANCH   7  12
HETATM   12  N   UNL     1      -8.128   7.046  69.596  1.00  0.00    -0.127 NA 
HETATM   13  C   UNL     1      -6.686   7.409  69.542  1.00  0.00    -0.041 C  
HETATM   14  N   UNL     1      -7.268   9.808  69.600  1.00  0.00    -0.083 N  
HETATM   15  C   UNL     1      -6.538   8.771  68.862  1.00  0.00    -0.053 C  
HETATM   16  C   UNL     1      -8.686   9.472  69.840  1.00  0.00    -0.210 C  
HETATM   17  C   UNL     1      -6.523  10.803  70.225  1.00  0.00    -0.127 C  
HETATM   18  O   UNL     1      -5.299  10.696  70.330  1.00  0.00    -0.055 OA 
HETATM   19  C   UNL     1      -8.878   8.031  70.416  1.00  0.00    -0.141 C  
BRANCH  17  20
HETATM   20  C   UNL     1      -7.158  12.011  70.716  1.00  0.00     3.041 A  
HETATM   21  C   UNL     1      -8.423  12.305  71.187  1.00  0.00    11.226 A  
HETATM   22  C   UNL     1      -8.531  13.716  71.357  1.00  0.00     8.961 A  
HETATM   23  C   UNL     1      -7.313  14.270  70.975  1.00  0.00     2.033 A  
HETATM   24  N   UNL     1      -6.500  13.222  70.616  1.00  0.00    -0.418 NA 
HETATM   25  C   UNL     1      -7.074  15.649  70.962  1.00  0.00     1.891 A  
HETATM   26  C   UNL     1      -8.116  16.490  71.370  1.00  0.00     7.304 A  
HETATM   27  H   UNL     1      -5.532  13.325  70.313  1.00  0.00     0.000 HD 
HETATM   28  C   UNL     1      -9.332  15.962  71.791  1.00  0.00     5.549 A  
HETATM   29  C   UNL     1      -9.567  14.580  71.770  1.00  0.00     4.953 A  
BRANCH  28  30
HETATM   30  N   UNL     1     -10.355  16.848  72.246  1.00  0.00     4.344 N  
HETATM   31  H   UNL     1     -11.267  16.493  72.534  1.00  0.00     0.000 HD 
BRANCH  30  32
HETATM   32  S   UNL     1     -10.008  18.502  72.292  1.00  0.00     6.873 S  
HETATM   33  O   UNL     1      -9.989  19.054  70.961  1.00  0.00     1.905 OA 
HETATM   34  O   UNL     1     -10.877  19.041  73.320  1.00  0.00     1.560 OA 
HETATM   35  C   UNL     1      -8.356  18.487  72.949  1.00  0.00    11.302 C  
ENDBRANCH  30  32
ENDBRANCH  28  30
ENDBRANCH  17  20
ENDBRANCH   7  12
ENDBRANCH   4   6
ENDBRANCH   2   4
TORSDOF 6
ENDMDL
MODEL      167
REMARK 921   NORMALIZED FREE ENERGY PREDICTED BY IDOCK:   62.73 KCAL/MOL
REMARK 922        TOTAL FREE ENERGY PREDICTED BY IDOCK:   84.26 KCAL/MOL
REMARK 923 INTER-LIGAND FREE ENERGY PREDICTED BY IDOCK:   82.13 KCAL/MOL
REMARK 924 INTRA-LIGAND FREE ENERGY PREDICTED BY IDOCK:    2.12 KCAL/MOL
REMARK 927      BINDING AFFINITY PREDICTED BY RF-SCORE:    0.00 PKD
ROOT
HETATM    1  C   UNL     1     -13.424  16.736  67.654  1.00  0.00     7.004 C  
HETATM    2  C   UNL     1     -13.643  17.352  66.271  1.00  0.00    13.502 C  
HETATM    3  C   UNL     1     -13.188  18.815  66.292  1.00  0.00    11.907 C  
ENDROOT
BRANCH   2   4
HETATM    4  N   UNL     1     -12.827  16.675  65.271  1.00  0.00     3.843 NA 
HETATM    5  H   UNL     1     -13.211  15.815  64.881  1.00  0.00     0.000 HD 
BRANCH   4   6
HETATM    6  C   UNL     1     -11.580  17.074  64.791  1.00  0.00     0.960 A  
HETATM    7  C   UNL     1     -10.496  16.276  64.332  1.00  0.00     1.156 A  
HETATM    8  N   UNL     1      -9.351  16.846  63.852  1.00  0.00     7.534 NA 
HETATM    9  C   UNL     1     -11.386  18.473  64.730  1.00  0.00     2.864 A  
HETATM   10  C   UNL     1     -10.205  19.038  64.263  1.00  0.00     6.521 A  
HETATM   11  C   UNL     1      -9.224  18.184  63.830  1.00  0.00    14.497 A  
BRANCH   7  12
HETATM   12  N   UNL     1     -10.501  14.860  64.384  1.00  0.00     0.087 NA 
HETATM   13  C   UNL     1     -11.783  14.329  63.848  1.00  0.00    -0.031 C  
HETATM   14  N   UNL     1     -11.431  12.204  65.055  1.00  0.00    -0.331 N  
HETATM   15  C   UNL     1     -11.689  12.806  63.741  1.00  0.00    -0.493 C  
HETATM   16  C   UNL     1     -10.255  12.774  65.743  1.00  0.00    -0.289 C  
HETATM   17  C   UNL     1     -12.434  11.420  65.615  1.00  0.00     2.426 C  
HETATM   18  O   UNL     1     -13.566  11.408  65.126  1.00  0.00     3.576 OA 
HETATM   19  C   UNL     1     -10.259  14.338  65.753  1.00  0.00    -0.334 C  
BRANCH  17  20
HETATM   20  C   UNL     1     -12.159  10.559  66.750  1.00  0.00     3.003 A  
HETATM   21  C   UNL     1     -12.708  10.430  68.011  1.00  0.00     4.325 A  
HETATM   22  C   UNL     1     -11.903   9.533  68.771  1.00  0.00     0.956 A  
HETATM   23  C   UNL     1     -10.854   9.127  67.950  1.00  0.00    -0.083 A  
HETATM   24  N   UNL     1     -11.046   9.741  66.736  1.00  0.00     0.063 NA 
HETATM   25  C   UNL     1      -9.831   8.278  68.386  1.00  0.00    -0.187 A  
HETATM   26  C   UNL     1      -9.891   7.817  69.706  1.00  0.00    -0.178 A  
HETATM   27  H   UNL     1     -10.441   9.609  65.926  1.00  0.00     0.000 HD 
HETATM   28  C   UNL     1     -10.947   8.178  70.538  1.00  0.00    -0.243 A  
HETATM   29  C   UNL     1     -11.949   9.052  70.096  1.00  0.00     0.278 A  
BRANCH  28  30
HETATM   30  N   UNL     1     -11.001   7.649  71.863  1.00  0.00    -0.234 N  
HETATM   31  H   UNL     1     -11.892   7.415  72.299  1.00  0.00     0.000 HD 
BRANCH  30  32
HETATM   32  S   UNL     1      -9.541   7.424  72.687  1.00  0.00    -0.172 S  
HETATM   33  O   UNL     1      -9.782   7.139  74.078  1.00  0.00    -0.267 OA 
HETATM   34  O   UNL     1      -8.774   6.519  71.853  1.00  0.00    -0.130 OA 
HETATM   35  C   UNL     1      -8.808   9.037  72.531  1.00  0.00     0.604 C  
ENDBRANCH  30  32
ENDBRANCH  28  30
ENDBRANCH  17  20
ENDBRANCH   7  12
ENDBRANCH   4   6
ENDBRANCH   2   4
TORSDOF 6
ENDMDL
