MODEL        1
REMARK 921   NORMALIZED FREE ENERGY PREDICTED BY IDOCK:   -7.70 KCAL/MOL
REMARK 922        TOTAL FREE ENERGY PREDICTED BY IDOCK:  -12.33 KCAL/MOL
REMARK 923 INTER-LIGAND FREE ENERGY PREDICTED BY IDOCK:  -10.85 KCAL/MOL
REMARK 924 INTRA-LIGAND FREE ENERGY PREDICTED BY IDOCK:   -1.48 KCAL/MOL
REMARK 927      BINDING AFFINITY PREDICTED BY RF-SCORE:    0.00 PKD
ROOT
HETATM    1  C   UNL     1     -10.405   5.525  74.194  1.00  0.00    -0.302 C  
HETATM    2  C   UNL     1     -10.310   6.345  72.910  1.00  0.00    -0.208 C  
HETATM    3  C   UNL     1      -9.050   5.774  71.161  1.00  0.00    -0.146 A  
HETATM    4  C   UNL     1     -11.261   5.811  71.805  1.00  0.00    -0.211 C  
HETATM    5  N   UNL     1     -10.312   5.522  70.763  1.00  0.00    -0.236 NA 
HETATM    6  O   UNL     1      -9.142   4.270  67.046  1.00  0.00    -0.120 OA 
HETATM    7  C   UNL     1     -10.311   5.066  69.501  1.00  0.00    -0.161 A  
HETATM    8  O   UNL     1      -8.937   6.225  72.398  1.00  0.00    -0.139 OA 
HETATM    9  O   UNL     1      -7.127   4.721  67.820  1.00  0.00    -0.060 OA 
HETATM   10  C   UNL     1      -8.954   5.071  69.179  1.00  0.00    -0.100 A  
HETATM   11  N   UNL     1      -8.166   5.525  70.240  1.00  0.00    -0.101 NA 
HETATM   12  N   UNL     1      -8.359   4.659  67.927  1.00  0.00    -0.099 N  
ENDROOT
BRANCH   2  13
HETATM   13  C   UNL     1     -10.561   7.826  73.180  1.00  0.00    -0.352 C  
BRANCH  13  14
HETATM   14  O   UNL     1     -11.796   8.249  72.598  1.00  0.00    -0.401 OA 
BRANCH  14  15
HETATM   15  C   UNL     1     -11.653   9.247  71.673  1.00  0.00    -0.393 A  
HETATM   16  C   UNL     1     -11.292  11.141  69.566  1.00  0.00    -0.290 A  
HETATM   17  C   UNL     1     -12.590  10.243  71.439  1.00  0.00    -0.539 A  
HETATM   18  C   UNL     1     -10.486   9.247  70.924  1.00  0.00    -0.372 A  
HETATM   19  C   UNL     1     -12.408  11.163  70.408  1.00  0.00    -0.430 A  
HETATM   20  C   UNL     1     -10.312  10.186  69.894  1.00  0.00    -0.308 A  
BRANCH  16  21
HETATM   21  N   UNL     1     -11.158  12.046  68.525  1.00  0.00    -0.226 NA 
HETATM   22  C   UNL     1     -10.810  11.633  67.152  1.00  0.00    -0.261 C  
HETATM   23  C   UNL     1     -11.674  12.416  66.166  1.00  0.00    -0.460 C  
HETATM   24  C   UNL     1     -11.527  13.925  66.376  1.00  0.00    -0.344 C  
HETATM   25  C   UNL     1     -10.880  13.465  68.764  1.00  0.00    -0.246 C  
HETATM   26  C   UNL     1     -11.790  14.268  67.847  1.00  0.00    -0.393 C  
BRANCH  24  27
HETATM   27  O   UNL     1     -10.192  14.283  65.980  1.00  0.00    -0.291 OA 
BRANCH  27  28
HETATM   28  C   UNL     1      -9.862  15.608  66.046  1.00  0.00    -0.333 A  
HETATM   29  C   UNL     1     -10.729  16.659  65.768  1.00  0.00    -0.210 A  
HETATM   30  C   UNL     1     -10.290  17.976  65.881  1.00  0.00    -0.274 A  
HETATM   31  C   UNL     1      -8.985  18.270  66.264  1.00  0.00    -0.181 A  
HETATM   32  C   UNL     1      -8.108  17.219  66.528  1.00  0.00    -0.313 A  
HETATM   33  C   UNL     1      -8.555  15.891  66.444  1.00  0.00    -0.364 A  
BRANCH  31  34
HETATM   34  O   UNL     1      -8.688  19.591  66.243  1.00  0.00    -0.347 OA 
HETATM   35  C   UNL     1      -8.757  20.351  67.436  1.00  0.00    -0.320 C  
HETATM   36  F   UNL     1      -7.559  20.940  67.649  1.00  0.00    -0.346 F  
HETATM   37  F   UNL     1      -9.094  19.648  68.534  1.00  0.00    -0.374 F  
HETATM   38  F   UNL     1      -9.679  21.329  67.267  1.00  0.00    -0.599 F  
ENDBRANCH  31  34
ENDBRANCH  27  28
ENDBRANCH  24  27
ENDBRANCH  16  21
ENDBRANCH  14  15
ENDBRANCH  13  14
ENDBRANCH   2  13
TORSDOF 7
ENDMDL
MODEL        2
REMARK 921   NORMALIZED FREE ENERGY PREDICTED BY IDOCK:   -7.46 KCAL/MOL
REMARK 922        TOTAL FREE ENERGY PREDICTED BY IDOCK:  -12.00 KCAL/MOL
REMARK 923 INTER-LIGAND FREE ENERGY PREDICTED BY IDOCK:  -10.42 KCAL/MOL
REMARK 924 INTRA-LIGAND FREE ENERGY PREDICTED BY IDOCK:   -1.58 KCAL/MOL
REMARK 927      BINDING AFFINITY PREDICTED BY RF-SCORE:    0.00 PKD
ROOT
HETATM    1  C   UNL     1     -10.710  17.252  67.981  1.00  0.00    -0.367 C  
HETATM    2  C   UNL     1     -10.799  15.729  68.050  1.00  0.00    -0.309 C  
HETATM    3  C   UNL     1     -11.795  14.470  66.504  1.00  0.00    -0.352 A  
HETATM    4  C   UNL     1      -9.682  15.041  67.221  1.00  0.00    -0.220 C  
HETATM    5  N   UNL     1     -10.478  14.263  66.309  1.00  0.00    -0.285 NA 
HETATM    6  O   UNL     1     -11.103  11.624  63.244  1.00  0.00    -0.354 OA 
HETATM    7  C   UNL     1     -10.296  13.387  65.309  1.00  0.00    -0.319 A  
HETATM    8  O   UNL     1     -12.087  15.324  67.468  1.00  0.00    -0.033 OA 
HETATM    9  O   UNL     1     -13.225  12.052  63.662  1.00  0.00    -0.737 OA 
HETATM   10  C   UNL     1     -11.603  13.087  64.928  1.00  0.00    -0.326 A  
HETATM   11  N   UNL     1     -12.544  13.778  65.696  1.00  0.00    -0.510 NA 
HETATM   12  N   UNL     1     -12.013  12.190  63.870  1.00  0.00    -0.459 N  
ENDROOT
BRANCH   2  13
HETATM   13  C   UNL     1     -10.788  15.241  69.497  1.00  0.00    -0.271 C  
BRANCH  13  14
HETATM   14  O   UNL     1     -12.102  14.875  69.923  1.00  0.00    -0.305 OA 
BRANCH  14  15
HETATM   15  C   UNL     1     -12.212  13.564  70.297  1.00  0.00    -0.347 A  
HETATM   16  C   UNL     1     -12.179  10.808  71.047  1.00  0.00    -0.380 A  
HETATM   17  C   UNL     1     -12.898  13.120  71.419  1.00  0.00    -0.401 A  
HETATM   18  C   UNL     1     -11.588  12.625  69.489  1.00  0.00    -0.348 A  
HETATM   19  C   UNL     1     -12.875  11.774  71.780  1.00  0.00    -0.403 A  
HETATM   20  C   UNL     1     -11.582  11.271  69.860  1.00  0.00    -0.413 A  
BRANCH  16  21
HETATM   21  N   UNL     1     -12.145   9.484  71.453  1.00  0.00    -0.352 NA 
HETATM   22  C   UNL     1     -13.256   8.847  72.186  1.00  0.00    -0.429 C  
HETATM   23  C   UNL     1     -13.483   7.446  71.622  1.00  0.00    -0.437 C  
HETATM   24  C   UNL     1     -12.199   6.614  71.672  1.00  0.00    -0.352 C  
HETATM   25  C   UNL     1     -10.883   8.758  71.622  1.00  0.00    -0.329 C  
HETATM   26  C   UNL     1     -11.059   7.384  70.994  1.00  0.00    -0.277 C  
BRANCH  24  27
HETATM   27  O   UNL     1     -11.911   6.355  73.057  1.00  0.00     0.088 OA 
BRANCH  27  28
HETATM   28  C   UNL     1     -10.900   5.475  73.324  1.00  0.00    -0.293 A  
HETATM   29  C   UNL     1     -10.879   4.142  72.927  1.00  0.00    -0.207 A  
HETATM   30  C   UNL     1      -9.788   3.336  73.243  1.00  0.00    -0.168 A  
HETATM   31  C   UNL     1      -8.707   3.836  73.962  1.00  0.00    -0.089 A  
HETATM   32  C   UNL     1      -8.731   5.167  74.376  1.00  0.00    -0.112 A  
HETATM   33  C   UNL     1      -9.815   5.990  74.035  1.00  0.00    -0.215 A  
BRANCH  31  34
HETATM   34  O   UNL     1      -7.768   2.908  74.264  1.00  0.00    -0.060 OA 
HETATM   35  C   UNL     1      -6.628   2.760  73.436  1.00  0.00    -0.022 C  
HETATM   36  F   UNL     1      -5.518   2.912  74.193  1.00  0.00     0.000 F  
HETATM   37  F   UNL     1      -6.566   3.619  72.401  1.00  0.00    -0.015 F  
HETATM   38  F   UNL     1      -6.622   1.501  72.936  1.00  0.00    -0.012 F  
ENDBRANCH  31  34
ENDBRANCH  27  28
ENDBRANCH  24  27
ENDBRANCH  16  21
ENDBRANCH  14  15
ENDBRANCH  13  14
ENDBRANCH   2  13
TORSDOF 7
ENDMDL
MODEL        3
REMARK 921   NORMALIZED FREE ENERGY PREDICTED BY IDOCK:   -7.43 KCAL/MOL
REMARK 922        TOTAL FREE ENERGY PREDICTED BY IDOCK:  -11.96 KCAL/MOL
REMARK 923 INTER-LIGAND FREE ENERGY PREDICTED BY IDOCK:  -10.31 KCAL/MOL
REMARK 924 INTRA-LIGAND FREE ENERGY PREDICTED BY IDOCK:   -1.64 KCAL/MOL
REMARK 927      BINDING AFFINITY PREDICTED BY RF-SCORE:    0.00 PKD
ROOT
HETATM    1  C   UNL     1     -11.465   4.780  73.192  1.00  0.00    -0.348 C  
HETATM    2  C   UNL     1     -10.995   6.090  72.565  1.00  0.00    -0.260 C  
HETATM    3  C   UNL     1      -9.288   7.297  73.338  1.00  0.00    -0.197 A  
HETATM    4  C   UNL     1      -9.799   5.877  71.597  1.00  0.00    -0.165 C  
HETATM    5  N   UNL     1      -8.815   6.728  72.211  1.00  0.00    -0.132 NA 
HETATM    6  O   UNL     1      -5.155   8.527  72.557  1.00  0.00    -0.036 OA 
HETATM    7  C   UNL     1      -7.551   7.123  71.996  1.00  0.00    -0.090 A  
HETATM    8  O   UNL     1     -10.529   6.969  73.647  1.00  0.00    -0.337 OA 
HETATM    9  O   UNL     1      -6.046   9.389  74.379  1.00  0.00    -0.328 OA 
HETATM   10  C   UNL     1      -7.311   7.972  73.076  1.00  0.00    -0.110 A  
HETATM   11  N   UNL     1      -8.421   8.075  73.917  1.00  0.00    -0.255 NA 
HETATM   12  N   UNL     1      -6.085   8.684  73.363  1.00  0.00    -0.109 N  
ENDROOT
BRANCH   2  13
HETATM   13  C   UNL     1     -12.145   6.811  71.865  1.00  0.00    -0.334 C  
BRANCH  13  14
HETATM   14  O   UNL     1     -12.250   8.163  72.316  1.00  0.00    -0.336 OA 
BRANCH  14  15
HETATM   15  C   UNL     1     -12.058   9.087  71.327  1.00  0.00    -0.314 A  
HETATM   16  C   UNL     1     -11.673  11.205  69.449  1.00  0.00    -0.332 A  
HETATM   17  C   UNL     1     -11.045   9.029  70.380  1.00  0.00    -0.279 A  
HETATM   18  C   UNL     1     -12.944  10.154  71.281  1.00  0.00    -0.510 A  
HETATM   19  C   UNL     1     -10.862  10.067  69.469  1.00  0.00    -0.283 A  
HETATM   20  C   UNL     1     -12.753  11.188  70.351  1.00  0.00    -0.247 A  
BRANCH  16  21
HETATM   21  N   UNL     1     -11.441  12.238  68.555  1.00  0.00    -0.277 NA 
HETATM   22  C   UNL     1     -11.471  12.045  67.092  1.00  0.00    -0.335 C  
HETATM   23  C   UNL     1     -12.204  13.223  66.452  1.00  0.00    -0.419 C  
HETATM   24  C   UNL     1     -11.565  14.556  66.853  1.00  0.00    -0.385 C  
HETATM   25  C   UNL     1     -10.704  13.445  68.939  1.00  0.00    -0.190 C  
HETATM   26  C   UNL     1     -11.461  14.639  68.380  1.00  0.00    -0.335 C  
BRANCH  24  27
HETATM   27  O   UNL     1     -10.270  14.614  66.230  1.00  0.00    -0.273 OA 
BRANCH  27  28
HETATM   28  C   UNL     1      -9.566  15.776  66.374  1.00  0.00    -0.285 A  
HETATM   29  C   UNL     1     -10.080  17.050  66.158  1.00  0.00    -0.332 A  
HETATM   30  C   UNL     1      -9.275  18.171  66.349  1.00  0.00    -0.267 A  
HETATM   31  C   UNL     1      -7.948  18.044  66.748  1.00  0.00    -0.237 A  
HETATM   32  C   UNL     1      -7.424  16.768  66.950  1.00  0.00    -0.257 A  
HETATM   33  C   UNL     1      -8.240  15.638  66.787  1.00  0.00    -0.300 A  
BRANCH  31  34
HETATM   34  O   UNL     1      -7.275  19.217  66.804  1.00  0.00    -0.205 OA 
HETATM   35  C   UNL     1      -7.361  20.028  67.964  1.00  0.00    -0.291 C  
HETATM   36  F   UNL     1      -6.113  20.251  68.433  1.00  0.00    -0.264 F  
HETATM   37  F   UNL     1      -8.110  19.513  68.957  1.00  0.00    -0.382 F  
HETATM   38  F   UNL     1      -7.895  21.222  67.613  1.00  0.00    -0.280 F  
ENDBRANCH  31  34
ENDBRANCH  27  28
ENDBRANCH  24  27
ENDBRANCH  16  21
ENDBRANCH  14  15
ENDBRANCH  13  14
ENDBRANCH   2  13
TORSDOF 7
ENDMDL
MODEL        4
REMARK 921   NORMALIZED FREE ENERGY PREDICTED BY IDOCK:   -7.25 KCAL/MOL
REMARK 922        TOTAL FREE ENERGY PREDICTED BY IDOCK:  -11.70 KCAL/MOL
REMARK 923 INTER-LIGAND FREE ENERGY PREDICTED BY IDOCK:   -9.98 KCAL/MOL
REMARK 924 INTRA-LIGAND FREE ENERGY PREDICTED BY IDOCK:   -1.72 KCAL/MOL
REMARK 927      BINDING AFFINITY PREDICTED BY RF-SCORE:    0.00 PKD
ROOT
HETATM    1  C   UNL     1      -7.707   4.771  71.931  1.00  0.00    -0.098 C  
HETATM    2  C   UNL     1      -8.428   5.718  70.975  1.00  0.00    -0.123 C  
HETATM    3  C   UNL     1     -10.580   6.269  71.159  1.00  0.00    -0.239 A  
HETATM    4  C   UNL     1      -8.492   7.168  71.528  1.00  0.00    -0.115 C  
HETATM    5  N   UNL     1      -9.916   7.371  71.557  1.00  0.00    -0.181 NA 
HETATM    6  O   UNL     1     -13.353   9.494  72.215  1.00  0.00    -0.438 OA 
HETATM    7  C   UNL     1     -10.787   8.342  71.871  1.00  0.00    -0.283 A  
HETATM    8  O   UNL     1      -9.812   5.246  70.829  1.00  0.00    -0.173 OA 
HETATM    9  O   UNL     1     -14.318   7.628  71.547  1.00  0.00    -0.433 OA 
HETATM   10  C   UNL     1     -12.018   7.734  71.625  1.00  0.00    -0.297 A  
HETATM   11  N   UNL     1     -11.872   6.421  71.171  1.00  0.00    -0.316 NA 
HETATM   12  N   UNL     1     -13.327   8.322  71.807  1.00  0.00    -0.345 N  
ENDROOT
BRANCH   2  13
HETATM   13  C   UNL     1      -7.794   5.689  69.586  1.00  0.00    -0.091 C  
BRANCH  13  14
HETATM   14  O   UNL     1      -8.797   5.655  68.568  1.00  0.00    -0.109 OA 
BRANCH  14  15
HETATM   15  C   UNL     1      -9.003   6.863  67.962  1.00  0.00    -0.121 A  
HETATM   16  C   UNL     1      -9.604   9.443  66.891  1.00  0.00    -0.164 A  
HETATM   17  C   UNL     1      -7.993   7.716  67.540  1.00  0.00    -0.120 A  
HETATM   18  C   UNL     1     -10.321   7.250  67.763  1.00  0.00    -0.267 A  
HETATM   19  C   UNL     1      -8.293   8.974  67.021  1.00  0.00    -0.116 A  
HETATM   20  C   UNL     1     -10.609   8.517  67.229  1.00  0.00    -0.315 A  
BRANCH  16  21
HETATM   21  N   UNL     1      -9.869  10.714  66.406  1.00  0.00    -0.203 NA 
HETATM   22  C   UNL     1      -9.946  11.014  64.964  1.00  0.00    -0.285 C  
HETATM   23  C   UNL     1     -11.130  11.947  64.716  1.00  0.00    -0.367 C  
HETATM   24  C   UNL     1     -11.027  13.213  65.572  1.00  0.00    -0.277 C  
HETATM   25  C   UNL     1      -9.627  11.915  67.211  1.00  0.00    -0.177 C  
HETATM   26  C   UNL     1     -10.833  12.826  67.043  1.00  0.00    -0.282 C  
BRANCH  24  27
HETATM   27  O   UNL     1      -9.914  13.975  65.074  1.00  0.00    -0.323 OA 
BRANCH  27  28
HETATM   28  C   UNL     1      -9.725  15.217  65.612  1.00  0.00    -0.316 A  
HETATM   29  C   UNL     1      -8.625  15.594  66.376  1.00  0.00    -0.319 A  
HETATM   30  C   UNL     1      -8.526  16.895  66.866  1.00  0.00    -0.243 A  
HETATM   31  C   UNL     1      -9.519  17.836  66.612  1.00  0.00    -0.292 A  
HETATM   32  C   UNL     1     -10.631  17.458  65.860  1.00  0.00    -0.201 A  
HETATM   33  C   UNL     1     -10.719  16.158  65.341  1.00  0.00    -0.374 A  
BRANCH  31  34
HETATM   34  O   UNL     1      -9.321  19.026  67.228  1.00  0.00    -0.297 OA 
HETATM   35  C   UNL     1      -9.646  19.176  68.599  1.00  0.00    -0.413 C  
HETATM   36  F   UNL     1      -8.547  19.599  69.263  1.00  0.00    -0.371 F  
HETATM   37  F   UNL     1     -10.108  18.061  69.195  1.00  0.00    -0.355 F  
HETATM   38  F   UNL     1     -10.596  20.135  68.711  1.00  0.00    -0.536 F  
ENDBRANCH  31  34
ENDBRANCH  27  28
ENDBRANCH  24  27
ENDBRANCH  16  21
ENDBRANCH  14  15
ENDBRANCH  13  14
ENDBRANCH   2  13
TORSDOF 7
ENDMDL
MODEL        5
REMARK 921   NORMALIZED FREE ENERGY PREDICTED BY IDOCK:   -7.24 KCAL/MOL
REMARK 922        TOTAL FREE ENERGY PREDICTED BY IDOCK:  -11.69 KCAL/MOL
REMARK 923 INTER-LIGAND FREE ENERGY PREDICTED BY IDOCK:  -10.05 KCAL/MOL
REMARK 924 INTRA-LIGAND FREE ENERGY PREDICTED BY IDOCK:   -1.64 KCAL/MOL
REMARK 927      BINDING AFFINITY PREDICTED BY RF-SCORE:    0.00 PKD
ROOT
HETATM    1  C   UNL     1      -9.432   3.970  67.126  1.00  0.00    -0.224 C  
HETATM    2  C   UNL     1      -9.483   5.431  67.565  1.00  0.00    -0.121 C  
HETATM    3  C   UNL     1     -10.896   6.221  69.098  1.00  0.00    -0.340 A  
HETATM    4  C   UNL     1      -8.669   5.680  68.865  1.00  0.00    -0.107 C  
HETATM    5  N   UNL     1      -9.701   6.202  69.720  1.00  0.00    -0.155 NA 
HETATM    6  O   UNL     1     -11.218   7.748  73.193  1.00  0.00    -0.402 OA 
HETATM    7  C   UNL     1      -9.829   6.676  70.969  1.00  0.00    -0.182 A  
HETATM    8  O   UNL     1     -10.884   5.768  67.857  1.00  0.00    -0.248 OA 
HETATM    9  O   UNL     1     -13.112   7.724  72.064  1.00  0.00    -0.285 OA 
HETATM   10  C   UNL     1     -11.187   6.982  71.039  1.00  0.00    -0.274 A  
HETATM   11  N   UNL     1     -11.851   6.691  69.845  1.00  0.00    -0.284 NA 
HETATM   12  N   UNL     1     -11.896   7.524  72.178  1.00  0.00    -0.295 N  
ENDROOT
BRANCH   2  13
HETATM   13  C   UNL     1      -9.022   6.361  66.445  1.00  0.00    -0.153 C  
BRANCH  13  14
HETATM   14  O   UNL     1      -8.182   7.398  66.955  1.00  0.00    -0.117 OA 
BRANCH  14  15
HETATM   15  C   UNL     1      -8.764   8.635  66.935  1.00  0.00    -0.124 A  
HETATM   16  C   UNL     1      -9.741  11.320  66.943  1.00  0.00    -0.192 A  
HETATM   17  C   UNL     1      -9.603   9.094  65.929  1.00  0.00    -0.343 A  
HETATM   18  C   UNL     1      -8.486   9.479  68.000  1.00  0.00    -0.119 A  
HETATM   19  C   UNL     1     -10.075  10.406  65.939  1.00  0.00    -0.326 A  
HETATM   20  C   UNL     1      -8.975  10.796  68.001  1.00  0.00    -0.139 A  
BRANCH  16  21
HETATM   21  N   UNL     1     -10.195  12.629  66.904  1.00  0.00    -0.233 NA 
HETATM   22  C   UNL     1      -9.282  13.787  66.928  1.00  0.00    -0.255 C  
HETATM   23  C   UNL     1      -9.774  14.825  65.920  1.00  0.00    -0.355 C  
HETATM   24  C   UNL     1     -11.227  15.220  66.196  1.00  0.00    -0.225 C  
HETATM   25  C   UNL     1     -11.557  12.988  67.308  1.00  0.00    -0.356 C  
HETATM   26  C   UNL     1     -12.098  13.961  66.272  1.00  0.00    -0.484 C  
BRANCH  24  27
HETATM   27  O   UNL     1     -11.244  15.951  67.435  1.00  0.00    -0.259 OA 
BRANCH  27  28
HETATM   28  C   UNL     1     -10.550  17.128  67.468  1.00  0.00    -0.323 A  
HETATM   29  C   UNL     1     -10.498  18.050  66.428  1.00  0.00    -0.345 A  
HETATM   30  C   UNL     1      -9.770  19.229  66.574  1.00  0.00    -0.432 A  
HETATM   31  C   UNL     1      -9.077  19.505  67.748  1.00  0.00    -0.320 A  
HETATM   32  C   UNL     1      -9.112  18.575  68.787  1.00  0.00    -0.283 A  
HETATM   33  C   UNL     1      -9.869  17.402  68.654  1.00  0.00    -0.322 A  
BRANCH  31  34
HETATM   34  O   UNL     1      -8.347  20.645  67.703  1.00  0.00    -0.241 OA 
HETATM   35  C   UNL     1      -6.951  20.584  67.467  1.00  0.00    -0.325 C  
HETATM   36  F   UNL     1      -6.658  21.345  66.389  1.00  0.00    -0.330 F  
HETATM   37  F   UNL     1      -6.467  19.344  67.266  1.00  0.00    -0.190 F  
HETATM   38  F   UNL     1      -6.313  21.114  68.538  1.00  0.00    -0.344 F  
ENDBRANCH  31  34
ENDBRANCH  27  28
ENDBRANCH  24  27
ENDBRANCH  16  21
ENDBRANCH  14  15
ENDBRANCH  13  14
ENDBRANCH   2  13
TORSDOF 7
ENDMDL
MODEL        6
REMARK 921   NORMALIZED FREE ENERGY PREDICTED BY IDOCK:   -7.22 KCAL/MOL
REMARK 922        TOTAL FREE ENERGY PREDICTED BY IDOCK:  -11.66 KCAL/MOL
REMARK 923 INTER-LIGAND FREE ENERGY PREDICTED BY IDOCK:  -10.14 KCAL/MOL
REMARK 924 INTRA-LIGAND FREE ENERGY PREDICTED BY IDOCK:   -1.52 KCAL/MOL
REMARK 927      BINDING AFFINITY PREDICTED BY RF-SCORE:    0.00 PKD
ROOT
HETATM    1  C   UNL     1     -11.023  17.080  64.987  1.00  0.00     0.010 C  
HETATM    2  C   UNL     1     -10.140  16.650  66.156  1.00  0.00    -0.345 C  
HETATM    3  C   UNL     1      -8.303  17.740  66.793  1.00  0.00    -0.248 A  
HETATM    4  C   UNL     1     -10.483  17.418  67.461  1.00  0.00    -0.354 C  
HETATM    5  N   UNL     1      -9.212  18.028  67.744  1.00  0.00    -0.259 NA 
HETATM    6  O   UNL     1      -6.583  20.307  69.900  1.00  0.00    -0.300 OA 
HETATM    7  C   UNL     1      -8.658  18.812  68.682  1.00  0.00    -0.323 A  
HETATM    8  O   UNL     1      -8.747  16.973  65.813  1.00  0.00    -0.522 OA 
HETATM    9  O   UNL     1      -5.193  19.763  68.278  1.00  0.00    -0.186 OA 
HETATM   10  C   UNL     1      -7.352  18.963  68.218  1.00  0.00    -0.278 A  
HETATM   11  N   UNL     1      -7.139  18.276  67.021  1.00  0.00    -0.193 NA 
HETATM   12  N   UNL     1      -6.295  19.732  68.839  1.00  0.00    -0.281 N  
ENDROOT
BRANCH   2  13
HETATM   13  C   UNL     1     -10.209  15.140  66.374  1.00  0.00    -0.281 C  
BRANCH  13  14
HETATM   14  O   UNL     1     -11.563  14.709  66.533  1.00  0.00    -0.361 OA 
BRANCH  14  15
HETATM   15  C   UNL     1     -11.716  13.714  67.458  1.00  0.00    -0.371 A  
HETATM   16  C   UNL     1     -11.810  11.531  69.299  1.00  0.00    -0.348 A  
HETATM   17  C   UNL     1     -11.978  13.924  68.805  1.00  0.00    -0.393 A  
HETATM   18  C   UNL     1     -11.596  12.408  67.004  1.00  0.00    -0.434 A  
HETATM   19  C   UNL     1     -12.020  12.854  69.697  1.00  0.00    -0.358 A  
HETATM   20  C   UNL     1     -11.650  11.340  67.913  1.00  0.00    -0.330 A  
BRANCH  16  21
HETATM   21  N   UNL     1     -11.821  10.493  70.217  1.00  0.00    -0.303 NA 
HETATM   22  C   UNL     1     -12.713  10.480  71.392  1.00  0.00    -0.442 C  
HETATM   23  C   UNL     1     -13.288   9.075  71.561  1.00  0.00    -0.394 C  
HETATM   24  C   UNL     1     -12.176   8.028  71.660  1.00  0.00    -0.307 C  
HETATM   25  C   UNL     1     -10.677   9.591  70.379  1.00  0.00    -0.284 C  
HETATM   26  C   UNL     1     -11.222   8.174  70.468  1.00  0.00    -0.249 C  
BRANCH  24  27
HETATM   27  O   UNL     1     -11.497   8.244  72.910  1.00  0.00    -0.347 OA 
BRANCH  27  28
HETATM   28  C   UNL     1     -10.596   7.292  73.297  1.00  0.00    -0.382 A  
HETATM   29  C   UNL     1     -10.883   5.939  73.448  1.00  0.00    -0.275 A  
HETATM   30  C   UNL     1      -9.883   5.050  73.835  1.00  0.00    -0.172 A  
HETATM   31  C   UNL     1      -8.587   5.490  74.085  1.00  0.00    -0.116 A  
HETATM   32  C   UNL     1      -8.298   6.848  73.950  1.00  0.00    -0.152 A  
HETATM   33  C   UNL     1      -9.297   7.741  73.532  1.00  0.00    -0.351 A  
BRANCH  31  34
HETATM   34  O   UNL     1      -7.753   4.523  74.535  1.00  0.00    -0.080 OA 
HETATM   35  C   UNL     1      -7.016   3.738  73.614  1.00  0.00    -0.047 C  
HETATM   36  F   UNL     1      -5.701   3.841  73.907  1.00  0.00    -0.003 F  
HETATM   37  F   UNL     1      -7.198   4.068  72.321  1.00  0.00    -0.048 F  
HETATM   38  F   UNL     1      -7.378   2.442  73.770  1.00  0.00    -0.033 F  
ENDBRANCH  31  34
ENDBRANCH  27  28
ENDBRANCH  24  27
ENDBRANCH  16  21
ENDBRANCH  14  15
ENDBRANCH  13  14
ENDBRANCH   2  13
TORSDOF 7
ENDMDL
MODEL        7
REMARK 921   NORMALIZED FREE ENERGY PREDICTED BY IDOCK:   -7.16 KCAL/MOL
REMARK 922        TOTAL FREE ENERGY PREDICTED BY IDOCK:  -11.57 KCAL/MOL
REMARK 923 INTER-LIGAND FREE ENERGY PREDICTED BY IDOCK:  -10.18 KCAL/MOL
REMARK 924 INTRA-LIGAND FREE ENERGY PREDICTED BY IDOCK:   -1.38 KCAL/MOL
REMARK 927      BINDING AFFINITY PREDICTED BY RF-SCORE:    0.00 PKD
ROOT
HETATM    1  C   UNL     1      -9.231   8.541  72.234  1.00  0.00    -0.343 C  
HETATM    2  C   UNL     1     -10.458   7.681  72.527  1.00  0.00    -0.268 C  
HETATM    3  C   UNL     1     -10.510   5.466  72.289  1.00  0.00    -0.219 A  
HETATM    4  C   UNL     1     -10.409   7.059  73.949  1.00  0.00    -0.348 C  
HETATM    5  N   UNL     1     -10.478   5.660  73.622  1.00  0.00    -0.245 NA 
HETATM    6  O   UNL     1     -10.620   1.654  74.450  1.00  0.00    -0.115 OA 
HETATM    7  C   UNL     1     -10.515   4.479  74.257  1.00  0.00    -0.270 A  
HETATM    8  O   UNL     1     -10.472   6.570  71.565  1.00  0.00    -0.210 OA 
HETATM    9  O   UNL     1     -10.664   1.473  72.253  1.00  0.00    -0.157 OA 
HETATM   10  C   UNL     1     -10.576   3.569  73.202  1.00  0.00    -0.179 A  
HETATM   11  N   UNL     1     -10.575   4.209  71.960  1.00  0.00     0.006 NA 
HETATM   12  N   UNL     1     -10.624   2.127  73.302  1.00  0.00    -0.129 N  
ENDROOT
BRANCH   2  13
HETATM   13  C   UNL     1     -11.748   8.471  72.319  1.00  0.00    -0.373 C  
BRANCH  13  14
HETATM   14  O   UNL     1     -12.068   8.570  70.929  1.00  0.00    -0.253 OA 
BRANCH  14  15
HETATM   15  C   UNL     1     -11.786   9.793  70.387  1.00  0.00    -0.231 A  
HETATM   16  C   UNL     1     -11.249  12.242  69.018  1.00  0.00    -0.265 A  
HETATM   17  C   UNL     1     -12.317  10.994  70.835  1.00  0.00    -0.503 A  
HETATM   18  C   UNL     1     -10.907   9.818  69.314  1.00  0.00    -0.240 A  
HETATM   19  C   UNL     1     -12.052  12.185  70.160  1.00  0.00    -0.368 A  
HETATM   20  C   UNL     1     -10.642  11.027  68.650  1.00  0.00    -0.225 A  
BRANCH  16  21
HETATM   21  N   UNL     1     -11.035  13.436  68.347  1.00  0.00    -0.256 NA 
HETATM   22  C   UNL     1     -10.010  14.411  68.766  1.00  0.00    -0.223 C  
HETATM   23  C   UNL     1      -9.296  14.942  67.524  1.00  0.00    -0.193 C  
HETATM   24  C   UNL     1     -10.292  15.536  66.524  1.00  0.00    -0.288 C  
HETATM   25  C   UNL     1     -12.067  14.045  67.503  1.00  0.00    -0.326 C  
HETATM   26  C   UNL     1     -11.392  14.511  66.222  1.00  0.00    -0.352 C  
BRANCH  24  27
HETATM   27  O   UNL     1     -10.831  16.731  67.115  1.00  0.00    -0.236 OA 
BRANCH  27  28
HETATM   28  C   UNL     1      -9.959  17.760  67.331  1.00  0.00    -0.323 A  
HETATM   29  C   UNL     1      -9.876  18.499  68.507  1.00  0.00    -0.414 A  
HETATM   30  C   UNL     1      -8.938  19.522  68.626  1.00  0.00    -0.386 A  
HETATM   31  C   UNL     1      -8.075  19.832  67.580  1.00  0.00    -0.302 A  
HETATM   32  C   UNL     1      -8.165  19.104  66.393  1.00  0.00    -0.323 A  
HETATM   33  C   UNL     1      -9.089  18.055  66.281  1.00  0.00    -0.197 A  
BRANCH  31  34
HETATM   34  O   UNL     1      -7.283  20.905  67.817  1.00  0.00    -0.284 OA 
HETATM   35  C   UNL     1      -5.936  20.716  68.215  1.00  0.00    -0.321 C  
HETATM   36  F   UNL     1      -5.130  21.366  67.346  1.00  0.00    -0.238 F  
HETATM   37  F   UNL     1      -5.544  19.430  68.289  1.00  0.00    -0.191 F  
HETATM   38  F   UNL     1      -5.769  21.276  69.437  1.00  0.00    -0.394 F  
ENDBRANCH  31  34
ENDBRANCH  27  28
ENDBRANCH  24  27
ENDBRANCH  16  21
ENDBRANCH  14  15
ENDBRANCH  13  14
ENDBRANCH   2  13
TORSDOF 7
ENDMDL
MODEL        8
REMARK 921   NORMALIZED FREE ENERGY PREDICTED BY IDOCK:   -7.12 KCAL/MOL
REMARK 922        TOTAL FREE ENERGY PREDICTED BY IDOCK:  -11.52 KCAL/MOL
REMARK 923 INTER-LIGAND FREE ENERGY PREDICTED BY IDOCK:   -9.75 KCAL/MOL
REMARK 924 INTRA-LIGAND FREE ENERGY PREDICTED BY IDOCK:   -1.77 KCAL/MOL
REMARK 927      BINDING AFFINITY PREDICTED BY RF-SCORE:    0.00 PKD
ROOT
HETATM    1  C   UNL     1     -11.369   5.608  72.745  1.00  0.00    -0.350 C  
HETATM    2  C   UNL     1     -11.277   6.763  71.750  1.00  0.00    -0.259 C  
HETATM    3  C   UNL     1      -9.675   6.956  70.213  1.00  0.00    -0.172 A  
HETATM    4  C   UNL     1     -11.904   6.401  70.376  1.00  0.00    -0.234 C  
HETATM    5  N   UNL     1     -10.770   6.601  69.514  1.00  0.00    -0.238 NA 
HETATM    6  O   UNL     1      -8.803   6.698  65.926  1.00  0.00    -0.154 OA 
HETATM    7  C   UNL     1     -10.476   6.532  68.206  1.00  0.00    -0.219 A  
HETATM    8  O   UNL     1      -9.854   7.049  71.519  1.00  0.00    -0.173 OA 
HETATM    9  O   UNL     1      -7.086   7.271  67.185  1.00  0.00    -0.082 OA 
HETATM   10  C   UNL     1      -9.125   6.877  68.182  1.00  0.00    -0.124 A  
HETATM   11  N   UNL     1      -8.631   7.147  69.461  1.00  0.00    -0.134 NA 
HETATM   12  N   UNL     1      -8.271   6.957  67.017  1.00  0.00    -0.119 N  
ENDROOT
BRANCH   2  13
HETATM   13  C   UNL     1     -11.903   8.034  72.321  1.00  0.00    -0.369 C  
BRANCH  13  14
HETATM   14  O   UNL     1     -12.770   8.649  71.365  1.00  0.00    -0.312 OA 
BRANCH  14  15
HETATM   15  C   UNL     1     -12.415   9.931  71.049  1.00  0.00    -0.346 A  
HETATM   16  C   UNL     1     -11.698  12.541  70.133  1.00  0.00    -0.175 A  
HETATM   17  C   UNL     1     -12.984  11.067  71.608  1.00  0.00    -0.561 A  
HETATM   18  C   UNL     1     -11.415  10.091  70.100  1.00  0.00    -0.344 A  
HETATM   19  C   UNL     1     -12.631  12.337  71.154  1.00  0.00    -0.353 A  
HETATM   20  C   UNL     1     -11.063  11.377  69.660  1.00  0.00    -0.241 A  
BRANCH  16  21
HETATM   21  N   UNL     1     -11.396  13.814  69.678  1.00  0.00    -0.218 NA 
HETATM   22  C   UNL     1     -10.195  14.107  68.873  1.00  0.00    -0.175 C  
HETATM   23  C   UNL     1     -10.575  15.067  67.747  1.00  0.00    -0.264 C  
HETATM   24  C   UNL     1     -11.232  16.335  68.298  1.00  0.00    -0.324 C  
HETATM   25  C   UNL     1     -11.939  15.014  70.320  1.00  0.00    -0.315 C  
HETATM   26  C   UNL     1     -12.400  15.953  69.215  1.00  0.00     0.085 C  
BRANCH  24  27
HETATM   27  O   UNL     1     -10.219  17.067  69.008  1.00  0.00    -0.290 OA 
BRANCH  27  28
HETATM   28  C   UNL     1      -9.528  18.011  68.302  1.00  0.00    -0.302 A  
HETATM   29  C   UNL     1     -10.062  18.789  67.280  1.00  0.00    -0.401 A  
HETATM   30  C   UNL     1      -9.270  19.735  66.633  1.00  0.00    -0.467 A  
HETATM   31  C   UNL     1      -7.937  19.917  66.985  1.00  0.00    -0.301 A  
HETATM   32  C   UNL     1      -7.392  19.129  67.999  1.00  0.00    -0.287 A  
HETATM   33  C   UNL     1      -8.196  18.196  68.672  1.00  0.00    -0.295 A  
BRANCH  31  34
HETATM   34  O   UNL     1      -7.278  20.810  66.208  1.00  0.00    -0.167 OA 
HETATM   35  C   UNL     1      -6.432  20.353  65.166  1.00  0.00    -0.284 C  
HETATM   36  F   UNL     1      -6.839  20.904  64.002  1.00  0.00    -0.314 F  
HETATM   37  F   UNL     1      -6.391  19.015  65.020  1.00  0.00    -0.279 F  
HETATM   38  F   UNL     1      -5.174  20.786  65.416  1.00  0.00    -0.194 F  
ENDBRANCH  31  34
ENDBRANCH  27  28
ENDBRANCH  24  27
ENDBRANCH  16  21
ENDBRANCH  14  15
ENDBRANCH  13  14
ENDBRANCH   2  13
TORSDOF 7
ENDMDL
MODEL        9
REMARK 921   NORMALIZED FREE ENERGY PREDICTED BY IDOCK:   -7.08 KCAL/MOL
REMARK 922        TOTAL FREE ENERGY PREDICTED BY IDOCK:  -11.45 KCAL/MOL
REMARK 923 INTER-LIGAND FREE ENERGY PREDICTED BY IDOCK:  -10.12 KCAL/MOL
REMARK 924 INTRA-LIGAND FREE ENERGY PREDICTED BY IDOCK:   -1.33 KCAL/MOL
REMARK 927      BINDING AFFINITY PREDICTED BY RF-SCORE:    0.00 PKD
ROOT
HETATM    1  C   UNL     1     -11.182  16.838  64.726  1.00  0.00     0.035 C  
HETATM    2  C   UNL     1     -10.409  16.404  65.969  1.00  0.00    -0.352 C  
HETATM    3  C   UNL     1      -8.526  17.374  66.665  1.00  0.00    -0.261 A  
HETATM    4  C   UNL     1     -10.762  17.271  67.208  1.00  0.00    -0.215 C  
HETATM    5  N   UNL     1      -9.462  17.790  67.540  1.00  0.00    -0.255 NA 
HETATM    6  O   UNL     1      -6.780  19.964  69.738  1.00  0.00    -0.348 OA 
HETATM    7  C   UNL     1      -8.900  18.578  68.470  1.00  0.00    -0.326 A  
HETATM    8  O   UNL     1      -8.976  16.592  65.700  1.00  0.00    -0.449 OA 
HETATM    9  O   UNL     1      -5.348  19.216  68.238  1.00  0.00    -0.182 OA 
HETATM   10  C   UNL     1      -7.561  18.594  68.083  1.00  0.00    -0.271 A  
HETATM   11  N   UNL     1      -7.337  17.824  66.939  1.00  0.00    -0.189 NA 
HETATM   12  N   UNL     1      -6.480  19.307  68.729  1.00  0.00    -0.248 N  
ENDROOT
BRANCH   2  13
HETATM   13  C   UNL     1     -10.620  14.920  66.260  1.00  0.00    -0.308 C  
BRANCH  13  14
HETATM   14  O   UNL     1     -11.779  14.719  67.073  1.00  0.00    -0.368 OA 
BRANCH  14  15
HETATM   15  C   UNL     1     -11.713  13.598  67.853  1.00  0.00    -0.360 A  
HETATM   16  C   UNL     1     -11.805  11.333  69.592  1.00  0.00    -0.360 A  
HETATM   17  C   UNL     1     -11.478  12.317  67.373  1.00  0.00    -0.422 A  
HETATM   18  C   UNL     1     -11.899  13.768  69.217  1.00  0.00    -0.392 A  
HETATM   19  C   UNL     1     -11.527  11.217  68.227  1.00  0.00    -0.373 A  
HETATM   20  C   UNL     1     -11.936  12.651  70.067  1.00  0.00    -0.377 A  
BRANCH  16  21
HETATM   21  N   UNL     1     -11.884  10.216  70.408  1.00  0.00    -0.282 NA 
HETATM   22  C   UNL     1     -10.861   9.153  70.402  1.00  0.00    -0.242 C  
HETATM   23  C   UNL     1     -10.573   8.736  71.843  1.00  0.00    -0.425 C  
HETATM   24  C   UNL     1     -11.855   8.308  72.563  1.00  0.00    -0.373 C  
HETATM   25  C   UNL     1     -13.157   9.756  70.970  1.00  0.00    -0.291 C  
HETATM   26  C   UNL     1     -12.912   9.410  72.431  1.00  0.00    -0.427 C  
BRANCH  24  27
HETATM   27  O   UNL     1     -12.294   7.079  71.960  1.00  0.00    -0.310 OA 
BRANCH  27  28
HETATM   28  C   UNL     1     -11.459   6.002  72.071  1.00  0.00    -0.287 A  
HETATM   29  C   UNL     1     -11.154   5.353  73.263  1.00  0.00    -0.352 A  
HETATM   30  C   UNL     1     -10.299   4.253  73.261  1.00  0.00    -0.232 A  
HETATM   31  C   UNL     1      -9.730   3.787  72.080  1.00  0.00    -0.161 A  
HETATM   32  C   UNL     1     -10.020   4.445  70.885  1.00  0.00    -0.242 A  
HETATM   33  C   UNL     1     -10.904   5.534  70.880  1.00  0.00    -0.246 A  
BRANCH  31  34
HETATM   34  O   UNL     1      -8.855   2.767  72.254  1.00  0.00    -0.076 OA 
HETATM   35  C   UNL     1      -7.485   3.042  72.488  1.00  0.00    -0.049 C  
HETATM   36  F   UNL     1      -7.113   2.451  73.645  1.00  0.00    -0.025 F  
HETATM   37  F   UNL     1      -7.175   4.351  72.553  1.00  0.00    -0.060 F  
HETATM   38  F   UNL     1      -6.761   2.490  71.486  1.00  0.00    -0.023 F  
ENDBRANCH  31  34
ENDBRANCH  27  28
ENDBRANCH  24  27
ENDBRANCH  16  21
ENDBRANCH  14  15
ENDBRANCH  13  14
ENDBRANCH   2  13
TORSDOF 7
ENDMDL
MODEL       10
REMARK 921   NORMALIZED FREE ENERGY PREDICTED BY IDOCK:   -7.04 KCAL/MOL
REMARK 922        TOTAL FREE ENERGY PREDICTED BY IDOCK:  -11.41 KCAL/MOL
REMARK 923 INTER-LIGAND FREE ENERGY PREDICTED BY IDOCK:   -9.77 KCAL/MOL
REMARK 924 INTRA-LIGAND FREE ENERGY PREDICTED BY IDOCK:   -1.63 KCAL/MOL
REMARK 927      BINDING AFFINITY PREDICTED BY RF-SCORE:    0.00 PKD
ROOT
HETATM    1  C   UNL     1      -9.900   4.131  67.051  1.00  0.00    -0.190 C  
HETATM    2  C   UNL     1      -9.685   5.561  67.541  1.00  0.00    -0.128 C  
HETATM    3  C   UNL     1     -10.721   6.439  69.308  1.00  0.00    -0.292 A  
HETATM    4  C   UNL     1      -8.652   5.633  68.698  1.00  0.00    -0.104 C  
HETATM    5  N   UNL     1      -9.456   6.235  69.727  1.00  0.00    -0.151 NA 
HETATM    6  O   UNL     1     -10.188   7.769  73.450  1.00  0.00    -0.328 OA 
HETATM    7  C   UNL     1      -9.321   6.652  70.995  1.00  0.00    -0.160 A  
HETATM    8  O   UNL     1     -10.965   6.056  68.068  1.00  0.00    -0.304 OA 
HETATM    9  O   UNL     1     -12.221   8.048  72.644  1.00  0.00    -0.293 OA 
HETATM   10  C   UNL     1     -10.599   7.124  71.296  1.00  0.00    -0.213 A  
HETATM   11  N   UNL     1     -11.475   6.986  70.216  1.00  0.00    -0.300 NA 
HETATM   12  N   UNL     1     -11.041   7.689  72.552  1.00  0.00    -0.307 N  
ENDROOT
BRANCH   2  13
HETATM   13  C   UNL     1      -9.285   6.484  66.392  1.00  0.00    -0.153 C  
BRANCH  13  14
HETATM   14  O   UNL     1      -8.327   7.452  66.824  1.00  0.00    -0.117 OA 
BRANCH  14  15
HETATM   15  C   UNL     1      -8.871   8.675  67.104  1.00  0.00    -0.129 A  
HETATM   16  C   UNL     1      -9.763  11.331  67.664  1.00  0.00    -0.171 A  
HETATM   17  C   UNL     1      -9.994   9.199  66.481  1.00  0.00    -0.359 A  
HETATM   18  C   UNL     1      -8.242   9.435  68.081  1.00  0.00    -0.118 A  
HETATM   19  C   UNL     1     -10.423  10.496  66.758  1.00  0.00    -0.302 A  
HETATM   20  C   UNL     1      -8.691  10.736  68.356  1.00  0.00    -0.142 A  
BRANCH  16  21
HETATM   21  N   UNL     1     -10.191  12.629  67.890  1.00  0.00    -0.215 NA 
HETATM   22  C   UNL     1     -11.612  13.021  67.822  1.00  0.00    -0.340 C  
HETATM   23  C   UNL     1     -11.920  13.965  68.983  1.00  0.00    -0.402 C  
HETATM   24  C   UNL     1     -10.980  15.174  68.979  1.00  0.00    -0.244 C  
HETATM   25  C   UNL     1      -9.292  13.777  67.742  1.00  0.00    -0.213 C  
HETATM   26  C   UNL     1      -9.525  14.694  68.933  1.00  0.00    -0.173 C  
BRANCH  24  27
HETATM   27  O   UNL     1     -11.312  15.969  67.828  1.00  0.00    -0.282 OA 
BRANCH  27  28
HETATM   28  C   UNL     1     -10.618  17.134  67.660  1.00  0.00    -0.343 A  
HETATM   29  C   UNL     1     -10.237  17.664  66.432  1.00  0.00    -0.364 A  
HETATM   30  C   UNL     1      -9.541  18.870  66.376  1.00  0.00    -0.377 A  
HETATM   31  C   UNL     1      -9.207  19.562  67.535  1.00  0.00    -0.315 A  
HETATM   32  C   UNL     1      -9.574  19.027  68.769  1.00  0.00    -0.451 A  
HETATM   33  C   UNL     1     -10.299  17.828  68.828  1.00  0.00    -0.332 A  
BRANCH  31  34
HETATM   34  O   UNL     1      -8.458  20.669  67.319  1.00  0.00    -0.336 OA 
HETATM   35  C   UNL     1      -7.044  20.571  67.281  1.00  0.00    -0.314 C  
HETATM   36  F   UNL     1      -6.605  21.065  66.102  1.00  0.00    -0.281 F  
HETATM   37  F   UNL     1      -6.562  19.324  67.434  1.00  0.00    -0.189 F  
HETATM   38  F   UNL     1      -6.535  21.341  68.271  1.00  0.00    -0.343 F  
ENDBRANCH  31  34
ENDBRANCH  27  28
ENDBRANCH  24  27
ENDBRANCH  16  21
ENDBRANCH  14  15
ENDBRANCH  13  14
ENDBRANCH   2  13
TORSDOF 7
ENDMDL
MODEL       11
REMARK 921   NORMALIZED FREE ENERGY PREDICTED BY IDOCK:   -7.02 KCAL/MOL
REMARK 922        TOTAL FREE ENERGY PREDICTED BY IDOCK:  -11.38 KCAL/MOL
REMARK 923 INTER-LIGAND FREE ENERGY PREDICTED BY IDOCK:  -10.08 KCAL/MOL
REMARK 924 INTRA-LIGAND FREE ENERGY PREDICTED BY IDOCK:   -1.30 KCAL/MOL
REMARK 927      BINDING AFFINITY PREDICTED BY RF-SCORE:    0.00 PKD
ROOT
HETATM    1  C   UNL     1      -9.903   4.600  67.504  1.00  0.00    -0.200 C  
HETATM    2  C   UNL     1     -10.108   5.991  68.100  1.00  0.00    -0.160 C  
HETATM    3  C   UNL     1     -10.453   6.376  70.268  1.00  0.00    -0.219 A  
HETATM    4  C   UNL     1      -8.793   6.575  68.684  1.00  0.00    -0.121 C  
HETATM    5  N   UNL     1      -9.189   6.788  70.051  1.00  0.00    -0.158 NA 
HETATM    6  O   UNL     1      -8.657   7.979  73.930  1.00  0.00    -0.254 OA 
HETATM    7  C   UNL     1      -8.665   7.275  71.186  1.00  0.00    -0.135 A  
HETATM    8  O   UNL     1     -11.063   5.871  69.211  1.00  0.00    -0.360 OA 
HETATM    9  O   UNL     1     -10.732   7.267  74.154  1.00  0.00    -0.193 OA 
HETATM   10  C   UNL     1      -9.715   7.126  72.092  1.00  0.00    -0.146 A  
HETATM   11  N   UNL     1     -10.843   6.557  71.496  1.00  0.00    -0.239 NA 
HETATM   12  N   UNL     1      -9.707   7.481  73.494  1.00  0.00    -0.286 N  
ENDROOT
BRANCH   2  13
HETATM   13  C   UNL     1     -10.724   6.944  67.079  1.00  0.00    -0.362 C  
BRANCH  13  14
HETATM   14  O   UNL     1      -9.713   7.558  66.277  1.00  0.00    -0.142 OA 
BRANCH  14  15
HETATM   15  C   UNL     1      -9.895   8.901  66.098  1.00  0.00    -0.256 A  
HETATM   16  C   UNL     1     -10.174  11.741  65.966  1.00  0.00    -0.230 A  
HETATM   17  C   UNL     1      -9.487   9.609  64.976  1.00  0.00    -0.312 A  
HETATM   18  C   UNL     1     -10.533   9.591  67.119  1.00  0.00    -0.322 A  
HETATM   19  C   UNL     1      -9.624  10.995  64.920  1.00  0.00    -0.289 A  
HETATM   20  C   UNL     1     -10.673  10.987  67.044  1.00  0.00    -0.319 A  
BRANCH  16  21
HETATM   21  N   UNL     1     -10.262  13.123  65.896  1.00  0.00    -0.287 NA 
HETATM   22  C   UNL     1     -10.544  13.838  64.636  1.00  0.00    -0.425 C  
HETATM   23  C   UNL     1     -11.540  14.962  64.918  1.00  0.00    -0.395 C  
HETATM   24  C   UNL     1     -11.026  15.895  66.018  1.00  0.00    -0.139 C  
HETATM   25  C   UNL     1      -9.638  13.990  66.898  1.00  0.00    -0.271 C  
HETATM   26  C   UNL     1     -10.645  15.073  67.254  1.00  0.00    -0.279 C  
BRANCH  24  27
HETATM   27  O   UNL     1      -9.895  16.603  65.483  1.00  0.00    -0.549 OA 
BRANCH  27  28
HETATM   28  C   UNL     1      -9.267  17.485  66.316  1.00  0.00    -0.203 A  
HETATM   29  C   UNL     1      -9.902  18.494  67.032  1.00  0.00    -0.341 A  
HETATM   30  C   UNL     1      -9.164  19.331  67.866  1.00  0.00    -0.372 A  
HETATM   31  C   UNL     1      -7.787  19.184  67.997  1.00  0.00    -0.290 A  
HETATM   32  C   UNL     1      -7.144  18.184  67.270  1.00  0.00    -0.208 A  
HETATM   33  C   UNL     1      -7.887  17.321  66.451  1.00  0.00    -0.345 A  
BRANCH  31  34
HETATM   34  O   UNL     1      -7.203  20.126  68.775  1.00  0.00    -0.245 OA 
HETATM   35  C   UNL     1      -6.419  19.738  69.890  1.00  0.00    -0.327 C  
HETATM   36  F   UNL     1      -5.186  20.276  69.763  1.00  0.00    -0.215 F  
HETATM   37  F   UNL     1      -6.294  18.407  70.055  1.00  0.00    -0.229 F  
HETATM   38  F   UNL     1      -6.984  20.248  71.010  1.00  0.00    -0.252 F  
ENDBRANCH  31  34
ENDBRANCH  27  28
ENDBRANCH  24  27
ENDBRANCH  16  21
ENDBRANCH  14  15
ENDBRANCH  13  14
ENDBRANCH   2  13
TORSDOF 7
ENDMDL
MODEL       12
REMARK 921   NORMALIZED FREE ENERGY PREDICTED BY IDOCK:   -6.99 KCAL/MOL
REMARK 922        TOTAL FREE ENERGY PREDICTED BY IDOCK:  -11.33 KCAL/MOL
REMARK 923 INTER-LIGAND FREE ENERGY PREDICTED BY IDOCK:  -10.15 KCAL/MOL
REMARK 924 INTRA-LIGAND FREE ENERGY PREDICTED BY IDOCK:   -1.17 KCAL/MOL
REMARK 927      BINDING AFFINITY PREDICTED BY RF-SCORE:    0.00 PKD
ROOT
HETATM    1  C   UNL     1     -12.530  14.608  64.523  1.00  0.00    -0.312 C  
HETATM    2  C   UNL     1     -11.179  15.025  65.098  1.00  0.00    -0.388 C  
HETATM    3  C   UNL     1     -10.674  17.111  65.699  1.00  0.00    -0.136 A  
HETATM    4  C   UNL     1     -11.197  15.080  66.650  1.00  0.00    -0.311 C  
HETATM    5  N   UNL     1     -10.831  16.455  66.865  1.00  0.00    -0.191 NA 
HETATM    6  O   UNL     1      -9.953  19.758  69.117  1.00  0.00    -0.428 OA 
HETATM    7  C   UNL     1     -10.602  17.287  67.892  1.00  0.00    -0.384 A  
HETATM    8  O   UNL     1     -10.882  16.382  64.617  1.00  0.00    -0.717 OA 
HETATM    9  O   UNL     1      -9.729  20.716  67.144  1.00  0.00    -0.454 OA 
HETATM   10  C   UNL     1     -10.293  18.485  67.248  1.00  0.00    -0.398 A  
HETATM   11  N   UNL     1     -10.340  18.359  65.858  1.00  0.00    -0.601 NA 
HETATM   12  N   UNL     1      -9.967  19.747  67.876  1.00  0.00    -0.391 N  
ENDROOT
BRANCH   2  13
HETATM   13  C   UNL     1     -10.060  14.116  64.595  1.00  0.00    -0.012 C  
BRANCH  13  14
HETATM   14  O   UNL     1     -10.593  12.984  63.904  1.00  0.00    -0.396 OA 
BRANCH  14  15
HETATM   15  C   UNL     1     -10.164  11.785  64.402  1.00  0.00    -0.289 A  
HETATM   16  C   UNL     1      -9.513   9.242  65.529  1.00  0.00    -0.240 A  
HETATM   17  C   UNL     1      -9.440  10.846  63.680  1.00  0.00    -0.315 A  
HETATM   18  C   UNL     1     -10.483  11.501  65.722  1.00  0.00    -0.308 A  
HETATM   19  C   UNL     1      -9.129   9.607  64.235  1.00  0.00    -0.267 A  
HETATM   20  C   UNL     1     -10.154  10.252  66.272  1.00  0.00    -0.300 A  
BRANCH  16  21
HETATM   21  N   UNL     1      -9.221   7.987  66.039  1.00  0.00    -0.157 NA 
HETATM   22  C   UNL     1      -9.737   7.518  67.340  1.00  0.00    -0.159 C  
HETATM   23  C   UNL     1     -10.186   6.065  67.199  1.00  0.00    -0.248 C  
HETATM   24  C   UNL     1      -9.053   5.183  66.668  1.00  0.00    -0.120 C  
HETATM   25  C   UNL     1      -8.045   7.229  65.603  1.00  0.00    -0.133 C  
HETATM   26  C   UNL     1      -8.488   5.791  65.378  1.00  0.00    -0.151 C  
BRANCH  24  27
HETATM   27  O   UNL     1      -8.053   5.106  67.698  1.00  0.00    -0.099 OA 
BRANCH  27  28
HETATM   28  C   UNL     1      -8.487   4.819  68.961  1.00  0.00    -0.081 A  
HETATM   29  C   UNL     1      -9.239   3.702  69.310  1.00  0.00    -0.231 A  
HETATM   30  C   UNL     1      -9.618   3.499  70.635  1.00  0.00    -0.247 A  
HETATM   31  C   UNL     1      -9.264   4.403  71.631  1.00  0.00    -0.135 A  
HETATM   32  C   UNL     1      -8.523   5.533  71.284  1.00  0.00    -0.127 A  
HETATM   33  C   UNL     1      -8.115   5.725  69.955  1.00  0.00    -0.108 A  
BRANCH  31  34
HETATM   34  O   UNL     1      -9.780   4.113  72.849  1.00  0.00    -0.126 OA 
HETATM   35  C   UNL     1     -11.012   4.686  73.251  1.00  0.00    -0.303 C  
HETATM   36  F   UNL     1     -11.868   3.693  73.579  1.00  0.00    -0.294 F  
HETATM   37  F   UNL     1     -11.596   5.473  72.327  1.00  0.00    -0.314 F  
HETATM   38  F   UNL     1     -10.795   5.433  74.360  1.00  0.00    -0.283 F  
ENDBRANCH  31  34
ENDBRANCH  27  28
ENDBRANCH  24  27
ENDBRANCH  16  21
ENDBRANCH  14  15
ENDBRANCH  13  14
ENDBRANCH   2  13
TORSDOF 7
ENDMDL
MODEL       13
REMARK 921   NORMALIZED FREE ENERGY PREDICTED BY IDOCK:   -6.93 KCAL/MOL
REMARK 922        TOTAL FREE ENERGY PREDICTED BY IDOCK:  -11.24 KCAL/MOL
REMARK 923 INTER-LIGAND FREE ENERGY PREDICTED BY IDOCK:   -9.49 KCAL/MOL
REMARK 924 INTRA-LIGAND FREE ENERGY PREDICTED BY IDOCK:   -1.75 KCAL/MOL
REMARK 927      BINDING AFFINITY PREDICTED BY RF-SCORE:    0.00 PKD
ROOT
HETATM    1  C   UNL     1      -9.447   3.351  70.527  1.00  0.00    -0.247 C  
HETATM    2  C   UNL     1      -9.438   4.874  70.422  1.00  0.00    -0.167 C  
HETATM    3  C   UNL     1     -11.269   6.140  70.540  1.00  0.00    -0.334 A  
HETATM    4  C   UNL     1      -9.444   5.556  71.817  1.00  0.00    -0.149 C  
HETATM    5  N   UNL     1     -10.647   6.339  71.718  1.00  0.00    -0.219 NA 
HETATM    6  O   UNL     1     -13.478   8.982  73.040  1.00  0.00    -0.300 OA 
HETATM    7  C   UNL     1     -11.342   7.213  72.461  1.00  0.00    -0.279 A  
HETATM    8  O   UNL     1     -10.667   5.288  69.729  1.00  0.00    -0.286 OA 
HETATM    9  O   UNL     1     -14.397   8.568  71.079  1.00  0.00    -0.202 OA 
HETATM   10  C   UNL     1     -12.421   7.522  71.633  1.00  0.00    -0.342 A  
HETATM   11  N   UNL     1     -12.361   6.837  70.417  1.00  0.00    -0.169 NA 
HETATM   12  N   UNL     1     -13.514   8.421  71.933  1.00  0.00    -0.352 N  
ENDROOT
BRANCH   2  13
HETATM   13  C   UNL     1      -8.262   5.363  69.579  1.00  0.00    -0.096 C  
BRANCH  13  14
HETATM   14  O   UNL     1      -7.597   6.456  70.216  1.00  0.00    -0.092 OA 
BRANCH  14  15
HETATM   15  C   UNL     1      -7.936   7.677  69.703  1.00  0.00    -0.124 A  
HETATM   16  C   UNL     1      -8.816  10.102  68.475  1.00  0.00    -0.127 A  
HETATM   17  C   UNL     1      -8.268   8.787  70.468  1.00  0.00    -0.140 A  
HETATM   18  C   UNL     1      -7.947   7.799  68.321  1.00  0.00    -0.122 A  
HETATM   19  C   UNL     1      -8.698   9.966  69.861  1.00  0.00    -0.225 A  
HETATM   20  C   UNL     1      -8.374   8.996  67.724  1.00  0.00    -0.117 A  
BRANCH  16  21
HETATM   21  N   UNL     1      -9.283  11.275  67.904  1.00  0.00    -0.153 NA 
HETATM   22  C   UNL     1      -9.967  11.305  66.597  1.00  0.00    -0.209 C  
HETATM   23  C   UNL     1     -11.161  12.254  66.686  1.00  0.00    -0.367 C  
HETATM   24  C   UNL     1     -10.729  13.647  67.152  1.00  0.00    -0.277 C  
HETATM   25  C   UNL     1      -8.745  12.586  68.279  1.00  0.00    -0.171 C  
HETATM   26  C   UNL     1      -9.925  13.530  68.452  1.00  0.00    -0.232 C  
BRANCH  24  27
HETATM   27  O   UNL     1      -9.944  14.226  66.095  1.00  0.00    -0.290 OA 
BRANCH  27  28
HETATM   28  C   UNL     1      -9.784  15.583  66.115  1.00  0.00    -0.319 A  
HETATM   29  C   UNL     1     -10.769  16.505  65.777  1.00  0.00    -0.232 A  
HETATM   30  C   UNL     1     -10.503  17.871  65.846  1.00  0.00    -0.253 A  
HETATM   31  C   UNL     1      -9.255  18.341  66.244  1.00  0.00    -0.203 A  
HETATM   32  C   UNL     1      -8.260  17.420  66.569  1.00  0.00    -0.311 A  
HETATM   33  C   UNL     1      -8.534  16.045  66.528  1.00  0.00    -0.348 A  
BRANCH  31  34
HETATM   34  O   UNL     1      -9.126  19.687  66.176  1.00  0.00    -0.366 OA 
HETATM   35  C   UNL     1      -8.984  20.445  67.365  1.00  0.00    -0.334 C  
HETATM   36  F   UNL     1      -7.846  21.171  67.285  1.00  0.00    -0.389 F  
HETATM   37  F   UNL     1      -8.954  19.718  68.497  1.00  0.00    -0.374 F  
HETATM   38  F   UNL     1     -10.024  21.309  67.449  1.00  0.00    -0.576 F  
ENDBRANCH  31  34
ENDBRANCH  27  28
ENDBRANCH  24  27
ENDBRANCH  16  21
ENDBRANCH  14  15
ENDBRANCH  13  14
ENDBRANCH   2  13
TORSDOF 7
ENDMDL
MODEL       14
REMARK 921   NORMALIZED FREE ENERGY PREDICTED BY IDOCK:   -6.90 KCAL/MOL
REMARK 922        TOTAL FREE ENERGY PREDICTED BY IDOCK:  -11.20 KCAL/MOL
REMARK 923 INTER-LIGAND FREE ENERGY PREDICTED BY IDOCK:   -9.44 KCAL/MOL
REMARK 924 INTRA-LIGAND FREE ENERGY PREDICTED BY IDOCK:   -1.76 KCAL/MOL
REMARK 927      BINDING AFFINITY PREDICTED BY RF-SCORE:    0.00 PKD
ROOT
HETATM    1  C   UNL     1      -9.274   2.843  68.109  1.00  0.00    -0.248 C  
HETATM    2  C   UNL     1      -9.151   4.356  68.269  1.00  0.00    -0.127 C  
HETATM    3  C   UNL     1     -10.651   5.622  69.325  1.00  0.00    -0.288 A  
HETATM    4  C   UNL     1      -8.543   4.751  69.643  1.00  0.00    -0.082 C  
HETATM    5  N   UNL     1      -9.602   5.569  70.169  1.00  0.00    -0.162 NA 
HETATM    6  O   UNL     1     -11.410   7.975  72.943  1.00  0.00    -0.408 OA 
HETATM    7  C   UNL     1      -9.860   6.299  71.265  1.00  0.00    -0.175 A  
HETATM    8  O   UNL     1     -10.503   4.930  68.210  1.00  0.00    -0.024 OA 
HETATM    9  O   UNL     1     -13.056   7.978  71.478  1.00  0.00    -0.323 OA 
HETATM   10  C   UNL     1     -11.139   6.792  71.006  1.00  0.00    -0.273 A  
HETATM   11  N   UNL     1     -11.627   6.358  69.771  1.00  0.00    -0.412 NA 
HETATM   12  N   UNL     1     -11.930   7.644  71.867  1.00  0.00    -0.285 N  
ENDROOT
BRANCH   2  13
HETATM   13  C   UNL     1      -8.352   4.970  67.121  1.00  0.00    -0.106 C  
BRANCH  13  14
HETATM   14  O   UNL     1      -7.472   5.990  67.598  1.00  0.00    -0.076 OA 
BRANCH  14  15
HETATM   15  C   UNL     1      -7.934   7.258  67.379  1.00  0.00    -0.112 A  
HETATM   16  C   UNL     1      -9.138   9.801  66.884  1.00  0.00    -0.142 A  
HETATM   17  C   UNL     1      -7.694   8.339  68.217  1.00  0.00    -0.106 A  
HETATM   18  C   UNL     1      -8.695   7.463  66.238  1.00  0.00    -0.163 A  
HETATM   19  C   UNL     1      -8.287   9.576  67.969  1.00  0.00    -0.118 A  
HETATM   20  C   UNL     1      -9.278   8.717  65.996  1.00  0.00    -0.282 A  
BRANCH  16  21
HETATM   21  N   UNL     1      -9.742  11.032  66.686  1.00  0.00    -0.191 NA 
HETATM   22  C   UNL     1     -10.448  11.381  65.438  1.00  0.00    -0.280 C  
HETATM   23  C   UNL     1     -11.738  12.119  65.789  1.00  0.00    -0.391 C  
HETATM   24  C   UNL     1     -11.455  13.345  66.662  1.00  0.00    -0.344 C  
HETATM   25  C   UNL     1      -9.347  12.220  67.449  1.00  0.00    -0.183 C  
HETATM   26  C   UNL     1     -10.621  12.930  67.879  1.00  0.00    -0.232 C  
BRANCH  24  27
HETATM   27  O   UNL     1     -10.757  14.300  65.843  1.00  0.00    -0.291 OA 
BRANCH  27  28
HETATM   28  C   UNL     1     -10.376  15.467  66.443  1.00  0.00    -0.296 A  
HETATM   29  C   UNL     1     -11.149  16.185  67.350  1.00  0.00    -0.134 A  
HETATM   30  C   UNL     1     -10.656  17.360  67.914  1.00  0.00    -0.383 A  
HETATM   31  C   UNL     1      -9.394  17.842  67.582  1.00  0.00    -0.258 A  
HETATM   32  C   UNL     1      -8.622  17.134  66.661  1.00  0.00    -0.284 A  
HETATM   33  C   UNL     1      -9.104  15.936  66.114  1.00  0.00    -0.385 A  
BRANCH  31  34
HETATM   34  O   UNL     1      -9.094  19.037  68.145  1.00  0.00    -0.299 OA 
HETATM   35  C   UNL     1      -9.254  20.231  67.399  1.00  0.00    -0.380 C  
HETATM   36  F   UNL     1     -10.075  21.062  68.078  1.00  0.00    -0.399 F  
HETATM   37  F   UNL     1      -9.745  20.059  66.157  1.00  0.00    -0.435 F  
HETATM   38  F   UNL     1      -8.046  20.834  67.292  1.00  0.00    -0.361 F  
ENDBRANCH  31  34
ENDBRANCH  27  28
ENDBRANCH  24  27
ENDBRANCH  16  21
ENDBRANCH  14  15
ENDBRANCH  13  14
ENDBRANCH   2  13
TORSDOF 7
ENDMDL
MODEL       15
REMARK 921   NORMALIZED FREE ENERGY PREDICTED BY IDOCK:   -6.86 KCAL/MOL
REMARK 922        TOTAL FREE ENERGY PREDICTED BY IDOCK:  -11.15 KCAL/MOL
REMARK 923 INTER-LIGAND FREE ENERGY PREDICTED BY IDOCK:   -9.53 KCAL/MOL
REMARK 924 INTRA-LIGAND FREE ENERGY PREDICTED BY IDOCK:   -1.62 KCAL/MOL
REMARK 927      BINDING AFFINITY PREDICTED BY RF-SCORE:    0.00 PKD
ROOT
HETATM    1  C   UNL     1      -9.399   2.682  68.657  1.00  0.00    -0.244 C  
HETATM    2  C   UNL     1      -9.316   4.200  68.515  1.00  0.00    -0.156 C  
HETATM    3  C   UNL     1      -9.831   5.631  70.145  1.00  0.00    -0.190 A  
HETATM    4  C   UNL     1      -7.983   4.767  69.075  1.00  0.00    -0.075 C  
HETATM    5  N   UNL     1      -8.486   5.673  70.074  1.00  0.00    -0.120 NA 
HETATM    6  O   UNL     1      -8.178   8.476  73.040  1.00  0.00    -0.357 OA 
HETATM    7  C   UNL     1      -8.008   6.552  70.968  1.00  0.00    -0.111 A  
HETATM    8  O   UNL     1     -10.407   4.788  69.306  1.00  0.00    -0.154 OA 
HETATM    9  O   UNL     1     -10.376   8.312  73.058  1.00  0.00    -0.275 OA 
HETATM   10  C   UNL     1      -9.170   7.032  71.571  1.00  0.00    -0.153 A  
HETATM   11  N   UNL     1     -10.318   6.442  71.039  1.00  0.00    -0.202 NA 
HETATM   12  N   UNL     1      -9.254   8.010  72.633  1.00  0.00    -0.212 N  
ENDROOT
BRANCH   2  13
HETATM   13  C   UNL     1      -9.529   4.632  67.066  1.00  0.00    -0.160 C  
BRANCH  13  14
HETATM   14  O   UNL     1      -8.434   5.426  66.604  1.00  0.00    -0.108 OA 
BRANCH  14  15
HETATM   15  C   UNL     1      -8.789   6.702  66.260  1.00  0.00    -0.147 A  
HETATM   16  C   UNL     1      -9.557   9.415  65.802  1.00  0.00    -0.271 A  
HETATM   17  C   UNL     1      -8.072   7.511  65.390  1.00  0.00    -0.133 A  
HETATM   18  C   UNL     1      -9.947   7.208  66.832  1.00  0.00    -0.293 A  
HETATM   19  C   UNL     1      -8.452   8.834  65.173  1.00  0.00    -0.192 A  
HETATM   20  C   UNL     1     -10.323   8.541  66.596  1.00  0.00    -0.303 A  
BRANCH  16  21
HETATM   21  N   UNL     1      -9.887  10.745  65.594  1.00  0.00    -0.231 NA 
HETATM   22  C   UNL     1     -10.220  11.283  64.262  1.00  0.00    -0.327 C  
HETATM   23  C   UNL     1     -11.416  12.225  64.393  1.00  0.00    -0.417 C  
HETATM   24  C   UNL     1     -11.141  13.330  65.417  1.00  0.00    -0.282 C  
HETATM   25  C   UNL     1      -9.486  11.797  66.532  1.00  0.00    -0.214 C  
HETATM   26  C   UNL     1     -10.689  12.703  66.742  1.00  0.00    -0.261 C  
BRANCH  24  27
HETATM   27  O   UNL     1     -10.125  14.183  64.862  1.00  0.00    -0.385 OA 
BRANCH  27  28
HETATM   28  C   UNL     1      -9.942  15.397  65.462  1.00  0.00    -0.344 A  
HETATM   29  C   UNL     1     -10.798  16.486  65.332  1.00  0.00    -0.216 A  
HETATM   30  C   UNL     1     -10.523  17.676  66.001  1.00  0.00    -0.278 A  
HETATM   31  C   UNL     1      -9.392  17.807  66.800  1.00  0.00    -0.280 A  
HETATM   32  C   UNL     1      -8.522  16.723  66.921  1.00  0.00    -0.242 A  
HETATM   33  C   UNL     1      -8.812  15.514  66.272  1.00  0.00    -0.338 A  
BRANCH  31  34
HETATM   34  O   UNL     1      -9.218  19.049  67.312  1.00  0.00    -0.282 OA 
HETATM   35  C   UNL     1      -9.559  19.313  68.662  1.00  0.00    -0.418 C  
HETATM   36  F   UNL     1      -8.474  19.809  69.296  1.00  0.00    -0.336 F  
HETATM   37  F   UNL     1     -10.011  18.247  69.348  1.00  0.00    -0.282 F  
HETATM   38  F   UNL     1     -10.524  20.263  68.681  1.00  0.00    -0.535 F  
ENDBRANCH  31  34
ENDBRANCH  27  28
ENDBRANCH  24  27
ENDBRANCH  16  21
ENDBRANCH  14  15
ENDBRANCH  13  14
ENDBRANCH   2  13
TORSDOF 7
ENDMDL
MODEL       16
REMARK 921   NORMALIZED FREE ENERGY PREDICTED BY IDOCK:   -6.71 KCAL/MOL
REMARK 922        TOTAL FREE ENERGY PREDICTED BY IDOCK:  -10.94 KCAL/MOL
REMARK 923 INTER-LIGAND FREE ENERGY PREDICTED BY IDOCK:   -9.60 KCAL/MOL
REMARK 924 INTRA-LIGAND FREE ENERGY PREDICTED BY IDOCK:   -1.34 KCAL/MOL
REMARK 927      BINDING AFFINITY PREDICTED BY RF-SCORE:    0.00 PKD
ROOT
HETATM    1  C   UNL     1     -14.272  15.454  72.091  1.00  0.00    -0.660 C  
HETATM    2  C   UNL     1     -12.928  14.924  71.596  1.00  0.00    -0.336 C  
HETATM    3  C   UNL     1     -12.127  15.286  69.548  1.00  0.00    -0.290 A  
HETATM    4  C   UNL     1     -11.801  15.986  71.718  1.00  0.00    -0.519 C  
HETATM    5  N   UNL     1     -11.384  16.079  70.344  1.00  0.00    -0.372 NA 
HETATM    6  O   UNL     1      -9.108  17.468  67.239  1.00  0.00    -0.234 OA 
HETATM    7  C   UNL     1     -10.468  16.732  69.613  1.00  0.00    -0.209 A  
HETATM    8  O   UNL     1     -13.068  14.598  70.170  1.00  0.00    -0.156 OA 
HETATM    9  O   UNL     1     -10.396  16.133  66.047  1.00  0.00    -0.324 OA 
HETATM   10  C   UNL     1     -10.720  16.264  68.324  1.00  0.00    -0.322 A  
HETATM   11  N   UNL     1     -11.773  15.346  68.297  1.00  0.00    -0.347 NA 
HETATM   12  N   UNL     1     -10.028  16.645  67.112  1.00  0.00    -0.262 N  
ENDROOT
BRANCH   2  13
HETATM   13  C   UNL     1     -12.544  13.633  72.316  1.00  0.00    -0.021 C  
BRANCH  13  14
HETATM   14  O   UNL     1     -13.564  12.643  72.166  1.00  0.00    -0.517 OA 
BRANCH  14  15
HETATM   15  C   UNL     1     -13.095  11.435  71.726  1.00  0.00    -0.418 A  
HETATM   16  C   UNL     1     -11.871   9.013  70.835  1.00  0.00    -0.253 A  
HETATM   17  C   UNL     1     -13.492  10.205  72.231  1.00  0.00    -0.291 A  
HETATM   18  C   UNL     1     -12.156  11.459  70.705  1.00  0.00    -0.433 A  
HETATM   19  C   UNL     1     -12.889   9.028  71.793  1.00  0.00    -0.437 A  
HETATM   20  C   UNL     1     -11.564  10.264  70.267  1.00  0.00    -0.396 A  
BRANCH  16  21
HETATM   21  N   UNL     1     -11.265   7.829  70.447  1.00  0.00    -0.261 NA 
HETATM   22  C   UNL     1     -10.598   7.668  69.141  1.00  0.00    -0.186 C  
HETATM   23  C   UNL     1      -9.291   6.902  69.344  1.00  0.00    -0.146 C  
HETATM   24  C   UNL     1      -9.536   5.563  70.044  1.00  0.00    -0.165 C  
HETATM   25  C   UNL     1     -11.626   6.542  71.048  1.00  0.00    -0.348 C  
HETATM   26  C   UNL     1     -10.332   5.794  71.334  1.00  0.00    -0.279 C  
BRANCH  24  27
HETATM   27  O   UNL     1     -10.254   4.724  69.122  1.00  0.00    -0.171 OA 
BRANCH  27  28
HETATM   28  C   UNL     1      -9.671   4.501  67.907  1.00  0.00    -0.139 A  
HETATM   29  C   UNL     1     -10.175   4.945  66.689  1.00  0.00    -0.291 A  
HETATM   30  C   UNL     1      -9.490   4.672  65.507  1.00  0.00    -0.178 A  
HETATM   31  C   UNL     1      -8.302   3.949  65.515  1.00  0.00    -0.105 A  
HETATM   32  C   UNL     1      -7.801   3.488  66.732  1.00  0.00    -0.080 A  
HETATM   33  C   UNL     1      -8.473   3.786  67.926  1.00  0.00    -0.106 A  
BRANCH  31  34
HETATM   34  O   UNL     1      -7.804   3.692  64.282  1.00  0.00    -0.083 OA 
HETATM   35  C   UNL     1      -8.160   2.496  63.610  1.00  0.00    -0.081 C  
HETATM   36  F   UNL     1      -8.697   2.813  62.411  1.00  0.00    -0.073 F  
HETATM   37  F   UNL     1      -9.026   1.711  64.277  1.00  0.00    -0.087 F  
HETATM   38  F   UNL     1      -7.032   1.779  63.386  1.00  0.00    -0.027 F  
ENDBRANCH  31  34
ENDBRANCH  27  28
ENDBRANCH  24  27
ENDBRANCH  16  21
ENDBRANCH  14  15
ENDBRANCH  13  14
ENDBRANCH   2  13
TORSDOF 7
ENDMDL
MODEL       17
REMARK 921   NORMALIZED FREE ENERGY PREDICTED BY IDOCK:   -6.70 KCAL/MOL
REMARK 922        TOTAL FREE ENERGY PREDICTED BY IDOCK:  -10.92 KCAL/MOL
REMARK 923 INTER-LIGAND FREE ENERGY PREDICTED BY IDOCK:   -9.44 KCAL/MOL
REMARK 924 INTRA-LIGAND FREE ENERGY PREDICTED BY IDOCK:   -1.48 KCAL/MOL
REMARK 927      BINDING AFFINITY PREDICTED BY RF-SCORE:    0.00 PKD
ROOT
HETATM    1  C   UNL     1     -10.846  17.298  68.096  1.00  0.00    -0.294 C  
HETATM    2  C   UNL     1     -10.954  15.775  68.095  1.00  0.00    -0.330 C  
HETATM    3  C   UNL     1     -11.741  14.586  66.382  1.00  0.00    -0.363 A  
HETATM    4  C   UNL     1      -9.740  15.104  67.398  1.00  0.00    -0.209 C  
HETATM    5  N   UNL     1     -10.411  14.370  66.358  1.00  0.00    -0.289 NA 
HETATM    6  O   UNL     1     -10.636  11.854  63.138  1.00  0.00    -0.373 OA 
HETATM    7  C   UNL     1     -10.102  13.530  65.359  1.00  0.00    -0.262 A  
HETATM    8  O   UNL     1     -12.155  15.408  67.330  1.00  0.00     0.121 OA 
HETATM    9  O   UNL     1     -12.792  12.292  63.283  1.00  0.00    -0.719 OA 
HETATM   10  C   UNL     1     -11.348  13.260  64.794  1.00  0.00    -0.327 A  
HETATM   11  N   UNL     1     -12.379  13.934  65.454  1.00  0.00    -0.443 NA 
HETATM   12  N   UNL     1     -11.618  12.408  63.657  1.00  0.00    -0.460 N  
ENDROOT
BRANCH   2  13
HETATM   13  C   UNL     1     -11.142  15.234  69.511  1.00  0.00    -0.281 C  
BRANCH  13  14
HETATM   14  O   UNL     1     -12.285  14.379  69.583  1.00  0.00    -0.321 OA 
BRANCH  14  15
HETATM   15  C   UNL     1     -11.980  13.081  69.888  1.00  0.00    -0.311 A  
HETATM   16  C   UNL     1     -11.605  10.323  70.531  1.00  0.00    -0.338 A  
HETATM   17  C   UNL     1     -11.069  12.302  69.190  1.00  0.00    -0.261 A  
HETATM   18  C   UNL     1     -12.638  12.519  70.972  1.00  0.00    -0.350 A  
HETATM   19  C   UNL     1     -10.893  10.956  69.509  1.00  0.00    -0.286 A  
HETATM   20  C   UNL     1     -12.444  11.164  71.287  1.00  0.00    -0.466 A  
BRANCH  16  21
HETATM   21  N   UNL     1     -11.435   8.974  70.799  1.00  0.00    -0.279 NA 
HETATM   22  C   UNL     1     -11.702   8.387  72.126  1.00  0.00    -0.375 C  
HETATM   23  C   UNL     1     -12.432   7.057  71.940  1.00  0.00    -0.346 C  
HETATM   24  C   UNL     1     -11.640   6.113  71.032  1.00  0.00    -0.191 C  
HETATM   25  C   UNL     1     -10.557   8.129  69.985  1.00  0.00    -0.239 C  
HETATM   26  C   UNL     1     -11.297   6.827  69.719  1.00  0.00    -0.350 C  
BRANCH  24  27
HETATM   27  O   UNL     1     -10.454   5.726  71.748  1.00  0.00    -0.213 OA 
BRANCH  27  28
HETATM   28  C   UNL     1      -9.500   5.047  71.044  1.00  0.00    -0.162 A  
HETATM   29  C   UNL     1      -8.201   5.494  70.828  1.00  0.00    -0.117 A  
HETATM   30  C   UNL     1      -7.303   4.713  70.105  1.00  0.00    -0.050 A  
HETATM   31  C   UNL     1      -7.682   3.482  69.579  1.00  0.00    -0.051 A  
HETATM   32  C   UNL     1      -8.988   3.036  69.779  1.00  0.00    -0.172 A  
HETATM   33  C   UNL     1      -9.886   3.807  70.532  1.00  0.00    -0.147 A  
BRANCH  31  34
HETATM   34  O   UNL     1      -6.725   2.884  68.829  1.00  0.00    -0.036 OA 
HETATM   35  C   UNL     1      -6.632   3.168  67.444  1.00  0.00    -0.037 C  
HETATM   36  F   UNL     1      -5.385   3.613  67.174  1.00  0.00    -0.010 F  
HETATM   37  F   UNL     1      -7.521   4.073  66.993  1.00  0.00    -0.069 F  
HETATM   38  F   UNL     1      -6.822   2.016  66.758  1.00  0.00    -0.036 F  
ENDBRANCH  31  34
ENDBRANCH  27  28
ENDBRANCH  24  27
ENDBRANCH  16  21
ENDBRANCH  14  15
ENDBRANCH  13  14
ENDBRANCH   2  13
TORSDOF 7
ENDMDL
MODEL       18
REMARK 921   NORMALIZED FREE ENERGY PREDICTED BY IDOCK:   -6.69 KCAL/MOL
REMARK 922        TOTAL FREE ENERGY PREDICTED BY IDOCK:  -10.90 KCAL/MOL
REMARK 923 INTER-LIGAND FREE ENERGY PREDICTED BY IDOCK:   -9.97 KCAL/MOL
REMARK 924 INTRA-LIGAND FREE ENERGY PREDICTED BY IDOCK:   -0.93 KCAL/MOL
REMARK 927      BINDING AFFINITY PREDICTED BY RF-SCORE:    0.00 PKD
ROOT
HETATM    1  C   UNL     1     -13.749   6.838  72.002  1.00  0.00    -0.049 C  
HETATM    2  C   UNL     1     -12.234   6.954  71.850  1.00  0.00    -0.332 C  
HETATM    3  C   UNL     1     -10.846   5.210  71.869  1.00  0.00    -0.101 A  
HETATM    4  C   UNL     1     -11.773   6.710  70.388  1.00  0.00    -0.386 C  
HETATM    5  N   UNL     1     -10.882   5.597  70.579  1.00  0.00    -0.274 NA 
HETATM    6  O   UNL     1      -8.232   2.713  69.391  1.00  0.00    -0.047 OA 
HETATM    7  C   UNL     1     -10.073   4.818  69.845  1.00  0.00    -0.229 A  
HETATM    8  O   UNL     1     -11.615   5.911  72.682  1.00  0.00    -0.290 OA 
HETATM    9  O   UNL     1      -8.264   2.179  71.530  1.00  0.00    -0.053 OA 
HETATM   10  C   UNL     1      -9.550   3.944  70.797  1.00  0.00    -0.188 A  
HETATM   11  N   UNL     1     -10.046   4.205  72.076  1.00  0.00    -0.178 NA 
HETATM   12  N   UNL     1      -8.614   2.866  70.562  1.00  0.00    -0.060 N  
ENDROOT
BRANCH   2  13
HETATM   13  C   UNL     1     -11.729   8.299  72.367  1.00  0.00    -0.397 C  
BRANCH  13  14
HETATM   14  O   UNL     1     -12.730   9.309  72.226  1.00  0.00    -0.382 OA 
BRANCH  14  15
HETATM   15  C   UNL     1     -12.372  10.321  71.379  1.00  0.00    -0.401 A  
HETATM   16  C   UNL     1     -11.668  12.266  69.409  1.00  0.00    -0.330 A  
HETATM   17  C   UNL     1     -12.885  11.610  71.431  1.00  0.00    -0.461 A  
HETATM   18  C   UNL     1     -11.432  10.022  70.403  1.00  0.00    -0.389 A  
HETATM   19  C   UNL     1     -12.538  12.553  70.465  1.00  0.00    -0.177 A  
HETATM   20  C   UNL     1     -11.085  10.986  69.442  1.00  0.00    -0.320 A  
BRANCH  16  21
HETATM   21  N   UNL     1     -11.372  13.215  68.442  1.00  0.00    -0.268 NA 
HETATM   22  C   UNL     1     -11.395  12.912  66.999  1.00  0.00    -0.309 C  
HETATM   23  C   UNL     1     -12.057  14.074  66.260  1.00  0.00    -0.482 C  
HETATM   24  C   UNL     1     -11.354  15.399  66.568  1.00  0.00    -0.098 C  
HETATM   25  C   UNL     1     -10.577  14.408  68.746  1.00  0.00    -0.254 C  
HETATM   26  C   UNL     1     -11.264  15.593  68.086  1.00  0.00    -0.345 C  
BRANCH  24  27
HETATM   27  O   UNL     1     -10.050  15.342  65.964  1.00  0.00    -0.277 OA 
BRANCH  27  28
HETATM   28  C   UNL     1      -9.160  16.314  66.322  1.00  0.00    -0.331 A  
HETATM   29  C   UNL     1      -9.437  17.677  66.347  1.00  0.00    -0.274 A  
HETATM   30  C   UNL     1      -8.456  18.583  66.743  1.00  0.00    -0.290 A  
HETATM   31  C   UNL     1      -7.186  18.153  67.111  1.00  0.00    -0.199 A  
HETATM   32  C   UNL     1      -6.898  16.789  67.073  1.00  0.00    -0.246 A  
HETATM   33  C   UNL     1      -7.893  15.871  66.703  1.00  0.00    -0.236 A  
BRANCH  31  34
HETATM   34  O   UNL     1      -6.320  19.158  67.386  1.00  0.00    -0.185 OA 
HETATM   35  C   UNL     1      -6.395  19.837  68.628  1.00  0.00    -0.272 C  
HETATM   36  F   UNL     1      -5.192  19.758  69.240  1.00  0.00    -0.190 F  
HETATM   37  F   UNL     1      -7.338  19.373  69.468  1.00  0.00    -0.360 F  
HETATM   38  F   UNL     1      -6.655  21.144  68.386  1.00  0.00    -0.313 F  
ENDBRANCH  31  34
ENDBRANCH  27  28
ENDBRANCH  24  27
ENDBRANCH  16  21
ENDBRANCH  14  15
ENDBRANCH  13  14
ENDBRANCH   2  13
TORSDOF 7
ENDMDL
MODEL       19
REMARK 921   NORMALIZED FREE ENERGY PREDICTED BY IDOCK:   -6.68 KCAL/MOL
REMARK 922        TOTAL FREE ENERGY PREDICTED BY IDOCK:  -10.89 KCAL/MOL
REMARK 923 INTER-LIGAND FREE ENERGY PREDICTED BY IDOCK:  -10.29 KCAL/MOL
REMARK 924 INTRA-LIGAND FREE ENERGY PREDICTED BY IDOCK:   -0.60 KCAL/MOL
REMARK 927      BINDING AFFINITY PREDICTED BY RF-SCORE:    0.00 PKD
ROOT
HETATM    1  C   UNL     1     -12.434  14.660  64.430  1.00  0.00    -0.312 C  
HETATM    2  C   UNL     1     -11.177  14.884  65.266  1.00  0.00    -0.369 C  
HETATM    3  C   UNL     1     -10.410  16.895  65.846  1.00  0.00    -0.315 A  
HETATM    4  C   UNL     1     -11.505  15.091  66.770  1.00  0.00    -0.251 C  
HETATM    5  N   UNL     1     -10.931  16.393  66.983  1.00  0.00    -0.133 NA 
HETATM    6  O   UNL     1      -9.911  19.689  69.185  1.00  0.00    -0.441 OA 
HETATM    7  C   UNL     1     -10.762  17.267  67.987  1.00  0.00    -0.367 A  
HETATM    8  O   UNL     1     -10.528  16.113  64.788  1.00  0.00    -0.592 OA 
HETATM    9  O   UNL     1      -9.101  20.396  67.260  1.00  0.00    -0.365 OA 
HETATM   10  C   UNL     1     -10.099  18.322  67.362  1.00  0.00    -0.352 A  
HETATM   11  N   UNL     1      -9.880  18.072  66.005  1.00  0.00    -0.545 NA 
HETATM   12  N   UNL     1      -9.670  19.560  67.974  1.00  0.00    -0.354 N  
ENDROOT
BRANCH   2  13
HETATM   13  C   UNL     1     -10.177  13.745  65.076  1.00  0.00    -0.346 C  
BRANCH  13  14
HETATM   14  O   UNL     1     -10.852  12.499  64.886  1.00  0.00    -0.276 OA 
BRANCH  14  15
HETATM   15  C   UNL     1     -11.022  11.786  66.040  1.00  0.00    -0.306 A  
HETATM   16  C   UNL     1     -11.113  10.289  68.471  1.00  0.00    -0.242 A  
HETATM   17  C   UNL     1     -11.869  12.154  67.076  1.00  0.00    -0.288 A  
HETATM   18  C   UNL     1     -10.288  10.616  66.171  1.00  0.00    -0.291 A  
HETATM   19  C   UNL     1     -11.906  11.420  68.260  1.00  0.00    -0.320 A  
HETATM   20  C   UNL     1     -10.343   9.881  67.366  1.00  0.00    -0.301 A  
BRANCH  16  21
HETATM   21  N   UNL     1     -11.145   9.602  69.675  1.00  0.00    -0.223 NA 
HETATM   22  C   UNL     1     -11.622  10.216  70.929  1.00  0.00    -0.372 C  
HETATM   23  C   UNL     1     -12.491   9.206  71.675  1.00  0.00    -0.434 C  
HETATM   24  C   UNL     1     -11.735   7.896  71.917  1.00  0.00    -0.297 C  
HETATM   25  C   UNL     1     -10.302   8.428  69.918  1.00  0.00    -0.210 C  
HETATM   26  C   UNL     1     -11.170   7.375  70.590  1.00  0.00    -0.292 C  
BRANCH  24  27
HETATM   27  O   UNL     1     -10.690   8.174  72.864  1.00  0.00    -0.352 OA 
BRANCH  27  28
HETATM   28  C   UNL     1      -9.927   7.117  73.271  1.00  0.00    -0.254 A  
HETATM   29  C   UNL     1      -8.538   7.072  73.221  1.00  0.00    -0.147 A  
HETATM   30  C   UNL     1      -7.857   5.945  73.676  1.00  0.00    -0.104 A  
HETATM   31  C   UNL     1      -8.543   4.845  74.180  1.00  0.00    -0.111 A  
HETATM   32  C   UNL     1      -9.937   4.879  74.218  1.00  0.00    -0.225 A  
HETATM   33  C   UNL     1     -10.624   6.024  73.787  1.00  0.00    -0.265 A  
BRANCH  31  34
HETATM   34  O   UNL     1      -7.747   3.797  74.500  1.00  0.00    -0.068 OA 
HETATM   35  C   UNL     1      -7.771   2.622  73.708  1.00  0.00    -0.051 C  
HETATM   36  F   UNL     1      -6.518   2.364  73.274  1.00  0.00    -0.014 F  
HETATM   37  F   UNL     1      -8.595   2.676  72.644  1.00  0.00    -0.067 F  
HETATM   38  F   UNL     1      -8.163   1.588  74.490  1.00  0.00    -0.035 F  
ENDBRANCH  31  34
ENDBRANCH  27  28
ENDBRANCH  24  27
ENDBRANCH  16  21
ENDBRANCH  14  15
ENDBRANCH  13  14
ENDBRANCH   2  13
TORSDOF 7
ENDMDL
MODEL       20
REMARK 921   NORMALIZED FREE ENERGY PREDICTED BY IDOCK:   -6.64 KCAL/MOL
REMARK 922        TOTAL FREE ENERGY PREDICTED BY IDOCK:  -10.84 KCAL/MOL
REMARK 923 INTER-LIGAND FREE ENERGY PREDICTED BY IDOCK:   -9.12 KCAL/MOL
REMARK 924 INTRA-LIGAND FREE ENERGY PREDICTED BY IDOCK:   -1.72 KCAL/MOL
REMARK 927      BINDING AFFINITY PREDICTED BY RF-SCORE:    0.00 PKD
ROOT
HETATM    1  C   UNL     1      -8.751  17.279  66.677  1.00  0.00    -0.285 C  
HETATM    2  C   UNL     1      -9.393  16.007  67.225  1.00  0.00    -0.210 C  
HETATM    3  C   UNL     1     -10.160  15.799  69.308  1.00  0.00    -0.255 A  
HETATM    4  C   UNL     1     -10.943  16.059  67.157  1.00  0.00    -0.183 C  
HETATM    5  N   UNL     1     -11.270  15.886  68.548  1.00  0.00    -0.344 NA 
HETATM    6  O   UNL     1     -13.784  15.502  71.754  1.00  0.00    -0.476 OA 
HETATM    7  C   UNL     1     -12.362  15.790  69.321  1.00  0.00     0.030 A  
HETATM    8  O   UNL     1      -9.022  15.888  68.643  1.00  0.00    -0.184 OA 
HETATM    9  O   UNL     1     -11.895  15.375  72.883  1.00  0.00    -0.420 OA 
HETATM   10  C   UNL     1     -11.818  15.635  70.595  1.00  0.00    -0.376 A  
HETATM   11  N   UNL     1     -10.421  15.639  70.572  1.00  0.00    -0.221 NA 
HETATM   12  N   UNL     1     -12.546  15.493  71.837  1.00  0.00    -0.372 N  
ENDROOT
BRANCH   2  13
HETATM   13  C   UNL     1      -8.855  14.767  66.515  1.00  0.00    -0.188 C  
BRANCH  13  14
HETATM   14  O   UNL     1      -9.925  13.940  66.050  1.00  0.00    -0.298 OA 
BRANCH  14  15
HETATM   15  C   UNL     1     -10.266  12.944  66.923  1.00  0.00    -0.242 A  
HETATM   16  C   UNL     1     -10.831  10.987  68.926  1.00  0.00    -0.217 A  
HETATM   17  C   UNL     1     -11.563  12.506  67.149  1.00  0.00    -0.437 A  
HETATM   18  C   UNL     1      -9.232  12.340  67.624  1.00  0.00    -0.183 A  
HETATM   19  C   UNL     1     -11.831  11.552  68.130  1.00  0.00    -0.306 A  
HETATM   20  C   UNL     1      -9.517  11.374  68.603  1.00  0.00    -0.168 A  
BRANCH  16  21
HETATM   21  N   UNL     1     -11.134  10.069  69.919  1.00  0.00    -0.270 NA 
HETATM   22  C   UNL     1     -11.990  10.401  71.074  1.00  0.00    -0.382 C  
HETATM   23  C   UNL     1     -12.940   9.235  71.337  1.00  0.00    -0.394 C  
HETATM   24  C   UNL     1     -12.170   7.926  71.537  1.00  0.00    -0.311 C  
HETATM   25  C   UNL     1     -10.293   8.896  70.171  1.00  0.00    -0.206 C  
HETATM   26  C   UNL     1     -11.218   7.703  70.356  1.00  0.00    -0.258 C  
BRANCH  24  27
HETATM   27  O   UNL     1     -11.455   8.037  72.780  1.00  0.00    -0.402 OA 
BRANCH  27  28
HETATM   28  C   UNL     1     -10.751   6.940  73.188  1.00  0.00    -0.308 A  
HETATM   29  C   UNL     1     -11.251   5.642  73.225  1.00  0.00    -0.235 A  
HETATM   30  C   UNL     1     -10.439   4.591  73.647  1.00  0.00    -0.283 A  
HETATM   31  C   UNL     1      -9.125   4.813  74.045  1.00  0.00    -0.111 A  
HETATM   32  C   UNL     1      -8.625   6.115  74.025  1.00  0.00    -0.119 A  
HETATM   33  C   UNL     1      -9.430   7.170  73.573  1.00  0.00    -0.249 A  
BRANCH  31  34
HETATM   34  O   UNL     1      -8.496   3.708  74.509  1.00  0.00    -0.086 OA 
HETATM   35  C   UNL     1      -7.777   2.874  73.616  1.00  0.00    -0.052 C  
HETATM   36  F   UNL     1      -6.503   2.762  74.055  1.00  0.00    -0.019 F  
HETATM   37  F   UNL     1      -7.758   3.300  72.339  1.00  0.00    -0.052 F  
HETATM   38  F   UNL     1      -8.336   1.641  73.638  1.00  0.00    -0.044 F  
ENDBRANCH  31  34
ENDBRANCH  27  28
ENDBRANCH  24  27
ENDBRANCH  16  21
ENDBRANCH  14  15
ENDBRANCH  13  14
ENDBRANCH   2  13
TORSDOF 7
ENDMDL
MODEL       21
REMARK 921   NORMALIZED FREE ENERGY PREDICTED BY IDOCK:   -6.53 KCAL/MOL
REMARK 922        TOTAL FREE ENERGY PREDICTED BY IDOCK:  -10.69 KCAL/MOL
REMARK 923 INTER-LIGAND FREE ENERGY PREDICTED BY IDOCK:   -8.97 KCAL/MOL
REMARK 924 INTRA-LIGAND FREE ENERGY PREDICTED BY IDOCK:   -1.72 KCAL/MOL
REMARK 927      BINDING AFFINITY PREDICTED BY RF-SCORE:    0.00 PKD
ROOT
HETATM    1  C   UNL     1      -7.673   2.417  69.938  1.00  0.00    -0.046 C  
HETATM    2  C   UNL     1      -8.494   3.384  69.088  1.00  0.00    -0.062 C  
HETATM    3  C   UNL     1      -7.913   4.039  67.038  1.00  0.00    -0.096 A  
HETATM    4  C   UNL     1      -9.416   2.641  68.084  1.00  0.00    -0.158 C  
HETATM    5  N   UNL     1      -8.938   3.187  66.841  1.00  0.00    -0.148 NA 
HETATM    6  O   UNL     1      -8.869   3.668  62.777  1.00  0.00    -0.088 OA 
HETATM    7  C   UNL     1      -9.210   3.095  65.531  1.00  0.00    -0.145 A  
HETATM    8  O   UNL     1      -7.558   4.200  68.300  1.00  0.00    -0.066 OA 
HETATM    9  O   UNL     1      -7.202   5.036  63.234  1.00  0.00    -0.046 OA 
HETATM   10  C   UNL     1      -8.273   3.959  64.965  1.00  0.00    -0.097 A  
HETATM   11  N   UNL     1      -7.459   4.553  65.932  1.00  0.00    -0.081 NA 
HETATM   12  N   UNL     1      -8.097   4.246  63.558  1.00  0.00    -0.088 N  
ENDROOT
BRANCH   2  13
HETATM   13  C   UNL     1      -9.298   4.343  69.964  1.00  0.00    -0.157 C  
BRANCH  13  14
HETATM   14  O   UNL     1     -10.456   4.816  69.273  1.00  0.00    -0.086 OA 
BRANCH  14  15
HETATM   15  C   UNL     1     -10.359   6.119  68.869  1.00  0.00    -0.208 A  
HETATM   16  C   UNL     1     -10.395   8.811  67.915  1.00  0.00    -0.224 A  
HETATM   17  C   UNL     1     -10.008   7.176  69.697  1.00  0.00    -0.176 A  
HETATM   18  C   UNL     1     -10.635   6.387  67.536  1.00  0.00    -0.350 A  
HETATM   19  C   UNL     1     -10.030   8.487  69.225  1.00  0.00    -0.195 A  
HETATM   20  C   UNL     1     -10.644   7.712  67.072  1.00  0.00    -0.406 A  
BRANCH  16  21
HETATM   21  N   UNL     1     -10.444  10.128  67.487  1.00  0.00    -0.234 NA 
HETATM   22  C   UNL     1      -9.762  10.592  66.263  1.00  0.00    -0.199 C  
HETATM   23  C   UNL     1     -10.691  11.542  65.509  1.00  0.00    -0.328 C  
HETATM   24  C   UNL     1     -11.141  12.702  66.402  1.00  0.00    -0.287 C  
HETATM   25  C   UNL     1     -10.746  11.230  68.404  1.00  0.00    -0.203 C  
HETATM   26  C   UNL     1     -11.734  12.149  67.703  1.00  0.00    -0.386 C  
BRANCH  24  27
HETATM   27  O   UNL     1      -9.986  13.521  66.653  1.00  0.00    -0.267 OA 
BRANCH  27  28
HETATM   28  C   UNL     1     -10.208  14.853  66.866  1.00  0.00    -0.254 A  
HETATM   29  C   UNL     1     -10.574  15.413  68.085  1.00  0.00    -0.263 A  
HETATM   30  C   UNL     1     -10.761  16.790  68.195  1.00  0.00    -0.361 A  
HETATM   31  C   UNL     1     -10.596  17.627  67.097  1.00  0.00    -0.276 A  
HETATM   32  C   UNL     1     -10.244  17.068  65.868  1.00  0.00    -0.311 A  
HETATM   33  C   UNL     1     -10.027  15.686  65.762  1.00  0.00    -0.390 A  
BRANCH  31  34
HETATM   34  O   UNL     1     -10.898  18.924  67.342  1.00  0.00    -0.458 OA 
HETATM   35  C   UNL     1      -9.931  19.778  67.930  1.00  0.00    -0.416 C  
HETATM   36  F   UNL     1      -9.743  20.845  67.122  1.00  0.00    -0.595 F  
HETATM   37  F   UNL     1      -8.738  19.199  68.167  1.00  0.00    -0.310 F  
HETATM   38  F   UNL     1     -10.419  20.229  69.110  1.00  0.00    -0.509 F  
ENDBRANCH  31  34
ENDBRANCH  27  28
ENDBRANCH  24  27
ENDBRANCH  16  21
ENDBRANCH  14  15
ENDBRANCH  13  14
ENDBRANCH   2  13
TORSDOF 7
ENDMDL
MODEL       22
REMARK 921   NORMALIZED FREE ENERGY PREDICTED BY IDOCK:   -6.52 KCAL/MOL
REMARK 922        TOTAL FREE ENERGY PREDICTED BY IDOCK:  -10.67 KCAL/MOL
REMARK 923 INTER-LIGAND FREE ENERGY PREDICTED BY IDOCK:  -10.28 KCAL/MOL
REMARK 924 INTRA-LIGAND FREE ENERGY PREDICTED BY IDOCK:   -0.39 KCAL/MOL
REMARK 927      BINDING AFFINITY PREDICTED BY RF-SCORE:    0.00 PKD
ROOT
HETATM    1  C   UNL     1      -8.133   8.060  74.098  1.00  0.00    -0.309 C  
HETATM    2  C   UNL     1      -9.203   7.538  73.143  1.00  0.00    -0.193 C  
HETATM    3  C   UNL     1      -9.420   5.395  72.570  1.00  0.00    -0.145 A  
HETATM    4  C   UNL     1     -10.437   6.976  73.900  1.00  0.00    -0.294 C  
HETATM    5  N   UNL     1     -10.451   5.625  73.406  1.00  0.00    -0.224 NA 
HETATM    6  O   UNL     1     -11.890   1.809  73.064  1.00  0.00    -0.027 OA 
HETATM    7  C   UNL     1     -11.191   4.513  73.537  1.00  0.00    -0.303 A  
HETATM    8  O   UNL     1      -8.621   6.429  72.374  1.00  0.00    -0.121 OA 
HETATM    9  O   UNL     1     -10.163   1.562  71.716  1.00  0.00    -0.152 OA 
HETATM   10  C   UNL     1     -10.524   3.608  72.712  1.00  0.00    -0.136 A  
HETATM   11  N   UNL     1      -9.405   4.181  72.103  1.00  0.00    -0.123 NA 
HETATM   12  N   UNL     1     -10.880   2.226  72.476  1.00  0.00     0.005 N  
ENDROOT
BRANCH   2  13
HETATM   13  C   UNL     1      -9.619   8.611  72.139  1.00  0.00    -0.307 C  
BRANCH  13  14
HETATM   14  O   UNL     1     -10.531   8.082  71.174  1.00  0.00    -0.197 OA 
BRANCH  14  15
HETATM   15  C   UNL     1     -10.737   8.908  70.104  1.00  0.00    -0.225 A  
HETATM   16  C   UNL     1     -11.064  10.829  68.015  1.00  0.00    -0.299 A  
HETATM   17  C   UNL     1     -10.341   8.626  68.804  1.00  0.00    -0.228 A  
HETATM   18  C   UNL     1     -11.386  10.109  70.352  1.00  0.00    -0.401 A  
HETATM   19  C   UNL     1     -10.502   9.569  67.791  1.00  0.00    -0.309 A  
HETATM   20  C   UNL     1     -11.550  11.046  69.318  1.00  0.00    -0.384 A  
BRANCH  16  21
HETATM   21  N   UNL     1     -11.176  11.760  66.994  1.00  0.00    -0.307 NA 
HETATM   22  C   UNL     1     -10.820  11.452  65.596  1.00  0.00    -0.218 C  
HETATM   23  C   UNL     1     -11.878  12.053  64.672  1.00  0.00    -0.342 C  
HETATM   24  C   UNL     1     -12.040  13.555  64.917  1.00  0.00    -0.397 C  
HETATM   25  C   UNL     1     -11.190  13.201  67.259  1.00  0.00    -0.287 C  
HETATM   26  C   UNL     1     -12.294  13.810  66.408  1.00  0.00    -0.460 C  
BRANCH  24  27
HETATM   27  O   UNL     1     -10.832  14.194  64.469  1.00  0.00    -0.394 OA 
BRANCH  27  28
HETATM   28  C   UNL     1     -10.466  15.344  65.110  1.00  0.00    -0.411 A  
HETATM   29  C   UNL     1     -11.146  16.554  65.021  1.00  0.00    -0.174 A  
HETATM   30  C   UNL     1     -10.692  17.665  65.729  1.00  0.00    -0.110 A  
HETATM   31  C   UNL     1      -9.556  17.594  66.528  1.00  0.00    -0.292 A  
HETATM   32  C   UNL     1      -8.862  16.386  66.608  1.00  0.00    -0.283 A  
HETATM   33  C   UNL     1      -9.333  15.259  65.919  1.00  0.00    -0.308 A  
BRANCH  31  34
HETATM   34  O   UNL     1      -9.195  18.776  67.081  1.00  0.00    -0.279 OA 
HETATM   35  C   UNL     1      -9.714  19.155  68.344  1.00  0.00    -0.388 C  
HETATM   36  F   UNL     1      -8.683  19.404  69.182  1.00  0.00    -0.390 F  
HETATM   37  F   UNL     1     -10.526  18.246  68.916  1.00  0.00    -0.356 F  
HETATM   38  F   UNL     1     -10.414  20.305  68.191  1.00  0.00    -0.509 F  
ENDBRANCH  31  34
ENDBRANCH  27  28
ENDBRANCH  24  27
ENDBRANCH  16  21
ENDBRANCH  14  15
ENDBRANCH  13  14
ENDBRANCH   2  13
TORSDOF 7
ENDMDL
MODEL       23
REMARK 921   NORMALIZED FREE ENERGY PREDICTED BY IDOCK:   -6.37 KCAL/MOL
REMARK 922        TOTAL FREE ENERGY PREDICTED BY IDOCK:  -10.46 KCAL/MOL
REMARK 923 INTER-LIGAND FREE ENERGY PREDICTED BY IDOCK:   -9.30 KCAL/MOL
REMARK 924 INTRA-LIGAND FREE ENERGY PREDICTED BY IDOCK:   -1.16 KCAL/MOL
REMARK 927      BINDING AFFINITY PREDICTED BY RF-SCORE:    0.00 PKD
ROOT
HETATM    1  C   UNL     1     -12.087   5.625  72.678  1.00  0.00    -0.041 C  
HETATM    2  C   UNL     1     -10.687   6.223  72.793  1.00  0.00    -0.242 C  
HETATM    3  C   UNL     1      -8.910   5.096  73.527  1.00  0.00    -0.116 A  
HETATM    4  C   UNL     1      -9.806   5.889  71.559  1.00  0.00    -0.166 C  
HETATM    5  N   UNL     1      -8.714   5.203  72.198  1.00  0.00    -0.129 NA 
HETATM    6  O   UNL     1      -5.127   3.237  72.327  1.00  0.00     0.000 OA 
HETATM    7  C   UNL     1      -7.550   4.629  71.860  1.00  0.00    -0.088 A  
HETATM    8  O   UNL     1     -10.036   5.627  73.969  1.00  0.00    -0.176 OA 
HETATM    9  O   UNL     1      -5.567   3.126  74.484  1.00  0.00     0.000 OA 
HETATM   10  C   UNL     1      -7.067   4.177  73.087  1.00  0.00    -0.067 A  
HETATM   11  N   UNL     1      -7.938   4.482  74.136  1.00  0.00    -0.095 NA 
HETATM   12  N   UNL     1      -5.832   3.461  73.323  1.00  0.00    -0.004 N  
ENDROOT
BRANCH   2  13
HETATM   13  C   UNL     1     -10.748   7.731  73.030  1.00  0.00    -0.384 C  
BRANCH  13  14
HETATM   14  O   UNL     1     -11.996   8.267  72.585  1.00  0.00    -0.399 OA 
BRANCH  14  15
HETATM   15  C   UNL     1     -11.865   9.250  71.643  1.00  0.00    -0.383 A  
HETATM   16  C   UNL     1     -11.499  11.116  69.511  1.00  0.00    -0.303 A  
HETATM   17  C   UNL     1     -12.862  10.154  71.304  1.00  0.00    -0.508 A  
HETATM   18  C   UNL     1     -10.645   9.335  70.988  1.00  0.00    -0.386 A  
HETATM   19  C   UNL     1     -12.677  11.060  70.262  1.00  0.00    -0.256 A  
HETATM   20  C   UNL     1     -10.470  10.259  69.945  1.00  0.00    -0.304 A  
BRANCH  16  21
HETATM   21  N   UNL     1     -11.360  12.003  68.456  1.00  0.00    -0.247 NA 
HETATM   22  C   UNL     1     -11.178  11.557  67.061  1.00  0.00    -0.300 C  
HETATM   23  C   UNL     1     -12.036  12.430  66.147  1.00  0.00    -0.397 C  
HETATM   24  C   UNL     1     -11.710  13.914  66.332  1.00  0.00    -0.383 C  
HETATM   25  C   UNL     1     -10.912  13.384  68.659  1.00  0.00    -0.260 C  
HETATM   26  C   UNL     1     -11.807  14.281  67.818  1.00  0.00    -0.414 C  
BRANCH  24  27
HETATM   27  O   UNL     1     -10.384  14.128  65.819  1.00  0.00    -0.300 OA 
BRANCH  27  28
HETATM   28  C   UNL     1      -9.772  15.303  66.156  1.00  0.00    -0.314 A  
HETATM   29  C   UNL     1      -8.577  15.405  66.860  1.00  0.00    -0.291 A  
HETATM   30  C   UNL     1      -8.034  16.657  67.139  1.00  0.00    -0.212 A  
HETATM   31  C   UNL     1      -8.671  17.824  66.730  1.00  0.00    -0.256 A  
HETATM   32  C   UNL     1      -9.877  17.727  66.037  1.00  0.00    -0.181 A  
HETATM   33  C   UNL     1     -10.412  16.467  65.730  1.00  0.00    -0.343 A  
BRANCH  31  34
HETATM   34  O   UNL     1      -8.065  18.960  67.151  1.00  0.00    -0.257 OA 
HETATM   35  C   UNL     1      -8.346  19.476  68.441  1.00  0.00    -0.349 C  
HETATM   36  F   UNL     1      -7.186  19.599  69.123  1.00  0.00    -0.362 F  
HETATM   37  F   UNL     1      -9.201  18.735  69.171  1.00  0.00    -0.310 F  
HETATM   38  F   UNL     1      -8.880  20.713  68.299  1.00  0.00    -0.074 F  
ENDBRANCH  31  34
ENDBRANCH  27  28
ENDBRANCH  24  27
ENDBRANCH  16  21
ENDBRANCH  14  15
ENDBRANCH  13  14
ENDBRANCH   2  13
TORSDOF 7
ENDMDL
MODEL       24
REMARK 921   NORMALIZED FREE ENERGY PREDICTED BY IDOCK:   -6.37 KCAL/MOL
REMARK 922        TOTAL FREE ENERGY PREDICTED BY IDOCK:  -10.46 KCAL/MOL
REMARK 923 INTER-LIGAND FREE ENERGY PREDICTED BY IDOCK:   -9.00 KCAL/MOL
REMARK 924 INTRA-LIGAND FREE ENERGY PREDICTED BY IDOCK:   -1.46 KCAL/MOL
REMARK 927      BINDING AFFINITY PREDICTED BY RF-SCORE:    0.00 PKD
ROOT
HETATM    1  C   UNL     1      -9.821   4.449  67.405  1.00  0.00    -0.193 C  
HETATM    2  C   UNL     1      -9.799   5.446  68.560  1.00  0.00    -0.146 C  
HETATM    3  C   UNL     1      -9.516   4.870  70.695  1.00  0.00    -0.173 A  
HETATM    4  C   UNL     1      -8.352   5.842  68.962  1.00  0.00    -0.106 C  
HETATM    5  N   UNL     1      -8.346   5.437  70.343  1.00  0.00    -0.111 NA 
HETATM    6  O   UNL     1      -6.718   4.957  74.067  1.00  0.00    -0.066 OA 
HETATM    7  C   UNL     1      -7.511   5.453  71.393  1.00  0.00    -0.097 A  
HETATM    8  O   UNL     1     -10.414   4.799  69.728  1.00  0.00    -0.164 OA 
HETATM    9  O   UNL     1      -8.676   4.048  74.515  1.00  0.00    -0.094 OA 
HETATM   10  C   UNL     1      -8.275   4.856  72.395  1.00  0.00    -0.119 A  
HETATM   11  N   UNL     1      -9.545   4.494  71.941  1.00  0.00    -0.146 NA 
HETATM   12  N   UNL     1      -7.866   4.599  73.759  1.00  0.00    -0.096 N  
ENDROOT
BRANCH   2  13
HETATM   13  C   UNL     1     -10.636   6.682  68.239  1.00  0.00    -0.241 C  
BRANCH  13  14
HETATM   14  O   UNL     1     -10.700   7.562  69.364  1.00  0.00    -0.229 OA 
BRANCH  14  15
HETATM   15  C   UNL     1     -10.670   8.887  69.026  1.00  0.00    -0.126 A  
HETATM   16  C   UNL     1     -10.760  11.592  68.114  1.00  0.00    -0.213 A  
HETATM   17  C   UNL     1     -10.935   9.929  69.903  1.00  0.00    -0.321 A  
HETATM   18  C   UNL     1     -10.352   9.194  67.711  1.00  0.00    -0.302 A  
HETATM   19  C   UNL     1     -10.979  11.246  69.450  1.00  0.00    -0.282 A  
HETATM   20  C   UNL     1     -10.392  10.526  67.271  1.00  0.00    -0.275 A  
BRANCH  16  21
HETATM   21  N   UNL     1     -10.848  12.907  67.687  1.00  0.00    -0.228 NA 
HETATM   22  C   UNL     1      -9.757  13.881  67.881  1.00  0.00    -0.231 C  
HETATM   23  C   UNL     1      -9.600  14.710  66.607  1.00  0.00    -0.294 C  
HETATM   24  C   UNL     1     -10.919  15.381  66.217  1.00  0.00    -0.278 C  
HETATM   25  C   UNL     1     -12.139  13.561  67.454  1.00  0.00    -0.318 C  
HETATM   26  C   UNL     1     -12.032  14.328  66.145  1.00  0.00    -0.422 C  
BRANCH  24  27
HETATM   27  O   UNL     1     -11.201  16.381  67.212  1.00  0.00    -0.097 OA 
BRANCH  27  28
HETATM   28  C   UNL     1     -10.407  17.493  67.212  1.00  0.00    -0.337 A  
HETATM   29  C   UNL     1     -10.242  18.354  66.133  1.00  0.00    -0.408 A  
HETATM   30  C   UNL     1      -9.416  19.470  66.247  1.00  0.00    -0.451 A  
HETATM   31  C   UNL     1      -8.737  19.744  67.430  1.00  0.00    -0.326 A  
HETATM   32  C   UNL     1      -8.887  18.875  68.510  1.00  0.00    -0.387 A  
HETATM   33  C   UNL     1      -9.741  17.767  68.408  1.00  0.00    -0.333 A  
BRANCH  31  34
HETATM   34  O   UNL     1      -7.908  20.813  67.356  1.00  0.00    -0.339 OA 
HETATM   35  C   UNL     1      -6.532  20.623  67.078  1.00  0.00    -0.265 C  
HETATM   36  F   UNL     1      -6.203  21.350  65.986  1.00  0.00    -0.303 F  
HETATM   37  F   UNL     1      -6.170  19.343  66.869  1.00  0.00    -0.180 F  
HETATM   38  F   UNL     1      -5.814  21.096  68.125  1.00  0.00    -0.308 F  
ENDBRANCH  31  34
ENDBRANCH  27  28
ENDBRANCH  24  27
ENDBRANCH  16  21
ENDBRANCH  14  15
ENDBRANCH  13  14
ENDBRANCH   2  13
TORSDOF 7
ENDMDL
MODEL       25
REMARK 921   NORMALIZED FREE ENERGY PREDICTED BY IDOCK:   -6.36 KCAL/MOL
REMARK 922        TOTAL FREE ENERGY PREDICTED BY IDOCK:  -10.44 KCAL/MOL
REMARK 923 INTER-LIGAND FREE ENERGY PREDICTED BY IDOCK:   -9.53 KCAL/MOL
REMARK 924 INTRA-LIGAND FREE ENERGY PREDICTED BY IDOCK:   -0.91 KCAL/MOL
REMARK 927      BINDING AFFINITY PREDICTED BY RF-SCORE:    0.00 PKD
ROOT
HETATM    1  C   UNL     1     -10.968  18.736  65.370  1.00  0.00     0.418 C  
HETATM    2  C   UNL     1      -9.899  18.044  66.213  1.00  0.00    -0.307 C  
HETATM    3  C   UNL     1      -8.138  19.091  67.091  1.00  0.00    -0.264 A  
HETATM    4  C   UNL     1     -10.163  18.203  67.735  1.00  0.00    -0.383 C  
HETATM    5  N   UNL     1      -8.947  18.855  68.142  1.00  0.00    -0.301 NA 
HETATM    6  O   UNL     1      -6.354  20.545  70.821  1.00  0.00    -0.536 OA 
HETATM    7  C   UNL     1      -8.376  19.307  69.269  1.00  0.00    -0.016 A  
HETATM    8  O   UNL     1      -8.609  18.687  65.925  1.00  0.00    -0.488 OA 
HETATM    9  O   UNL     1      -5.126  20.873  69.020  1.00  0.00    -0.276 OA 
HETATM   10  C   UNL     1      -7.166  19.825  68.808  1.00  0.00    -0.317 A  
HETATM   11  N   UNL     1      -7.026  19.678  67.426  1.00  0.00    -0.204 NA 
HETATM   12  N   UNL     1      -6.137  20.461  69.602  1.00  0.00    -0.342 N  
ENDROOT
BRANCH   2  13
HETATM   13  C   UNL     1      -9.762  16.572  65.832  1.00  0.00    -0.270 C  
BRANCH  13  14
HETATM   14  O   UNL     1     -11.037  15.926  65.824  1.00  0.00    -0.216 OA 
BRANCH  14  15
HETATM   15  C   UNL     1     -10.987  14.611  66.197  1.00  0.00    -0.329 A  
HETATM   16  C   UNL     1     -10.670  11.926  67.120  1.00  0.00    -0.240 A  
HETATM   17  C   UNL     1     -12.070  13.885  66.671  1.00  0.00    -0.485 A  
HETATM   18  C   UNL     1      -9.760  13.972  66.089  1.00  0.00    -0.300 A  
HETATM   19  C   UNL     1     -11.907  12.576  67.122  1.00  0.00    -0.386 A  
HETATM   20  C   UNL     1      -9.613  12.650  66.538  1.00  0.00    -0.248 A  
BRANCH  16  21
HETATM   21  N   UNL     1     -10.533  10.637  67.611  1.00  0.00    -0.212 NA 
HETATM   22  C   UNL     1     -10.757   9.441  66.776  1.00  0.00    -0.059 C  
HETATM   23  C   UNL     1      -9.666   8.415  67.080  1.00  0.00    -0.268 C  
HETATM   24  C   UNL     1      -9.617   8.084  68.574  1.00  0.00    -0.155 C  
HETATM   25  C   UNL     1     -10.629  10.340  69.043  1.00  0.00    -0.224 C  
HETATM   26  C   UNL     1      -9.500   9.380  69.385  1.00  0.00    -0.177 C  
BRANCH  24  27
HETATM   27  O   UNL     1     -10.822   7.367  68.892  1.00  0.00    -0.166 OA 
BRANCH  27  28
HETATM   28  C   UNL     1     -10.842   6.687  70.077  1.00  0.00    -0.280 A  
HETATM   29  C   UNL     1      -9.841   5.828  70.519  1.00  0.00    -0.240 A  
HETATM   30  C   UNL     1      -9.958   5.195  71.754  1.00  0.00    -0.244 A  
HETATM   31  C   UNL     1     -11.070   5.398  72.564  1.00  0.00    -0.253 A  
HETATM   32  C   UNL     1     -12.083   6.246  72.119  1.00  0.00    -0.304 A  
HETATM   33  C   UNL     1     -11.956   6.908  70.889  1.00  0.00    -0.430 A  
BRANCH  31  34
HETATM   34  O   UNL     1     -11.076   4.646  73.691  1.00  0.00    -0.296 OA 
HETATM   35  C   UNL     1     -10.809   3.256  73.616  1.00  0.00    -0.231 C  
HETATM   36  F   UNL     1      -9.771   2.968  74.433  1.00  0.00    -0.110 F  
HETATM   37  F   UNL     1     -10.526   2.802  72.381  1.00  0.00    -0.230 F  
HETATM   38  F   UNL     1     -11.895   2.586  74.070  1.00  0.00    -0.161 F  
ENDBRANCH  31  34
ENDBRANCH  27  28
ENDBRANCH  24  27
ENDBRANCH  16  21
ENDBRANCH  14  15
ENDBRANCH  13  14
ENDBRANCH   2  13
TORSDOF 7
ENDMDL
MODEL       26
REMARK 921   NORMALIZED FREE ENERGY PREDICTED BY IDOCK:   -6.36 KCAL/MOL
REMARK 922        TOTAL FREE ENERGY PREDICTED BY IDOCK:  -10.44 KCAL/MOL
REMARK 923 INTER-LIGAND FREE ENERGY PREDICTED BY IDOCK:   -8.94 KCAL/MOL
REMARK 924 INTRA-LIGAND FREE ENERGY PREDICTED BY IDOCK:   -1.50 KCAL/MOL
REMARK 927      BINDING AFFINITY PREDICTED BY RF-SCORE:    0.00 PKD
ROOT
HETATM    1  C   UNL     1      -9.836   4.560  70.160  1.00  0.00    -0.296 C  
HETATM    2  C   UNL     1      -9.412   5.328  68.910  1.00  0.00    -0.128 C  
HETATM    3  C   UNL     1      -8.729   4.355  67.025  1.00  0.00    -0.108 A  
HETATM    4  C   UNL     1     -10.566   5.450  67.879  1.00  0.00    -0.090 C  
HETATM    5  N   UNL     1      -9.964   4.813  66.739  1.00  0.00    -0.209 NA 
HETATM    6  O   UNL     1      -9.824   3.474  62.874  1.00  0.00    -0.112 OA 
HETATM    7  C   UNL     1     -10.271   4.532  65.463  1.00  0.00    -0.231 A  
HETATM    8  O   UNL     1      -8.327   4.575  68.264  1.00  0.00    -0.090 OA 
HETATM    9  O   UNL     1      -7.821   2.772  63.470  1.00  0.00    -0.070 OA 
HETATM   10  C   UNL     1      -9.126   3.877  65.013  1.00  0.00    -0.142 A  
HETATM   11  N   UNL     1      -8.155   3.774  66.012  1.00  0.00    -0.100 NA 
HETATM   12  N   UNL     1      -8.902   3.333  63.692  1.00  0.00    -0.092 N  
ENDROOT
BRANCH   2  13
HETATM   13  C   UNL     1      -8.851   6.702  69.270  1.00  0.00    -0.133 C  
BRANCH  13  14
HETATM   14  O   UNL     1      -9.723   7.389  70.172  1.00  0.00    -0.175 OA 
BRANCH  14  15
HETATM   15  C   UNL     1      -9.931   8.700  69.841  1.00  0.00    -0.186 A  
HETATM   16  C   UNL     1     -10.308  11.371  68.901  1.00  0.00    -0.184 A  
HETATM   17  C   UNL     1     -11.046   9.437  70.212  1.00  0.00    -0.299 A  
HETATM   18  C   UNL     1      -8.950   9.320  69.081  1.00  0.00    -0.144 A  
HETATM   19  C   UNL     1     -11.225  10.739  69.747  1.00  0.00    -0.365 A  
HETATM   20  C   UNL     1      -9.139  10.636  68.628  1.00  0.00    -0.170 A  
BRANCH  16  21
HETATM   21  N   UNL     1     -10.532  12.653  68.426  1.00  0.00    -0.234 NA 
HETATM   22  C   UNL     1      -9.466  13.669  68.346  1.00  0.00    -0.190 C  
HETATM   23  C   UNL     1      -9.595  14.419  67.021  1.00  0.00    -0.251 C  
HETATM   24  C   UNL     1     -10.992  15.024  66.860  1.00  0.00    -0.324 C  
HETATM   25  C   UNL     1     -11.870  13.251  68.415  1.00  0.00    -0.360 C  
HETATM   26  C   UNL     1     -12.052  13.937  67.069  1.00  0.00    -0.451 C  
BRANCH  24  27
HETATM   27  O   UNL     1     -11.115  16.077  67.832  1.00  0.00    -0.338 OA 
BRANCH  27  28
HETATM   28  C   UNL     1     -10.403  17.220  67.600  1.00  0.00    -0.350 A  
HETATM   29  C   UNL     1     -10.236  17.814  66.354  1.00  0.00    -0.365 A  
HETATM   30  C   UNL     1      -9.499  18.990  66.233  1.00  0.00    -0.341 A  
HETATM   31  C   UNL     1      -8.912  19.588  67.343  1.00  0.00    -0.307 A  
HETATM   32  C   UNL     1      -9.063  18.988  68.592  1.00  0.00    -0.401 A  
HETATM   33  C   UNL     1      -9.829  17.819  68.722  1.00  0.00    -0.343 A  
BRANCH  31  34
HETATM   34  O   UNL     1      -8.157  20.674  67.050  1.00  0.00    -0.301 OA 
HETATM   35  C   UNL     1      -6.774  20.524  66.783  1.00  0.00    -0.259 C  
HETATM   36  F   UNL     1      -6.505  21.050  65.567  1.00  0.00    -0.280 F  
HETATM   37  F   UNL     1      -6.328  19.254  66.813  1.00  0.00    -0.184 F  
HETATM   38  F   UNL     1      -6.081  21.233  67.706  1.00  0.00    -0.334 F  
ENDBRANCH  31  34
ENDBRANCH  27  28
ENDBRANCH  24  27
ENDBRANCH  16  21
ENDBRANCH  14  15
ENDBRANCH  13  14
ENDBRANCH   2  13
TORSDOF 7
ENDMDL
MODEL       27
REMARK 921   NORMALIZED FREE ENERGY PREDICTED BY IDOCK:   -6.34 KCAL/MOL
REMARK 922        TOTAL FREE ENERGY PREDICTED BY IDOCK:  -10.42 KCAL/MOL
REMARK 923 INTER-LIGAND FREE ENERGY PREDICTED BY IDOCK:   -9.59 KCAL/MOL
REMARK 924 INTRA-LIGAND FREE ENERGY PREDICTED BY IDOCK:   -0.83 KCAL/MOL
REMARK 927      BINDING AFFINITY PREDICTED BY RF-SCORE:    0.00 PKD
ROOT
HETATM    1  C   UNL     1     -10.989  18.225  67.777  1.00  0.00    -0.118 C  
HETATM    2  C   UNL     1     -10.617  16.906  68.450  1.00  0.00    -0.365 C  
HETATM    3  C   UNL     1     -11.338  16.292  70.467  1.00  0.00    -0.299 A  
HETATM    4  C   UNL     1     -11.706  15.818  68.244  1.00  0.00    -0.222 C  
HETATM    5  N   UNL     1     -12.035  15.519  69.612  1.00  0.00    -0.357 NA 
HETATM    6  O   UNL     1     -14.013  13.566  72.616  1.00  0.00    -0.752 OA 
HETATM    7  C   UNL     1     -12.843  14.694  70.296  1.00  0.00    -0.206 A  
HETATM    8  O   UNL     1     -10.512  17.149  69.895  1.00  0.00    -0.097 OA 
HETATM    9  O   UNL     1     -12.814  14.891  73.907  1.00  0.00    -0.494 OA 
HETATM   10  C   UNL     1     -12.569  15.032  71.621  1.00  0.00    -0.339 A  
HETATM   11  N   UNL     1     -11.611  16.045  71.715  1.00  0.00    -0.464 NA 
HETATM   12  N   UNL     1     -13.172  14.459  72.804  1.00  0.00    -0.495 N  
ENDROOT
BRANCH   2  13
HETATM   13  C   UNL     1      -9.252  16.411  67.977  1.00  0.00    -0.204 C  
BRANCH  13  14
HETATM   14  O   UNL     1      -9.331  15.885  66.650  1.00  0.00    -0.217 OA 
BRANCH  14  15
HETATM   15  C   UNL     1      -9.265  14.520  66.597  1.00  0.00    -0.266 A  
HETATM   16  C   UNL     1      -9.155  11.669  66.750  1.00  0.00    -0.186 A  
HETATM   17  C   UNL     1     -10.019  13.728  65.743  1.00  0.00    -0.293 A  
HETATM   18  C   UNL     1      -8.380  13.898  67.465  1.00  0.00    -0.202 A  
HETATM   19  C   UNL     1      -9.962  12.338  65.824  1.00  0.00    -0.273 A  
HETATM   20  C   UNL     1      -8.326  12.496  67.530  1.00  0.00    -0.175 A  
BRANCH  16  21
HETATM   21  N   UNL     1      -9.149  10.286  66.832  1.00  0.00    -0.142 NA 
HETATM   22  C   UNL     1      -9.688   9.556  67.995  1.00  0.00    -0.147 C  
HETATM   23  C   UNL     1     -10.485   8.352  67.497  1.00  0.00    -0.328 C  
HETATM   24  C   UNL     1      -9.633   7.459  66.591  1.00  0.00    -0.190 C  
HETATM   25  C   UNL     1      -8.220   9.468  66.046  1.00  0.00    -0.115 C  
HETATM   26  C   UNL     1      -9.012   8.304  65.472  1.00  0.00    -0.114 C  
BRANCH  24  27
HETATM   27  O   UNL     1      -8.625   6.851  67.417  1.00  0.00    -0.120 OA 
BRANCH  27  28
HETATM   28  C   UNL     1      -9.029   6.363  68.628  1.00  0.00    -0.125 A  
HETATM   29  C   UNL     1      -9.938   5.325  68.804  1.00  0.00    -0.243 A  
HETATM   30  C   UNL     1     -10.270   4.896  70.087  1.00  0.00    -0.310 A  
HETATM   31  C   UNL     1      -9.710   5.493  71.212  1.00  0.00    -0.166 A  
HETATM   32  C   UNL     1      -8.810   6.544  71.041  1.00  0.00    -0.139 A  
HETATM   33  C   UNL     1      -8.452   6.959  69.749  1.00  0.00    -0.133 A  
BRANCH  31  34
HETATM   34  O   UNL     1     -10.197   5.024  72.386  1.00  0.00    -0.187 OA 
HETATM   35  C   UNL     1     -11.297   5.670  73.005  1.00  0.00    -0.236 C  
HETATM   36  F   UNL     1     -12.282   4.765  73.197  1.00  0.00    -0.358 F  
HETATM   37  F   UNL     1     -11.797   6.714  72.318  1.00  0.00    -0.306 F  
HETATM   38  F   UNL     1     -10.901   6.119  74.219  1.00  0.00    -0.206 F  
ENDBRANCH  31  34
ENDBRANCH  27  28
ENDBRANCH  24  27
ENDBRANCH  16  21
ENDBRANCH  14  15
ENDBRANCH  13  14
ENDBRANCH   2  13
TORSDOF 7
ENDMDL
MODEL       28
REMARK 921   NORMALIZED FREE ENERGY PREDICTED BY IDOCK:   -6.33 KCAL/MOL
REMARK 922        TOTAL FREE ENERGY PREDICTED BY IDOCK:  -10.40 KCAL/MOL
REMARK 923 INTER-LIGAND FREE ENERGY PREDICTED BY IDOCK:   -9.24 KCAL/MOL
REMARK 924 INTRA-LIGAND FREE ENERGY PREDICTED BY IDOCK:   -1.16 KCAL/MOL
REMARK 927      BINDING AFFINITY PREDICTED BY RF-SCORE:    0.00 PKD
ROOT
HETATM    1  C   UNL     1     -10.893  18.152  67.637  1.00  0.00    -0.260 C  
HETATM    2  C   UNL     1     -10.622  16.783  68.256  1.00  0.00    -0.352 C  
HETATM    3  C   UNL     1     -11.091  16.259  70.371  1.00  0.00    -0.311 A  
HETATM    4  C   UNL     1     -11.883  15.876  68.243  1.00  0.00    -0.057 C  
HETATM    5  N   UNL     1     -12.028  15.613  69.650  1.00  0.00    -0.364 NA 
HETATM    6  O   UNL     1     -13.766  13.945  72.958  1.00  0.00    -0.600 OA 
HETATM    7  C   UNL     1     -12.830  14.912  70.465  1.00  0.00    -0.326 A  
HETATM    8  O   UNL     1     -10.247  16.988  69.663  1.00  0.00    -0.161 OA 
HETATM    9  O   UNL     1     -12.185  15.054  74.021  1.00  0.00    -0.570 OA 
HETATM   10  C   UNL     1     -12.296  15.187  71.724  1.00  0.00    -0.354 A  
HETATM   11  N   UNL     1     -11.193  16.040  71.650  1.00  0.00    -0.175 NA 
HETATM   12  N   UNL     1     -12.779  14.696  72.996  1.00  0.00    -0.430 N  
ENDROOT
BRANCH   2  13
HETATM   13  C   UNL     1      -9.444  16.092  67.574  1.00  0.00    -0.223 C  
BRANCH  13  14
HETATM   14  O   UNL     1      -9.897  15.193  66.558  1.00  0.00    -0.240 OA 
BRANCH  14  15
HETATM   15  C   UNL     1      -9.918  13.885  66.954  1.00  0.00    -0.264 A  
HETATM   16  C   UNL     1      -9.933  11.086  67.526  1.00  0.00    -0.174 A  
HETATM   17  C   UNL     1      -9.152  13.361  67.986  1.00  0.00    -0.205 A  
HETATM   18  C   UNL     1     -10.770  13.033  66.266  1.00  0.00    -0.290 A  
HETATM   19  C   UNL     1      -9.162  11.994  68.258  1.00  0.00    -0.192 A  
HETATM   20  C   UNL     1     -10.777  11.659  66.557  1.00  0.00    -0.313 A  
BRANCH  16  21
HETATM   21  N   UNL     1      -9.893   9.727  67.796  1.00  0.00    -0.155 NA 
HETATM   22  C   UNL     1     -10.515   8.722  66.913  1.00  0.00    -0.249 C  
HETATM   23  C   UNL     1      -9.568   7.531  66.776  1.00  0.00    -0.265 C  
HETATM   24  C   UNL     1      -9.200   6.955  68.147  1.00  0.00    -0.126 C  
HETATM   25  C   UNL     1      -9.673   9.213  69.151  1.00  0.00    -0.163 C  
HETATM   26  C   UNL     1      -8.670   8.075  69.050  1.00  0.00    -0.137 C  
BRANCH  24  27
HETATM   27  O   UNL     1     -10.388   6.355  68.691  1.00  0.00    -0.166 OA 
BRANCH  27  28
HETATM   28  C   UNL     1     -10.251   5.664  69.862  1.00  0.00    -0.250 A  
HETATM   29  C   UNL     1      -9.300   4.676  70.096  1.00  0.00    -0.213 A  
HETATM   30  C   UNL     1      -9.240   4.043  71.336  1.00  0.00    -0.193 A  
HETATM   31  C   UNL     1     -10.124   4.375  72.357  1.00  0.00    -0.181 A  
HETATM   32  C   UNL     1     -11.090   5.354  72.121  1.00  0.00    -0.234 A  
HETATM   33  C   UNL     1     -11.134   6.014  70.884  1.00  0.00    -0.352 A  
BRANCH  31  34
HETATM   34  O   UNL     1      -9.995   3.613  73.468  1.00  0.00    -0.110 OA 
HETATM   35  C   UNL     1     -10.388   2.251  73.443  1.00  0.00    -0.121 C  
HETATM   36  F   UNL     1      -9.336   1.487  73.813  1.00  0.00    -0.065 F  
HETATM   37  F   UNL     1     -10.839   1.817  72.251  1.00  0.00    -0.229 F  
HETATM   38  F   UNL     1     -11.374   2.073  74.354  1.00  0.00    -0.171 F  
ENDBRANCH  31  34
ENDBRANCH  27  28
ENDBRANCH  24  27
ENDBRANCH  16  21
ENDBRANCH  14  15
ENDBRANCH  13  14
ENDBRANCH   2  13
TORSDOF 7
ENDMDL
MODEL       29
REMARK 921   NORMALIZED FREE ENERGY PREDICTED BY IDOCK:   -6.24 KCAL/MOL
REMARK 922        TOTAL FREE ENERGY PREDICTED BY IDOCK:  -10.28 KCAL/MOL
REMARK 923 INTER-LIGAND FREE ENERGY PREDICTED BY IDOCK:   -9.17 KCAL/MOL
REMARK 924 INTRA-LIGAND FREE ENERGY PREDICTED BY IDOCK:   -1.11 KCAL/MOL
REMARK 927      BINDING AFFINITY PREDICTED BY RF-SCORE:    0.00 PKD
ROOT
HETATM    1  C   UNL     1      -9.891   4.411  71.055  1.00  0.00    -0.260 C  
HETATM    2  C   UNL     1      -9.561   5.328  69.880  1.00  0.00    -0.177 C  
HETATM    3  C   UNL     1      -8.924   4.597  67.873  1.00  0.00    -0.114 A  
HETATM    4  C   UNL     1     -10.767   5.500  68.917  1.00  0.00    -0.137 C  
HETATM    5  N   UNL     1     -10.190   5.019  67.690  1.00  0.00    -0.143 NA 
HETATM    6  O   UNL     1     -10.170   4.108  63.700  1.00  0.00    -0.144 OA 
HETATM    7  C   UNL     1     -10.544   4.861  66.405  1.00  0.00    -0.223 A  
HETATM    8  O   UNL     1      -8.474   4.705  69.110  1.00  0.00    -0.079 OA 
HETATM    9  O   UNL     1      -8.111   3.448  64.132  1.00  0.00    -0.085 OA 
HETATM   10  C   UNL     1      -9.391   4.316  65.839  1.00  0.00    -0.163 A  
HETATM   11  N   UNL     1      -8.371   4.157  66.780  1.00  0.00    -0.101 NA 
HETATM   12  N   UNL     1      -9.204   3.928  64.458  1.00  0.00    -0.139 N  
ENDROOT
BRANCH   2  13
HETATM   13  C   UNL     1      -9.048   6.683  70.363  1.00  0.00    -0.152 C  
BRANCH  13  14
HETATM   14  O   UNL     1     -10.127   7.505  70.814  1.00  0.00    -0.193 OA 
BRANCH  14  15
HETATM   15  C   UNL     1     -10.317   8.626  70.054  1.00  0.00    -0.207 A  
HETATM   16  C   UNL     1     -10.693  10.811  68.252  1.00  0.00    -0.213 A  
HETATM   17  C   UNL     1     -11.340   9.544  70.245  1.00  0.00    -0.284 A  
HETATM   18  C   UNL     1      -9.416   8.846  69.021  1.00  0.00    -0.156 A  
HETATM   19  C   UNL     1     -11.518  10.606  69.361  1.00  0.00    -0.356 A  
HETATM   20  C   UNL     1      -9.603   9.926  68.143  1.00  0.00    -0.153 A  
BRANCH  16  21
HETATM   21  N   UNL     1     -10.919  11.855  67.369  1.00  0.00    -0.248 NA 
HETATM   22  C   UNL     1     -10.980  11.661  65.908  1.00  0.00    -0.280 C  
HETATM   23  C   UNL     1     -12.135  12.488  65.347  1.00  0.00    -0.494 C  
HETATM   24  C   UNL     1     -12.002  13.963  65.735  1.00  0.00    -0.400 C  
HETATM   25  C   UNL     1     -10.648  13.248  67.733  1.00  0.00    -0.241 C  
HETATM   26  C   UNL     1     -11.827  14.081  67.254  1.00  0.00    -0.445 C  
BRANCH  24  27
HETATM   27  O   UNL     1     -10.865  14.489  65.030  1.00  0.00    -0.362 OA 
BRANCH  27  28
HETATM   28  C   UNL     1     -10.417  15.723  65.411  1.00  0.00    -0.414 A  
HETATM   29  C   UNL     1     -11.156  16.898  65.330  1.00  0.00     0.050 A  
HETATM   30  C   UNL     1     -10.605  18.102  65.761  1.00  0.00    -0.186 A  
HETATM   31  C   UNL     1      -9.312  18.160  66.272  1.00  0.00    -0.208 A  
HETATM   32  C   UNL     1      -8.561  16.986  66.341  1.00  0.00    -0.311 A  
HETATM   33  C   UNL     1      -9.124  15.767  65.934  1.00  0.00    -0.300 A  
BRANCH  31  34
HETATM   34  O   UNL     1      -8.890  19.412  66.566  1.00  0.00    -0.321 OA 
HETATM   35  C   UNL     1      -9.147  19.964  67.847  1.00  0.00    -0.313 C  
HETATM   36  F   UNL     1      -7.973  20.340  68.402  1.00  0.00    -0.282 F  
HETATM   37  F   UNL     1      -9.783  19.138  68.698  1.00  0.00    -0.363 F  
HETATM   38  F   UNL     1      -9.908  21.073  67.690  1.00  0.00    -0.572 F  
ENDBRANCH  31  34
ENDBRANCH  27  28
ENDBRANCH  24  27
ENDBRANCH  16  21
ENDBRANCH  14  15
ENDBRANCH  13  14
ENDBRANCH   2  13
TORSDOF 7
ENDMDL
MODEL       30
REMARK 921   NORMALIZED FREE ENERGY PREDICTED BY IDOCK:   -6.24 KCAL/MOL
REMARK 922        TOTAL FREE ENERGY PREDICTED BY IDOCK:  -10.27 KCAL/MOL
REMARK 923 INTER-LIGAND FREE ENERGY PREDICTED BY IDOCK:   -9.92 KCAL/MOL
REMARK 924 INTRA-LIGAND FREE ENERGY PREDICTED BY IDOCK:   -0.36 KCAL/MOL
REMARK 927      BINDING AFFINITY PREDICTED BY RF-SCORE:    0.00 PKD
ROOT
HETATM    1  C   UNL     1     -14.213   8.226  71.802  1.00  0.00    -0.544 C  
HETATM    2  C   UNL     1     -12.769   8.346  71.323  1.00  0.00    -0.195 C  
HETATM    3  C   UNL     1     -10.996   7.843  72.577  1.00  0.00    -0.350 A  
HETATM    4  C   UNL     1     -12.208   6.991  70.813  1.00  0.00    -0.295 C  
HETATM    5  N   UNL     1     -11.078   6.832  71.690  1.00  0.00    -0.239 NA 
HETATM    6  O   UNL     1      -7.758   4.949  73.167  1.00  0.00    -0.090 OA 
HETATM    7  C   UNL     1     -10.075   5.964  71.891  1.00  0.00    -0.185 A  
HETATM    8  O   UNL     1     -11.944   8.756  72.469  1.00  0.00    -0.343 OA 
HETATM    9  O   UNL     1      -7.737   6.655  74.562  1.00  0.00    -0.108 OA 
HETATM   10  C   UNL     1      -9.390   6.537  72.961  1.00  0.00    -0.135 A  
HETATM   11  N   UNL     1      -9.982   7.730  73.384  1.00  0.00    -0.317 NA 
HETATM   12  N   UNL     1      -8.209   6.015  73.615  1.00  0.00    -0.112 N  
ENDROOT
BRANCH   2  13
HETATM   13  C   UNL     1     -12.629   9.432  70.258  1.00  0.00     0.460 C  
BRANCH  13  14
HETATM   14  O   UNL     1     -12.544  10.727  70.857  1.00  0.00    -0.341 OA 
BRANCH  14  15
HETATM   15  C   UNL     1     -12.148  11.707  69.990  1.00  0.00    -0.319 A  
HETATM   16  C   UNL     1     -11.169  13.851  68.376  1.00  0.00    -0.264 A  
HETATM   17  C   UNL     1     -11.686  11.479  68.702  1.00  0.00    -0.389 A  
HETATM   18  C   UNL     1     -12.215  13.016  70.447  1.00  0.00    -0.386 A  
HETATM   19  C   UNL     1     -11.208  12.530  67.920  1.00  0.00    -0.312 A  
HETATM   20  C   UNL     1     -11.738  14.066  69.645  1.00  0.00    -0.368 A  
BRANCH  16  21
HETATM   21  N   UNL     1     -10.652  14.868  67.589  1.00  0.00    -0.260 NA 
HETATM   22  C   UNL     1     -10.438  14.720  66.137  1.00  0.00    -0.304 C  
HETATM   23  C   UNL     1     -10.890  16.000  65.437  1.00  0.00    -0.340 C  
HETATM   24  C   UNL     1     -10.176  17.227  66.010  1.00  0.00    -0.304 C  
HETATM   25  C   UNL     1      -9.854  15.958  68.158  1.00  0.00    -0.214 C  
HETATM   26  C   UNL     1     -10.343  17.255  67.534  1.00  0.00    -0.346 C  
BRANCH  24  27
HETATM   27  O   UNL     1      -8.792  17.131  65.631  1.00  0.00    -0.482 OA 
BRANCH  27  28
HETATM   28  C   UNL     1      -7.876  17.668  66.492  1.00  0.00    -0.272 A  
HETATM   29  C   UNL     1      -6.871  16.951  67.132  1.00  0.00    -0.221 A  
HETATM   30  C   UNL     1      -5.980  17.602  67.982  1.00  0.00    -0.158 A  
HETATM   31  C   UNL     1      -6.078  18.970  68.215  1.00  0.00    -0.218 A  
HETATM   32  C   UNL     1      -7.094  19.690  67.588  1.00  0.00    -0.275 A  
HETATM   33  C   UNL     1      -7.975  19.042  66.709  1.00  0.00    -0.270 A  
BRANCH  31  34
HETATM   34  O   UNL     1      -5.196  19.438  69.130  1.00  0.00    -0.191 OA 
HETATM   35  C   UNL     1      -5.667  20.077  70.304  1.00  0.00    -0.304 C  
HETATM   36  F   UNL     1      -5.163  19.435  71.382  1.00  0.00    -0.218 F  
HETATM   37  F   UNL     1      -7.007  20.128  70.420  1.00  0.00    -0.338 F  
HETATM   38  F   UNL     1      -5.197  21.347  70.318  1.00  0.00    -0.368 F  
ENDBRANCH  31  34
ENDBRANCH  27  28
ENDBRANCH  24  27
ENDBRANCH  16  21
ENDBRANCH  14  15
ENDBRANCH  13  14
ENDBRANCH   2  13
TORSDOF 7
ENDMDL
MODEL       31
REMARK 921   NORMALIZED FREE ENERGY PREDICTED BY IDOCK:   -6.24 KCAL/MOL
REMARK 922        TOTAL FREE ENERGY PREDICTED BY IDOCK:  -10.27 KCAL/MOL
REMARK 923 INTER-LIGAND FREE ENERGY PREDICTED BY IDOCK:   -8.73 KCAL/MOL
REMARK 924 INTRA-LIGAND FREE ENERGY PREDICTED BY IDOCK:   -1.54 KCAL/MOL
REMARK 927      BINDING AFFINITY PREDICTED BY RF-SCORE:    0.00 PKD
ROOT
HETATM    1  C   UNL     1     -12.549  14.499  64.576  1.00  0.00    -0.207 C  
HETATM    2  C   UNL     1     -11.207  14.895  65.188  1.00  0.00    -0.386 C  
HETATM    3  C   UNL     1     -10.679  16.976  65.787  1.00  0.00    -0.142 A  
HETATM    4  C   UNL     1     -11.270  14.964  66.738  1.00  0.00    -0.338 C  
HETATM    5  N   UNL     1     -10.884  16.333  66.953  1.00  0.00    -0.219 NA 
HETATM    6  O   UNL     1     -10.008  19.636  69.204  1.00  0.00    -0.441 OA 
HETATM    7  C   UNL     1     -10.669  17.169  67.980  1.00  0.00    -0.372 A  
HETATM    8  O   UNL     1     -10.870  16.242  64.705  1.00  0.00    -0.671 OA 
HETATM    9  O   UNL     1      -9.707  20.573  67.231  1.00  0.00    -0.443 OA 
HETATM   10  C   UNL     1     -10.318  18.355  67.337  1.00  0.00    -0.391 A  
HETATM   11  N   UNL     1     -10.325  18.218  65.946  1.00  0.00    -0.596 NA 
HETATM   12  N   UNL     1      -9.986  19.615  67.964  1.00  0.00    -0.401 N  
ENDROOT
BRANCH   2  13
HETATM   13  C   UNL     1     -10.092  13.960  64.726  1.00  0.00    -0.215 C  
BRANCH  13  14
HETATM   14  O   UNL     1     -10.612  12.913  63.904  1.00  0.00    -0.410 OA 
BRANCH  14  15
HETATM   15  C   UNL     1     -10.201  11.664  64.281  1.00  0.00    -0.311 A  
HETATM   16  C   UNL     1      -9.096   9.134  65.015  1.00  0.00    -0.156 A  
HETATM   17  C   UNL     1     -10.573  11.036  65.461  1.00  0.00    -0.267 A  
HETATM   18  C   UNL     1      -9.351  10.992  63.414  1.00  0.00    -0.296 A  
HETATM   19  C   UNL     1     -10.028   9.802  65.814  1.00  0.00    -0.349 A  
HETATM   20  C   UNL     1      -8.817   9.746  63.778  1.00  0.00    -0.259 A  
BRANCH  16  21
HETATM   21  N   UNL     1      -8.543   7.927  65.411  1.00  0.00    -0.132 NA 
HETATM   22  C   UNL     1      -7.887   7.004  64.465  1.00  0.00    -0.118 C  
HETATM   23  C   UNL     1      -6.615   6.456  65.109  1.00  0.00    -0.039 C  
HETATM   24  C   UNL     1      -6.917   5.794  66.456  1.00  0.00    -0.064 C  
HETATM   25  C   UNL     1      -8.959   7.253  66.644  1.00  0.00    -0.150 C  
HETATM   26  C   UNL     1      -7.699   6.768  67.345  1.00  0.00    -0.110 C  
BRANCH  24  27
HETATM   27  O   UNL     1      -7.673   4.601  66.186  1.00  0.00    -0.089 OA 
BRANCH  27  28
HETATM   28  C   UNL     1      -8.004   3.822  67.259  1.00  0.00    -0.091 A  
HETATM   29  C   UNL     1      -9.301   3.461  67.610  1.00  0.00    -0.246 A  
HETATM   30  C   UNL     1      -9.524   2.649  68.720  1.00  0.00    -0.183 A  
HETATM   31  C   UNL     1      -8.468   2.190  69.500  1.00  0.00    -0.051 A  
HETATM   32  C   UNL     1      -7.167   2.561  69.160  1.00  0.00    -0.044 A  
HETATM   33  C   UNL     1      -6.937   3.355  68.026  1.00  0.00    -0.050 A  
BRANCH  31  34
HETATM   34  O   UNL     1      -8.853   1.485  70.590  1.00  0.00    -0.055 OA 
HETATM   35  C   UNL     1      -9.072   2.150  71.822  1.00  0.00    -0.085 C  
HETATM   36  F   UNL     1     -10.328   1.885  72.243  1.00  0.00    -0.208 F  
HETATM   37  F   UNL     1      -8.903   3.486  71.779  1.00  0.00    -0.099 F  
HETATM   38  F   UNL     1      -8.210   1.649  72.739  1.00  0.00    -0.048 F  
ENDBRANCH  31  34
ENDBRANCH  27  28
ENDBRANCH  24  27
ENDBRANCH  16  21
ENDBRANCH  14  15
ENDBRANCH  13  14
ENDBRANCH   2  13
TORSDOF 7
ENDMDL
MODEL       32
REMARK 921   NORMALIZED FREE ENERGY PREDICTED BY IDOCK:   -6.15 KCAL/MOL
REMARK 922        TOTAL FREE ENERGY PREDICTED BY IDOCK:  -10.14 KCAL/MOL
REMARK 923 INTER-LIGAND FREE ENERGY PREDICTED BY IDOCK:   -8.57 KCAL/MOL
REMARK 924 INTRA-LIGAND FREE ENERGY PREDICTED BY IDOCK:   -1.57 KCAL/MOL
REMARK 927      BINDING AFFINITY PREDICTED BY RF-SCORE:    0.00 PKD
ROOT
HETATM    1  C   UNL     1     -13.313   6.793  71.523  1.00  0.00    -0.195 C  
HETATM    2  C   UNL     1     -11.799   6.805  71.324  1.00  0.00    -0.348 C  
HETATM    3  C   UNL     1     -10.459   5.115  71.884  1.00  0.00    -0.207 A  
HETATM    4  C   UNL     1     -11.377   6.091  70.012  1.00  0.00    -0.284 C  
HETATM    5  N   UNL     1     -10.513   5.069  70.539  1.00  0.00    -0.211 NA 
HETATM    6  O   UNL     1      -7.968   1.872  70.307  1.00  0.00    -0.042 OA 
HETATM    7  C   UNL     1      -9.741   4.070  70.084  1.00  0.00    -0.195 A  
HETATM    8  O   UNL     1     -11.191   6.064  72.439  1.00  0.00    -0.262 OA 
HETATM    9  O   UNL     1      -7.968   2.051  72.504  1.00  0.00    -0.051 OA 
HETATM   10  C   UNL     1      -9.221   3.530  71.260  1.00  0.00    -0.125 A  
HETATM   11  N   UNL     1      -9.682   4.203  72.394  1.00  0.00    -0.146 NA 
HETATM   12  N   UNL     1      -8.320   2.403  71.372  1.00  0.00    -0.057 N  
ENDROOT
BRANCH   2  13
HETATM   13  C   UNL     1     -11.246   8.228  71.377  1.00  0.00    -0.255 C  
BRANCH  13  14
HETATM   14  O   UNL     1     -10.494   8.527  70.199  1.00  0.00    -0.210 OA 
BRANCH  14  15
HETATM   15  C   UNL     1     -10.563   9.840  69.823  1.00  0.00    -0.257 A  
HETATM   16  C   UNL     1     -10.714  12.644  69.297  1.00  0.00     0.081 A  
HETATM   17  C   UNL     1      -9.716  10.442  68.904  1.00  0.00    -0.203 A  
HETATM   18  C   UNL     1     -11.554  10.612  70.413  1.00  0.00    -0.441 A  
HETATM   19  C   UNL     1      -9.793  11.811  68.654  1.00  0.00    -0.153 A  
HETATM   20  C   UNL     1     -11.627  11.988  70.144  1.00  0.00    -0.228 A  
BRANCH  16  21
HETATM   21  N   UNL     1     -10.741  14.008  69.055  1.00  0.00    -0.235 NA 
HETATM   22  C   UNL     1      -9.723  14.690  68.233  1.00  0.00    -0.215 C  
HETATM   23  C   UNL     1     -10.419  15.703  67.325  1.00  0.00    -0.292 C  
HETATM   24  C   UNL     1     -11.268  16.685  68.136  1.00  0.00    -0.202 C  
HETATM   25  C   UNL     1     -11.455  14.936  69.936  1.00  0.00    -0.284 C  
HETATM   26  C   UNL     1     -12.222  15.907  69.051  1.00  0.00     0.036 C  
BRANCH  24  27
HETATM   27  O   UNL     1     -10.364  17.508  68.893  1.00  0.00    -0.353 OA 
BRANCH  27  28
HETATM   28  C   UNL     1      -9.584  18.380  68.187  1.00  0.00    -0.316 A  
HETATM   29  C   UNL     1     -10.048  19.239  67.196  1.00  0.00    -0.473 A  
HETATM   30  C   UNL     1      -9.165  20.100  66.547  1.00  0.00    -0.440 A  
HETATM   31  C   UNL     1      -7.811  20.116  66.866  1.00  0.00    -0.315 A  
HETATM   32  C   UNL     1      -7.339  19.246  67.848  1.00  0.00    -0.289 A  
HETATM   33  C   UNL     1      -8.230  18.399  68.524  1.00  0.00    -0.338 A  
BRANCH  31  34
HETATM   34  O   UNL     1      -7.072  20.943  66.089  1.00  0.00    -0.117 OA 
HETATM   35  C   UNL     1      -6.497  20.459  64.887  1.00  0.00    -0.297 C  
HETATM   36  F   UNL     1      -6.914  21.236  63.862  1.00  0.00    -0.257 F  
HETATM   37  F   UNL     1      -6.785  19.176  64.601  1.00  0.00    -0.217 F  
HETATM   38  F   UNL     1      -5.151  20.576  64.978  1.00  0.00    -0.181 F  
ENDBRANCH  31  34
ENDBRANCH  27  28
ENDBRANCH  24  27
ENDBRANCH  16  21
ENDBRANCH  14  15
ENDBRANCH  13  14
ENDBRANCH   2  13
TORSDOF 7
ENDMDL
MODEL       33
REMARK 921   NORMALIZED FREE ENERGY PREDICTED BY IDOCK:   -6.07 KCAL/MOL
REMARK 922        TOTAL FREE ENERGY PREDICTED BY IDOCK:  -10.03 KCAL/MOL
REMARK 923 INTER-LIGAND FREE ENERGY PREDICTED BY IDOCK:   -8.57 KCAL/MOL
REMARK 924 INTRA-LIGAND FREE ENERGY PREDICTED BY IDOCK:   -1.46 KCAL/MOL
REMARK 927      BINDING AFFINITY PREDICTED BY RF-SCORE:    0.00 PKD
ROOT
HETATM    1  C   UNL     1      -5.779  20.770  64.756  1.00  0.00    -0.278 C  
HETATM    2  C   UNL     1      -6.724  20.250  65.836  1.00  0.00    -0.252 C  
HETATM    3  C   UNL     1      -6.144  18.753  67.382  1.00  0.00    -0.171 A  
HETATM    4  C   UNL     1      -6.552  21.011  67.179  1.00  0.00    -0.356 C  
HETATM    5  N   UNL     1      -6.214  19.919  68.053  1.00  0.00    -0.227 NA 
HETATM    6  O   UNL     1      -5.254  18.189  71.636  1.00  0.00    -0.501 OA 
HETATM    7  C   UNL     1      -5.940  19.717  69.351  1.00  0.00    -0.283 A  
HETATM    8  O   UNL     1      -6.393  18.840  66.088  1.00  0.00    -0.175 OA 
HETATM    9  O   UNL     1      -5.171  16.350  70.423  1.00  0.00    -0.169 OA 
HETATM   10  C   UNL     1      -5.707  18.343  69.400  1.00  0.00    -0.232 A  
HETATM   11  N   UNL     1      -5.843  17.744  68.146  1.00  0.00    -0.159 NA 
HETATM   12  N   UNL     1      -5.352  17.566  70.567  1.00  0.00    -0.256 N  
ENDROOT
BRANCH   2  13
HETATM   13  C   UNL     1      -8.177  20.293  65.365  1.00  0.00     0.498 C  
BRANCH  13  14
HETATM   14  O   UNL     1      -9.067  20.463  66.471  1.00  0.00    -0.262 OA 
BRANCH  14  15
HETATM   15  C   UNL     1      -9.470  19.284  67.035  1.00  0.00    -0.322 A  
HETATM   16  C   UNL     1     -10.479  16.965  68.364  1.00  0.00    -0.355 A  
HETATM   17  C   UNL     1      -9.845  18.156  66.319  1.00  0.00    -0.311 A  
HETATM   18  C   UNL     1      -9.504  19.229  68.421  1.00  0.00    -0.435 A  
HETATM   19  C   UNL     1     -10.339  17.029  66.975  1.00  0.00    -0.304 A  
HETATM   20  C   UNL     1      -9.994  18.084  69.068  1.00  0.00    -0.292 A  
BRANCH  16  21
HETATM   21  N   UNL     1     -11.009  15.844  68.983  1.00  0.00    -0.257 NA 
HETATM   22  C   UNL     1     -10.197  14.654  69.302  1.00  0.00    -0.147 C  
HETATM   23  C   UNL     1     -10.574  14.157  70.697  1.00  0.00     1.272 C  
HETATM   24  C   UNL     1     -12.077  13.884  70.801  1.00  0.00    -0.330 C  
HETATM   25  C   UNL     1     -12.442  15.543  68.944  1.00  0.00     0.269 C  
HETATM   26  C   UNL     1     -12.858  15.123  70.346  1.00  0.00    -0.346 C  
BRANCH  24  27
HETATM   27  O   UNL     1     -12.362  12.744  69.972  1.00  0.00    -0.223 OA 
BRANCH  27  28
HETATM   28  C   UNL     1     -12.154  11.511  70.522  1.00  0.00    -0.378 A  
HETATM   29  C   UNL     1     -11.037  10.716  70.293  1.00  0.00    -0.310 A  
HETATM   30  C   UNL     1     -10.920   9.477  70.920  1.00  0.00    -0.407 A  
HETATM   31  C   UNL     1     -11.911   9.007  71.775  1.00  0.00    -0.368 A  
HETATM   32  C   UNL     1     -13.041   9.794  71.996  1.00  0.00    -0.546 A  
HETATM   33  C   UNL     1     -13.148  11.055  71.389  1.00  0.00    -0.441 A  
BRANCH  31  34
HETATM   34  O   UNL     1     -11.693   7.752  72.236  1.00  0.00    -0.306 OA 
HETATM   35  C   UNL     1     -12.199   6.637  71.521  1.00  0.00    -0.340 C  
HETATM   36  F   UNL     1     -11.174   5.807  71.227  1.00  0.00    -0.329 F  
HETATM   37  F   UNL     1     -12.847   6.945  70.382  1.00  0.00    -0.283 F  
HETATM   38  F   UNL     1     -13.060   5.969  72.325  1.00  0.00    -0.261 F  
ENDBRANCH  31  34
ENDBRANCH  27  28
ENDBRANCH  24  27
ENDBRANCH  16  21
ENDBRANCH  14  15
ENDBRANCH  13  14
ENDBRANCH   2  13
TORSDOF 7
ENDMDL
MODEL       34
REMARK 921   NORMALIZED FREE ENERGY PREDICTED BY IDOCK:   -6.06 KCAL/MOL
REMARK 922        TOTAL FREE ENERGY PREDICTED BY IDOCK:  -10.02 KCAL/MOL
REMARK 923 INTER-LIGAND FREE ENERGY PREDICTED BY IDOCK:   -8.37 KCAL/MOL
REMARK 924 INTRA-LIGAND FREE ENERGY PREDICTED BY IDOCK:   -1.64 KCAL/MOL
REMARK 927      BINDING AFFINITY PREDICTED BY RF-SCORE:    0.00 PKD
ROOT
HETATM    1  C   UNL     1     -10.502  18.239  68.496  1.00  0.00    -0.241 C  
HETATM    2  C   UNL     1      -9.947  16.978  67.837  1.00  0.00    -0.281 C  
HETATM    3  C   UNL     1     -11.217  15.402  66.903  1.00  0.00    -0.214 A  
HETATM    4  C   UNL     1      -9.820  17.131  66.297  1.00  0.00    -0.291 C  
HETATM    5  N   UNL     1     -10.658  16.046  65.859  1.00  0.00    -0.335 NA 
HETATM    6  O   UNL     1     -12.468  13.633  63.094  1.00  0.00    -0.786 OA 
HETATM    7  C   UNL     1     -11.056  15.483  64.708  1.00  0.00    -0.407 A  
HETATM    8  O   UNL     1     -10.894  15.882  68.090  1.00  0.00    -0.291 OA 
HETATM    9  O   UNL     1     -13.318  12.668  64.884  1.00  0.00    -0.741 OA 
HETATM   10  C   UNL     1     -11.889  14.455  65.147  1.00  0.00    -0.386 A  
HETATM   11  N   UNL     1     -11.980  14.413  66.540  1.00  0.00    -0.406 NA 
HETATM   12  N   UNL     1     -12.613  13.514  64.320  1.00  0.00    -0.210 N  
ENDROOT
BRANCH   2  13
HETATM   13  C   UNL     1      -8.613  16.571  68.459  1.00  0.00    -0.223 C  
BRANCH  13  14
HETATM   14  O   UNL     1      -7.805  15.864  67.516  1.00  0.00    -0.133 OA 
BRANCH  14  15
HETATM   15  C   UNL     1      -7.786  14.511  67.715  1.00  0.00    -0.161 A  
HETATM   16  C   UNL     1      -7.846  11.732  68.374  1.00  0.00    -0.141 A  
HETATM   17  C   UNL     1      -8.311  13.578  66.832  1.00  0.00    -0.012 A  
HETATM   18  C   UNL     1      -7.201  14.056  68.888  1.00  0.00    -0.108 A  
HETATM   19  C   UNL     1      -8.339  12.224  67.161  1.00  0.00    -0.183 A  
HETATM   20  C   UNL     1      -7.227  12.688  69.202  1.00  0.00     0.078 A  
BRANCH  16  21
HETATM   21  N   UNL     1      -7.922  10.385  68.688  1.00  0.00    -0.108 NA 
HETATM   22  C   UNL     1      -7.938   9.328  67.658  1.00  0.00    -0.103 C  
HETATM   23  C   UNL     1      -7.037   8.181  68.112  1.00  0.00    -0.082 C  
HETATM   24  C   UNL     1      -7.455   7.660  69.490  1.00  0.00    -0.092 C  
HETATM   25  C   UNL     1      -8.458   9.918  69.969  1.00  0.00    -0.165 C  
HETATM   26  C   UNL     1      -7.529   8.828  70.481  1.00  0.00    -0.075 C  
BRANCH  24  27
HETATM   27  O   UNL     1      -8.732   7.017  69.335  1.00  0.00    -0.133 OA 
BRANCH  27  28
HETATM   28  C   UNL     1      -9.191   6.289  70.396  1.00  0.00    -0.154 A  
HETATM   29  C   UNL     1      -8.385   5.629  71.317  1.00  0.00    -0.127 A  
HETATM   30  C   UNL     1      -8.959   4.925  72.373  1.00  0.00    -0.140 A  
HETATM   31  C   UNL     1     -10.340   4.860  72.527  1.00  0.00    -0.201 A  
HETATM   32  C   UNL     1     -11.154   5.508  71.597  1.00  0.00    -0.192 A  
HETATM   33  C   UNL     1     -10.577   6.241  70.550  1.00  0.00    -0.305 A  
BRANCH  31  34
HETATM   34  O   UNL     1     -10.745   4.068  73.548  1.00  0.00    -0.178 OA 
HETATM   35  C   UNL     1     -10.874   2.670  73.352  1.00  0.00    -0.191 C  
HETATM   36  F   UNL     1     -10.110   2.030  74.265  1.00  0.00    -0.114 F  
HETATM   37  F   UNL     1     -10.532   2.239  72.123  1.00  0.00    -0.231 F  
HETATM   38  F   UNL     1     -12.165   2.325  73.572  1.00  0.00    -0.309 F  
ENDBRANCH  31  34
ENDBRANCH  27  28
ENDBRANCH  24  27
ENDBRANCH  16  21
ENDBRANCH  14  15
ENDBRANCH  13  14
ENDBRANCH   2  13
TORSDOF 7
ENDMDL
MODEL       35
REMARK 921   NORMALIZED FREE ENERGY PREDICTED BY IDOCK:   -6.03 KCAL/MOL
REMARK 922        TOTAL FREE ENERGY PREDICTED BY IDOCK:   -9.98 KCAL/MOL
REMARK 923 INTER-LIGAND FREE ENERGY PREDICTED BY IDOCK:   -8.75 KCAL/MOL
REMARK 924 INTRA-LIGAND FREE ENERGY PREDICTED BY IDOCK:   -1.23 KCAL/MOL
REMARK 927      BINDING AFFINITY PREDICTED BY RF-SCORE:    0.00 PKD
ROOT
HETATM    1  C   UNL     1     -10.139   5.024  67.346  1.00  0.00    -0.213 C  
HETATM    2  C   UNL     1      -9.907   5.865  68.599  1.00  0.00    -0.136 C  
HETATM    3  C   UNL     1     -10.112   5.084  70.676  1.00  0.00    -0.243 A  
HETATM    4  C   UNL     1      -8.475   5.679  69.170  1.00  0.00    -0.102 C  
HETATM    5  N   UNL     1      -8.783   5.209  70.494  1.00  0.00    -0.117 NA 
HETATM    6  O   UNL     1      -7.903   3.921  74.277  1.00  0.00    -0.079 OA 
HETATM    7  C   UNL     1      -8.133   4.849  71.611  1.00  0.00    -0.112 A  
HETATM    8  O   UNL     1     -10.851   5.410  69.630  1.00  0.00    -0.289 OA 
HETATM    9  O   UNL     1     -10.095   3.759  74.446  1.00  0.00    -0.138 OA 
HETATM   10  C   UNL     1      -9.175   4.506  72.471  1.00  0.00    -0.127 A  
HETATM   11  N   UNL     1     -10.425   4.662  71.867  1.00  0.00    -0.149 NA 
HETATM   12  N   UNL     1      -9.055   4.027  73.831  1.00  0.00    -0.094 N  
ENDROOT
BRANCH   2  13
HETATM   13  C   UNL     1     -10.206   7.340  68.337  1.00  0.00    -0.180 C  
BRANCH  13  14
HETATM   14  O   UNL     1     -10.864   7.934  69.457  1.00  0.00    -0.221 OA 
BRANCH  14  15
HETATM   15  C   UNL     1     -10.843   9.302  69.443  1.00  0.00    -0.169 A  
HETATM   16  C   UNL     1     -10.794  12.143  69.149  1.00  0.00    -0.115 A  
HETATM   17  C   UNL     1     -11.715  10.110  70.159  1.00  0.00    -0.330 A  
HETATM   18  C   UNL     1      -9.879   9.908  68.651  1.00  0.00    -0.168 A  
HETATM   19  C   UNL     1     -11.686  11.495  70.009  1.00  0.00    -0.414 A  
HETATM   20  C   UNL     1      -9.856  11.305  68.517  1.00  0.00    -0.198 A  
BRANCH  16  21
HETATM   21  N   UNL     1     -10.816  13.519  68.993  1.00  0.00    -0.227 NA 
HETATM   22  C   UNL     1      -9.808  14.245  68.198  1.00  0.00    -0.226 C  
HETATM   23  C   UNL     1     -10.511  15.317  67.366  1.00  0.00    -0.270 C  
HETATM   24  C   UNL     1     -11.340  16.251  68.252  1.00  0.00    -0.280 C  
HETATM   25  C   UNL     1     -11.509  14.395  69.943  1.00  0.00    -0.260 C  
HETATM   26  C   UNL     1     -12.283  15.423  69.132  1.00  0.00    -0.192 C  
BRANCH  24  27
HETATM   27  O   UNL     1     -10.417  17.020  69.042  1.00  0.00    -0.318 OA 
BRANCH  27  28
HETATM   28  C   UNL     1      -9.585  17.870  68.369  1.00  0.00    -0.320 A  
HETATM   29  C   UNL     1      -8.200  17.758  68.325  1.00  0.00    -0.285 A  
HETATM   30  C   UNL     1      -7.446  18.674  67.595  1.00  0.00    -0.241 A  
HETATM   31  C   UNL     1      -8.055  19.718  66.905  1.00  0.00    -0.297 A  
HETATM   32  C   UNL     1      -9.443  19.843  66.959  1.00  0.00    -0.505 A  
HETATM   33  C   UNL     1     -10.206  18.905  67.670  1.00  0.00    -0.459 A  
BRANCH  31  34
HETATM   34  O   UNL     1      -7.184  20.572  66.317  1.00  0.00    -0.241 OA 
HETATM   35  C   UNL     1      -6.469  20.170  65.161  1.00  0.00    -0.286 C  
HETATM   36  F   UNL     1      -6.711  21.055  64.169  1.00  0.00    -0.347 F  
HETATM   37  F   UNL     1      -6.763  18.933  64.718  1.00  0.00    -0.236 F  
HETATM   38  F   UNL     1      -5.145  20.210  65.442  1.00  0.00    -0.168 F  
ENDBRANCH  31  34
ENDBRANCH  27  28
ENDBRANCH  24  27
ENDBRANCH  16  21
ENDBRANCH  14  15
ENDBRANCH  13  14
ENDBRANCH   2  13
TORSDOF 7
ENDMDL
MODEL       36
REMARK 921   NORMALIZED FREE ENERGY PREDICTED BY IDOCK:   -5.90 KCAL/MOL
REMARK 922        TOTAL FREE ENERGY PREDICTED BY IDOCK:   -9.79 KCAL/MOL
REMARK 923 INTER-LIGAND FREE ENERGY PREDICTED BY IDOCK:   -8.08 KCAL/MOL
REMARK 924 INTRA-LIGAND FREE ENERGY PREDICTED BY IDOCK:   -1.71 KCAL/MOL
REMARK 927      BINDING AFFINITY PREDICTED BY RF-SCORE:    0.00 PKD
ROOT
HETATM    1  C   UNL     1      -9.395   3.083  68.143  1.00  0.00    -0.254 C  
HETATM    2  C   UNL     1      -9.244   4.592  67.967  1.00  0.00    -0.132 C  
HETATM    3  C   UNL     1      -8.813   6.001  69.639  1.00  0.00    -0.133 A  
HETATM    4  C   UNL     1      -7.756   5.019  67.845  1.00  0.00    -0.084 C  
HETATM    5  N   UNL     1      -7.655   5.928  68.955  1.00  0.00    -0.088 NA 
HETATM    6  O   UNL     1      -5.753   8.583  71.422  1.00  0.00    -0.034 OA 
HETATM    7  C   UNL     1      -6.738   6.728  69.520  1.00  0.00    -0.050 A  
HETATM    8  O   UNL     1      -9.787   5.244  69.167  1.00  0.00    -0.156 OA 
HETATM    9  O   UNL     1      -7.702   8.612  72.454  1.00  0.00    -0.305 OA 
HETATM   10  C   UNL     1      -7.441   7.286  70.588  1.00  0.00    -0.079 A  
HETATM   11  N   UNL     1      -8.756   6.819  70.650  1.00  0.00    -0.142 NA 
HETATM   12  N   UNL     1      -6.935   8.229  71.561  1.00  0.00    -0.062 N  
ENDROOT
BRANCH   2  13
HETATM   13  C   UNL     1     -10.057   5.093  66.776  1.00  0.00    -0.232 C  
BRANCH  13  14
HETATM   14  O   UNL     1      -9.337   6.092  66.050  1.00  0.00    -0.151 OA 
BRANCH  14  15
HETATM   15  C   UNL     1      -9.583   7.366  66.481  1.00  0.00    -0.164 A  
HETATM   16  C   UNL     1     -10.033  10.110  67.137  1.00  0.00    -0.196 A  
HETATM   17  C   UNL     1     -10.727   7.761  67.159  1.00  0.00    -0.337 A  
HETATM   18  C   UNL     1      -8.612   8.320  66.212  1.00  0.00    -0.152 A  
HETATM   19  C   UNL     1     -10.941   9.102  67.474  1.00  0.00    -0.010 A  
HETATM   20  C   UNL     1      -8.837   9.666  66.543  1.00  0.00    -0.158 A  
BRANCH  16  21
HETATM   21  N   UNL     1     -10.292  11.440  67.430  1.00  0.00    -0.196 NA 
HETATM   22  C   UNL     1     -11.601  11.904  67.929  1.00  0.00    -0.323 C  
HETATM   23  C   UNL     1     -11.372  12.920  69.046  1.00  0.00    -0.341 C  
HETATM   24  C   UNL     1     -10.485  14.075  68.572  1.00  0.00    -0.249 C  
HETATM   25  C   UNL     1      -9.504  12.529  66.846  1.00  0.00    -0.219 C  
HETATM   26  C   UNL     1      -9.194  13.516  67.961  1.00  0.00    -0.209 C  
BRANCH  24  27
HETATM   27  O   UNL     1     -11.243  14.828  67.609  1.00  0.00    -0.298 OA 
BRANCH  27  28
HETATM   28  C   UNL     1     -10.775  16.072  67.291  1.00  0.00    -0.295 A  
HETATM   29  C   UNL     1     -10.404  16.480  66.014  1.00  0.00    -0.358 A  
HETATM   30  C   UNL     1      -9.952  17.779  65.798  1.00  0.00    -0.001 A  
HETATM   31  C   UNL     1      -9.854  18.690  66.845  1.00  0.00    -0.333 A  
HETATM   32  C   UNL     1     -10.209  18.281  68.130  1.00  0.00    -0.406 A  
HETATM   33  C   UNL     1     -10.692  16.982  68.345  1.00  0.00    -0.361 A  
BRANCH  31  34
HETATM   34  O   UNL     1      -9.317  19.882  66.491  1.00  0.00    -0.360 OA 
HETATM   35  C   UNL     1      -7.913  20.068  66.539  1.00  0.00    -0.313 C  
HETATM   36  F   UNL     1      -7.483  20.460  65.319  1.00  0.00    -0.309 F  
HETATM   37  F   UNL     1      -7.212  18.981  66.915  1.00  0.00    -0.205 F  
HETATM   38  F   UNL     1      -7.643  21.064  67.416  1.00  0.00    -0.388 F  
ENDBRANCH  31  34
ENDBRANCH  27  28
ENDBRANCH  24  27
ENDBRANCH  16  21
ENDBRANCH  14  15
ENDBRANCH  13  14
ENDBRANCH   2  13
TORSDOF 7
ENDMDL
MODEL       37
REMARK 921   NORMALIZED FREE ENERGY PREDICTED BY IDOCK:   -5.86 KCAL/MOL
REMARK 922        TOTAL FREE ENERGY PREDICTED BY IDOCK:   -9.74 KCAL/MOL
REMARK 923 INTER-LIGAND FREE ENERGY PREDICTED BY IDOCK:   -8.80 KCAL/MOL
REMARK 924 INTRA-LIGAND FREE ENERGY PREDICTED BY IDOCK:   -0.94 KCAL/MOL
REMARK 927      BINDING AFFINITY PREDICTED BY RF-SCORE:    0.00 PKD
ROOT
HETATM    1  C   UNL     1     -10.165  17.810  66.534  1.00  0.00    -0.358 C  
HETATM    2  C   UNL     1     -10.176  16.536  67.375  1.00  0.00    -0.287 C  
HETATM    3  C   UNL     1      -8.387  15.246  67.701  1.00  0.00    -0.164 A  
HETATM    4  C   UNL     1      -9.677  16.789  68.824  1.00  0.00    -0.261 C  
HETATM    5  N   UNL     1      -8.563  15.880  68.877  1.00  0.00    -0.206 NA 
HETATM    6  O   UNL     1      -5.391  13.990  70.642  1.00  0.00    -0.106 OA 
HETATM    7  C   UNL     1      -7.636  15.475  69.758  1.00  0.00    -0.065 A  
HETATM    8  O   UNL     1      -9.249  15.577  66.756  1.00  0.00    -0.215 OA 
HETATM    9  O   UNL     1      -5.209  13.024  68.669  1.00  0.00    -0.063 OA 
HETATM   10  C   UNL     1      -6.899  14.551  69.018  1.00  0.00    -0.109 A  
HETATM   11  N   UNL     1      -7.388  14.413  67.717  1.00  0.00    -0.155 NA 
HETATM   12  N   UNL     1      -5.749  13.797  69.470  1.00  0.00    -0.090 N  
ENDROOT
BRANCH   2  13
HETATM   13  C   UNL     1     -11.558  15.887  67.378  1.00  0.00     0.159 C  
BRANCH  13  14
HETATM   14  O   UNL     1     -12.063  15.767  68.709  1.00  0.00    -0.314 OA 
BRANCH  14  15
HETATM   15  C   UNL     1     -11.971  14.501  69.219  1.00  0.00    -0.319 A  
HETATM   16  C   UNL     1     -12.034  11.880  70.353  1.00  0.00    -0.311 A  
HETATM   17  C   UNL     1     -11.453  13.412  68.533  1.00  0.00    -0.345 A  
HETATM   18  C   UNL     1     -12.435  14.308  70.512  1.00  0.00    -0.428 A  
HETATM   19  C   UNL     1     -11.489  12.136  69.092  1.00  0.00    -0.352 A  
HETATM   20  C   UNL     1     -12.456  13.018  71.066  1.00  0.00    -0.385 A  
BRANCH  16  21
HETATM   21  N   UNL     1     -12.089  10.594  70.866  1.00  0.00    -0.361 NA 
HETATM   22  C   UNL     1     -11.001   9.616  70.678  1.00  0.00    -0.320 C  
HETATM   23  C   UNL     1     -10.774   8.870  71.993  1.00  0.00    -0.389 C  
HETATM   24  C   UNL     1     -12.066   8.218  72.491  1.00  0.00    -0.337 C  
HETATM   25  C   UNL     1     -13.361   9.950  71.205  1.00  0.00    -0.301 C  
HETATM   26  C   UNL     1     -13.182   9.267  72.552  1.00  0.00    -0.439 C  
BRANCH  24  27
HETATM   27  O   UNL     1     -12.388   7.156  71.577  1.00  0.00    -0.329 OA 
BRANCH  27  28
HETATM   28  C   UNL     1     -11.344   6.424  71.086  1.00  0.00    -0.319 A  
HETATM   29  C   UNL     1     -10.415   5.742  71.865  1.00  0.00    -0.272 A  
HETATM   30  C   UNL     1      -9.394   5.012  71.259  1.00  0.00    -0.197 A  
HETATM   31  C   UNL     1      -9.276   4.955  69.875  1.00  0.00    -0.124 A  
HETATM   32  C   UNL     1     -10.196   5.650  69.089  1.00  0.00    -0.305 A  
HETATM   33  C   UNL     1     -11.242   6.361  69.696  1.00  0.00    -0.483 A  
BRANCH  31  34
HETATM   34  O   UNL     1      -8.185   4.280  69.441  1.00  0.00    -0.063 OA 
HETATM   35  C   UNL     1      -7.038   4.991  69.008  1.00  0.00    -0.053 C  
HETATM   36  F   UNL     1      -5.972   4.579  69.729  1.00  0.00    -0.015 F  
HETATM   37  F   UNL     1      -7.134   6.330  69.107  1.00  0.00    -0.066 F  
HETATM   38  F   UNL     1      -6.808   4.683  67.710  1.00  0.00    -0.050 F  
ENDBRANCH  31  34
ENDBRANCH  27  28
ENDBRANCH  24  27
ENDBRANCH  16  21
ENDBRANCH  14  15
ENDBRANCH  13  14
ENDBRANCH   2  13
TORSDOF 7
ENDMDL
MODEL       38
REMARK 921   NORMALIZED FREE ENERGY PREDICTED BY IDOCK:   -5.86 KCAL/MOL
REMARK 922        TOTAL FREE ENERGY PREDICTED BY IDOCK:   -9.74 KCAL/MOL
REMARK 923 INTER-LIGAND FREE ENERGY PREDICTED BY IDOCK:   -8.56 KCAL/MOL
REMARK 924 INTRA-LIGAND FREE ENERGY PREDICTED BY IDOCK:   -1.17 KCAL/MOL
REMARK 927      BINDING AFFINITY PREDICTED BY RF-SCORE:    0.00 PKD
ROOT
HETATM    1  C   UNL     1      -9.781   3.817  73.842  1.00  0.00    -0.142 C  
HETATM    2  C   UNL     1      -9.772   4.792  72.667  1.00  0.00    -0.141 C  
HETATM    3  C   UNL     1     -11.465   6.152  72.166  1.00  0.00    -0.311 A  
HETATM    4  C   UNL     1      -9.362   6.225  73.102  1.00  0.00    -0.135 C  
HETATM    5  N   UNL     1     -10.526   6.964  72.691  1.00  0.00    -0.205 NA 
HETATM    6  O   UNL     1     -12.804  10.325  72.177  1.00  0.00    -0.388 OA 
HETATM    7  C   UNL     1     -10.961   8.233  72.679  1.00  0.00    -0.316 A  
HETATM    8  O   UNL     1     -11.140   4.872  72.134  1.00  0.00    -0.082 OA 
HETATM    9  O   UNL     1     -14.256   8.891  71.343  1.00  0.00    -0.339 OA 
HETATM   10  C   UNL     1     -12.226   8.114  72.105  1.00  0.00    -0.350 A  
HETATM   11  N   UNL     1     -12.532   6.790  71.782  1.00  0.00    -0.363 NA 
HETATM   12  N   UNL     1     -13.168   9.183  71.854  1.00  0.00    -0.385 N  
ENDROOT
BRANCH   2  13
HETATM   13  C   UNL     1      -8.879   4.286  71.536  1.00  0.00    -0.114 C  
BRANCH  13  14
HETATM   14  O   UNL     1      -7.687   5.069  71.438  1.00  0.00    -0.093 OA 
BRANCH  14  15
HETATM   15  C   UNL     1      -7.819   6.171  70.640  1.00  0.00    -0.106 A  
HETATM   16  C   UNL     1      -8.358   8.452  69.006  1.00  0.00    -0.119 A  
HETATM   17  C   UNL     1      -7.114   7.354  70.808  1.00  0.00    -0.063 A  
HETATM   18  C   UNL     1      -8.727   6.086  69.594  1.00  0.00    -0.133 A  
HETATM   19  C   UNL     1      -7.384   8.464  70.008  1.00  0.00    -0.059 A  
HETATM   20  C   UNL     1      -8.982   7.208  68.790  1.00  0.00    -0.128 A  
BRANCH  16  21
HETATM   21  N   UNL     1      -8.629   9.583  68.252  1.00  0.00    -0.120 NA 
HETATM   22  C   UNL     1      -7.885   9.916  67.022  1.00  0.00    -0.102 C  
HETATM   23  C   UNL     1      -8.872  10.407  65.965  1.00  0.00    -0.175 C  
HETATM   24  C   UNL     1      -9.700  11.585  66.484  1.00  0.00    -0.203 C  
HETATM   25  C   UNL     1      -9.305  10.750  68.824  1.00  0.00    -0.182 C  
HETATM   26  C   UNL     1     -10.351  11.209  67.820  1.00  0.00    -0.215 C  
BRANCH  24  27
HETATM   27  O   UNL     1      -8.808  12.704  66.627  1.00  0.00    -0.203 OA 
BRANCH  27  28
HETATM   28  C   UNL     1      -9.365  13.896  66.997  1.00  0.00    -0.251 A  
HETATM   29  C   UNL     1     -10.444  14.501  66.362  1.00  0.00    -0.295 A  
HETATM   30  C   UNL     1     -10.943  15.714  66.833  1.00  0.00    -0.243 A  
HETATM   31  C   UNL     1     -10.375  16.346  67.934  1.00  0.00    -0.286 A  
HETATM   32  C   UNL     1      -9.283  15.751  68.565  1.00  0.00    -0.198 A  
HETATM   33  C   UNL     1      -8.797  14.515  68.111  1.00  0.00    -0.177 A  
BRANCH  31  34
HETATM   34  O   UNL     1     -10.914  17.556  68.215  1.00  0.00    -0.290 OA 
HETATM   35  C   UNL     1     -10.268  18.739  67.774  1.00  0.00    -0.394 C  
HETATM   36  F   UNL     1     -11.137  19.458  67.029  1.00  0.00    -0.553 F  
HETATM   37  F   UNL     1      -9.148  18.535  67.056  1.00  0.00    -0.261 F  
HETATM   38  F   UNL     1      -9.940  19.477  68.861  1.00  0.00    -0.446 F  
ENDBRANCH  31  34
ENDBRANCH  27  28
ENDBRANCH  24  27
ENDBRANCH  16  21
ENDBRANCH  14  15
ENDBRANCH  13  14
ENDBRANCH   2  13
TORSDOF 7
ENDMDL
MODEL       39
REMARK 921   NORMALIZED FREE ENERGY PREDICTED BY IDOCK:   -5.85 KCAL/MOL
REMARK 922        TOTAL FREE ENERGY PREDICTED BY IDOCK:   -9.73 KCAL/MOL
REMARK 923 INTER-LIGAND FREE ENERGY PREDICTED BY IDOCK:   -8.46 KCAL/MOL
REMARK 924 INTRA-LIGAND FREE ENERGY PREDICTED BY IDOCK:   -1.27 KCAL/MOL
REMARK 927      BINDING AFFINITY PREDICTED BY RF-SCORE:    0.00 PKD
ROOT
HETATM    1  C   UNL     1     -10.465  19.868  67.238  1.00  0.00    -0.557 C  
HETATM    2  C   UNL     1      -9.792  18.534  67.553  1.00  0.00    -0.310 C  
HETATM    3  C   UNL     1     -10.592  17.052  69.013  1.00  0.00    -0.314 A  
HETATM    4  C   UNL     1     -10.406  17.364  66.739  1.00  0.00    -0.305 C  
HETATM    5  N   UNL     1     -10.840  16.504  67.808  1.00  0.00    -0.332 NA 
HETATM    6  O   UNL     1     -12.525  13.140  69.418  1.00  0.00    -0.090 OA 
HETATM    7  C   UNL     1     -11.428  15.308  67.961  1.00  0.00    -0.341 A  
HETATM    8  O   UNL     1     -10.016  18.240  68.976  1.00  0.00    -0.357 OA 
HETATM    9  O   UNL     1     -12.068  14.146  71.326  1.00  0.00    -0.351 OA 
HETATM   10  C   UNL     1     -11.507  15.186  69.348  1.00  0.00    -0.306 A  
HETATM   11  N   UNL     1     -10.971  16.297  70.003  1.00  0.00    -0.361 NA 
HETATM   12  N   UNL     1     -12.073  14.080  70.090  1.00  0.00    -0.330 N  
ENDROOT
BRANCH   2  13
HETATM   13  C   UNL     1      -8.282  18.615  67.343  1.00  0.00    -0.255 C  
BRANCH  13  14
HETATM   14  O   UNL     1      -7.581  18.086  68.471  1.00  0.00    -0.273 OA 
BRANCH  14  15
HETATM   15  C   UNL     1      -7.327  16.745  68.379  1.00  0.00    -0.198 A  
HETATM   16  C   UNL     1      -6.973  13.911  68.384  1.00  0.00    -0.102 A  
HETATM   17  C   UNL     1      -7.339  16.021  67.196  1.00  0.00    -0.257 A  
HETATM   18  C   UNL     1      -7.042  16.077  69.561  1.00  0.00    -0.181 A  
HETATM   19  C   UNL     1      -7.168  14.638  67.206  1.00  0.00    -0.082 A  
HETATM   20  C   UNL     1      -6.862  14.684  69.555  1.00  0.00    -0.165 A  
BRANCH  16  21
HETATM   21  N   UNL     1      -6.843  12.531  68.365  1.00  0.00    -0.077 NA 
HETATM   22  C   UNL     1      -6.050  11.821  67.344  1.00  0.00    -0.108 C  
HETATM   23  C   UNL     1      -5.247  10.713  68.023  1.00  0.00    -0.036 C  
HETATM   24  C   UNL     1      -6.160   9.771  68.813  1.00  0.00    -0.042 C  
HETATM   25  C   UNL     1      -7.817  11.653  69.020  1.00  0.00     0.032 C  
HETATM   26  C   UNL     1      -7.036  10.586  69.772  1.00  0.00    -0.144 C  
BRANCH  24  27
HETATM   27  O   UNL     1      -6.954   9.046  67.858  1.00  0.00    -0.076 OA 
BRANCH  27  28
HETATM   28  C   UNL     1      -8.003   8.322  68.349  1.00  0.00    -0.119 A  
HETATM   29  C   UNL     1      -9.322   8.443  67.924  1.00  0.00    -0.147 A  
HETATM   30  C   UNL     1     -10.315   7.642  68.485  1.00  0.00    -0.225 A  
HETATM   31  C   UNL     1     -10.016   6.718  69.481  1.00  0.00    -0.162 A  
HETATM   32  C   UNL     1      -8.698   6.605  69.922  1.00  0.00    -0.141 A  
HETATM   33  C   UNL     1      -7.691   7.388  69.338  1.00  0.00    -0.106 A  
BRANCH  31  34
HETATM   34  O   UNL     1     -11.099   6.081  69.985  1.00  0.00    -0.351 OA 
HETATM   35  C   UNL     1     -11.729   6.572  71.156  1.00  0.00    -0.335 C  
HETATM   36  F   UNL     1     -13.033   6.802  70.885  1.00  0.00    -0.391 F  
HETATM   37  F   UNL     1     -11.186   7.697  71.657  1.00  0.00    -0.243 F  
HETATM   38  F   UNL     1     -11.663   5.614  72.111  1.00  0.00    -0.324 F  
ENDBRANCH  31  34
ENDBRANCH  27  28
ENDBRANCH  24  27
ENDBRANCH  16  21
ENDBRANCH  14  15
ENDBRANCH  13  14
ENDBRANCH   2  13
TORSDOF 7
ENDMDL
MODEL       40
REMARK 921   NORMALIZED FREE ENERGY PREDICTED BY IDOCK:   -5.84 KCAL/MOL
REMARK 922        TOTAL FREE ENERGY PREDICTED BY IDOCK:   -9.71 KCAL/MOL
REMARK 923 INTER-LIGAND FREE ENERGY PREDICTED BY IDOCK:   -8.53 KCAL/MOL
REMARK 924 INTRA-LIGAND FREE ENERGY PREDICTED BY IDOCK:   -1.17 KCAL/MOL
REMARK 927      BINDING AFFINITY PREDICTED BY RF-SCORE:    0.00 PKD
ROOT
HETATM    1  C   UNL     1     -10.005   3.405  65.147  1.00  0.00     0.027 C  
HETATM    2  C   UNL     1      -9.421   4.537  65.988  1.00  0.00    -0.173 C  
HETATM    3  C   UNL     1     -10.479   5.485  67.706  1.00  0.00    -0.180 A  
HETATM    4  C   UNL     1      -8.756   4.014  67.291  1.00  0.00    -0.112 C  
HETATM    5  N   UNL     1      -9.521   4.729  68.277  1.00  0.00    -0.135 NA 
HETATM    6  O   UNL     1     -10.560   5.856  72.072  1.00  0.00    -0.207 OA 
HETATM    7  C   UNL     1      -9.567   4.863  69.612  1.00  0.00    -0.173 A  
HETATM    8  O   UNL     1     -10.525   5.421  66.388  1.00  0.00    -0.254 OA 
HETATM    9  O   UNL     1     -12.085   7.046  71.016  1.00  0.00    -0.342 OA 
HETATM   10  C   UNL     1     -10.621   5.759  69.789  1.00  0.00    -0.318 A  
HETATM   11  N   UNL     1     -11.188   6.147  68.573  1.00  0.00    -0.279 NA 
HETATM   12  N   UNL     1     -11.130   6.260  71.047  1.00  0.00    -0.284 N  
ENDROOT
BRANCH   2  13
HETATM   13  C   UNL     1      -8.442   5.381  65.175  1.00  0.00    -0.150 C  
BRANCH  13  14
HETATM   14  O   UNL     1      -7.528   6.071  66.031  1.00  0.00    -0.082 OA 
BRANCH  14  15
HETATM   15  C   UNL     1      -7.972   7.303  66.426  1.00  0.00    -0.112 A  
HETATM   16  C   UNL     1      -9.132   9.812  67.147  1.00  0.00    -0.135 A  
HETATM   17  C   UNL     1      -7.809   7.827  67.701  1.00  0.00    -0.123 A  
HETATM   18  C   UNL     1      -8.629   8.070  65.475  1.00  0.00    -0.158 A  
HETATM   19  C   UNL     1      -8.380   9.050  68.046  1.00  0.00    -0.117 A  
HETATM   20  C   UNL     1      -9.191   9.306  65.834  1.00  0.00    -0.277 A  
BRANCH  16  21
HETATM   21  N   UNL     1      -9.719  11.007  67.531  1.00  0.00    -0.171 NA 
HETATM   22  C   UNL     1      -9.384  12.297  66.898  1.00  0.00    -0.210 C  
HETATM   23  C   UNL     1     -10.671  13.091  66.680  1.00  0.00    -0.285 C  
HETATM   24  C   UNL     1     -11.443  13.266  67.991  1.00  0.00    -0.309 C  
HETATM   25  C   UNL     1     -10.330  11.180  68.852  1.00  0.00    -0.201 C  
HETATM   26  C   UNL     1     -11.655  11.898  68.650  1.00  0.00    -0.366 C  
BRANCH  24  27
HETATM   27  O   UNL     1     -10.669  14.143  68.828  1.00  0.00    -0.245 OA 
BRANCH  27  28
HETATM   28  C   UNL     1     -10.241  15.314  68.268  1.00  0.00    -0.226 A  
HETATM   29  C   UNL     1      -8.930  15.583  67.892  1.00  0.00    -0.173 A  
HETATM   30  C   UNL     1      -8.605  16.809  67.316  1.00  0.00    -0.208 A  
HETATM   31  C   UNL     1      -9.573  17.787  67.112  1.00  0.00    -0.276 A  
HETATM   32  C   UNL     1     -10.886  17.527  67.501  1.00  0.00    -0.205 A  
HETATM   33  C   UNL     1     -11.222  16.283  68.055  1.00  0.00    -0.260 A  
BRANCH  31  34
HETATM   34  O   UNL     1      -9.085  18.952  66.624  1.00  0.00    -0.308 OA 
HETATM   35  C   UNL     1      -8.591  19.940  67.512  1.00  0.00    -0.337 C  
HETATM   36  F   UNL     1      -7.317  20.234  67.171  1.00  0.00    -0.263 F  
HETATM   37  F   UNL     1      -8.622  19.594  68.813  1.00  0.00    -0.377 F  
HETATM   38  F   UNL     1      -9.333  21.063  67.360  1.00  0.00    -0.533 F  
ENDBRANCH  31  34
ENDBRANCH  27  28
ENDBRANCH  24  27
ENDBRANCH  16  21
ENDBRANCH  14  15
ENDBRANCH  13  14
ENDBRANCH   2  13
TORSDOF 7
ENDMDL
MODEL       41
REMARK 921   NORMALIZED FREE ENERGY PREDICTED BY IDOCK:   -5.80 KCAL/MOL
REMARK 922        TOTAL FREE ENERGY PREDICTED BY IDOCK:   -9.66 KCAL/MOL
REMARK 923 INTER-LIGAND FREE ENERGY PREDICTED BY IDOCK:   -8.41 KCAL/MOL
REMARK 924 INTRA-LIGAND FREE ENERGY PREDICTED BY IDOCK:   -1.25 KCAL/MOL
REMARK 927      BINDING AFFINITY PREDICTED BY RF-SCORE:    0.00 PKD
ROOT
HETATM    1  C   UNL     1      -8.546  18.552  67.627  1.00  0.00    -0.276 C  
HETATM    2  C   UNL     1      -9.074  17.120  67.671  1.00  0.00    -0.227 C  
HETATM    3  C   UNL     1     -10.118  16.232  69.428  1.00  0.00    -0.253 A  
HETATM    4  C   UNL     1     -10.586  17.045  67.325  1.00  0.00    -0.267 C  
HETATM    5  N   UNL     1     -11.096  16.437  68.525  1.00  0.00    -0.356 NA 
HETATM    6  O   UNL     1     -13.996  14.884  70.960  1.00  0.00    -0.367 OA 
HETATM    7  C   UNL     1     -12.270  16.013  69.018  1.00  0.00     0.155 A  
HETATM    8  O   UNL     1      -8.915  16.620  69.044  1.00  0.00    -0.256 OA 
HETATM    9  O   UNL     1     -12.308  14.605  72.349  1.00  0.00    -0.329 OA 
HETATM   10  C   UNL     1     -11.914  15.538  70.280  1.00  0.00    -0.374 A  
HETATM   11  N   UNL     1     -10.546  15.680  70.526  1.00  0.00    -0.278 NA 
HETATM   12  N   UNL     1     -12.798  14.967  71.272  1.00  0.00    -0.322 N  
ENDROOT
BRANCH   2  13
HETATM   13  C   UNL     1      -8.258  16.203  66.762  1.00  0.00    -0.269 C  
BRANCH  13  14
HETATM   14  O   UNL     1      -9.106  15.283  66.071  1.00  0.00    -0.310 OA 
BRANCH  14  15
HETATM   15  C   UNL     1      -9.315  14.114  66.750  1.00  0.00    -0.282 A  
HETATM   16  C   UNL     1      -9.837  11.570  67.938  1.00  0.00    -0.185 A  
HETATM   17  C   UNL     1      -8.379  13.503  67.571  1.00  0.00    -0.185 A  
HETATM   18  C   UNL     1     -10.553  13.508  66.593  1.00  0.00    -0.280 A  
HETATM   19  C   UNL     1      -8.640  12.260  68.146  1.00  0.00    -0.181 A  
HETATM   20  C   UNL     1     -10.806  12.261  67.186  1.00  0.00    -0.282 A  
BRANCH  16  21
HETATM   21  N   UNL     1     -10.052  10.318  68.493  1.00  0.00    -0.159 NA 
HETATM   22  C   UNL     1      -9.465   9.087  67.930  1.00  0.00    -0.141 C  
HETATM   23  C   UNL     1      -8.956   8.213  69.075  1.00  0.00    -0.144 C  
HETATM   24  C   UNL     1     -10.068   7.920  70.086  1.00  0.00    -0.194 C  
HETATM   25  C   UNL     1     -11.208  10.039  69.349  1.00  0.00    -0.188 C  
HETATM   26  C   UNL     1     -10.710   9.236  70.541  1.00  0.00    -0.313 C  
BRANCH  24  27
HETATM   27  O   UNL     1     -11.022   7.064  69.434  1.00  0.00    -0.239 OA 
BRANCH  27  28
HETATM   28  C   UNL     1     -10.541   5.912  68.879  1.00  0.00    -0.288 A  
HETATM   29  C   UNL     1      -9.940   4.877  69.587  1.00  0.00    -0.302 A  
HETATM   30  C   UNL     1      -9.496   3.737  68.920  1.00  0.00    -0.223 A  
HETATM   31  C   UNL     1      -9.634   3.612  67.541  1.00  0.00    -0.144 A  
HETATM   32  C   UNL     1     -10.222   4.654  66.824  1.00  0.00    -0.226 A  
HETATM   33  C   UNL     1     -10.696   5.790  67.497  1.00  0.00    -0.320 A  
BRANCH  31  34
HETATM   34  O   UNL     1      -9.077   2.488  67.031  1.00  0.00    -0.147 OA 
HETATM   35  C   UNL     1      -7.902   2.575  66.243  1.00  0.00    -0.080 C  
HETATM   36  F   UNL     1      -6.948   1.793  66.795  1.00  0.00    -0.039 F  
HETATM   37  F   UNL     1      -7.411   3.821  66.100  1.00  0.00    -0.067 F  
HETATM   38  F   UNL     1      -8.178   2.090  65.009  1.00  0.00    -0.075 F  
ENDBRANCH  31  34
ENDBRANCH  27  28
ENDBRANCH  24  27
ENDBRANCH  16  21
ENDBRANCH  14  15
ENDBRANCH  13  14
ENDBRANCH   2  13
TORSDOF 7
ENDMDL
MODEL       42
REMARK 921   NORMALIZED FREE ENERGY PREDICTED BY IDOCK:   -5.78 KCAL/MOL
REMARK 922        TOTAL FREE ENERGY PREDICTED BY IDOCK:   -9.62 KCAL/MOL
REMARK 923 INTER-LIGAND FREE ENERGY PREDICTED BY IDOCK:   -8.61 KCAL/MOL
REMARK 924 INTRA-LIGAND FREE ENERGY PREDICTED BY IDOCK:   -1.01 KCAL/MOL
REMARK 927      BINDING AFFINITY PREDICTED BY RF-SCORE:    0.00 PKD
ROOT
HETATM    1  C   UNL     1     -12.099  15.923  70.068  1.00  0.00    -0.264 C  
HETATM    2  C   UNL     1     -11.164  15.998  68.864  1.00  0.00    -0.353 C  
HETATM    3  C   UNL     1     -10.038  17.829  68.276  1.00  0.00    -0.371 A  
HETATM    4  C   UNL     1      -9.679  15.779  69.263  1.00  0.00    -0.263 C  
HETATM    5  N   UNL     1      -9.102  17.013  68.798  1.00  0.00    -0.267 NA 
HETATM    6  O   UNL     1      -6.063  19.668  68.117  1.00  0.00    -0.220 OA 
HETATM    7  C   UNL     1      -7.897  17.599  68.734  1.00  0.00    -0.242 A  
HETATM    8  O   UNL     1     -11.268  17.349  68.294  1.00  0.00    -0.142 OA 
HETATM    9  O   UNL     1      -7.688  20.909  67.293  1.00  0.00    -0.344 OA 
HETATM   10  C   UNL     1      -8.187  18.822  68.132  1.00  0.00    -0.304 A  
HETATM   11  N   UNL     1      -9.548  18.954  67.843  1.00  0.00    -0.306 NA 
HETATM   12  N   UNL     1      -7.250  19.880  67.822  1.00  0.00    -0.270 N  
ENDROOT
BRANCH   2  13
HETATM   13  C   UNL     1     -11.588  15.016  67.773  1.00  0.00    -0.319 C  
BRANCH  13  14
HETATM   14  O   UNL     1     -10.538  14.091  67.482  1.00  0.00    -0.257 OA 
BRANCH  14  15
HETATM   15  C   UNL     1     -10.677  12.887  68.117  1.00  0.00    -0.241 A  
HETATM   16  C   UNL     1     -10.753  10.437  69.583  1.00  0.00    -0.265 A  
HETATM   17  C   UNL     1     -11.862  12.420  68.667  1.00  0.00    -0.348 A  
HETATM   18  C   UNL     1      -9.545  12.091  68.209  1.00  0.00    -0.204 A  
HETATM   19  C   UNL     1     -11.891  11.224  69.383  1.00  0.00    -0.424 A  
HETATM   20  C   UNL     1      -9.591  10.884  68.926  1.00  0.00    -0.192 A  
BRANCH  16  21
HETATM   21  N   UNL     1     -10.806   9.272  70.332  1.00  0.00    -0.238 NA 
HETATM   22  C   UNL     1      -9.859   8.158  70.138  1.00  0.00    -0.184 C  
HETATM   23  C   UNL     1      -9.432   7.627  71.505  1.00  0.00    -0.166 C  
HETATM   24  C   UNL     1     -10.645   7.222  72.346  1.00  0.00    -0.237 C  
HETATM   25  C   UNL     1     -12.031   8.846  71.014  1.00  0.00    -0.261 C  
HETATM   26  C   UNL     1     -11.640   8.387  72.410  1.00  0.00    -0.450 C  
BRANCH  24  27
HETATM   27  O   UNL     1     -11.228   6.063  71.725  1.00  0.00    -0.268 OA 
BRANCH  27  28
HETATM   28  C   UNL     1     -10.379   5.041  71.404  1.00  0.00    -0.181 A  
HETATM   29  C   UNL     1      -9.673   4.274  72.325  1.00  0.00    -0.210 A  
HETATM   30  C   UNL     1      -8.843   3.244  71.888  1.00  0.00    -0.130 A  
HETATM   31  C   UNL     1      -8.696   2.965  70.533  1.00  0.00    -0.069 A  
HETATM   32  C   UNL     1      -9.390   3.742  69.605  1.00  0.00    -0.245 A  
HETATM   33  C   UNL     1     -10.249   4.761  70.044  1.00  0.00    -0.251 A  
BRANCH  31  34
HETATM   34  O   UNL     1      -7.790   1.995  70.265  1.00  0.00    -0.042 OA 
HETATM   35  C   UNL     1      -6.470   2.344  69.885  1.00  0.00    -0.029 C  
HETATM   36  F   UNL     1      -5.602   1.755  70.737  1.00  0.00    -0.010 F  
HETATM   37  F   UNL     1      -6.222   3.667  69.861  1.00  0.00    -0.024 F  
HETATM   38  F   UNL     1      -6.237   1.852  68.645  1.00  0.00    -0.023 F  
ENDBRANCH  31  34
ENDBRANCH  27  28
ENDBRANCH  24  27
ENDBRANCH  16  21
ENDBRANCH  14  15
ENDBRANCH  13  14
ENDBRANCH   2  13
TORSDOF 7
ENDMDL
MODEL       43
REMARK 921   NORMALIZED FREE ENERGY PREDICTED BY IDOCK:   -5.76 KCAL/MOL
REMARK 922        TOTAL FREE ENERGY PREDICTED BY IDOCK:   -9.60 KCAL/MOL
REMARK 923 INTER-LIGAND FREE ENERGY PREDICTED BY IDOCK:   -8.75 KCAL/MOL
REMARK 924 INTRA-LIGAND FREE ENERGY PREDICTED BY IDOCK:   -0.85 KCAL/MOL
REMARK 927      BINDING AFFINITY PREDICTED BY RF-SCORE:    0.00 PKD
ROOT
HETATM    1  C   UNL     1     -10.719  19.250  67.243  1.00  0.00    -0.594 C  
HETATM    2  C   UNL     1      -9.952  17.962  66.953  1.00  0.00    -0.335 C  
HETATM    3  C   UNL     1     -10.722  15.923  67.421  1.00  0.00    -0.313 A  
HETATM    4  C   UNL     1     -10.389  17.311  65.613  1.00  0.00    -0.171 C  
HETATM    5  N   UNL     1     -10.823  16.021  66.081  1.00  0.00    -0.237 NA 
HETATM    6  O   UNL     1     -12.308  12.229  65.678  1.00  0.00    -0.619 OA 
HETATM    7  C   UNL     1     -11.308  14.877  65.575  1.00  0.00    -0.339 A  
HETATM    8  O   UNL     1     -10.257  17.003  68.025  1.00  0.00    -0.288 OA 
HETATM    9  O   UNL     1     -12.095  12.198  67.872  1.00  0.00    -0.502 OA 
HETATM   10  C   UNL     1     -11.483  14.092  66.714  1.00  0.00    -0.369 A  
HETATM   11  N   UNL     1     -11.104  14.766  67.877  1.00  0.00    -0.282 NA 
HETATM   12  N   UNL     1     -11.998  12.742  66.765  1.00  0.00    -0.372 N  
ENDROOT
BRANCH   2  13
HETATM   13  C   UNL     1      -8.444  18.200  66.980  1.00  0.00    -0.245 C  
BRANCH  13  14
HETATM   14  O   UNL     1      -7.879  17.759  68.216  1.00  0.00    -0.258 OA 
BRANCH  14  15
HETATM   15  C   UNL     1      -7.571  16.427  68.234  1.00  0.00    -0.163 A  
HETATM   16  C   UNL     1      -7.146  13.608  68.416  1.00  0.00    -0.107 A  
HETATM   17  C   UNL     1      -7.251  15.678  67.111  1.00  0.00    -0.230 A  
HETATM   18  C   UNL     1      -7.585  15.794  69.469  1.00  0.00    -0.177 A  
HETATM   19  C   UNL     1      -7.047  14.302  67.207  1.00  0.00     0.042 A  
HETATM   20  C   UNL     1      -7.368  14.409  69.552  1.00  0.00    -0.011 A  
BRANCH  16  21
HETATM   21  N   UNL     1      -6.975  12.234  68.473  1.00  0.00    -0.085 NA 
HETATM   22  C   UNL     1      -6.183  11.489  67.475  1.00  0.00    -0.075 C  
HETATM   23  C   UNL     1      -5.332  10.446  68.198  1.00  0.00    -0.034 C  
HETATM   24  C   UNL     1      -6.199   9.525  69.061  1.00  0.00    -0.042 C  
HETATM   25  C   UNL     1      -7.907  11.367  69.199  1.00  0.00     0.027 C  
HETATM   26  C   UNL     1      -7.078  10.369  69.991  1.00  0.00    -0.155 C  
BRANCH  24  27
HETATM   27  O   UNL     1      -6.991   8.723  68.167  1.00  0.00    -0.072 OA 
BRANCH  27  28
HETATM   28  C   UNL     1      -8.089   8.108  68.699  1.00  0.00    -0.124 A  
HETATM   29  C   UNL     1      -8.081   7.309  69.837  1.00  0.00    -0.127 A  
HETATM   30  C   UNL     1      -9.265   6.740  70.301  1.00  0.00    -0.156 A  
HETATM   31  C   UNL     1     -10.470   6.947  69.639  1.00  0.00    -0.218 A  
HETATM   32  C   UNL     1     -10.481   7.734  68.488  1.00  0.00    -0.202 A  
HETATM   33  C   UNL     1      -9.296   8.333  68.035  1.00  0.00    -0.141 A  
BRANCH  31  34
HETATM   34  O   UNL     1     -11.512   6.257  70.161  1.00  0.00    -0.400 OA 
HETATM   35  C   UNL     1     -12.210   6.770  71.283  1.00  0.00    -0.364 C  
HETATM   36  F   UNL     1     -13.521   6.875  70.970  1.00  0.00    -0.384 F  
HETATM   37  F   UNL     1     -11.773   7.966  71.720  1.00  0.00    -0.265 F  
HETATM   38  F   UNL     1     -12.094   5.885  72.301  1.00  0.00    -0.361 F  
ENDBRANCH  31  34
ENDBRANCH  27  28
ENDBRANCH  24  27
ENDBRANCH  16  21
ENDBRANCH  14  15
ENDBRANCH  13  14
ENDBRANCH   2  13
TORSDOF 7
ENDMDL
MODEL       44
REMARK 921   NORMALIZED FREE ENERGY PREDICTED BY IDOCK:   -5.74 KCAL/MOL
REMARK 922        TOTAL FREE ENERGY PREDICTED BY IDOCK:   -9.57 KCAL/MOL
REMARK 923 INTER-LIGAND FREE ENERGY PREDICTED BY IDOCK:   -8.61 KCAL/MOL
REMARK 924 INTRA-LIGAND FREE ENERGY PREDICTED BY IDOCK:   -0.95 KCAL/MOL
REMARK 927      BINDING AFFINITY PREDICTED BY RF-SCORE:    0.00 PKD
ROOT
HETATM    1  C   UNL     1     -11.543  15.590  65.135  1.00  0.00    -0.060 C  
HETATM    2  C   UNL     1     -11.009  14.847  66.357  1.00  0.00    -0.336 C  
HETATM    3  C   UNL     1     -11.143  15.623  68.442  1.00  0.00    -0.326 A  
HETATM    4  C   UNL     1     -12.120  14.041  67.083  1.00  0.00    -0.401 C  
HETATM    5  N   UNL     1     -12.057  14.635  68.392  1.00  0.00    -0.245 NA 
HETATM    6  O   UNL     1     -13.134  15.109  72.312  1.00  0.00    -0.316 OA 
HETATM    7  C   UNL     1     -12.648  14.498  69.588  1.00  0.00    -0.070 A  
HETATM    8  O   UNL     1     -10.502  15.846  67.308  1.00  0.00    -0.298 OA 
HETATM    9  O   UNL     1     -11.611  16.703  72.261  1.00  0.00    -0.393 OA 
HETATM   10  C   UNL     1     -12.013  15.476  70.353  1.00  0.00    -0.367 A  
HETATM   11  N   UNL     1     -11.059  16.180  69.615  1.00  0.00    -0.328 NA 
HETATM   12  N   UNL     1     -12.266  15.790  71.742  1.00  0.00    -0.412 N  
ENDROOT
BRANCH   2  13
HETATM   13  C   UNL     1      -9.834  13.945  65.984  1.00  0.00    -0.289 C  
BRANCH  13  14
HETATM   14  O   UNL     1     -10.200  13.032  64.947  1.00  0.00    -0.311 OA 
BRANCH  14  15
HETATM   15  C   UNL     1     -10.106  11.718  65.315  1.00  0.00    -0.262 A  
HETATM   16  C   UNL     1      -9.665   8.976  65.983  1.00  0.00    -0.269 A  
HETATM   17  C   UNL     1     -10.422  11.229  66.574  1.00  0.00    -0.299 A  
HETATM   18  C   UNL     1      -9.660  10.825  64.352  1.00  0.00    -0.330 A  
HETATM   19  C   UNL     1     -10.202   9.890  66.894  1.00  0.00    -0.302 A  
HETATM   20  C   UNL     1      -9.452   9.477  64.685  1.00  0.00    -0.133 A  
BRANCH  16  21
HETATM   21  N   UNL     1      -9.422   7.660  66.342  1.00  0.00    -0.184 NA 
HETATM   22  C   UNL     1      -9.860   7.095  67.633  1.00  0.00    -0.147 C  
HETATM   23  C   UNL     1     -10.424   5.695  67.394  1.00  0.00    -0.306 C  
HETATM   24  C   UNL     1      -9.406   4.801  66.681  1.00  0.00    -0.143 C  
HETATM   25  C   UNL     1      -8.345   6.876  65.731  1.00  0.00    -0.142 C  
HETATM   26  C   UNL     1      -8.908   5.500  65.410  1.00  0.00    -0.131 C  
BRANCH  24  27
HETATM   27  O   UNL     1      -8.331   4.556  67.604  1.00  0.00    -0.099 OA 
BRANCH  27  28
HETATM   28  C   UNL     1      -8.671   4.056  68.830  1.00  0.00    -0.098 A  
HETATM   29  C   UNL     1      -9.285   2.827  69.045  1.00  0.00    -0.221 A  
HETATM   30  C   UNL     1      -9.575   2.407  70.342  1.00  0.00    -0.113 A  
HETATM   31  C   UNL     1      -9.269   3.203  71.441  1.00  0.00    -0.119 A  
HETATM   32  C   UNL     1      -8.667   4.443  71.229  1.00  0.00    -0.135 A  
HETATM   33  C   UNL     1      -8.347   4.856  69.926  1.00  0.00    -0.080 A  
BRANCH  31  34
HETATM   34  O   UNL     1      -9.691   2.697  72.623  1.00  0.00    -0.110 OA 
HETATM   35  C   UNL     1     -10.817   3.261  73.273  1.00  0.00    -0.180 C  
HETATM   36  F   UNL     1     -11.731   2.288  73.485  1.00  0.00    -0.304 F  
HETATM   37  F   UNL     1     -11.407   4.270  72.605  1.00  0.00    -0.149 F  
HETATM   38  F   UNL     1     -10.422   3.733  74.480  1.00  0.00    -0.204 F  
ENDBRANCH  31  34
ENDBRANCH  27  28
ENDBRANCH  24  27
ENDBRANCH  16  21
ENDBRANCH  14  15
ENDBRANCH  13  14
ENDBRANCH   2  13
TORSDOF 7
ENDMDL
MODEL       45
REMARK 921   NORMALIZED FREE ENERGY PREDICTED BY IDOCK:   -5.72 KCAL/MOL
REMARK 922        TOTAL FREE ENERGY PREDICTED BY IDOCK:   -9.54 KCAL/MOL
REMARK 923 INTER-LIGAND FREE ENERGY PREDICTED BY IDOCK:   -8.30 KCAL/MOL
REMARK 924 INTRA-LIGAND FREE ENERGY PREDICTED BY IDOCK:   -1.23 KCAL/MOL
REMARK 927      BINDING AFFINITY PREDICTED BY RF-SCORE:    0.00 PKD
ROOT
HETATM    1  C   UNL     1     -11.046  16.947  69.979  1.00  0.00     0.218 C  
HETATM    2  C   UNL     1     -10.469  16.318  68.713  1.00  0.00    -0.282 C  
HETATM    3  C   UNL     1      -9.200  17.417  67.247  1.00  0.00    -0.234 A  
HETATM    4  C   UNL     1      -9.005  15.840  68.914  1.00  0.00    -0.226 C  
HETATM    5  N   UNL     1      -8.339  16.608  67.895  1.00  0.00    -0.182 NA 
HETATM    6  O   UNL     1      -5.127  17.860  65.690  1.00  0.00    -0.169 OA 
HETATM    7  C   UNL     1      -7.103  16.762  67.398  1.00  0.00    -0.156 A  
HETATM    8  O   UNL     1     -10.451  17.348  67.664  1.00  0.00    -0.347 OA 
HETATM    9  O   UNL     1      -6.634  19.136  64.711  1.00  0.00    -0.468 OA 
HETATM   10  C   UNL     1      -7.295  17.720  66.403  1.00  0.00    -0.275 A  
HETATM   11  N   UNL     1      -8.629  18.124  66.315  1.00  0.00    -0.448 NA 
HETATM   12  N   UNL     1      -6.283  18.283  65.535  1.00  0.00    -0.251 N  
ENDROOT
BRANCH   2  13
HETATM   13  C   UNL     1     -11.352  15.179  68.209  1.00  0.00    -0.327 C  
BRANCH  13  14
HETATM   14  O   UNL     1     -10.561  14.060  67.805  1.00  0.00    -0.239 OA 
BRANCH  14  15
HETATM   15  C   UNL     1     -10.857  12.907  68.479  1.00  0.00    -0.257 A  
HETATM   16  C   UNL     1     -11.218  10.486  69.951  1.00  0.00    -0.307 A  
HETATM   17  C   UNL     1     -11.893  12.773  69.393  1.00  0.00    -0.359 A  
HETATM   18  C   UNL     1     -10.056  11.804  68.222  1.00  0.00    -0.199 A  
HETATM   19  C   UNL     1     -12.061  11.589  70.109  1.00  0.00    -0.432 A  
HETATM   20  C   UNL     1     -10.243  10.615  68.944  1.00  0.00    -0.216 A  
BRANCH  16  21
HETATM   21  N   UNL     1     -11.389   9.336  70.705  1.00  0.00    -0.271 NA 
HETATM   22  C   UNL     1     -12.427   9.215  71.747  1.00  0.00    -0.372 C  
HETATM   23  C   UNL     1     -13.073   7.835  71.644  1.00  0.00    -0.378 C  
HETATM   24  C   UNL     1     -12.024   6.723  71.733  1.00  0.00    -0.339 C  
HETATM   25  C   UNL     1     -10.312   8.358  70.880  1.00  0.00    -0.194 C  
HETATM   26  C   UNL     1     -10.919   6.975  70.701  1.00  0.00    -0.292 C  
BRANCH  24  27
HETATM   27  O   UNL     1     -11.507   6.731  73.075  1.00  0.00    -0.153 OA 
BRANCH  27  28
HETATM   28  C   UNL     1     -10.541   5.811  73.371  1.00  0.00    -0.258 A  
HETATM   29  C   UNL     1      -9.459   6.036  74.214  1.00  0.00    -0.167 A  
HETATM   30  C   UNL     1      -8.538   5.020  74.457  1.00  0.00    -0.109 A  
HETATM   31  C   UNL     1      -8.672   3.770  73.863  1.00  0.00    -0.089 A  
HETATM   32  C   UNL     1      -9.747   3.544  73.003  1.00  0.00    -0.174 A  
HETATM   33  C   UNL     1     -10.692   4.556  72.779  1.00  0.00    -0.258 A  
BRANCH  31  34
HETATM   34  O   UNL     1      -7.652   2.920  74.128  1.00  0.00    -0.049 OA 
HETATM   35  C   UNL     1      -6.438   3.021  73.403  1.00  0.00    -0.021 C  
HETATM   36  F   UNL     1      -5.421   3.186  74.277  1.00  0.00     0.000 F  
HETATM   37  F   UNL     1      -6.402   4.022  72.503  1.00  0.00    -0.016 F  
HETATM   38  F   UNL     1      -6.236   1.856  72.743  1.00  0.00    -0.008 F  
ENDBRANCH  31  34
ENDBRANCH  27  28
ENDBRANCH  24  27
ENDBRANCH  16  21
ENDBRANCH  14  15
ENDBRANCH  13  14
ENDBRANCH   2  13
TORSDOF 7
ENDMDL
MODEL       46
REMARK 921   NORMALIZED FREE ENERGY PREDICTED BY IDOCK:   -5.63 KCAL/MOL
REMARK 922        TOTAL FREE ENERGY PREDICTED BY IDOCK:   -9.41 KCAL/MOL
REMARK 923 INTER-LIGAND FREE ENERGY PREDICTED BY IDOCK:   -7.81 KCAL/MOL
REMARK 924 INTRA-LIGAND FREE ENERGY PREDICTED BY IDOCK:   -1.60 KCAL/MOL
REMARK 927      BINDING AFFINITY PREDICTED BY RF-SCORE:    0.00 PKD
ROOT
HETATM    1  C   UNL     1     -10.071   4.126  65.601  1.00  0.00    -0.189 C  
HETATM    2  C   UNL     1      -9.564   5.173  66.589  1.00  0.00    -0.154 C  
HETATM    3  C   UNL     1     -10.816   6.076  68.197  1.00  0.00    -0.281 A  
HETATM    4  C   UNL     1      -9.120   4.540  67.936  1.00  0.00    -0.123 C  
HETATM    5  N   UNL     1      -9.987   5.237  68.848  1.00  0.00    -0.168 NA 
HETATM    6  O   UNL     1     -11.513   6.197  72.522  1.00  0.00    -0.282 OA 
HETATM    7  C   UNL     1     -10.220   5.296  70.168  1.00  0.00    -0.280 A  
HETATM    8  O   UNL     1     -10.673   6.092  66.884  1.00  0.00    -0.287 OA 
HETATM    9  O   UNL     1     -12.812   7.529  71.340  1.00  0.00    -0.347 OA 
HETATM   10  C   UNL     1     -11.246   6.236  70.252  1.00  0.00    -0.388 A  
HETATM   11  N   UNL     1     -11.612   6.725  68.996  1.00  0.00    -0.000 NA 
HETATM   12  N   UNL     1     -11.909   6.691  71.455  1.00  0.00    -0.323 N  
ENDROOT
BRANCH   2  13
HETATM   13  C   UNL     1      -8.440   6.008  65.980  1.00  0.00    -0.139 C  
BRANCH  13  14
HETATM   14  O   UNL     1      -7.483   6.381  66.974  1.00  0.00    -0.081 OA 
BRANCH  14  15
HETATM   15  C   UNL     1      -7.394   7.731  67.170  1.00  0.00    -0.091 A  
HETATM   16  C   UNL     1      -7.153  10.500  67.832  1.00  0.00    -0.083 A  
HETATM   17  C   UNL     1      -6.644   8.593  66.382  1.00  0.00    -0.062 A  
HETATM   18  C   UNL     1      -8.106   8.261  68.236  1.00  0.00    -0.124 A  
HETATM   19  C   UNL     1      -6.530   9.942  66.712  1.00  0.00    -0.070 A  
HETATM   20  C   UNL     1      -7.988   9.625  68.552  1.00  0.00    -0.089 A  
BRANCH  16  21
HETATM   21  N   UNL     1      -6.989  11.837  68.156  1.00  0.00    -0.071 NA 
HETATM   22  C   UNL     1      -7.758  12.913  67.502  1.00  0.00    -0.174 C  
HETATM   23  C   UNL     1      -8.197  13.922  68.562  1.00  0.00    -0.131 C  
HETATM   24  C   UNL     1      -6.998  14.456  69.350  1.00  0.00    -0.129 C  
HETATM   25  C   UNL     1      -5.765  12.336  68.789  1.00  0.00    -0.054 C  
HETATM   26  C   UNL     1      -6.181  13.283  69.904  1.00  0.00    -0.097 C  
BRANCH  24  27
HETATM   27  O   UNL     1      -6.220  15.264  68.449  1.00  0.00    -0.095 OA 
BRANCH  27  28
HETATM   28  C   UNL     1      -6.807  16.404  67.978  1.00  0.00    -0.137 A  
HETATM   29  C   UNL     1      -7.136  17.510  68.756  1.00  0.00    -0.248 A  
HETATM   30  C   UNL     1      -7.720  18.630  68.169  1.00  0.00    -0.302 A  
HETATM   31  C   UNL     1      -7.993  18.667  66.806  1.00  0.00    -0.255 A  
HETATM   32  C   UNL     1      -7.680  17.555  66.024  1.00  0.00    -0.237 A  
HETATM   33  C   UNL     1      -7.065  16.437  66.607  1.00  0.00    -0.175 A  
BRANCH  31  34
HETATM   34  O   UNL     1      -8.640  19.787  66.403  1.00  0.00    -0.335 OA 
HETATM   35  C   UNL     1     -10.042  19.896  66.577  1.00  0.00    -0.488 C  
HETATM   36  F   UNL     1     -10.306  21.010  67.294  1.00  0.00    -0.353 F  
HETATM   37  F   UNL     1     -10.618  18.842  67.186  1.00  0.00    -0.410 F  
HETATM   38  F   UNL     1     -10.615  20.039  65.358  1.00  0.00    -0.553 F  
ENDBRANCH  31  34
ENDBRANCH  27  28
ENDBRANCH  24  27
ENDBRANCH  16  21
ENDBRANCH  14  15
ENDBRANCH  13  14
ENDBRANCH   2  13
TORSDOF 7
ENDMDL
MODEL       47
REMARK 921   NORMALIZED FREE ENERGY PREDICTED BY IDOCK:   -5.62 KCAL/MOL
REMARK 922        TOTAL FREE ENERGY PREDICTED BY IDOCK:   -9.40 KCAL/MOL
REMARK 923 INTER-LIGAND FREE ENERGY PREDICTED BY IDOCK:   -7.94 KCAL/MOL
REMARK 924 INTRA-LIGAND FREE ENERGY PREDICTED BY IDOCK:   -1.46 KCAL/MOL
REMARK 927      BINDING AFFINITY PREDICTED BY RF-SCORE:    0.00 PKD
ROOT
HETATM    1  C   UNL     1     -10.384  14.818  64.742  1.00  0.00    -0.260 C  
HETATM    2  C   UNL     1     -10.441  15.683  65.999  1.00  0.00    -0.331 C  
HETATM    3  C   UNL     1      -8.769  16.986  66.689  1.00  0.00    -0.251 A  
HETATM    4  C   UNL     1     -10.833  17.151  65.680  1.00  0.00    -0.049 C  
HETATM    5  N   UNL     1      -9.686  17.845  66.203  1.00  0.00    -0.506 NA 
HETATM    6  O   UNL     1      -7.431  21.137  67.112  1.00  0.00    -0.380 OA 
HETATM    7  C   UNL     1      -9.252  19.106  66.347  1.00  0.00    -0.343 A  
HETATM    8  O   UNL     1      -9.096  15.709  66.592  1.00  0.00    -0.235 OA 
HETATM    9  O   UNL     1      -6.014  19.628  67.870  1.00  0.00    -0.204 OA 
HETATM   10  C   UNL     1      -8.011  18.931  66.959  1.00  0.00    -0.252 A  
HETATM   11  N   UNL     1      -7.719  17.582  67.173  1.00  0.00    -0.199 NA 
HETATM   12  N   UNL     1      -7.080  19.970  67.344  1.00  0.00    -0.240 N  
ENDROOT
BRANCH   2  13
HETATM   13  C   UNL     1     -11.380  15.080  67.042  1.00  0.00    -0.318 C  
BRANCH  13  14
HETATM   14  O   UNL     1     -10.640  14.483  68.110  1.00  0.00    -0.233 OA 
BRANCH  14  15
HETATM   15  C   UNL     1     -10.572  13.119  68.033  1.00  0.00    -0.236 A  
HETATM   16  C   UNL     1     -10.293  10.277  68.101  1.00  0.00    -0.177 A  
HETATM   17  C   UNL     1     -11.661  12.288  67.810  1.00  0.00    -0.416 A  
HETATM   18  C   UNL     1      -9.321  12.541  68.195  1.00  0.00    -0.210 A  
HETATM   19  C   UNL     1     -11.517  10.902  67.846  1.00  0.00    -0.344 A  
HETATM   20  C   UNL     1      -9.190  11.144  68.220  1.00  0.00    -0.169 A  
BRANCH  16  21
HETATM   21  N   UNL     1     -10.190   8.897  68.168  1.00  0.00    -0.193 NA 
HETATM   22  C   UNL     1      -9.690   8.194  69.365  1.00  0.00    -0.170 C  
HETATM   23  C   UNL     1     -10.565   6.968  69.620  1.00  0.00    -0.253 C  
HETATM   24  C   UNL     1     -10.617   6.059  68.389  1.00  0.00    -0.261 C  
HETATM   25  C   UNL     1     -10.104   8.067  66.963  1.00  0.00    -0.279 C  
HETATM   26  C   UNL     1     -11.031   6.878  67.161  1.00  0.00    -0.427 C  
BRANCH  24  27
HETATM   27  O   UNL     1      -9.308   5.485  68.226  1.00  0.00    -0.108 OA 
BRANCH  27  28
HETATM   28  C   UNL     1      -8.834   4.724  69.256  1.00  0.00    -0.092 A  
HETATM   29  C   UNL     1      -7.587   4.879  69.852  1.00  0.00    -0.056 A  
HETATM   30  C   UNL     1      -7.208   4.053  70.908  1.00  0.00    -0.037 A  
HETATM   31  C   UNL     1      -8.057   3.059  71.384  1.00  0.00    -0.059 A  
HETATM   32  C   UNL     1      -9.302   2.889  70.779  1.00  0.00    -0.222 A  
HETATM   33  C   UNL     1      -9.698   3.738  69.734  1.00  0.00    -0.193 A  
BRANCH  31  34
HETATM   34  O   UNL     1      -7.513   2.286  72.353  1.00  0.00    -0.041 OA 
HETATM   35  C   UNL     1      -7.701   2.623  73.717  1.00  0.00    -0.051 C  
HETATM   36  F   UNL     1      -8.258   1.569  74.353  1.00  0.00    -0.041 F  
HETATM   37  F   UNL     1      -8.468   3.709  73.928  1.00  0.00    -0.083 F  
HETATM   38  F   UNL     1      -6.488   2.853  74.272  1.00  0.00    -0.020 F  
ENDBRANCH  31  34
ENDBRANCH  27  28
ENDBRANCH  24  27
ENDBRANCH  16  21
ENDBRANCH  14  15
ENDBRANCH  13  14
ENDBRANCH   2  13
TORSDOF 7
ENDMDL
MODEL       48
REMARK 921   NORMALIZED FREE ENERGY PREDICTED BY IDOCK:   -5.60 KCAL/MOL
REMARK 922        TOTAL FREE ENERGY PREDICTED BY IDOCK:   -9.38 KCAL/MOL
REMARK 923 INTER-LIGAND FREE ENERGY PREDICTED BY IDOCK:   -8.15 KCAL/MOL
REMARK 924 INTRA-LIGAND FREE ENERGY PREDICTED BY IDOCK:   -1.23 KCAL/MOL
REMARK 927      BINDING AFFINITY PREDICTED BY RF-SCORE:    0.00 PKD
ROOT
HETATM    1  C   UNL     1     -10.230  17.978  68.434  1.00  0.00    -0.399 C  
HETATM    2  C   UNL     1      -9.756  16.697  67.751  1.00  0.00    -0.240 C  
HETATM    3  C   UNL     1     -11.122  15.223  66.787  1.00  0.00    -0.278 A  
HETATM    4  C   UNL     1      -9.619  16.871  66.214  1.00  0.00    -0.276 C  
HETATM    5  N   UNL     1     -10.523  15.850  65.756  1.00  0.00    -0.351 NA 
HETATM    6  O   UNL     1     -12.481  13.610  62.946  1.00  0.00    -0.610 OA 
HETATM    7  C   UNL     1     -10.955  15.336  64.594  1.00  0.00    -0.304 A  
HETATM    8  O   UNL     1     -10.770  15.659  67.983  1.00  0.00    -0.269 OA 
HETATM    9  O   UNL     1     -13.392  12.667  64.718  1.00  0.00    -0.787 OA 
HETATM   10  C   UNL     1     -11.852  14.354  65.014  1.00  0.00    -0.400 A  
HETATM   11  N   UNL     1     -11.946  14.291  66.406  1.00  0.00    -0.418 NA 
HETATM   12  N   UNL     1     -12.634  13.477  64.170  1.00  0.00    -0.197 N  
ENDROOT
BRANCH   2  13
HETATM   13  C   UNL     1      -8.451  16.195  68.364  1.00  0.00    -0.184 C  
BRANCH  13  14
HETATM   14  O   UNL     1      -7.729  15.384  67.434  1.00  0.00    -0.160 OA 
BRANCH  14  15
HETATM   15  C   UNL     1      -7.840  14.042  67.675  1.00  0.00    -0.176 A  
HETATM   16  C   UNL     1      -8.143  11.303  68.426  1.00  0.00    -0.143 A  
HETATM   17  C   UNL     1      -8.539  13.153  66.871  1.00  0.00    -0.118 A  
HETATM   18  C   UNL     1      -7.206  13.552  68.807  1.00  0.00    -0.096 A  
HETATM   19  C   UNL     1      -8.685  11.819  67.246  1.00  0.00    -0.163 A  
HETATM   20  C   UNL     1      -7.353  12.203  69.167  1.00  0.00     0.069 A  
BRANCH  16  21
HETATM   21  N   UNL     1      -8.337   9.980  68.790  1.00  0.00    -0.114 NA 
HETATM   22  C   UNL     1      -8.300   8.874  67.814  1.00  0.00    -0.110 C  
HETATM   23  C   UNL     1      -7.529   7.703  68.422  1.00  0.00    -0.104 C  
HETATM   24  C   UNL     1      -8.133   7.279  69.763  1.00  0.00    -0.128 C  
HETATM   25  C   UNL     1      -9.043   9.611  70.020  1.00  0.00    -0.237 C  
HETATM   26  C   UNL     1      -8.248   8.498  70.685  1.00  0.00    -0.129 C  
BRANCH  24  27
HETATM   27  O   UNL     1      -9.420   6.700  69.488  1.00  0.00    -0.148 OA 
BRANCH  27  28
HETATM   28  C   UNL     1      -9.486   5.797  68.465  1.00  0.00    -0.123 A  
HETATM   29  C   UNL     1      -8.646   4.699  68.317  1.00  0.00    -0.105 A  
HETATM   30  C   UNL     1      -8.811   3.831  67.240  1.00  0.00    -0.137 A  
HETATM   31  C   UNL     1      -9.806   4.044  66.291  1.00  0.00    -0.159 A  
HETATM   32  C   UNL     1     -10.641   5.152  66.426  1.00  0.00    -0.336 A  
HETATM   33  C   UNL     1     -10.496   6.012  67.526  1.00  0.00    -0.302 A  
BRANCH  31  34
HETATM   34  O   UNL     1      -9.782   3.166  65.261  1.00  0.00    -0.105 OA 
HETATM   35  C   UNL     1      -9.090   3.492  64.068  1.00  0.00    -0.119 C  
HETATM   36  F   UNL     1      -8.178   2.526  63.816  1.00  0.00    -0.078 F  
HETATM   37  F   UNL     1      -8.463   4.683  64.088  1.00  0.00    -0.104 F  
HETATM   38  F   UNL     1      -9.979   3.503  63.046  1.00  0.00    -0.110 F  
ENDBRANCH  31  34
ENDBRANCH  27  28
ENDBRANCH  24  27
ENDBRANCH  16  21
ENDBRANCH  14  15
ENDBRANCH  13  14
ENDBRANCH   2  13
TORSDOF 7
ENDMDL
MODEL       49
REMARK 921   NORMALIZED FREE ENERGY PREDICTED BY IDOCK:   -5.60 KCAL/MOL
REMARK 922        TOTAL FREE ENERGY PREDICTED BY IDOCK:   -9.37 KCAL/MOL
REMARK 923 INTER-LIGAND FREE ENERGY PREDICTED BY IDOCK:   -8.31 KCAL/MOL
REMARK 924 INTRA-LIGAND FREE ENERGY PREDICTED BY IDOCK:   -1.06 KCAL/MOL
REMARK 927      BINDING AFFINITY PREDICTED BY RF-SCORE:    0.00 PKD
ROOT
HETATM    1  C   UNL     1     -12.821  14.080  65.512  1.00  0.00    -0.453 C  
HETATM    2  C   UNL     1     -11.524  14.340  66.274  1.00  0.00    -0.357 C  
HETATM    3  C   UNL     1     -10.262  16.156  65.994  1.00  0.00    -0.356 A  
HETATM    4  C   UNL     1     -11.745  15.256  67.508  1.00  0.00    -0.140 C  
HETATM    5  N   UNL     1     -10.857  16.342  67.188  1.00  0.00    -0.248 NA 
HETATM    6  O   UNL     1      -8.981  19.921  67.835  1.00  0.00    -0.318 OA 
HETATM    7  C   UNL     1     -10.446  17.498  67.729  1.00  0.00    -0.381 A  
HETATM    8  O   UNL     1     -10.602  15.043  65.369  1.00  0.00    -0.322 OA 
HETATM    9  O   UNL     1      -8.077  19.500  65.869  1.00  0.00    -0.397 OA 
HETATM   10  C   UNL     1      -9.558  17.983  66.769  1.00  0.00    -0.303 A  
HETATM   11  N   UNL     1      -9.449  17.121  65.675  1.00  0.00    -0.489 NA 
HETATM   12  N   UNL     1      -8.815  19.223  66.823  1.00  0.00    -0.303 N  
ENDROOT
BRANCH   2  13
HETATM   13  C   UNL     1     -10.847  13.032  66.676  1.00  0.00    -0.275 C  
BRANCH  13  14
HETATM   14  O   UNL     1     -10.134  12.466  65.575  1.00  0.00    -0.264 OA 
BRANCH  14  15
HETATM   15  C   UNL     1      -9.774  11.161  65.768  1.00  0.00    -0.225 A  
HETATM   16  C   UNL     1      -9.280   8.379  66.191  1.00  0.00    -0.205 A  
HETATM   17  C   UNL     1      -8.889  10.460  64.960  1.00  0.00    -0.209 A  
HETATM   18  C   UNL     1     -10.343  10.504  66.850  1.00  0.00    -0.293 A  
HETATM   19  C   UNL     1      -8.655   9.103  65.171  1.00  0.00    -0.200 A  
HETATM   20  C   UNL     1     -10.090   9.138  67.056  1.00  0.00    -0.316 A  
BRANCH  16  21
HETATM   21  N   UNL     1      -9.055   7.021  66.352  1.00  0.00    -0.160 NA 
HETATM   22  C   UNL     1      -9.536   6.269  67.526  1.00  0.00    -0.112 C  
HETATM   23  C   UNL     1     -10.098   4.928  67.059  1.00  0.00    -0.243 C  
HETATM   24  C   UNL     1      -9.062   4.144  66.248  1.00  0.00    -0.134 C  
HETATM   25  C   UNL     1      -7.963   6.330  65.660  1.00  0.00    -0.115 C  
HETATM   26  C   UNL     1      -8.522   5.025  65.115  1.00  0.00    -0.143 C  
BRANCH  24  27
HETATM   27  O   UNL     1      -8.019   3.751  67.156  1.00  0.00    -0.090 OA 
BRANCH  27  28
HETATM   28  C   UNL     1      -8.406   3.158  68.324  1.00  0.00    -0.078 A  
HETATM   29  C   UNL     1      -9.440   2.235  68.444  1.00  0.00    -0.226 A  
HETATM   30  C   UNL     1      -9.743   1.680  69.685  1.00  0.00     0.019 A  
HETATM   31  C   UNL     1      -9.031   2.038  70.826  1.00  0.00    -0.079 A  
HETATM   32  C   UNL     1      -8.004   2.975  70.714  1.00  0.00    -0.051 A  
HETATM   33  C   UNL     1      -7.678   3.513  69.460  1.00  0.00    -0.051 A  
BRANCH  31  34
HETATM   34  O   UNL     1      -9.501   1.480  71.967  1.00  0.00    -0.079 OA 
HETATM   35  C   UNL     1     -10.335   2.232  72.832  1.00  0.00    -0.150 C  
HETATM   36  F   UNL     1     -11.492   1.558  73.016  1.00  0.00    -0.245 F  
HETATM   37  F   UNL     1     -10.622   3.474  72.398  1.00  0.00    -0.229 F  
HETATM   38  F   UNL     1      -9.719   2.340  74.033  1.00  0.00    -0.092 F  
ENDBRANCH  31  34
ENDBRANCH  27  28
ENDBRANCH  24  27
ENDBRANCH  16  21
ENDBRANCH  14  15
ENDBRANCH  13  14
ENDBRANCH   2  13
TORSDOF 7
ENDMDL
MODEL       50
REMARK 921   NORMALIZED FREE ENERGY PREDICTED BY IDOCK:   -5.60 KCAL/MOL
REMARK 922        TOTAL FREE ENERGY PREDICTED BY IDOCK:   -9.37 KCAL/MOL
REMARK 923 INTER-LIGAND FREE ENERGY PREDICTED BY IDOCK:   -8.55 KCAL/MOL
REMARK 924 INTRA-LIGAND FREE ENERGY PREDICTED BY IDOCK:   -0.81 KCAL/MOL
REMARK 927      BINDING AFFINITY PREDICTED BY RF-SCORE:    0.00 PKD
ROOT
HETATM    1  C   UNL     1      -9.003   4.145  74.359  1.00  0.00    -0.105 C  
HETATM    2  C   UNL     1      -9.084   5.183  73.242  1.00  0.00    -0.122 C  
HETATM    3  C   UNL     1     -10.996   5.945  72.388  1.00  0.00    -0.264 A  
HETATM    4  C   UNL     1      -9.300   6.618  73.793  1.00  0.00    -0.166 C  
HETATM    5  N   UNL     1     -10.532   6.965  73.137  1.00  0.00    -0.259 NA 
HETATM    6  O   UNL     1     -13.671   9.410  72.178  1.00  0.00    -0.427 OA 
HETATM    7  C   UNL     1     -11.368   8.011  73.052  1.00  0.00    -0.168 A  
HETATM    8  O   UNL     1     -10.247   4.857  72.404  1.00  0.00    -0.186 OA 
HETATM    9  O   UNL     1     -14.322   7.668  70.994  1.00  0.00    -0.271 OA 
HETATM   10  C   UNL     1     -12.360   7.538  72.194  1.00  0.00    -0.217 A  
HETATM   11  N   UNL     1     -12.110   6.228  71.778  1.00  0.00    -0.288 NA 
HETATM   12  N   UNL     1     -13.538   8.252  71.753  1.00  0.00    -0.352 N  
ENDROOT
BRANCH   2  13
HETATM   13  C   UNL     1      -7.852   5.122  72.341  1.00  0.00    -0.101 C  
BRANCH  13  14
HETATM   14  O   UNL     1      -8.216   4.788  71.000  1.00  0.00    -0.091 OA 
BRANCH  14  15
HETATM   15  C   UNL     1      -8.403   5.879  70.196  1.00  0.00    -0.118 A  
HETATM   16  C   UNL     1      -9.054   8.107  68.531  1.00  0.00    -0.136 A  
HETATM   17  C   UNL     1      -7.837   7.127  70.417  1.00  0.00    -0.100 A  
HETATM   18  C   UNL     1      -9.219   5.710  69.087  1.00  0.00    -0.136 A  
HETATM   19  C   UNL     1      -8.161   8.210  69.602  1.00  0.00    -0.118 A  
HETATM   20  C   UNL     1      -9.529   6.809  68.269  1.00  0.00    -0.125 A  
BRANCH  16  21
HETATM   21  N   UNL     1      -9.385   9.211  67.762  1.00  0.00    -0.136 NA 
HETATM   22  C   UNL     1      -8.619   9.603  66.563  1.00  0.00    -0.127 C  
HETATM   23  C   UNL     1      -9.598  10.011  65.463  1.00  0.00    -0.328 C  
HETATM   24  C   UNL     1     -10.541  11.118  65.941  1.00  0.00    -0.234 C  
HETATM   25  C   UNL     1     -10.178  10.320  68.300  1.00  0.00    -0.159 C  
HETATM   26  C   UNL     1     -11.215  10.690  67.250  1.00  0.00    -0.237 C  
BRANCH  24  27
HETATM   27  O   UNL     1      -9.751  12.306  66.117  1.00  0.00    -0.239 OA 
BRANCH  27  28
HETATM   28  C   UNL     1     -10.135  13.163  67.109  1.00  0.00    -0.242 A  
HETATM   29  C   UNL     1     -11.367  13.805  67.173  1.00  0.00    -0.344 A  
HETATM   30  C   UNL     1     -11.661  14.651  68.240  1.00  0.00    -0.359 A  
HETATM   31  C   UNL     1     -10.736  14.878  69.254  1.00  0.00    -0.249 A  
HETATM   32  C   UNL     1      -9.493  14.249  69.186  1.00  0.00     0.101 A  
HETATM   33  C   UNL     1      -9.205  13.374  68.128  1.00  0.00    -0.215 A  
BRANCH  31  34
HETATM   34  O   UNL     1     -11.136  15.789  70.172  1.00  0.00    -0.290 OA 
HETATM   35  C   UNL     1     -11.872  15.373  71.309  1.00  0.00    -0.380 C  
HETATM   36  F   UNL     1     -11.220  15.778  72.422  1.00  0.00    -0.446 F  
HETATM   37  F   UNL     1     -12.083  14.046  71.390  1.00  0.00    -0.389 F  
HETATM   38  F   UNL     1     -13.079  15.988  71.286  1.00  0.00    -0.529 F  
ENDBRANCH  31  34
ENDBRANCH  27  28
ENDBRANCH  24  27
ENDBRANCH  16  21
ENDBRANCH  14  15
ENDBRANCH  13  14
ENDBRANCH   2  13
TORSDOF 7
ENDMDL
MODEL       51
REMARK 921   NORMALIZED FREE ENERGY PREDICTED BY IDOCK:   -5.53 KCAL/MOL
REMARK 922        TOTAL FREE ENERGY PREDICTED BY IDOCK:   -9.28 KCAL/MOL
REMARK 923 INTER-LIGAND FREE ENERGY PREDICTED BY IDOCK:   -8.84 KCAL/MOL
REMARK 924 INTRA-LIGAND FREE ENERGY PREDICTED BY IDOCK:   -0.44 KCAL/MOL
REMARK 927      BINDING AFFINITY PREDICTED BY RF-SCORE:    0.00 PKD
ROOT
HETATM    1  C   UNL     1     -11.871  15.701  68.963  1.00  0.00    -0.379 C  
HETATM    2  C   UNL     1     -11.055  15.263  67.749  1.00  0.00    -0.318 C  
HETATM    3  C   UNL     1      -9.570  16.564  66.715  1.00  0.00    -0.254 A  
HETATM    4  C   UNL     1      -9.640  14.761  68.147  1.00  0.00    -0.209 C  
HETATM    5  N   UNL     1      -8.821  15.669  67.388  1.00  0.00    -0.185 NA 
HETATM    6  O   UNL     1      -5.295  17.229  66.016  1.00  0.00    -0.317 OA 
HETATM    7  C   UNL     1      -7.519  15.894  67.154  1.00  0.00    -0.227 A  
HETATM    8  O   UNL     1     -10.874  16.434  66.880  1.00  0.00    -0.249 OA 
HETATM    9  O   UNL     1      -6.632  18.634  64.967  1.00  0.00    -0.505 OA 
HETATM   10  C   UNL     1      -7.552  16.986  66.288  1.00  0.00    -0.305 A  
HETATM   11  N   UNL     1      -8.859  17.399  66.015  1.00  0.00    -0.528 NA 
HETATM   12  N   UNL     1      -6.415  17.670  65.712  1.00  0.00    -0.183 N  
ENDROOT
BRANCH   2  13
HETATM   13  C   UNL     1     -11.801  14.209  66.934  1.00  0.00    -0.431 C  
BRANCH  13  14
HETATM   14  O   UNL     1     -10.993  13.732  65.856  1.00  0.00    -0.282 OA 
BRANCH  14  15
HETATM   15  C   UNL     1     -10.569  12.442  66.019  1.00  0.00    -0.256 A  
HETATM   16  C   UNL     1      -9.925   9.692  66.452  1.00  0.00    -0.255 A  
HETATM   17  C   UNL     1      -9.922  11.696  65.043  1.00  0.00    -0.297 A  
HETATM   18  C   UNL     1     -10.810  11.851  67.251  1.00  0.00    -0.294 A  
HETATM   19  C   UNL     1      -9.613  10.355  65.261  1.00  0.00    -0.316 A  
HETATM   20  C   UNL     1     -10.485  10.501  67.459  1.00  0.00    -0.284 A  
BRANCH  16  21
HETATM   21  N   UNL     1      -9.638   8.347  66.623  1.00  0.00    -0.209 NA 
HETATM   22  C   UNL     1     -10.046   7.595  67.825  1.00  0.00    -0.186 C  
HETATM   23  C   UNL     1     -10.568   6.225  67.398  1.00  0.00    -0.361 C  
HETATM   24  C   UNL     1      -9.530   5.472  66.561  1.00  0.00    -0.151 C  
HETATM   25  C   UNL     1      -8.544   7.691  65.903  1.00  0.00    -0.148 C  
HETATM   26  C   UNL     1      -9.067   6.356  65.397  1.00  0.00     0.192 C  
BRANCH  24  27
HETATM   27  O   UNL     1      -8.440   5.135  67.436  1.00  0.00    -0.107 OA 
BRANCH  27  28
HETATM   28  C   UNL     1      -8.765   4.669  68.679  1.00  0.00    -0.097 A  
HETATM   29  C   UNL     1      -9.511   3.523  68.929  1.00  0.00    -0.210 A  
HETATM   30  C   UNL     1      -9.774   3.130  70.240  1.00  0.00    -0.089 A  
HETATM   31  C   UNL     1      -9.307   3.872  71.319  1.00  0.00    -0.143 A  
HETATM   32  C   UNL     1      -8.571   5.031  71.074  1.00  0.00    -0.130 A  
HETATM   33  C   UNL     1      -8.281   5.413  69.755  1.00  0.00    -0.100 A  
BRANCH  31  34
HETATM   34  O   UNL     1      -9.717   3.411  72.525  1.00  0.00    -0.128 OA 
HETATM   35  C   UNL     1     -10.891   3.935  73.121  1.00  0.00    -0.174 C  
HETATM   36  F   UNL     1     -11.741   2.915  73.379  1.00  0.00    -0.295 F  
HETATM   37  F   UNL     1     -11.535   4.858  72.382  1.00  0.00    -0.197 F  
HETATM   38  F   UNL     1     -10.554   4.505  74.302  1.00  0.00    -0.237 F  
ENDBRANCH  31  34
ENDBRANCH  27  28
ENDBRANCH  24  27
ENDBRANCH  16  21
ENDBRANCH  14  15
ENDBRANCH  13  14
ENDBRANCH   2  13
TORSDOF 7
ENDMDL
MODEL       52
REMARK 921   NORMALIZED FREE ENERGY PREDICTED BY IDOCK:   -5.53 KCAL/MOL
REMARK 922        TOTAL FREE ENERGY PREDICTED BY IDOCK:   -9.28 KCAL/MOL
REMARK 923 INTER-LIGAND FREE ENERGY PREDICTED BY IDOCK:   -7.77 KCAL/MOL
REMARK 924 INTRA-LIGAND FREE ENERGY PREDICTED BY IDOCK:   -1.51 KCAL/MOL
REMARK 927      BINDING AFFINITY PREDICTED BY RF-SCORE:    0.00 PKD
ROOT
HETATM    1  C   UNL     1      -9.494   2.151  69.634  1.00  0.00    -0.112 C  
HETATM    2  C   UNL     1      -8.627   3.064  68.770  1.00  0.00    -0.074 C  
HETATM    3  C   UNL     1      -7.699   2.438  66.843  1.00  0.00    -0.070 A  
HETATM    4  C   UNL     1      -9.438   3.729  67.626  1.00  0.00    -0.185 C  
HETATM    5  N   UNL     1      -8.706   3.256  66.481  1.00  0.00    -0.122 NA 
HETATM    6  O   UNL     1      -7.868   2.913  62.490  1.00  0.00    -0.063 OA 
HETATM    7  C   UNL     1      -8.733   3.385  65.146  1.00  0.00    -0.119 A  
HETATM    8  O   UNL     1      -7.585   2.237  68.144  1.00  0.00    -0.054 OA 
HETATM    9  O   UNL     1      -6.258   1.592  63.212  1.00  0.00    -0.009 OA 
HETATM   10  C   UNL     1      -7.664   2.586  64.743  1.00  0.00    -0.073 A  
HETATM   11  N   UNL     1      -7.014   1.994  65.829  1.00  0.00    -0.042 NA 
HETATM   12  N   UNL     1      -7.227   2.343  63.386  1.00  0.00    -0.043 N  
ENDROOT
BRANCH   2  13
HETATM   13  C   UNL     1      -7.915   4.115  69.620  1.00  0.00    -0.056 C  
BRANCH  13  14
HETATM   14  O   UNL     1      -8.777   4.609  70.647  1.00  0.00    -0.096 OA 
BRANCH  14  15
HETATM   15  C   UNL     1      -9.201   5.892  70.436  1.00  0.00    -0.158 A  
HETATM   16  C   UNL     1      -9.946   8.569  69.772  1.00  0.00    -0.191 A  
HETATM   17  C   UNL     1     -10.524   6.305  70.509  1.00  0.00    -0.274 A  
HETATM   18  C   UNL     1      -8.230   6.834  70.128  1.00  0.00    -0.133 A  
HETATM   19  C   UNL     1     -10.880   7.613  70.181  1.00  0.00    -0.255 A  
HETATM   20  C   UNL     1      -8.603   8.150  69.809  1.00  0.00    -0.133 A  
BRANCH  16  21
HETATM   21  N   UNL     1     -10.336   9.850  69.417  1.00  0.00    -0.206 NA 
HETATM   22  C   UNL     1      -9.516  10.720  68.552  1.00  0.00    -0.181 C  
HETATM   23  C   UNL     1     -10.430  11.429  67.554  1.00  0.00    -0.233 C  
HETATM   24  C   UNL     1     -11.542  12.199  68.271  1.00  0.00    -0.325 C  
HETATM   25  C   UNL     1     -11.306  10.612  70.209  1.00  0.00    -0.319 C  
HETATM   26  C   UNL     1     -12.278  11.263  69.236  1.00  0.00    -0.290 C  
BRANCH  24  27
HETATM   27  O   UNL     1     -10.922  13.295  68.966  1.00  0.00    -0.247 OA 
BRANCH  27  28
HETATM   28  C   UNL     1     -10.659  14.421  68.237  1.00  0.00    -0.243 A  
HETATM   29  C   UNL     1     -11.349  14.806  67.092  1.00  0.00    -0.363 A  
HETATM   30  C   UNL     1     -11.005  15.984  66.432  1.00  0.00    -0.070 A  
HETATM   31  C   UNL     1      -9.970  16.791  66.892  1.00  0.00    -0.273 A  
HETATM   32  C   UNL     1      -9.265  16.400  68.030  1.00  0.00    -0.204 A  
HETATM   33  C   UNL     1      -9.628  15.230  68.714  1.00  0.00    -0.214 A  
BRANCH  31  34
HETATM   34  O   UNL     1      -9.701  17.852  66.095  1.00  0.00    -0.452 OA 
HETATM   35  C   UNL     1     -10.354  19.090  66.319  1.00  0.00    -0.459 C  
HETATM   36  F   UNL     1      -9.419  20.050  66.496  1.00  0.00    -0.400 F  
HETATM   37  F   UNL     1     -11.191  19.102  67.374  1.00  0.00    -0.535 F  
HETATM   38  F   UNL     1     -11.070  19.403  65.213  1.00  0.00    -0.486 F  
ENDBRANCH  31  34
ENDBRANCH  27  28
ENDBRANCH  24  27
ENDBRANCH  16  21
ENDBRANCH  14  15
ENDBRANCH  13  14
ENDBRANCH   2  13
TORSDOF 7
ENDMDL
MODEL       53
REMARK 921   NORMALIZED FREE ENERGY PREDICTED BY IDOCK:   -5.53 KCAL/MOL
REMARK 922        TOTAL FREE ENERGY PREDICTED BY IDOCK:   -9.27 KCAL/MOL
REMARK 923 INTER-LIGAND FREE ENERGY PREDICTED BY IDOCK:   -7.49 KCAL/MOL
REMARK 924 INTRA-LIGAND FREE ENERGY PREDICTED BY IDOCK:   -1.78 KCAL/MOL
REMARK 927      BINDING AFFINITY PREDICTED BY RF-SCORE:    0.00 PKD
ROOT
HETATM    1  C   UNL     1     -10.006   2.316  71.523  1.00  0.00    -0.137 C  
HETATM    2  C   UNL     1      -9.345   3.560  70.934  1.00  0.00    -0.147 C  
HETATM    3  C   UNL     1      -9.066   5.468  72.052  1.00  0.00    -0.141 A  
HETATM    4  C   UNL     1      -7.843   3.660  71.317  1.00  0.00    -0.059 C  
HETATM    5  N   UNL     1      -7.832   4.932  71.991  1.00  0.00    -0.105 NA 
HETATM    6  O   UNL     1      -6.112   8.065  73.983  1.00  0.00    -0.080 OA 
HETATM    7  C   UNL     1      -6.949   5.747  72.586  1.00  0.00    -0.080 A  
HETATM    8  O   UNL     1     -10.018   4.740  71.496  1.00  0.00    -0.178 OA 
HETATM    9  O   UNL     1      -8.178   8.832  74.018  1.00  0.00    -0.329 OA 
HETATM   10  C   UNL     1      -7.750   6.810  73.001  1.00  0.00    -0.093 A  
HETATM   11  N   UNL     1      -9.090   6.622  72.654  1.00  0.00    -0.134 NA 
HETATM   12  N   UNL     1      -7.322   7.990  73.719  1.00  0.00    -0.138 N  
ENDROOT
BRANCH   2  13
HETATM   13  C   UNL     1      -9.528   3.618  69.419  1.00  0.00    -0.179 C  
BRANCH  13  14
HETATM   14  O   UNL     1      -8.320   4.024  68.773  1.00  0.00    -0.077 OA 
BRANCH  14  15
HETATM   15  C   UNL     1      -8.296   5.349  68.438  1.00  0.00    -0.094 A  
HETATM   16  C   UNL     1      -8.452   8.150  67.900  1.00  0.00    -0.132 A  
HETATM   17  C   UNL     1      -7.160   6.147  68.461  1.00  0.00    -0.082 A  
HETATM   18  C   UNL     1      -9.498   5.923  68.052  1.00  0.00    -0.111 A  
HETATM   19  C   UNL     1      -7.245   7.513  68.200  1.00  0.00    -0.090 A  
HETATM   20  C   UNL     1      -9.567   7.299  67.782  1.00  0.00    -0.158 A  
BRANCH  16  21
HETATM   21  N   UNL     1      -8.510   9.518  67.682  1.00  0.00    -0.122 NA 
HETATM   22  C   UNL     1      -8.934  10.472  68.725  1.00  0.00    -0.166 C  
HETATM   23  C   UNL     1      -8.012  11.689  68.686  1.00  0.00    -0.127 C  
HETATM   24  C   UNL     1      -7.986  12.321  67.292  1.00  0.00    -0.177 C  
HETATM   25  C   UNL     1      -8.623  10.083  66.335  1.00  0.00    -0.129 C  
HETATM   26  C   UNL     1      -7.651  11.250  66.247  1.00  0.00    -0.032 C  
BRANCH  24  27
HETATM   27  O   UNL     1      -9.282  12.899  67.060  1.00  0.00    -0.212 OA 
BRANCH  27  28
HETATM   28  C   UNL     1      -9.319  14.230  66.753  1.00  0.00    -0.276 A  
HETATM   29  C   UNL     1     -10.067  14.788  65.722  1.00  0.00    -0.364 A  
HETATM   30  C   UNL     1     -10.043  16.164  65.505  1.00  0.00    -0.308 A  
HETATM   31  C   UNL     1      -9.272  17.004  66.301  1.00  0.00    -0.247 A  
HETATM   32  C   UNL     1      -8.508  16.448  67.327  1.00  0.00    -0.196 A  
HETATM   33  C   UNL     1      -8.553  15.066  67.567  1.00  0.00    -0.192 A  
BRANCH  31  34
HETATM   34  O   UNL     1      -9.286  18.301  65.911  1.00  0.00    -0.503 OA 
HETATM   35  C   UNL     1     -10.215  19.203  66.485  1.00  0.00    -0.429 C  
HETATM   36  F   UNL     1      -9.538  20.243  67.022  1.00  0.00    -0.454 F  
HETATM   37  F   UNL     1     -11.008  18.669  67.433  1.00  0.00    -0.463 F  
HETATM   38  F   UNL     1     -11.008  19.686  65.499  1.00  0.00    -0.554 F  
ENDBRANCH  31  34
ENDBRANCH  27  28
ENDBRANCH  24  27
ENDBRANCH  16  21
ENDBRANCH  14  15
ENDBRANCH  13  14
ENDBRANCH   2  13
TORSDOF 7
ENDMDL
MODEL       54
REMARK 921   NORMALIZED FREE ENERGY PREDICTED BY IDOCK:   -5.52 KCAL/MOL
REMARK 922        TOTAL FREE ENERGY PREDICTED BY IDOCK:   -9.26 KCAL/MOL
REMARK 923 INTER-LIGAND FREE ENERGY PREDICTED BY IDOCK:   -7.79 KCAL/MOL
REMARK 924 INTRA-LIGAND FREE ENERGY PREDICTED BY IDOCK:   -1.47 KCAL/MOL
REMARK 927      BINDING AFFINITY PREDICTED BY RF-SCORE:    0.00 PKD
ROOT
HETATM    1  C   UNL     1      -9.245   3.529  72.223  1.00  0.00    -0.158 C  
HETATM    2  C   UNL     1      -9.294   4.912  71.577  1.00  0.00    -0.149 C  
HETATM    3  C   UNL     1     -11.166   6.088  71.298  1.00  0.00    -0.258 A  
HETATM    4  C   UNL     1      -9.290   6.050  72.633  1.00  0.00    -0.146 C  
HETATM    5  N   UNL     1     -10.523   6.714  72.303  1.00  0.00    -0.202 NA 
HETATM    6  O   UNL     1     -13.415   9.583  72.688  1.00  0.00    -0.369 OA 
HETATM    7  C   UNL     1     -11.231   7.780  72.707  1.00  0.00    -0.398 A  
HETATM    8  O   UNL     1     -10.554   5.017  70.827  1.00  0.00    -0.193 OA 
HETATM    9  O   UNL     1     -14.367   8.468  71.042  1.00  0.00    -0.202 OA 
HETATM   10  C   UNL     1     -12.341   7.742  71.863  1.00  0.00    -0.310 A  
HETATM   11  N   UNL     1     -12.286   6.667  70.973  1.00  0.00    -0.344 NA 
HETATM   12  N   UNL     1     -13.458   8.661  71.859  1.00  0.00    -0.375 N  
ENDROOT
BRANCH   2  13
HETATM   13  C   UNL     1      -8.158   5.093  70.573  1.00  0.00    -0.095 C  
BRANCH  13  14
HETATM   14  O   UNL     1      -7.276   6.140  70.982  1.00  0.00    -0.071 OA 
BRANCH  14  15
HETATM   15  C   UNL     1      -7.523   7.336  70.366  1.00  0.00    -0.083 A  
HETATM   16  C   UNL     1      -8.294   9.768  69.081  1.00  0.00    -0.137 A  
HETATM   17  C   UNL     1      -7.036   8.561  70.801  1.00  0.00    -0.050 A  
HETATM   18  C   UNL     1      -8.319   7.307  69.230  1.00  0.00    -0.132 A  
HETATM   19  C   UNL     1      -7.418   9.743  70.170  1.00  0.00    -0.170 A  
HETATM   20  C   UNL     1      -8.689   8.506  68.600  1.00  0.00    -0.139 A  
BRANCH  16  21
HETATM   21  N   UNL     1      -8.686  10.963  68.499  1.00  0.00    -0.146 NA 
HETATM   22  C   UNL     1      -7.760  12.096  68.310  1.00  0.00    -0.135 C  
HETATM   23  C   UNL     1      -7.994  12.702  66.927  1.00  0.00     0.019 C  
HETATM   24  C   UNL     1      -9.459  13.107  66.741  1.00  0.00    -0.252 C  
HETATM   25  C   UNL     1     -10.090  11.382  68.461  1.00  0.00    -0.206 C  
HETATM   26  C   UNL     1     -10.368  11.916  67.064  1.00  0.00    -0.239 C  
BRANCH  24  27
HETATM   27  O   UNL     1      -9.710  14.218  67.618  1.00  0.00    -0.215 OA 
BRANCH  27  28
HETATM   28  C   UNL     1      -8.993  15.359  67.392  1.00  0.00    -0.191 A  
HETATM   29  C   UNL     1      -8.800  15.944  66.145  1.00  0.00    -0.363 A  
HETATM   30  C   UNL     1      -8.061  17.119  66.030  1.00  0.00    -0.183 A  
HETATM   31  C   UNL     1      -7.497  17.726  67.147  1.00  0.00    -0.194 A  
HETATM   32  C   UNL     1      -7.675  17.135  68.398  1.00  0.00    -0.237 A  
HETATM   33  C   UNL     1      -8.443  15.968  68.521  1.00  0.00    -0.189 A  
BRANCH  31  34
HETATM   34  O   UNL     1      -6.737  18.810  66.862  1.00  0.00    -0.191 OA 
HETATM   35  C   UNL     1      -7.270  20.112  67.028  1.00  0.00    -0.255 C  
HETATM   36  F   UNL     1      -6.465  20.809  67.861  1.00  0.00    -0.287 F  
HETATM   37  F   UNL     1      -8.527  20.150  67.511  1.00  0.00    -0.341 F  
HETATM   38  F   UNL     1      -7.265  20.734  65.825  1.00  0.00    -0.200 F  
ENDBRANCH  31  34
ENDBRANCH  27  28
ENDBRANCH  24  27
ENDBRANCH  16  21
ENDBRANCH  14  15
ENDBRANCH  13  14
ENDBRANCH   2  13
TORSDOF 7
ENDMDL
MODEL       55
REMARK 921   NORMALIZED FREE ENERGY PREDICTED BY IDOCK:   -5.49 KCAL/MOL
REMARK 922        TOTAL FREE ENERGY PREDICTED BY IDOCK:   -9.22 KCAL/MOL
REMARK 923 INTER-LIGAND FREE ENERGY PREDICTED BY IDOCK:   -8.20 KCAL/MOL
REMARK 924 INTRA-LIGAND FREE ENERGY PREDICTED BY IDOCK:   -1.02 KCAL/MOL
REMARK 927      BINDING AFFINITY PREDICTED BY RF-SCORE:    0.00 PKD
ROOT
HETATM    1  C   UNL     1     -11.197  16.591  70.947  1.00  0.00    -0.034 C  
HETATM    2  C   UNL     1     -10.900  16.041  69.554  1.00  0.00    -0.317 C  
HETATM    3  C   UNL     1      -9.663  17.104  68.035  1.00  0.00    -0.274 A  
HETATM    4  C   UNL     1      -9.524  15.324  69.490  1.00  0.00    -0.201 C  
HETATM    5  N   UNL     1      -8.876  16.100  68.466  1.00  0.00    -0.191 NA 
HETATM    6  O   UNL     1      -5.809  17.106  65.950  1.00  0.00    -0.190 OA 
HETATM    7  C   UNL     1      -7.705  16.123  67.810  1.00  0.00    -0.140 A  
HETATM    8  O   UNL     1     -10.845  17.176  68.622  1.00  0.00    -0.329 OA 
HETATM    9  O   UNL     1      -7.192  18.708  65.334  1.00  0.00    -0.520 OA 
HETATM   10  C   UNL     1      -7.859  17.213  66.955  1.00  0.00    -0.215 A  
HETATM   11  N   UNL     1      -9.106  17.824  67.105  1.00  0.00    -0.242 NA 
HETATM   12  N   UNL     1      -6.887  17.717  66.009  1.00  0.00    -0.282 N  
ENDROOT
BRANCH   2  13
HETATM   13  C   UNL     1     -12.020  15.120  69.074  1.00  0.00    -0.265 C  
BRANCH  13  14
HETATM   14  O   UNL     1     -11.544  14.215  68.075  1.00  0.00    -0.296 OA 
BRANCH  14  15
HETATM   15  C   UNL     1     -11.459  12.920  68.505  1.00  0.00    -0.310 A  
HETATM   16  C   UNL     1     -11.029  10.218  69.327  1.00  0.00    -0.241 A  
HETATM   17  C   UNL     1     -11.886  12.473  69.748  1.00  0.00    -0.380 A  
HETATM   18  C   UNL     1     -10.904  12.000  67.628  1.00  0.00    -0.273 A  
HETATM   19  C   UNL     1     -11.671  11.154  70.143  1.00  0.00    -0.439 A  
HETATM   20  C   UNL     1     -10.701  10.672  68.035  1.00  0.00    -0.275 A  
BRANCH  16  21
HETATM   21  N   UNL     1     -10.795   8.923  69.763  1.00  0.00    -0.227 NA 
HETATM   22  C   UNL     1     -10.447   8.606  71.161  1.00  0.00    -0.227 C  
HETATM   23  C   UNL     1     -11.220   7.361  71.593  1.00  0.00    -0.276 C  
HETATM   24  C   UNL     1     -10.955   6.188  70.644  1.00  0.00    -0.311 C  
HETATM   25  C   UNL     1     -10.409   7.853  68.839  1.00  0.00    -0.213 C  
HETATM   26  C   UNL     1     -11.227   6.623  69.199  1.00  0.00    -0.305 C  
BRANCH  24  27
HETATM   27  O   UNL     1      -9.586   5.790  70.829  1.00  0.00    -0.165 OA 
BRANCH  27  28
HETATM   28  C   UNL     1      -9.051   4.959  69.885  1.00  0.00    -0.117 A  
HETATM   29  C   UNL     1      -9.654   3.797  69.414  1.00  0.00    -0.219 A  
HETATM   30  C   UNL     1      -9.025   3.029  68.437  1.00  0.00    -0.190 A  
HETATM   31  C   UNL     1      -7.787   3.396  67.920  1.00  0.00    -0.072 A  
HETATM   32  C   UNL     1      -7.171   4.551  68.400  1.00  0.00    -0.060 A  
HETATM   33  C   UNL     1      -7.816   5.343  69.363  1.00  0.00    -0.089 A  
BRANCH  31  34
HETATM   34  O   UNL     1      -7.268   2.503  67.044  1.00  0.00    -0.055 OA 
HETATM   35  C   UNL     1      -7.527   2.639  65.657  1.00  0.00    -0.072 C  
HETATM   36  F   UNL     1      -6.348   2.704  64.999  1.00  0.00    -0.021 F  
HETATM   37  F   UNL     1      -8.268   3.712  65.324  1.00  0.00    -0.094 F  
HETATM   38  F   UNL     1      -8.180   1.531  65.233  1.00  0.00    -0.070 F  
ENDBRANCH  31  34
ENDBRANCH  27  28
ENDBRANCH  24  27
ENDBRANCH  16  21
ENDBRANCH  14  15
ENDBRANCH  13  14
ENDBRANCH   2  13
TORSDOF 7
ENDMDL
MODEL       56
REMARK 921   NORMALIZED FREE ENERGY PREDICTED BY IDOCK:   -5.49 KCAL/MOL
REMARK 922        TOTAL FREE ENERGY PREDICTED BY IDOCK:   -9.22 KCAL/MOL
REMARK 923 INTER-LIGAND FREE ENERGY PREDICTED BY IDOCK:   -7.38 KCAL/MOL
REMARK 924 INTRA-LIGAND FREE ENERGY PREDICTED BY IDOCK:   -1.84 KCAL/MOL
REMARK 927      BINDING AFFINITY PREDICTED BY RF-SCORE:    0.00 PKD
ROOT
HETATM    1  C   UNL     1      -5.135  20.538  70.358  1.00  0.00    -0.315 C  
HETATM    2  C   UNL     1      -5.794  19.448  69.516  1.00  0.00    -0.244 C  
HETATM    3  C   UNL     1      -7.860  19.591  68.691  1.00  0.00    -0.348 A  
HETATM    4  C   UNL     1      -5.669  19.730  67.994  1.00  0.00    -0.207 C  
HETATM    5  N   UNL     1      -7.058  19.764  67.622  1.00  0.00    -0.245 NA 
HETATM    6  O   UNL     1     -10.201  20.127  65.025  1.00  0.00     0.021 OA 
HETATM    7  C   UNL     1      -7.800  19.922  66.515  1.00  0.00    -0.308 A  
HETATM    8  O   UNL     1      -7.228  19.430  69.840  1.00  0.00    -0.064 OA 
HETATM    9  O   UNL     1     -11.399  19.837  66.853  1.00  0.00    -0.122 OA 
HETATM   10  C   UNL     1      -9.101  19.827  67.007  1.00  0.00    -0.340 A  
HETATM   11  N   UNL     1      -9.125  19.614  68.388  1.00  0.00    -0.345 NA 
HETATM   12  N   UNL     1     -10.326  19.937  66.245  1.00  0.00    -0.486 N  
ENDROOT
BRANCH   2  13
HETATM   13  C   UNL     1      -5.238  18.069  69.865  1.00  0.00    -0.209 C  
BRANCH  13  14
HETATM   14  O   UNL     1      -5.130  17.251  68.698  1.00  0.00    -0.139 OA 
BRANCH  14  15
HETATM   15  C   UNL     1      -5.957  16.162  68.713  1.00  0.00    -0.110 A  
HETATM   16  C   UNL     1      -7.607  13.840  68.496  1.00  0.00    -0.134 A  
HETATM   17  C   UNL     1      -5.978  15.203  69.716  1.00  0.00    -0.132 A  
HETATM   18  C   UNL     1      -6.830  16.019  67.644  1.00  0.00    -0.184 A  
HETATM   19  C   UNL     1      -6.783  14.072  69.602  1.00  0.00    -0.064 A  
HETATM   20  C   UNL     1      -7.643  14.879  67.547  1.00  0.00    -0.218 A  
BRANCH  16  21
HETATM   21  N   UNL     1      -8.368  12.686  68.395  1.00  0.00    -0.153 NA 
HETATM   22  C   UNL     1      -7.766  11.347  68.249  1.00  0.00    -0.124 C  
HETATM   23  C   UNL     1      -8.524  10.364  69.140  1.00  0.00    -0.168 C  
HETATM   24  C   UNL     1     -10.021  10.369  68.823  1.00  0.00    -0.188 C  
HETATM   25  C   UNL     1      -9.765  12.717  67.955  1.00  0.00    -0.217 C  
HETATM   26  C   UNL     1     -10.555  11.806  68.881  1.00  0.00    -0.211 C  
BRANCH  24  27
HETATM   27  O   UNL     1     -10.183   9.798  67.513  1.00  0.00    -0.191 OA 
BRANCH  27  28
HETATM   28  C   UNL     1     -10.165   8.434  67.428  1.00  0.00    -0.260 A  
HETATM   29  C   UNL     1     -10.765   7.571  68.339  1.00  0.00    -0.115 A  
HETATM   30  C   UNL     1     -10.697   6.193  68.147  1.00  0.00    -0.367 A  
HETATM   31  C   UNL     1     -10.028   5.651  67.054  1.00  0.00    -0.169 A  
HETATM   32  C   UNL     1      -9.411   6.512  66.146  1.00  0.00    -0.067 A  
HETATM   33  C   UNL     1      -9.503   7.901  66.321  1.00  0.00    -0.220 A  
BRANCH  31  34
HETATM   34  O   UNL     1      -9.976   4.298  67.055  1.00  0.00    -0.206 OA 
HETATM   35  C   UNL     1      -8.983   3.628  67.812  1.00  0.00    -0.135 C  
HETATM   36  F   UNL     1      -9.589   2.770  68.663  1.00  0.00    -0.233 F  
HETATM   37  F   UNL     1      -8.171   4.437  68.519  1.00  0.00    -0.083 F  
HETATM   38  F   UNL     1      -8.215   2.902  66.964  1.00  0.00    -0.082 F  
ENDBRANCH  31  34
ENDBRANCH  27  28
ENDBRANCH  24  27
ENDBRANCH  16  21
ENDBRANCH  14  15
ENDBRANCH  13  14
ENDBRANCH   2  13
TORSDOF 7
ENDMDL
MODEL       57
REMARK 921   NORMALIZED FREE ENERGY PREDICTED BY IDOCK:   -5.45 KCAL/MOL
REMARK 922        TOTAL FREE ENERGY PREDICTED BY IDOCK:   -9.17 KCAL/MOL
REMARK 923 INTER-LIGAND FREE ENERGY PREDICTED BY IDOCK:   -8.45 KCAL/MOL
REMARK 924 INTRA-LIGAND FREE ENERGY PREDICTED BY IDOCK:   -0.72 KCAL/MOL
REMARK 927      BINDING AFFINITY PREDICTED BY RF-SCORE:    0.00 PKD
ROOT
HETATM    1  C   UNL     1     -11.577  15.989  68.394  1.00  0.00    -0.279 C  
HETATM    2  C   UNL     1     -11.310  14.492  68.535  1.00  0.00    -0.286 C  
HETATM    3  C   UNL     1     -11.114  13.097  66.808  1.00  0.00    -0.289 A  
HETATM    4  C   UNL     1      -9.803  14.151  68.380  1.00  0.00    -0.231 C  
HETATM    5  N   UNL     1      -9.856  13.241  67.267  1.00  0.00    -0.229 NA 
HETATM    6  O   UNL     1      -8.292  10.679  64.485  1.00  0.00    -0.143 OA 
HETATM    7  C   UNL     1      -9.015  12.489  66.541  1.00  0.00    -0.132 A  
HETATM    8  O   UNL     1     -12.026  13.802  67.453  1.00  0.00    -0.379 OA 
HETATM    9  O   UNL     1     -10.391  10.533  63.829  1.00  0.00    -0.224 OA 
HETATM   10  C   UNL     1      -9.869  11.885  65.619  1.00  0.00    -0.241 A  
HETATM   11  N   UNL     1     -11.197  12.276  65.801  1.00  0.00    -0.323 NA 
HETATM   12  N   UNL     1      -9.496  10.965  64.566  1.00  0.00    -0.230 N  
ENDROOT
BRANCH   2  13
HETATM   13  C   UNL     1     -11.861  13.955  69.853  1.00  0.00    -0.328 C  
BRANCH  13  14
HETATM   14  O   UNL     1     -12.644  12.778  69.638  1.00  0.00     0.075 OA 
BRANCH  14  15
HETATM   15  C   UNL     1     -12.100  11.650  70.186  1.00  0.00    -0.333 A  
HETATM   16  C   UNL     1     -11.205   9.184  71.318  1.00  0.00    -0.337 A  
HETATM   17  C   UNL     1     -10.944  11.031  69.730  1.00  0.00    -0.258 A  
HETATM   18  C   UNL     1     -12.762  11.096  71.272  1.00  0.00    -0.531 A  
HETATM   19  C   UNL     1     -10.515   9.827  70.286  1.00  0.00    -0.345 A  
HETATM   20  C   UNL     1     -12.313   9.887  71.828  1.00  0.00    -0.456 A  
BRANCH  16  21
HETATM   21  N   UNL     1     -10.774   7.968  71.824  1.00  0.00    -0.230 NA 
HETATM   22  C   UNL     1     -10.001   7.857  73.076  1.00  0.00    -0.296 C  
HETATM   23  C   UNL     1     -10.531   6.672  73.881  1.00  0.00    -0.351 C  
HETATM   24  C   UNL     1     -10.496   5.382  73.056  1.00  0.00    -0.211 C  
HETATM   25  C   UNL     1     -10.622   6.786  70.972  1.00  0.00    -0.222 C  
HETATM   26  C   UNL     1     -11.218   5.604  71.722  1.00  0.00    -0.226 C  
BRANCH  24  27
HETATM   27  O   UNL     1      -9.114   5.038  72.860  1.00  0.00    -0.122 OA 
BRANCH  27  28
HETATM   28  C   UNL     1      -8.795   4.400  71.694  1.00  0.00    -0.119 A  
HETATM   29  C   UNL     1      -7.940   4.904  70.719  1.00  0.00    -0.083 A  
HETATM   30  C   UNL     1      -7.673   4.162  69.571  1.00  0.00    -0.053 A  
HETATM   31  C   UNL     1      -8.255   2.914  69.370  1.00  0.00    -0.051 A  
HETATM   32  C   UNL     1      -9.125   2.412  70.337  1.00  0.00    -0.176 A  
HETATM   33  C   UNL     1      -9.373   3.144  71.508  1.00  0.00    -0.202 A  
BRANCH  31  34
HETATM   34  O   UNL     1      -7.966   2.358  68.169  1.00  0.00    -0.058 OA 
HETATM   35  C   UNL     1      -8.771   2.652  67.040  1.00  0.00    -0.123 C  
HETATM   36  F   UNL     1      -7.982   3.147  66.060  1.00  0.00    -0.082 F  
HETATM   37  F   UNL     1      -9.770   3.524  67.273  1.00  0.00    -0.235 F  
HETATM   38  F   UNL     1      -9.319   1.498  66.593  1.00  0.00    -0.115 F  
ENDBRANCH  31  34
ENDBRANCH  27  28
ENDBRANCH  24  27
ENDBRANCH  16  21
ENDBRANCH  14  15
ENDBRANCH  13  14
ENDBRANCH   2  13
TORSDOF 7
ENDMDL
MODEL       58
REMARK 921   NORMALIZED FREE ENERGY PREDICTED BY IDOCK:   -5.43 KCAL/MOL
REMARK 922        TOTAL FREE ENERGY PREDICTED BY IDOCK:   -9.13 KCAL/MOL
REMARK 923 INTER-LIGAND FREE ENERGY PREDICTED BY IDOCK:   -8.69 KCAL/MOL
REMARK 924 INTRA-LIGAND FREE ENERGY PREDICTED BY IDOCK:   -0.44 KCAL/MOL
REMARK 927      BINDING AFFINITY PREDICTED BY RF-SCORE:    0.00 PKD
ROOT
HETATM    1  C   UNL     1      -7.574   3.880  67.819  1.00  0.00    -0.067 C  
HETATM    2  C   UNL     1      -8.083   5.308  68.001  1.00  0.00    -0.099 C  
HETATM    3  C   UNL     1      -9.951   5.832  69.099  1.00  0.00    -0.177 A  
HETATM    4  C   UNL     1      -7.665   5.908  69.371  1.00  0.00    -0.093 C  
HETATM    5  N   UNL     1      -8.957   6.211  69.926  1.00  0.00    -0.139 NA 
HETATM    6  O   UNL     1     -11.541   7.632  72.765  1.00  0.00    -0.337 OA 
HETATM    7  C   UNL     1      -9.472   6.760  71.037  1.00  0.00    -0.164 A  
HETATM    8  O   UNL     1      -9.552   5.271  67.971  1.00  0.00    -0.121 OA 
HETATM    9  O   UNL     1     -13.071   6.966  71.324  1.00  0.00    -0.332 OA 
HETATM   10  C   UNL     1     -10.844   6.682  70.805  1.00  0.00    -0.252 A  
HETATM   11  N   UNL     1     -11.134   6.095  69.571  1.00  0.00    -0.395 NA 
HETATM   12  N   UNL     1     -11.899   7.123  71.691  1.00  0.00    -0.289 N  
ENDROOT
BRANCH   2  13
HETATM   13  C   UNL     1      -7.633   6.206  66.850  1.00  0.00    -0.099 C  
BRANCH  13  14
HETATM   14  O   UNL     1      -8.752   6.644  66.077  1.00  0.00    -0.144 OA 
BRANCH  14  15
HETATM   15  C   UNL     1      -9.021   7.979  66.210  1.00  0.00    -0.171 A  
HETATM   16  C   UNL     1      -9.798  10.725  66.339  1.00  0.00    -0.209 A  
HETATM   17  C   UNL     1      -9.035   8.662  67.418  1.00  0.00    -0.144 A  
HETATM   18  C   UNL     1      -9.299   8.683  65.048  1.00  0.00     0.280 A  
HETATM   19  C   UNL     1      -9.417  10.001  67.473  1.00  0.00    -0.169 A  
HETATM   20  C   UNL     1      -9.674  10.035  65.118  1.00  0.00    -0.380 A  
BRANCH  16  21
HETATM   21  N   UNL     1     -10.209  12.045  66.432  1.00  0.00    -0.212 NA 
HETATM   22  C   UNL     1      -9.574  13.131  65.662  1.00  0.00     0.004 C  
HETATM   23  C   UNL     1     -10.663  14.057  65.122  1.00  0.00    -0.393 C  
HETATM   24  C   UNL     1     -11.552  14.584  66.251  1.00  0.00    -0.360 C  
HETATM   25  C   UNL     1     -10.944  12.546  67.596  1.00  0.00    -0.242 C  
HETATM   26  C   UNL     1     -12.085  13.408  67.079  1.00  0.00    -0.390 C  
BRANCH  24  27
HETATM   27  O   UNL     1     -10.750  15.472  67.049  1.00  0.00    -0.314 OA 
BRANCH  27  28
HETATM   28  C   UNL     1     -11.100  15.610  68.362  1.00  0.00    -0.326 A  
HETATM   29  C   UNL     1     -12.406  15.702  68.832  1.00  0.00     0.111 A  
HETATM   30  C   UNL     1     -12.650  15.827  70.198  1.00  0.00    -0.156 A  
HETATM   31  C   UNL     1     -11.605  15.870  71.115  1.00  0.00    -0.432 A  
HETATM   32  C   UNL     1     -10.294  15.794  70.647  1.00  0.00     0.186 A  
HETATM   33  C   UNL     1     -10.045  15.638  69.275  1.00  0.00    -0.258 A  
BRANCH  31  34
HETATM   34  O   UNL     1     -12.001  16.081  72.393  1.00  0.00    -0.461 OA 
HETATM   35  C   UNL     1     -12.787  15.109  73.061  1.00  0.00    -0.468 C  
HETATM   36  F   UNL     1     -12.156  14.747  74.200  1.00  0.00    -0.617 F  
HETATM   37  F   UNL     1     -13.047  14.003  72.340  1.00  0.00    -0.414 F  
HETATM   38  F   UNL     1     -13.969  15.675  73.401  1.00  0.00    -0.444 F  
ENDBRANCH  31  34
ENDBRANCH  27  28
ENDBRANCH  24  27
ENDBRANCH  16  21
ENDBRANCH  14  15
ENDBRANCH  13  14
ENDBRANCH   2  13
TORSDOF 7
ENDMDL
MODEL       59
REMARK 921   NORMALIZED FREE ENERGY PREDICTED BY IDOCK:   -5.41 KCAL/MOL
REMARK 922        TOTAL FREE ENERGY PREDICTED BY IDOCK:   -9.11 KCAL/MOL
REMARK 923 INTER-LIGAND FREE ENERGY PREDICTED BY IDOCK:   -7.70 KCAL/MOL
REMARK 924 INTRA-LIGAND FREE ENERGY PREDICTED BY IDOCK:   -1.41 KCAL/MOL
REMARK 927      BINDING AFFINITY PREDICTED BY RF-SCORE:    0.00 PKD
ROOT
HETATM    1  C   UNL     1     -10.510   4.582  65.759  1.00  0.00    -0.268 C  
HETATM    2  C   UNL     1      -9.581   5.127  66.841  1.00  0.00    -0.148 C  
HETATM    3  C   UNL     1      -8.947   3.966  68.634  1.00  0.00    -0.121 A  
HETATM    4  C   UNL     1      -8.107   4.693  66.617  1.00  0.00    -0.103 C  
HETATM    5  N   UNL     1      -7.852   3.997  67.850  1.00  0.00    -0.078 NA 
HETATM    6  O   UNL     1      -5.581   1.893  70.526  1.00  0.00    -0.014 OA 
HETATM    7  C   UNL     1      -6.838   3.358  68.454  1.00  0.00    -0.046 A  
HETATM    8  O   UNL     1     -10.010   4.565  68.130  1.00  0.00    -0.119 OA 
HETATM    9  O   UNL     1      -7.439   1.911  71.713  1.00  0.00    -0.038 OA 
HETATM   10  C   UNL     1      -7.412   2.950  69.657  1.00  0.00    -0.044 A  
HETATM   11  N   UNL     1      -8.748   3.344  69.760  1.00  0.00    -0.071 NA 
HETATM   12  N   UNL     1      -6.770   2.197  70.712  1.00  0.00    -0.031 N  
ENDROOT
BRANCH   2  13
HETATM   13  C   UNL     1      -9.695   6.646  66.953  1.00  0.00    -0.164 C  
BRANCH  13  14
HETATM   14  O   UNL     1     -10.157   7.029  68.250  1.00  0.00    -0.155 OA 
BRANCH  14  15
HETATM   15  C   UNL     1     -10.398   8.369  68.372  1.00  0.00    -0.200 A  
HETATM   16  C   UNL     1     -10.715  11.174  68.813  1.00  0.00    -0.199 A  
HETATM   17  C   UNL     1     -10.459   9.258  67.308  1.00  0.00    -0.334 A  
HETATM   18  C   UNL     1     -10.593   8.860  69.655  1.00  0.00    -0.230 A  
HETATM   19  C   UNL     1     -10.611  10.626  67.531  1.00  0.00    -0.297 A  
HETATM   20  C   UNL     1     -10.755  10.239  69.864  1.00  0.00    -0.344 A  
BRANCH  16  21
HETATM   21  N   UNL     1     -10.828  12.542  69.003  1.00  0.00    -0.182 NA 
HETATM   22  C   UNL     1     -12.070  13.178  69.481  1.00  0.00    -0.238 C  
HETATM   23  C   UNL     1     -11.713  14.249  70.512  1.00  0.00    -0.309 C  
HETATM   24  C   UNL     1     -10.721  15.263  69.936  1.00  0.00    -0.285 C  
HETATM   25  C   UNL     1      -9.943  13.494  68.325  1.00  0.00    -0.237 C  
HETATM   26  C   UNL     1      -9.509  14.526  69.355  1.00  0.00     0.160 C  
BRANCH  24  27
HETATM   27  O   UNL     1     -11.417  16.015  68.927  1.00  0.00    -0.348 OA 
BRANCH  27  28
HETATM   28  C   UNL     1     -10.734  17.044  68.342  1.00  0.00    -0.361 A  
HETATM   29  C   UNL     1     -10.196  18.131  69.023  1.00  0.00    -0.237 A  
HETATM   30  C   UNL     1      -9.504  19.120  68.327  1.00  0.00    -0.408 A  
HETATM   31  C   UNL     1      -9.342  19.049  66.947  1.00  0.00    -0.313 A  
HETATM   32  C   UNL     1      -9.893  17.969  66.258  1.00  0.00    -0.310 A  
HETATM   33  C   UNL     1     -10.566  16.957  66.960  1.00  0.00    -0.230 A  
BRANCH  31  34
HETATM   34  O   UNL     1      -8.724  20.126  66.408  1.00  0.00    -0.311 OA 
HETATM   35  C   UNL     1      -7.364  20.041  66.018  1.00  0.00    -0.306 C  
HETATM   36  F   UNL     1      -7.263  20.378  64.713  1.00  0.00    -0.298 F  
HETATM   37  F   UNL     1      -6.801  18.831  66.196  1.00  0.00    -0.212 F  
HETATM   38  F   UNL     1      -6.655  20.943  66.738  1.00  0.00    -0.270 F  
ENDBRANCH  31  34
ENDBRANCH  27  28
ENDBRANCH  24  27
ENDBRANCH  16  21
ENDBRANCH  14  15
ENDBRANCH  13  14
ENDBRANCH   2  13
TORSDOF 7
ENDMDL
MODEL       60
REMARK 921   NORMALIZED FREE ENERGY PREDICTED BY IDOCK:   -5.36 KCAL/MOL
REMARK 922        TOTAL FREE ENERGY PREDICTED BY IDOCK:   -9.04 KCAL/MOL
REMARK 923 INTER-LIGAND FREE ENERGY PREDICTED BY IDOCK:   -7.55 KCAL/MOL
REMARK 924 INTRA-LIGAND FREE ENERGY PREDICTED BY IDOCK:   -1.49 KCAL/MOL
REMARK 927      BINDING AFFINITY PREDICTED BY RF-SCORE:    0.00 PKD
ROOT
HETATM    1  C   UNL     1     -10.539  19.266  66.574  1.00  0.00    -0.538 C  
HETATM    2  C   UNL     1      -9.948  17.968  67.117  1.00  0.00    -0.325 C  
HETATM    3  C   UNL     1     -10.595  17.007  69.021  1.00  0.00    -0.314 A  
HETATM    4  C   UNL     1     -10.811  16.732  66.745  1.00  0.00    -0.009 C  
HETATM    5  N   UNL     1     -11.115  16.224  68.056  1.00  0.00    -0.328 NA 
HETATM    6  O   UNL     1     -12.775  13.615  70.737  1.00  0.00    -0.314 OA 
HETATM    7  C   UNL     1     -11.774  15.194  68.609  1.00  0.00    -0.341 A  
HETATM    8  O   UNL     1      -9.926  18.059  68.584  1.00  0.00    -0.357 OA 
HETATM    9  O   UNL     1     -11.875  14.978  72.217  1.00  0.00    -0.371 OA 
HETATM   10  C   UNL     1     -11.602  15.422  69.974  1.00  0.00    -0.321 A  
HETATM   11  N   UNL     1     -10.850  16.573  70.221  1.00  0.00    -0.243 NA 
HETATM   12  N   UNL     1     -12.119  14.618  71.059  1.00  0.00    -0.311 N  
ENDROOT
BRANCH   2  13
HETATM   13  C   UNL     1      -8.503  17.785  66.658  1.00  0.00    -0.258 C  
BRANCH  13  14
HETATM   14  O   UNL     1      -7.631  17.604  67.776  1.00  0.00    -0.199 OA 
BRANCH  14  15
HETATM   15  C   UNL     1      -7.375  16.291  68.064  1.00  0.00    -0.132 A  
HETATM   16  C   UNL     1      -6.985  13.583  68.884  1.00  0.00    -0.108 A  
HETATM   17  C   UNL     1      -7.544  15.242  67.171  1.00  0.00    -0.224 A  
HETATM   18  C   UNL     1      -6.916  16.005  69.341  1.00  0.00    -0.216 A  
HETATM   19  C   UNL     1      -7.354  13.923  67.580  1.00  0.00    -0.181 A  
HETATM   20  C   UNL     1      -6.720  14.672  69.736  1.00  0.00    -0.165 A  
BRANCH  16  21
HETATM   21  N   UNL     1      -6.840  12.260  69.270  1.00  0.00    -0.077 NA 
HETATM   22  C   UNL     1      -7.982  11.330  69.365  1.00  0.00     0.192 C  
HETATM   23  C   UNL     1      -7.571   9.980  68.780  1.00  0.00    -0.083 C  
HETATM   24  C   UNL     1      -6.317   9.436  69.468  1.00  0.00    -0.040 C  
HETATM   25  C   UNL     1      -5.687  11.802  70.049  1.00  0.00    -0.135 C  
HETATM   26  C   UNL     1      -5.209  10.496  69.433  1.00  0.00    -0.038 C  
BRANCH  24  27
HETATM   27  O   UNL     1      -6.682   9.098  70.817  1.00  0.00    -0.063 OA 
BRANCH  27  28
HETATM   28  C   UNL     1      -7.677   8.174  70.975  1.00  0.00    -0.088 A  
HETATM   29  C   UNL     1      -8.913   8.428  71.558  1.00  0.00    -0.251 A  
HETATM   30  C   UNL     1      -9.862   7.413  71.656  1.00  0.00    -0.181 A  
HETATM   31  C   UNL     1      -9.596   6.131  71.185  1.00  0.00    -0.175 A  
HETATM   32  C   UNL     1      -8.352   5.868  70.613  1.00  0.00    -0.124 A  
HETATM   33  C   UNL     1      -7.405   6.895  70.486  1.00  0.00    -0.077 A  
BRANCH  31  34
HETATM   34  O   UNL     1     -10.583   5.237  71.431  1.00  0.00    -0.225 OA 
HETATM   35  C   UNL     1     -10.599   4.518  72.652  1.00  0.00    -0.179 C  
HETATM   36  F   UNL     1     -11.783   4.731  73.267  1.00  0.00    -0.386 F  
HETATM   37  F   UNL     1      -9.606   4.834  73.505  1.00  0.00    -0.129 F  
HETATM   38  F   UNL     1     -10.506   3.196  72.372  1.00  0.00    -0.231 F  
ENDBRANCH  31  34
ENDBRANCH  27  28
ENDBRANCH  24  27
ENDBRANCH  16  21
ENDBRANCH  14  15
ENDBRANCH  13  14
ENDBRANCH   2  13
TORSDOF 7
ENDMDL
MODEL       61
REMARK 921   NORMALIZED FREE ENERGY PREDICTED BY IDOCK:   -5.35 KCAL/MOL
REMARK 922        TOTAL FREE ENERGY PREDICTED BY IDOCK:   -9.02 KCAL/MOL
REMARK 923 INTER-LIGAND FREE ENERGY PREDICTED BY IDOCK:   -9.19 KCAL/MOL
REMARK 924 INTRA-LIGAND FREE ENERGY PREDICTED BY IDOCK:    0.16 KCAL/MOL
REMARK 927      BINDING AFFINITY PREDICTED BY RF-SCORE:    0.00 PKD
ROOT
HETATM    1  C   UNL     1     -12.562  12.748  64.890  1.00  0.00    -0.541 C  
HETATM    2  C   UNL     1     -11.279  13.569  64.784  1.00  0.00    -0.352 C  
HETATM    3  C   UNL     1     -11.229  15.797  64.741  1.00  0.00    -0.366 A  
HETATM    4  C   UNL     1     -10.777  14.051  66.173  1.00  0.00    -0.289 C  
HETATM    5  N   UNL     1     -10.777  15.475  65.969  1.00  0.00    -0.323 NA 
HETATM    6  O   UNL     1     -10.179  19.380  67.036  1.00  0.00    -0.351 OA 
HETATM    7  C   UNL     1     -10.461  16.588  66.647  1.00  0.00    -0.266 A  
HETATM    8  O   UNL     1     -11.574  14.769  63.987  1.00  0.00    -0.131 OA 
HETATM    9  O   UNL     1     -10.937  19.774  65.003  1.00  0.00    -0.281 OA 
HETATM   10  C   UNL     1     -10.755  17.596  65.729  1.00  0.00    -0.110 A  
HETATM   11  N   UNL     1     -11.239  17.080  64.524  1.00  0.00    -1.059 NA 
HETATM   12  N   UNL     1     -10.616  19.021  65.931  1.00  0.00    -0.464 N  
ENDROOT
BRANCH   2  13
HETATM   13  C   UNL     1     -10.189  12.797  64.045  1.00  0.00    -0.298 C  
BRANCH  13  14
HETATM   14  O   UNL     1     -10.663  11.514  63.631  1.00  0.00    -0.364 OA 
BRANCH  14  15
HETATM   15  C   UNL     1     -10.092  10.473  64.309  1.00  0.00    -0.310 A  
HETATM   16  C   UNL     1      -8.663   8.391  65.645  1.00  0.00    -0.172 A  
HETATM   17  C   UNL     1     -10.383  10.135  65.623  1.00  0.00    -0.210 A  
HETATM   18  C   UNL     1      -9.157   9.712  63.622  1.00  0.00    -0.214 A  
HETATM   19  C   UNL     1      -9.680   9.119  66.269  1.00  0.00    -0.344 A  
HETATM   20  C   UNL     1      -8.463   8.686  64.283  1.00  0.00    -0.101 A  
BRANCH  16  21
HETATM   21  N   UNL     1      -7.957   7.412  66.326  1.00  0.00    -0.105 NA 
HETATM   22  C   UNL     1      -7.492   6.171  65.678  1.00  0.00    -0.082 C  
HETATM   23  C   UNL     1      -6.070   5.870  66.149  1.00  0.00    -0.032 C  
HETATM   24  C   UNL     1      -5.996   5.794  67.676  1.00  0.00    -0.021 C  
HETATM   25  C   UNL     1      -8.020   7.286  67.785  1.00  0.00    -0.115 C  
HETATM   26  C   UNL     1      -6.600   7.065  68.285  1.00  0.00    -0.059 C  
BRANCH  24  27
HETATM   27  O   UNL     1      -6.719   4.619  68.082  1.00  0.00    -0.051 OA 
BRANCH  27  28
HETATM   28  C   UNL     1      -7.585   4.756  69.130  1.00  0.00    -0.056 A  
HETATM   29  C   UNL     1      -7.218   5.105  70.425  1.00  0.00    -0.061 A  
HETATM   30  C   UNL     1      -8.187   5.230  71.417  1.00  0.00    -0.116 A  
HETATM   31  C   UNL     1      -9.532   5.005  71.142  1.00  0.00    -0.155 A  
HETATM   32  C   UNL     1      -9.904   4.640  69.848  1.00  0.00    -0.296 A  
HETATM   33  C   UNL     1      -8.933   4.541  68.840  1.00  0.00    -0.151 A  
BRANCH  31  34
HETATM   34  O   UNL     1     -10.338   5.081  72.227  1.00  0.00    -0.197 OA 
HETATM   35  C   UNL     1     -11.208   6.189  72.387  1.00  0.00    -0.287 C  
HETATM   36  F   UNL     1     -12.473   5.733  72.520  1.00  0.00    -0.316 F  
HETATM   37  F   UNL     1     -11.174   7.082  71.380  1.00  0.00    -0.254 F  
HETATM   38  F   UNL     1     -10.875   6.833  73.530  1.00  0.00    -0.288 F  
ENDBRANCH  31  34
ENDBRANCH  27  28
ENDBRANCH  24  27
ENDBRANCH  16  21
ENDBRANCH  14  15
ENDBRANCH  13  14
ENDBRANCH   2  13
TORSDOF 7
ENDMDL
MODEL       62
REMARK 921   NORMALIZED FREE ENERGY PREDICTED BY IDOCK:   -5.35 KCAL/MOL
REMARK 922        TOTAL FREE ENERGY PREDICTED BY IDOCK:   -9.02 KCAL/MOL
REMARK 923 INTER-LIGAND FREE ENERGY PREDICTED BY IDOCK:   -9.55 KCAL/MOL
REMARK 924 INTRA-LIGAND FREE ENERGY PREDICTED BY IDOCK:    0.53 KCAL/MOL
REMARK 927      BINDING AFFINITY PREDICTED BY RF-SCORE:    0.00 PKD
ROOT
HETATM    1  C   UNL     1     -13.785   7.261  71.397  1.00  0.00    -0.404 C  
HETATM    2  C   UNL     1     -12.776   8.301  71.880  1.00  0.00    -0.342 C  
HETATM    3  C   UNL     1     -12.371  10.223  70.826  1.00  0.00    -0.350 A  
HETATM    4  C   UNL     1     -13.452   9.433  72.700  1.00  0.00    -0.249 C  
HETATM    5  N   UNL     1     -13.078  10.580  71.916  1.00  0.00    -0.479 NA 
HETATM    6  O   UNL     1     -12.923  14.566  71.003  1.00  0.00    -0.332 OA 
HETATM    7  C   UNL     1     -13.229  11.913  71.946  1.00  0.00    -0.362 A  
HETATM    8  O   UNL     1     -12.167   8.924  70.696  1.00  0.00    -0.130 OA 
HETATM    9  O   UNL     1     -11.781  13.851  69.259  1.00  0.00    -0.287 OA 
HETATM   10  C   UNL     1     -12.556  12.320  70.795  1.00  0.00    -0.213 A  
HETATM   11  N   UNL     1     -12.014  11.239  70.095  1.00  0.00    -0.340 NA 
HETATM   12  N   UNL     1     -12.405  13.675  70.312  1.00  0.00    -0.336 N  
ENDROOT
BRANCH   2  13
HETATM   13  C   UNL     1     -11.647   7.648  72.674  1.00  0.00    -0.317 C  
BRANCH  13  14
HETATM   14  O   UNL     1     -11.271   6.397  72.094  1.00  0.00    -0.251 OA 
BRANCH  14  15
HETATM   15  C   UNL     1     -10.447   6.522  71.010  1.00  0.00    -0.222 A  
HETATM   16  C   UNL     1      -8.941   6.844  68.604  1.00  0.00    -0.129 A  
HETATM   17  C   UNL     1      -9.273   7.262  70.994  1.00  0.00    -0.154 A  
HETATM   18  C   UNL     1     -10.826   5.859  69.852  1.00  0.00    -0.439 A  
HETATM   19  C   UNL     1      -8.544   7.416  69.816  1.00  0.00    -0.140 A  
HETATM   20  C   UNL     1     -10.077   6.016  68.674  1.00  0.00    -0.208 A  
BRANCH  16  21
HETATM   21  N   UNL     1      -8.215   7.047  67.441  1.00  0.00    -0.118 NA 
HETATM   22  C   UNL     1      -6.759   7.283  67.443  1.00  0.00    -0.068 C  
HETATM   23  C   UNL     1      -6.126   6.483  66.306  1.00  0.00    -0.033 C  
HETATM   24  C   UNL     1      -6.771   6.828  64.960  1.00  0.00    -0.050 C  
HETATM   25  C   UNL     1      -8.849   7.510  66.204  1.00  0.00    -0.159 C  
HETATM   26  C   UNL     1      -8.293   6.671  65.064  1.00  0.00    -0.067 C  
BRANCH  24  27
HETATM   27  O   UNL     1      -6.399   8.180  64.642  1.00  0.00    -0.055 OA 
BRANCH  27  28
HETATM   28  C   UNL     1      -7.391   9.006  64.195  1.00  0.00    -0.103 A  
HETATM   29  C   UNL     1      -7.983   8.932  62.939  1.00  0.00    -0.159 A  
HETATM   30  C   UNL     1      -9.000   9.818  62.591  1.00  0.00    -0.284 A  
HETATM   31  C   UNL     1      -9.439  10.794  63.480  1.00  0.00    -0.299 A  
HETATM   32  C   UNL     1      -8.838  10.882  64.735  1.00  0.00    -0.111 A  
HETATM   33  C   UNL     1      -7.834   9.973  65.099  1.00  0.00    -0.136 A  
BRANCH  31  34
HETATM   34  O   UNL     1     -10.370  11.631  62.964  1.00  0.00    -0.337 OA 
HETATM   35  C   UNL     1     -11.452  12.069  63.769  1.00  0.00    -0.461 C  
HETATM   36  F   UNL     1     -11.461  13.420  63.790  1.00  0.00    -0.404 F  
HETATM   37  F   UNL     1     -11.430  11.617  65.037  1.00  0.00    -0.354 F  
HETATM   38  F   UNL     1     -12.606  11.653  63.196  1.00  0.00    -0.668 F  
ENDBRANCH  31  34
ENDBRANCH  27  28
ENDBRANCH  24  27
ENDBRANCH  16  21
ENDBRANCH  14  15
ENDBRANCH  13  14
ENDBRANCH   2  13
TORSDOF 7
ENDMDL
MODEL       63
REMARK 921   NORMALIZED FREE ENERGY PREDICTED BY IDOCK:   -5.34 KCAL/MOL
REMARK 922        TOTAL FREE ENERGY PREDICTED BY IDOCK:   -9.00 KCAL/MOL
REMARK 923 INTER-LIGAND FREE ENERGY PREDICTED BY IDOCK:   -7.39 KCAL/MOL
REMARK 924 INTRA-LIGAND FREE ENERGY PREDICTED BY IDOCK:   -1.61 KCAL/MOL
REMARK 927      BINDING AFFINITY PREDICTED BY RF-SCORE:    0.00 PKD
ROOT
HETATM    1  C   UNL     1      -5.186  19.096  70.388  1.00  0.00    -0.223 C  
HETATM    2  C   UNL     1      -5.842  18.338  69.237  1.00  0.00    -0.234 C  
HETATM    3  C   UNL     1      -7.909  18.737  68.503  1.00  0.00    -0.336 A  
HETATM    4  C   UNL     1      -5.719  19.101  67.890  1.00  0.00    -0.191 C  
HETATM    5  N   UNL     1      -7.109  19.250  67.549  1.00  0.00    -0.212 NA 
HETATM    6  O   UNL     1     -10.254  20.431  65.211  1.00  0.00    -0.093 OA 
HETATM    7  C   UNL     1      -7.852  19.759  66.554  1.00  0.00    -0.299 A  
HETATM    8  O   UNL     1      -7.276  18.212  69.537  1.00  0.00    -0.052 OA 
HETATM    9  O   UNL     1     -11.451  19.558  66.844  1.00  0.00     0.033 OA 
HETATM   10  C   UNL     1      -9.152  19.505  66.988  1.00  0.00    -0.315 A  
HETATM   11  N   UNL     1      -9.174  18.854  68.224  1.00  0.00    -0.317 NA 
HETATM   12  N   UNL     1     -10.378  19.854  66.303  1.00  0.00    -0.486 N  
ENDROOT
BRANCH   2  13
HETATM   13  C   UNL     1      -5.283  16.922  69.118  1.00  0.00    -0.131 C  
BRANCH  13  14
HETATM   14  O   UNL     1      -5.409  16.434  67.781  1.00  0.00    -0.109 OA 
BRANCH  14  15
HETATM   15  C   UNL     1      -6.170  15.302  67.680  1.00  0.00    -0.130 A  
HETATM   16  C   UNL     1      -7.707  12.894  67.726  1.00  0.00    -0.151 A  
HETATM   17  C   UNL     1      -7.445  15.256  67.134  1.00  0.00    -0.202 A  
HETATM   18  C   UNL     1      -5.616  14.126  68.165  1.00  0.00    -0.123 A  
HETATM   19  C   UNL     1      -8.189  14.078  67.162  1.00  0.00    -0.146 A  
HETATM   20  C   UNL     1      -6.374  12.944  68.178  1.00  0.00    -0.096 A  
BRANCH  16  21
HETATM   21  N   UNL     1      -8.486  11.749  67.773  1.00  0.00    -0.140 NA 
HETATM   22  C   UNL     1      -8.372  10.753  68.856  1.00  0.00    -0.147 C  
HETATM   23  C   UNL     1      -9.774  10.309  69.269  1.00  0.00    -0.240 C  
HETATM   24  C   UNL     1     -10.564   9.780  68.069  1.00  0.00    -0.243 C  
HETATM   25  C   UNL     1      -9.116  11.193  66.573  1.00  0.00    -0.182 C  
HETATM   26  C   UNL     1     -10.544  10.817  66.940  1.00  0.00    -0.312 C  
BRANCH  24  27
HETATM   27  O   UNL     1      -9.948   8.545  67.664  1.00  0.00    -0.173 OA 
BRANCH  27  28
HETATM   28  C   UNL     1      -9.960   7.522  68.569  1.00  0.00    -0.168 A  
HETATM   29  C   UNL     1     -11.107   6.961  69.121  1.00  0.00    -0.205 A  
HETATM   30  C   UNL     1     -11.004   5.908  70.028  1.00  0.00    -0.430 A  
HETATM   31  C   UNL     1      -9.765   5.403  70.406  1.00  0.00    -0.192 A  
HETATM   32  C   UNL     1      -8.611   5.972  69.867  1.00  0.00    -0.131 A  
HETATM   33  C   UNL     1      -8.712   7.013  68.932  1.00  0.00    -0.131 A  
BRANCH  31  34
HETATM   34  O   UNL     1      -9.827   4.442  71.358  1.00  0.00    -0.174 OA 
HETATM   35  C   UNL     1     -10.023   4.802  72.715  1.00  0.00    -0.163 C  
HETATM   36  F   UNL     1     -11.117   4.161  73.183  1.00  0.00    -0.264 F  
HETATM   37  F   UNL     1     -10.169   6.122  72.933  1.00  0.00    -0.176 F  
HETATM   38  F   UNL     1      -8.953   4.376  73.429  1.00  0.00    -0.109 F  
ENDBRANCH  31  34
ENDBRANCH  27  28
ENDBRANCH  24  27
ENDBRANCH  16  21
ENDBRANCH  14  15
ENDBRANCH  13  14
ENDBRANCH   2  13
TORSDOF 7
ENDMDL
MODEL       64
REMARK 921   NORMALIZED FREE ENERGY PREDICTED BY IDOCK:   -5.23 KCAL/MOL
REMARK 922        TOTAL FREE ENERGY PREDICTED BY IDOCK:   -8.85 KCAL/MOL
REMARK 923 INTER-LIGAND FREE ENERGY PREDICTED BY IDOCK:   -7.74 KCAL/MOL
REMARK 924 INTRA-LIGAND FREE ENERGY PREDICTED BY IDOCK:   -1.11 KCAL/MOL
REMARK 927      BINDING AFFINITY PREDICTED BY RF-SCORE:    0.00 PKD
ROOT
HETATM    1  C   UNL     1      -9.657   3.410  70.589  1.00  0.00    -0.238 C  
HETATM    2  C   UNL     1      -8.945   4.051  69.401  1.00  0.00    -0.108 C  
HETATM    3  C   UNL     1      -9.020   3.246  67.324  1.00  0.00    -0.158 A  
HETATM    4  C   UNL     1      -9.891   4.969  68.580  1.00  0.00    -0.151 C  
HETATM    5  N   UNL     1      -9.806   4.340  67.288  1.00  0.00    -0.180 NA 
HETATM    6  O   UNL     1     -10.640   3.905  63.305  1.00  0.00    -0.215 OA 
HETATM    7  C   UNL     1     -10.285   4.519  66.048  1.00  0.00    -0.260 A  
HETATM    8  O   UNL     1      -8.497   2.974  68.506  1.00  0.00    -0.070 OA 
HETATM    9  O   UNL     1      -9.335   2.138  63.497  1.00  0.00    -0.093 OA 
HETATM   10  C   UNL     1      -9.722   3.452  65.349  1.00  0.00    -0.053 A  
HETATM   11  N   UNL     1      -8.919   2.654  66.169  1.00  0.00    -0.143 NA 
HETATM   12  N   UNL     1      -9.908   3.137  63.950  1.00  0.00    -0.146 N  
ENDROOT
BRANCH   2  13
HETATM   13  C   UNL     1      -7.698   4.811  69.848  1.00  0.00    -0.055 C  
BRANCH  13  14
HETATM   14  O   UNL     1      -7.991   5.667  70.954  1.00  0.00    -0.105 OA 
BRANCH  14  15
HETATM   15  C   UNL     1      -8.313   6.945  70.587  1.00  0.00    -0.128 A  
HETATM   16  C   UNL     1      -8.982   9.529  69.570  1.00  0.00    -0.181 A  
HETATM   17  C   UNL     1      -9.348   7.686  71.140  1.00  0.00    -0.161 A  
HETATM   18  C   UNL     1      -7.543   7.526  69.590  1.00  0.00    -0.094 A  
HETATM   19  C   UNL     1      -9.670   8.945  70.637  1.00  0.00    -0.260 A  
HETATM   20  C   UNL     1      -7.873   8.800  69.100  1.00  0.00    -0.098 A  
BRANCH  16  21
HETATM   21  N   UNL     1      -9.350  10.767  69.067  1.00  0.00    -0.181 NA 
HETATM   22  C   UNL     1      -8.369  11.830  68.775  1.00  0.00    -0.009 C  
HETATM   23  C   UNL     1      -8.736  12.491  67.447  1.00  0.00    -0.189 C  
HETATM   24  C   UNL     1     -10.175  13.013  67.468  1.00  0.00    -0.221 C  
HETATM   25  C   UNL     1     -10.708  11.294  69.227  1.00  0.00    -0.179 C  
HETATM   26  C   UNL     1     -11.126  11.887  67.890  1.00  0.00    -0.297 C  
BRANCH  24  27
HETATM   27  O   UNL     1     -10.217  14.115  68.391  1.00  0.00    -0.234 OA 
BRANCH  27  28
HETATM   28  C   UNL     1     -10.009  15.363  67.874  1.00  0.00    -0.221 A  
HETATM   29  C   UNL     1      -8.885  15.748  67.151  1.00  0.00    -0.224 A  
HETATM   30  C   UNL     1      -8.782  17.046  66.657  1.00  0.00    -0.282 A  
HETATM   31  C   UNL     1      -9.787  17.982  66.878  1.00  0.00    -0.330 A  
HETATM   32  C   UNL     1     -10.909  17.605  67.616  1.00  0.00    -0.227 A  
HETATM   33  C   UNL     1     -11.029  16.290  68.090  1.00  0.00    -0.343 A  
BRANCH  31  34
HETATM   34  O   UNL     1      -9.500  19.220  66.411  1.00  0.00    -0.339 OA 
HETATM   35  C   UNL     1      -8.748  20.121  67.206  1.00  0.00    -0.348 C  
HETATM   36  F   UNL     1      -7.663  20.517  66.506  1.00  0.00    -0.302 F  
HETATM   37  F   UNL     1      -8.342  19.623  68.389  1.00  0.00    -0.351 F  
HETATM   38  F   UNL     1      -9.509  21.214  67.451  1.00  0.00    -0.565 F  
ENDBRANCH  31  34
ENDBRANCH  27  28
ENDBRANCH  24  27
ENDBRANCH  16  21
ENDBRANCH  14  15
ENDBRANCH  13  14
ENDBRANCH   2  13
TORSDOF 7
ENDMDL
MODEL       65
REMARK 921   NORMALIZED FREE ENERGY PREDICTED BY IDOCK:   -5.23 KCAL/MOL
REMARK 922        TOTAL FREE ENERGY PREDICTED BY IDOCK:   -8.85 KCAL/MOL
REMARK 923 INTER-LIGAND FREE ENERGY PREDICTED BY IDOCK:   -7.38 KCAL/MOL
REMARK 924 INTRA-LIGAND FREE ENERGY PREDICTED BY IDOCK:   -1.47 KCAL/MOL
REMARK 927      BINDING AFFINITY PREDICTED BY RF-SCORE:    0.00 PKD
ROOT
HETATM    1  C   UNL     1     -11.520  16.815  69.304  1.00  0.00     0.259 C  
HETATM    2  C   UNL     1     -10.858  16.196  68.075  1.00  0.00    -0.333 C  
HETATM    3  C   UNL     1      -9.369  17.256  66.799  1.00  0.00    -0.259 A  
HETATM    4  C   UNL     1      -9.459  15.604  68.401  1.00  0.00    -0.196 C  
HETATM    5  N   UNL     1      -8.640  16.361  67.492  1.00  0.00    -0.172 NA 
HETATM    6  O   UNL     1      -5.135  17.459  65.686  1.00  0.00    -0.290 OA 
HETATM    7  C   UNL     1      -7.350  16.443  67.130  1.00  0.00    -0.195 A  
HETATM    8  O   UNL     1     -10.659  17.263  67.083  1.00  0.00    -0.324 OA 
HETATM    9  O   UNL     1      -6.439  18.881  64.620  1.00  0.00    -0.500 OA 
HETATM   10  C   UNL     1      -7.370  17.451  66.167  1.00  0.00    -0.296 A  
HETATM   11  N   UNL     1      -8.657  17.956  65.965  1.00  0.00    -0.513 NA 
HETATM   12  N   UNL     1      -6.237  17.972  65.435  1.00  0.00    -0.177 N  
ENDROOT
BRANCH   2  13
HETATM   13  C   UNL     1     -11.760  15.147  67.431  1.00  0.00    -0.175 C  
BRANCH  13  14
HETATM   14  O   UNL     1     -11.374  14.903  66.076  1.00  0.00    -0.342 OA 
BRANCH  14  15
HETATM   15  C   UNL     1     -10.919  13.633  65.856  1.00  0.00    -0.282 A  
HETATM   16  C   UNL     1      -9.755  11.088  65.280  1.00  0.00    -0.239 A  
HETATM   17  C   UNL     1     -10.847  12.643  66.826  1.00  0.00    -0.279 A  
HETATM   18  C   UNL     1     -10.501  13.328  64.569  1.00  0.00    -0.434 A  
HETATM   19  C   UNL     1     -10.276  11.404  66.538  1.00  0.00    -0.259 A  
HETATM   20  C   UNL     1      -9.937  12.073  64.291  1.00  0.00    -0.266 A  
BRANCH  16  21
HETATM   21  N   UNL     1      -9.160   9.861  65.035  1.00  0.00    -0.200 NA 
HETATM   22  C   UNL     1      -8.773   9.421  63.681  1.00  0.00    -0.202 C  
HETATM   23  C   UNL     1      -7.401   8.753  63.751  1.00  0.00    -0.099 C  
HETATM   24  C   UNL     1      -7.394   7.604  64.763  1.00  0.00    -0.076 C  
HETATM   25  C   UNL     1      -9.290   8.738  65.967  1.00  0.00    -0.232 C  
HETATM   26  C   UNL     1      -7.915   8.106  66.115  1.00  0.00    -0.102 C  
BRANCH  24  27
HETATM   27  O   UNL     1      -8.227   6.560  64.229  1.00  0.00    -0.091 OA 
BRANCH  27  28
HETATM   28  C   UNL     1      -8.356   5.427  64.982  1.00  0.00    -0.145 A  
HETATM   29  C   UNL     1      -9.563   4.910  65.442  1.00  0.00    -0.115 A  
HETATM   30  C   UNL     1      -9.581   3.737  66.193  1.00  0.00    -0.171 A  
HETATM   31  C   UNL     1      -8.405   3.065  66.505  1.00  0.00    -0.094 A  
HETATM   32  C   UNL     1      -7.191   3.587  66.060  1.00  0.00    -0.068 A  
HETATM   33  C   UNL     1      -7.171   4.752  65.279  1.00  0.00    -0.068 A  
BRANCH  31  34
HETATM   34  O   UNL     1      -8.580   1.992  67.313  1.00  0.00    -0.084 OA 
HETATM   35  C   UNL     1      -8.677   2.170  68.715  1.00  0.00    -0.083 C  
HETATM   36  F   UNL     1      -9.840   1.629  69.143  1.00  0.00    -0.163 F  
HETATM   37  F   UNL     1      -8.620   3.451  69.126  1.00  0.00    -0.076 F  
HETATM   38  F   UNL     1      -7.661   1.495  69.304  1.00  0.00    -0.042 F  
ENDBRANCH  31  34
ENDBRANCH  27  28
ENDBRANCH  24  27
ENDBRANCH  16  21
ENDBRANCH  14  15
ENDBRANCH  13  14
ENDBRANCH   2  13
TORSDOF 7
ENDMDL
MODEL       66
REMARK 921   NORMALIZED FREE ENERGY PREDICTED BY IDOCK:   -5.22 KCAL/MOL
REMARK 922        TOTAL FREE ENERGY PREDICTED BY IDOCK:   -8.83 KCAL/MOL
REMARK 923 INTER-LIGAND FREE ENERGY PREDICTED BY IDOCK:   -7.41 KCAL/MOL
REMARK 924 INTRA-LIGAND FREE ENERGY PREDICTED BY IDOCK:   -1.43 KCAL/MOL
REMARK 927      BINDING AFFINITY PREDICTED BY RF-SCORE:    0.00 PKD
ROOT
HETATM    1  C   UNL     1      -9.706   1.846  72.508  1.00  0.00    -0.168 C  
HETATM    2  C   UNL     1      -8.985   2.973  71.774  1.00  0.00    -0.090 C  
HETATM    3  C   UNL     1      -8.748   5.035  72.587  1.00  0.00    -0.119 A  
HETATM    4  C   UNL     1      -7.511   3.124  72.239  1.00  0.00    -0.052 C  
HETATM    5  N   UNL     1      -7.523   4.487  72.699  1.00  0.00    -0.082 NA 
HETATM    6  O   UNL     1      -5.885   7.890  74.276  1.00  0.00    -0.077 OA 
HETATM    7  C   UNL     1      -6.667   5.383  73.215  1.00  0.00    -0.077 A  
HETATM    8  O   UNL     1      -9.673   4.233  72.091  1.00  0.00    -0.145 OA 
HETATM    9  O   UNL     1      -7.935   8.666  74.043  1.00  0.00    -0.397 OA 
HETATM   10  C   UNL     1      -7.476   6.504  73.397  1.00  0.00    -0.085 A  
HETATM   11  N   UNL     1      -8.792   6.271  72.992  1.00  0.00    -0.125 NA 
HETATM   12  N   UNL     1      -7.076   7.782  73.944  1.00  0.00    -0.107 N  
ENDROOT
BRANCH   2  13
HETATM   13  C   UNL     1      -9.065   2.786  70.260  1.00  0.00    -0.113 C  
BRANCH  13  14
HETATM   14  O   UNL     1      -7.900   3.312  69.619  1.00  0.00    -0.050 OA 
BRANCH  14  15
HETATM   15  C   UNL     1      -8.113   4.509  68.992  1.00  0.00    -0.073 A  
HETATM   16  C   UNL     1      -8.799   7.007  67.789  1.00  0.00    -0.123 A  
HETATM   17  C   UNL     1      -7.250   5.594  69.055  1.00  0.00    -0.073 A  
HETATM   18  C   UNL     1      -9.276   4.631  68.247  1.00  0.00    -0.166 A  
HETATM   19  C   UNL     1      -7.593   6.811  68.467  1.00  0.00    -0.104 A  
HETATM   20  C   UNL     1      -9.604   5.860  67.652  1.00  0.00    -0.113 A  
BRANCH  16  21
HETATM   21  N   UNL     1      -9.128   8.239  67.247  1.00  0.00    -0.136 NA 
HETATM   22  C   UNL     1      -8.450   8.793  66.060  1.00  0.00    -0.135 C  
HETATM   23  C   UNL     1      -9.495   9.425  65.142  1.00  0.00    -0.255 C  
HETATM   24  C   UNL     1     -10.321  10.477  65.886  1.00  0.00    -0.206 C  
HETATM   25  C   UNL     1      -9.801   9.276  68.035  1.00  0.00    -0.163 C  
HETATM   26  C   UNL     1     -10.902   9.866  67.167  1.00  0.00    -0.227 C  
BRANCH  24  27
HETATM   27  O   UNL     1      -9.446  11.581  66.176  1.00  0.00    -0.208 OA 
BRANCH  27  28
HETATM   28  C   UNL     1      -9.981  12.628  66.873  1.00  0.00    -0.230 A  
HETATM   29  C   UNL     1      -9.264  13.479  67.706  1.00  0.00    -0.213 A  
HETATM   30  C   UNL     1      -9.909  14.526  68.361  1.00  0.00    -0.227 A  
HETATM   31  C   UNL     1     -11.274  14.740  68.204  1.00  0.00    -0.294 A  
HETATM   32  C   UNL     1     -12.001  13.879  67.382  1.00  0.00    -0.436 A  
HETATM   33  C   UNL     1     -11.349  12.841  66.699  1.00  0.00    -0.364 A  
BRANCH  31  34
HETATM   34  O   UNL     1     -11.768  15.740  68.971  1.00  0.00    -0.379 OA 
HETATM   35  C   UNL     1     -12.076  15.502  70.334  1.00  0.00    -0.392 C  
HETATM   36  F   UNL     1     -11.392  16.384  71.096  1.00  0.00    -0.401 F  
HETATM   37  F   UNL     1     -11.803  14.256  70.764  1.00  0.00    -0.338 F  
HETATM   38  F   UNL     1     -13.399  15.728  70.519  1.00  0.00    -0.467 F  
ENDBRANCH  31  34
ENDBRANCH  27  28
ENDBRANCH  24  27
ENDBRANCH  16  21
ENDBRANCH  14  15
ENDBRANCH  13  14
ENDBRANCH   2  13
TORSDOF 7
ENDMDL
MODEL       67
REMARK 921   NORMALIZED FREE ENERGY PREDICTED BY IDOCK:   -5.21 KCAL/MOL
REMARK 922        TOTAL FREE ENERGY PREDICTED BY IDOCK:   -8.83 KCAL/MOL
REMARK 923 INTER-LIGAND FREE ENERGY PREDICTED BY IDOCK:   -7.71 KCAL/MOL
REMARK 924 INTRA-LIGAND FREE ENERGY PREDICTED BY IDOCK:   -1.11 KCAL/MOL
REMARK 927      BINDING AFFINITY PREDICTED BY RF-SCORE:    0.00 PKD
ROOT
HETATM    1  C   UNL     1     -10.509  17.444  68.465  1.00  0.00    -0.370 C  
HETATM    2  C   UNL     1      -9.019  17.277  68.181  1.00  0.00    -0.254 C  
HETATM    3  C   UNL     1      -7.968  18.215  66.453  1.00  0.00    -0.266 A  
HETATM    4  C   UNL     1      -8.182  18.463  68.733  1.00  0.00    -0.233 C  
HETATM    5  N   UNL     1      -7.561  18.928  67.521  1.00  0.00    -0.228 NA 
HETATM    6  O   UNL     1      -5.127  21.339  65.283  1.00  0.00    -0.193 OA 
HETATM    7  C   UNL     1      -6.691  19.874  67.135  1.00  0.00    -0.209 A  
HETATM    8  O   UNL     1      -8.835  17.255  66.722  1.00  0.00    -0.227 OA 
HETATM    9  O   UNL     1      -5.873  20.100  63.620  1.00  0.00    -0.253 OA 
HETATM   10  C   UNL     1      -6.610  19.666  65.759  1.00  0.00    -0.242 A  
HETATM   11  N   UNL     1      -7.422  18.610  65.340  1.00  0.00    -0.401 NA 
HETATM   12  N   UNL     1      -5.814  20.419  64.814  1.00  0.00    -0.216 N  
ENDROOT
BRANCH   2  13
HETATM   13  C   UNL     1      -8.500  15.945  68.718  1.00  0.00    -0.204 C  
BRANCH  13  14
HETATM   14  O   UNL     1      -8.011  15.122  67.657  1.00  0.00    -0.136 OA 
BRANCH  14  15
HETATM   15  C   UNL     1      -8.437  13.824  67.729  1.00  0.00    -0.181 A  
HETATM   16  C   UNL     1      -9.077  11.048  67.945  1.00  0.00    -0.147 A  
HETATM   17  C   UNL     1      -9.559  13.401  68.427  1.00  0.00    -0.188 A  
HETATM   18  C   UNL     1      -7.682  12.876  67.054  1.00  0.00     0.025 A  
HETATM   19  C   UNL     1      -9.864  12.045  68.530  1.00  0.00    -0.177 A  
HETATM   20  C   UNL     1      -8.007  11.514  67.159  1.00  0.00    -0.160 A  
BRANCH  16  21
HETATM   21  N   UNL     1      -9.386   9.706  68.098  1.00  0.00    -0.133 NA 
HETATM   22  C   UNL     1     -10.402   9.025  67.272  1.00  0.00    -0.273 C  
HETATM   23  C   UNL     1      -9.871   7.650  66.868  1.00  0.00    -0.304 C  
HETATM   24  C   UNL     1      -9.469   6.829  68.096  1.00  0.00    -0.120 C  
HETATM   25  C   UNL     1      -9.109   8.985  69.343  1.00  0.00    -0.146 C  
HETATM   26  C   UNL     1      -8.503   7.641  68.966  1.00  0.00    -0.132 C  
BRANCH  24  27
HETATM   27  O   UNL     1     -10.677   6.505  68.807  1.00  0.00    -0.220 OA 
BRANCH  27  28
HETATM   28  C   UNL     1     -10.542   5.775  69.955  1.00  0.00    -0.318 A  
HETATM   29  C   UNL     1      -9.600   4.772  70.154  1.00  0.00    -0.265 A  
HETATM   30  C   UNL     1      -9.541   4.099  71.372  1.00  0.00    -0.238 A  
HETATM   31  C   UNL     1     -10.419   4.405  72.406  1.00  0.00    -0.149 A  
HETATM   32  C   UNL     1     -11.375   5.400  72.206  1.00  0.00    -0.200 A  
HETATM   33  C   UNL     1     -11.418   6.100  70.991  1.00  0.00    -0.316 A  
BRANCH  31  34
HETATM   34  O   UNL     1     -10.293   3.606  73.492  1.00  0.00    -0.135 OA 
HETATM   35  C   UNL     1     -10.693   2.248  73.422  1.00  0.00    -0.163 C  
HETATM   36  F   UNL     1      -9.644   1.468  73.766  1.00  0.00    -0.069 F  
HETATM   37  F   UNL     1     -11.147   1.856  72.217  1.00  0.00    -0.141 F  
HETATM   38  F   UNL     1     -11.679   2.046  74.328  1.00  0.00    -0.128 F  
ENDBRANCH  31  34
ENDBRANCH  27  28
ENDBRANCH  24  27
ENDBRANCH  16  21
ENDBRANCH  14  15
ENDBRANCH  13  14
ENDBRANCH   2  13
TORSDOF 7
ENDMDL
MODEL       68
REMARK 921   NORMALIZED FREE ENERGY PREDICTED BY IDOCK:   -5.20 KCAL/MOL
REMARK 922        TOTAL FREE ENERGY PREDICTED BY IDOCK:   -8.81 KCAL/MOL
REMARK 923 INTER-LIGAND FREE ENERGY PREDICTED BY IDOCK:   -7.32 KCAL/MOL
REMARK 924 INTRA-LIGAND FREE ENERGY PREDICTED BY IDOCK:   -1.50 KCAL/MOL
REMARK 927      BINDING AFFINITY PREDICTED BY RF-SCORE:    0.00 PKD
ROOT
HETATM    1  C   UNL     1      -8.777   3.511  68.813  1.00  0.00    -0.140 C  
HETATM    2  C   UNL     1      -8.977   4.963  69.241  1.00  0.00    -0.094 C  
HETATM    3  C   UNL     1      -8.154   5.830  71.122  1.00  0.00    -0.117 A  
HETATM    4  C   UNL     1      -7.770   5.858  68.852  1.00  0.00    -0.091 C  
HETATM    5  N   UNL     1      -7.384   6.351  70.147  1.00  0.00    -0.083 NA 
HETATM    6  O   UNL     1      -5.136   8.548  72.768  1.00  0.00    -0.037 OA 
HETATM    7  C   UNL     1      -6.472   7.179  70.678  1.00  0.00    -0.043 A  
HETATM    8  O   UNL     1      -9.087   4.991  70.707  1.00  0.00    -0.128 OA 
HETATM    9  O   UNL     1      -6.463   7.625  74.267  1.00  0.00    -0.086 OA 
HETATM   10  C   UNL     1      -6.762   7.115  72.041  1.00  0.00    -0.056 A  
HETATM   11  N   UNL     1      -7.832   6.258  72.308  1.00  0.00    -0.103 NA 
HETATM   12  N   UNL     1      -6.075   7.810  73.107  1.00  0.00    -0.059 N  
ENDROOT
BRANCH   2  13
HETATM   13  C   UNL     1     -10.281   5.528  68.682  1.00  0.00    -0.193 C  
BRANCH  13  14
HETATM   14  O   UNL     1     -10.868   6.456  69.597  1.00  0.00    -0.252 OA 
BRANCH  14  15
HETATM   15  C   UNL     1     -10.893   7.742  69.132  1.00  0.00    -0.052 A  
HETATM   16  C   UNL     1     -10.792  10.493  68.366  1.00  0.00    -0.240 A  
HETATM   17  C   UNL     1     -10.626   8.111  67.821  1.00  0.00    -0.233 A  
HETATM   18  C   UNL     1     -11.208   8.736  70.047  1.00  0.00    -0.113 A  
HETATM   19  C   UNL     1     -10.576   9.455  67.455  1.00  0.00    -0.333 A  
HETATM   20  C   UNL     1     -11.163  10.086  69.662  1.00  0.00    -0.285 A  
BRANCH  16  21
HETATM   21  N   UNL     1     -10.699  11.820  67.981  1.00  0.00    -0.200 NA 
HETATM   22  C   UNL     1     -11.591  12.419  66.970  1.00  0.00    -0.365 C  
HETATM   23  C   UNL     1     -12.015  13.808  67.446  1.00  0.00    -0.423 C  
HETATM   24  C   UNL     1     -10.798  14.687  67.745  1.00  0.00    -0.267 C  
HETATM   25  C   UNL     1      -9.466  12.593  68.160  1.00  0.00    -0.218 C  
HETATM   26  C   UNL     1      -9.859  13.955  68.711  1.00  0.00    -0.117 C  
BRANCH  24  27
HETATM   27  O   UNL     1     -10.154  14.967  66.490  1.00  0.00    -0.256 OA 
BRANCH  27  28
HETATM   28  C   UNL     1      -9.420  16.117  66.414  1.00  0.00    -0.295 A  
HETATM   29  C   UNL     1      -8.054  16.173  66.158  1.00  0.00    -0.047 A  
HETATM   30  C   UNL     1      -7.406  17.405  66.088  1.00  0.00    -0.331 A  
HETATM   31  C   UNL     1      -8.100  18.595  66.280  1.00  0.00    -0.244 A  
HETATM   32  C   UNL     1      -9.467  18.542  66.553  1.00  0.00    -0.322 A  
HETATM   33  C   UNL     1     -10.128  17.305  66.594  1.00  0.00    -0.302 A  
BRANCH  31  34
HETATM   34  O   UNL     1      -7.316  19.699  66.268  1.00  0.00    -0.242 OA 
HETATM   35  C   UNL     1      -6.426  19.947  67.343  1.00  0.00    -0.200 C  
HETATM   36  F   UNL     1      -5.174  20.075  66.850  1.00  0.00    -0.159 F  
HETATM   37  F   UNL     1      -6.419  18.999  68.299  1.00  0.00    -0.223 F  
HETATM   38  F   UNL     1      -6.770  21.122  67.921  1.00  0.00    -0.368 F  
ENDBRANCH  31  34
ENDBRANCH  27  28
ENDBRANCH  24  27
ENDBRANCH  16  21
ENDBRANCH  14  15
ENDBRANCH  13  14
ENDBRANCH   2  13
TORSDOF 7
ENDMDL
MODEL       69
REMARK 921   NORMALIZED FREE ENERGY PREDICTED BY IDOCK:   -5.17 KCAL/MOL
REMARK 922        TOTAL FREE ENERGY PREDICTED BY IDOCK:   -8.77 KCAL/MOL
REMARK 923 INTER-LIGAND FREE ENERGY PREDICTED BY IDOCK:   -8.32 KCAL/MOL
REMARK 924 INTRA-LIGAND FREE ENERGY PREDICTED BY IDOCK:   -0.44 KCAL/MOL
REMARK 927      BINDING AFFINITY PREDICTED BY RF-SCORE:    0.00 PKD
ROOT
HETATM    1  C   UNL     1     -12.531  12.840  64.717  1.00  0.00    -0.539 C  
HETATM    2  C   UNL     1     -11.216  13.616  64.745  1.00  0.00    -0.360 C  
HETATM    3  C   UNL     1     -11.086  15.837  64.882  1.00  0.00    -0.399 A  
HETATM    4  C   UNL     1     -10.777  13.968  66.192  1.00  0.00    -0.289 C  
HETATM    5  N   UNL     1     -10.715  15.402  66.102  1.00  0.00    -0.310 NA 
HETATM    6  O   UNL     1     -10.041  19.186  67.508  1.00  0.00    -0.335 OA 
HETATM    7  C   UNL     1     -10.399  16.447  66.883  1.00  0.00    -0.300 A  
HETATM    8  O   UNL     1     -11.424  14.884  64.032  1.00  0.00    -0.057 OA 
HETATM    9  O   UNL     1     -10.670  19.767  65.476  1.00  0.00    -0.479 OA 
HETATM   10  C   UNL     1     -10.606  17.533  66.034  1.00  0.00    -0.217 A  
HETATM   11  N   UNL     1     -11.038  17.132  64.767  1.00  0.00    -0.925 NA 
HETATM   12  N   UNL     1     -10.428  18.932  66.356  1.00  0.00    -0.428 N  
ENDROOT
BRANCH   2  13
HETATM   13  C   UNL     1     -10.114  12.861  64.005  1.00  0.00    -0.117 C  
BRANCH  13  14
HETATM   14  O   UNL     1     -10.587  11.597  63.535  1.00  0.00    -0.372 OA 
BRANCH  14  15
HETATM   15  C   UNL     1     -10.136  10.535  64.269  1.00  0.00    -0.310 A  
HETATM   16  C   UNL     1      -8.948   8.410  65.764  1.00  0.00    -0.159 A  
HETATM   17  C   UNL     1     -10.644  10.159  65.504  1.00  0.00     0.057 A  
HETATM   18  C   UNL     1      -9.096   9.793  63.727  1.00  0.00    -0.270 A  
HETATM   19  C   UNL     1     -10.058   9.122  66.229  1.00  0.00    -0.319 A  
HETATM   20  C   UNL     1      -8.521   8.745  64.465  1.00  0.00    -0.158 A  
BRANCH  16  21
HETATM   21  N   UNL     1      -8.364   7.410  66.525  1.00  0.00    -0.119 NA 
HETATM   22  C   UNL     1      -7.679   6.250  65.923  1.00  0.00    -0.093 C  
HETATM   23  C   UNL     1      -6.395   5.974  66.704  1.00  0.00    -0.045 C  
HETATM   24  C   UNL     1      -6.685   5.773  68.194  1.00  0.00    -0.058 C  
HETATM   25  C   UNL     1      -8.767   7.158  67.911  1.00  0.00    -0.126 C  
HETATM   26  C   UNL     1      -7.497   6.960  68.725  1.00  0.00    -0.099 C  
BRANCH  24  27
HETATM   27  O   UNL     1      -7.407   4.536  68.325  1.00  0.00    -0.063 OA 
BRANCH  27  28
HETATM   28  C   UNL     1      -7.884   4.228  69.568  1.00  0.00    -0.057 A  
HETATM   29  C   UNL     1      -9.230   4.185  69.915  1.00  0.00    -0.211 A  
HETATM   30  C   UNL     1      -9.608   3.844  71.212  1.00  0.00    -0.241 A  
HETATM   31  C   UNL     1      -8.658   3.550  72.184  1.00  0.00    -0.087 A  
HETATM   32  C   UNL     1      -7.306   3.607  71.845  1.00  0.00    -0.055 A  
HETATM   33  C   UNL     1      -6.924   3.921  70.532  1.00  0.00    -0.034 A  
BRANCH  31  34
HETATM   34  O   UNL     1      -9.178   3.323  73.413  1.00  0.00    -0.092 OA 
HETATM   35  C   UNL     1     -10.307   2.480  73.561  1.00  0.00    -0.124 C  
HETATM   36  F   UNL     1     -10.000   1.488  74.427  1.00  0.00    -0.090 F  
HETATM   37  F   UNL     1     -10.753   1.930  72.415  1.00  0.00    -0.227 F  
HETATM   38  F   UNL     1     -11.316   3.205  74.098  1.00  0.00    -0.216 F  
ENDBRANCH  31  34
ENDBRANCH  27  28
ENDBRANCH  24  27
ENDBRANCH  16  21
ENDBRANCH  14  15
ENDBRANCH  13  14
ENDBRANCH   2  13
TORSDOF 7
ENDMDL
MODEL       70
REMARK 921   NORMALIZED FREE ENERGY PREDICTED BY IDOCK:   -5.16 KCAL/MOL
REMARK 922        TOTAL FREE ENERGY PREDICTED BY IDOCK:   -8.75 KCAL/MOL
REMARK 923 INTER-LIGAND FREE ENERGY PREDICTED BY IDOCK:   -7.61 KCAL/MOL
REMARK 924 INTRA-LIGAND FREE ENERGY PREDICTED BY IDOCK:   -1.14 KCAL/MOL
REMARK 927      BINDING AFFINITY PREDICTED BY RF-SCORE:    0.00 PKD
ROOT
HETATM    1  C   UNL     1     -10.673   5.404  67.389  1.00  0.00    -0.161 C  
HETATM    2  C   UNL     1      -9.599   5.133  68.440  1.00  0.00    -0.139 C  
HETATM    3  C   UNL     1     -10.002   5.017  70.629  1.00  0.00    -0.230 A  
HETATM    4  C   UNL     1      -9.543   3.635  68.845  1.00  0.00    -0.087 C  
HETATM    5  N   UNL     1      -9.790   3.740  70.259  1.00  0.00    -0.145 NA 
HETATM    6  O   UNL     1     -10.276   2.305  74.061  1.00  0.00    -0.101 OA 
HETATM    7  C   UNL     1      -9.877   2.933  71.327  1.00  0.00    -0.062 A  
HETATM    8  O   UNL     1      -9.943   5.899  69.647  1.00  0.00    -0.161 OA 
HETATM    9  O   UNL     1     -10.608   4.432  74.536  1.00  0.00    -0.256 OA 
HETATM   10  C   UNL     1     -10.152   3.828  72.360  1.00  0.00    -0.167 A  
HETATM   11  N   UNL     1     -10.226   5.147  71.904  1.00  0.00    -0.203 NA 
HETATM   12  N   UNL     1     -10.361   3.505  73.755  1.00  0.00    -0.144 N  
ENDROOT
BRANCH   2  13
HETATM   13  C   UNL     1      -8.231   5.626  67.972  1.00  0.00    -0.100 C  
BRANCH  13  14
HETATM   14  O   UNL     1      -7.802   6.751  68.741  1.00  0.00    -0.107 OA 
BRANCH  14  15
HETATM   15  C   UNL     1      -8.153   7.955  68.195  1.00  0.00    -0.123 A  
HETATM   16  C   UNL     1      -9.084  10.342  66.932  1.00  0.00    -0.143 A  
HETATM   17  C   UNL     1      -8.310   9.130  68.915  1.00  0.00    -0.124 A  
HETATM   18  C   UNL     1      -8.365   7.986  66.824  1.00  0.00    -0.116 A  
HETATM   19  C   UNL     1      -8.767  10.291  68.292  1.00  0.00    -0.126 A  
HETATM   20  C   UNL     1      -8.816   9.164  66.209  1.00  0.00    -0.176 A  
BRANCH  16  21
HETATM   21  N   UNL     1      -9.572  11.501  66.350  1.00  0.00    -0.203 NA 
HETATM   22  C   UNL     1      -9.762  11.640  64.893  1.00  0.00    -0.206 C  
HETATM   23  C   UNL     1     -11.091  12.347  64.633  1.00  0.00    -0.348 C  
HETATM   24  C   UNL     1     -11.155  13.692  65.361  1.00  0.00    -0.298 C  
HETATM   25  C   UNL     1      -9.491  12.799  67.024  1.00  0.00    -0.233 C  
HETATM   26  C   UNL     1     -10.835  13.489  66.847  1.00  0.00    -0.286 C  
BRANCH  24  27
HETATM   27  O   UNL     1     -10.203  14.566  64.730  1.00  0.00    -0.390 OA 
BRANCH  27  28
HETATM   28  C   UNL     1      -9.943  15.753  65.355  1.00  0.00    -0.237 A  
HETATM   29  C   UNL     1      -8.700  16.139  65.844  1.00  0.00    -0.126 A  
HETATM   30  C   UNL     1      -8.543  17.382  66.454  1.00  0.00    -0.282 A  
HETATM   31  C   UNL     1      -9.617  18.254  66.594  1.00  0.00    -0.315 A  
HETATM   32  C   UNL     1     -10.869  17.865  66.120  1.00  0.00     0.052 A  
HETATM   33  C   UNL     1     -11.024  16.627  65.479  1.00  0.00    -0.063 A  
BRANCH  31  34
HETATM   34  O   UNL     1      -9.325  19.382  67.284  1.00  0.00    -0.302 OA 
HETATM   35  C   UNL     1      -9.411  19.389  68.699  1.00  0.00    -0.390 C  
HETATM   36  F   UNL     1      -8.218  19.771  69.206  1.00  0.00    -0.348 F  
HETATM   37  F   UNL     1      -9.756  18.210  69.249  1.00  0.00    -0.248 F  
HETATM   38  F   UNL     1     -10.334  20.309  69.067  1.00  0.00    -0.517 F  
ENDBRANCH  31  34
ENDBRANCH  27  28
ENDBRANCH  24  27
ENDBRANCH  16  21
ENDBRANCH  14  15
ENDBRANCH  13  14
ENDBRANCH   2  13
TORSDOF 7
ENDMDL
MODEL       71
REMARK 921   NORMALIZED FREE ENERGY PREDICTED BY IDOCK:   -5.14 KCAL/MOL
REMARK 922        TOTAL FREE ENERGY PREDICTED BY IDOCK:   -8.73 KCAL/MOL
REMARK 923 INTER-LIGAND FREE ENERGY PREDICTED BY IDOCK:   -7.37 KCAL/MOL
REMARK 924 INTRA-LIGAND FREE ENERGY PREDICTED BY IDOCK:   -1.36 KCAL/MOL
REMARK 927      BINDING AFFINITY PREDICTED BY RF-SCORE:    0.00 PKD
ROOT
HETATM    1  C   UNL     1     -10.582  19.879  68.423  1.00  0.00    -0.236 C  
HETATM    2  C   UNL     1      -9.792  18.602  68.148  1.00  0.00    -0.354 C  
HETATM    3  C   UNL     1     -10.728  16.653  67.605  1.00  0.00    -0.306 A  
HETATM    4  C   UNL     1      -9.553  18.378  66.630  1.00  0.00    -0.320 C  
HETATM    5  N   UNL     1     -10.180  17.094  66.456  1.00  0.00    -0.316 NA 
HETATM    6  O   UNL     1     -11.364  13.794  64.345  1.00  0.00    -0.373 OA 
HETATM    7  C   UNL     1     -10.387  16.200  65.477  1.00  0.00    -0.367 A  
HETATM    8  O   UNL     1     -10.585  17.465  68.637  1.00  0.00    -0.357 OA 
HETATM    9  O   UNL     1     -12.217  13.188  66.285  1.00  0.00    -0.408 OA 
HETATM   10  C   UNL     1     -11.095  15.193  66.133  1.00  0.00    -0.311 A  
HETATM   11  N   UNL     1     -11.302  15.492  67.482  1.00  0.00    -0.282 NA 
HETATM   12  N   UNL     1     -11.597  13.968  65.551  1.00  0.00    -0.323 N  
ENDROOT
BRANCH   2  13
HETATM   13  C   UNL     1      -8.473  18.592  68.917  1.00  0.00    -0.175 C  
BRANCH  13  14
HETATM   14  O   UNL     1      -7.400  18.142  68.086  1.00  0.00    -0.236 OA 
BRANCH  14  15
HETATM   15  C   UNL     1      -7.115  16.813  68.231  1.00  0.00    -0.167 A  
HETATM   16  C   UNL     1      -6.781  13.992  68.536  1.00  0.00    -0.099 A  
HETATM   17  C   UNL     1      -6.221  16.108  67.437  1.00  0.00    -0.200 A  
HETATM   18  C   UNL     1      -7.775  16.134  69.245  1.00  0.00    -0.210 A  
HETATM   19  C   UNL     1      -6.065  14.732  67.590  1.00  0.00    -0.087 A  
HETATM   20  C   UNL     1      -7.601  14.749  69.394  1.00  0.00    -0.127 A  
BRANCH  16  21
HETATM   21  N   UNL     1      -6.631  12.618  68.639  1.00  0.00    -0.077 NA 
HETATM   22  C   UNL     1      -5.332  11.944  68.454  1.00  0.00    -0.045 C  
HETATM   23  C   UNL     1      -5.180  10.861  69.521  1.00  0.00    -0.038 C  
HETATM   24  C   UNL     1      -6.356   9.882  69.488  1.00  0.00    -0.047 C  
HETATM   25  C   UNL     1      -7.761  11.702  68.465  1.00  0.00    -0.134 C  
HETATM   26  C   UNL     1      -7.676  10.659  69.568  1.00  0.00    -0.113 C  
BRANCH  24  27
HETATM   27  O   UNL     1      -6.256   9.135  68.263  1.00  0.00    -0.052 OA 
BRANCH  27  28
HETATM   28  C   UNL     1      -7.189   8.158  68.056  1.00  0.00    -0.094 A  
HETATM   29  C   UNL     1      -7.361   7.038  68.863  1.00  0.00    -0.093 A  
HETATM   30  C   UNL     1      -8.355   6.109  68.568  1.00  0.00    -0.114 A  
HETATM   31  C   UNL     1      -9.188   6.272  67.465  1.00  0.00    -0.108 A  
HETATM   32  C   UNL     1      -9.009   7.385  66.644  1.00  0.00    -0.168 A  
HETATM   33  C   UNL     1      -8.028   8.338  66.956  1.00  0.00    -0.100 A  
BRANCH  31  34
HETATM   34  O   UNL     1     -10.044   5.242  67.263  1.00  0.00    -0.165 OA 
HETATM   35  C   UNL     1      -9.749   4.257  66.287  1.00  0.00    -0.213 C  
HETATM   36  F   UNL     1      -9.748   3.043  66.880  1.00  0.00    -0.171 F  
HETATM   37  F   UNL     1      -8.575   4.428  65.651  1.00  0.00    -0.114 F  
HETATM   38  F   UNL     1     -10.734   4.267  65.358  1.00  0.00    -0.267 F  
ENDBRANCH  31  34
ENDBRANCH  27  28
ENDBRANCH  24  27
ENDBRANCH  16  21
ENDBRANCH  14  15
ENDBRANCH  13  14
ENDBRANCH   2  13
TORSDOF 7
ENDMDL
MODEL       72
REMARK 921   NORMALIZED FREE ENERGY PREDICTED BY IDOCK:   -5.14 KCAL/MOL
REMARK 922        TOTAL FREE ENERGY PREDICTED BY IDOCK:   -8.73 KCAL/MOL
REMARK 923 INTER-LIGAND FREE ENERGY PREDICTED BY IDOCK:   -7.53 KCAL/MOL
REMARK 924 INTRA-LIGAND FREE ENERGY PREDICTED BY IDOCK:   -1.20 KCAL/MOL
REMARK 927      BINDING AFFINITY PREDICTED BY RF-SCORE:    0.00 PKD
ROOT
HETATM    1  C   UNL     1     -11.382   6.497  67.400  1.00  0.00    -0.116 C  
HETATM    2  C   UNL     1      -9.918   6.499  67.831  1.00  0.00    -0.131 C  
HETATM    3  C   UNL     1      -8.606   4.698  67.786  1.00  0.00    -0.103 A  
HETATM    4  C   UNL     1      -8.954   6.655  66.623  1.00  0.00    -0.142 C  
HETATM    5  N   UNL     1      -8.177   5.451  66.754  1.00  0.00    -0.108 NA 
HETATM    6  O   UNL     1      -5.235   2.798  65.728  1.00  0.00    -0.008 OA 
HETATM    7  C   UNL     1      -7.145   4.848  66.145  1.00  0.00    -0.072 A  
HETATM    8  O   UNL     1      -9.628   5.200  68.455  1.00  0.00    -0.126 OA 
HETATM    9  O   UNL     1      -6.033   1.660  67.439  1.00  0.00    -0.019 OA 
HETATM   10  C   UNL     1      -6.991   3.682  66.895  1.00  0.00    -0.055 A  
HETATM   11  N   UNL     1      -7.921   3.601  67.934  1.00  0.00    -0.079 NA 
HETATM   12  N   UNL     1      -6.018   2.634  66.677  1.00  0.00    -0.023 N  
ENDROOT
BRANCH   2  13
HETATM   13  C   UNL     1      -9.654   7.573  68.884  1.00  0.00    -0.149 C  
BRANCH  13  14
HETATM   14  O   UNL     1      -8.565   8.413  68.495  1.00  0.00    -0.134 OA 
BRANCH  14  15
HETATM   15  C   UNL     1      -8.908   9.731  68.367  1.00  0.00    -0.120 A  
HETATM   16  C   UNL     1      -9.762  12.456  68.324  1.00  0.00    -0.218 A  
HETATM   17  C   UNL     1      -8.007  10.759  68.128  1.00  0.00    -0.114 A  
HETATM   18  C   UNL     1     -10.254  10.045  68.490  1.00  0.00    -0.196 A  
HETATM   19  C   UNL     1      -8.431  12.086  68.110  1.00  0.00    -0.171 A  
HETATM   20  C   UNL     1     -10.667  11.387  68.461  1.00  0.00    -0.235 A  
BRANCH  16  21
HETATM   21  N   UNL     1     -10.146  13.787  68.339  1.00  0.00    -0.238 NA 
HETATM   22  C   UNL     1      -9.431  14.829  67.577  1.00  0.00    -0.197 C  
HETATM   23  C   UNL     1     -10.455  15.758  66.927  1.00  0.00    -0.315 C  
HETATM   24  C   UNL     1     -11.409  16.347  67.969  1.00  0.00    -0.157 C  
HETATM   25  C   UNL     1     -10.949  14.350  69.428  1.00  0.00    -0.231 C  
HETATM   26  C   UNL     1     -12.029  15.216  68.798  1.00  0.00    -0.280 C  
BRANCH  24  27
HETATM   27  O   UNL     1     -10.644  17.247  68.789  1.00  0.00    -0.338 OA 
BRANCH  27  28
HETATM   28  C   UNL     1      -9.866  18.164  68.141  1.00  0.00    -0.343 A  
HETATM   29  C   UNL     1     -10.316  19.035  67.154  1.00  0.00    -0.496 A  
HETATM   30  C   UNL     1      -9.437  19.942  66.567  1.00  0.00    -0.516 A  
HETATM   31  C   UNL     1      -8.100  19.994  66.944  1.00  0.00    -0.321 A  
HETATM   32  C   UNL     1      -7.639  19.113  67.921  1.00  0.00    -0.301 A  
HETATM   33  C   UNL     1      -8.528  18.218  68.535  1.00  0.00    -0.325 A  
BRANCH  31  34
HETATM   34  O   UNL     1      -7.356  20.866  66.222  1.00  0.00    -0.060 OA 
HETATM   35  C   UNL     1      -6.532  20.393  65.171  1.00  0.00    -0.284 C  
HETATM   36  F   UNL     1      -6.871  21.033  64.029  1.00  0.00    -0.322 F  
HETATM   37  F   UNL     1      -6.596  19.065  64.958  1.00  0.00    -0.304 F  
HETATM   38  F   UNL     1      -5.247  20.709  65.460  1.00  0.00    -0.189 F  
ENDBRANCH  31  34
ENDBRANCH  27  28
ENDBRANCH  24  27
ENDBRANCH  16  21
ENDBRANCH  14  15
ENDBRANCH  13  14
ENDBRANCH   2  13
TORSDOF 7
ENDMDL
MODEL       73
REMARK 921   NORMALIZED FREE ENERGY PREDICTED BY IDOCK:   -5.14 KCAL/MOL
REMARK 922        TOTAL FREE ENERGY PREDICTED BY IDOCK:   -8.72 KCAL/MOL
REMARK 923 INTER-LIGAND FREE ENERGY PREDICTED BY IDOCK:   -7.42 KCAL/MOL
REMARK 924 INTRA-LIGAND FREE ENERGY PREDICTED BY IDOCK:   -1.30 KCAL/MOL
REMARK 927      BINDING AFFINITY PREDICTED BY RF-SCORE:    0.00 PKD
ROOT
HETATM    1  C   UNL     1     -12.095   6.357  70.535  1.00  0.00    -0.094 C  
HETATM    2  C   UNL     1     -10.775   6.359  69.767  1.00  0.00    -0.283 C  
HETATM    3  C   UNL     1     -10.011   4.619  68.604  1.00  0.00    -0.070 A  
HETATM    4  C   UNL     1     -10.977   6.681  68.262  1.00  0.00    -0.244 C  
HETATM    5  N   UNL     1     -10.418   5.496  67.667  1.00  0.00    -0.208 NA 
HETATM    6  O   UNL     1      -9.292   3.072  64.567  1.00  0.00    -0.135 OA 
HETATM    7  C   UNL     1     -10.184   4.999  66.443  1.00  0.00    -0.273 A  
HETATM    8  O   UNL     1     -10.200   5.009  69.852  1.00  0.00    -0.259 OA 
HETATM    9  O   UNL     1      -8.669   1.725  66.197  1.00  0.00    -0.108 OA 
HETATM   10  C   UNL     1      -9.604   3.763  66.724  1.00  0.00    -0.180 A  
HETATM   11  N   UNL     1      -9.497   3.536  68.098  1.00  0.00    -0.178 NA 
HETATM   12  N   UNL     1      -9.153   2.778  65.765  1.00  0.00    -0.141 N  
ENDROOT
BRANCH   2  13
HETATM   13  C   UNL     1      -9.769   7.316  70.402  1.00  0.00    -0.172 C  
BRANCH  13  14
HETATM   14  O   UNL     1      -8.564   7.372  69.635  1.00  0.00    -0.135 OA 
BRANCH  14  15
HETATM   15  C   UNL     1      -8.037   8.630  69.533  1.00  0.00    -0.110 A  
HETATM   16  C   UNL     1      -7.168  11.349  69.411  1.00  0.00    -0.030 A  
HETATM   17  C   UNL     1      -6.798   9.008  70.031  1.00  0.00    -0.045 A  
HETATM   18  C   UNL     1      -8.808   9.584  68.884  1.00  0.00    -0.137 A  
HETATM   19  C   UNL     1      -6.382  10.337  69.970  1.00  0.00    -0.101 A  
HETATM   20  C   UNL     1      -8.371  10.917  68.822  1.00  0.00    -0.151 A  
BRANCH  16  21
HETATM   21  N   UNL     1      -6.742  12.667  69.399  1.00  0.00    -0.068 NA 
HETATM   22  C   UNL     1      -7.569  13.765  68.864  1.00  0.00    -0.040 C  
HETATM   23  C   UNL     1      -7.463  14.967  69.800  1.00  0.00    -0.102 C  
HETATM   24  C   UNL     1      -6.003  15.382  70.005  1.00  0.00    -0.146 C  
HETATM   25  C   UNL     1      -5.322  13.022  69.460  1.00  0.00    -0.079 C  
HETATM   26  C   UNL     1      -5.180  14.168  70.451  1.00  0.00    -0.101 C  
BRANCH  24  27
HETATM   27  O   UNL     1      -5.530  15.913  68.755  1.00  0.00    -0.101 OA 
BRANCH  27  28
HETATM   28  C   UNL     1      -6.219  16.970  68.231  1.00  0.00    -0.135 A  
HETATM   29  C   UNL     1      -6.455  18.171  68.891  1.00  0.00    -0.230 A  
HETATM   30  C   UNL     1      -7.160  19.191  68.256  1.00  0.00    -0.305 A  
HETATM   31  C   UNL     1      -7.647  19.033  66.963  1.00  0.00    -0.228 A  
HETATM   32  C   UNL     1      -7.426  17.824  66.303  1.00  0.00    -0.328 A  
HETATM   33  C   UNL     1      -6.691  16.806  66.929  1.00  0.00    -0.256 A  
BRANCH  31  34
HETATM   34  O   UNL     1      -8.384  20.078  66.518  1.00  0.00    -0.316 OA 
HETATM   35  C   UNL     1      -9.766  20.151  66.825  1.00  0.00    -0.443 C  
HETATM   36  F   UNL     1     -10.011  21.324  67.450  1.00  0.00    -0.576 F  
HETATM   37  F   UNL     1     -10.226  19.147  67.595  1.00  0.00    -0.362 F  
HETATM   38  F   UNL     1     -10.463  20.143  65.664  1.00  0.00    -0.543 F  
ENDBRANCH  31  34
ENDBRANCH  27  28
ENDBRANCH  24  27
ENDBRANCH  16  21
ENDBRANCH  14  15
ENDBRANCH  13  14
ENDBRANCH   2  13
TORSDOF 7
ENDMDL
MODEL       74
REMARK 921   NORMALIZED FREE ENERGY PREDICTED BY IDOCK:   -5.10 KCAL/MOL
REMARK 922        TOTAL FREE ENERGY PREDICTED BY IDOCK:   -8.67 KCAL/MOL
REMARK 923 INTER-LIGAND FREE ENERGY PREDICTED BY IDOCK:   -7.62 KCAL/MOL
REMARK 924 INTRA-LIGAND FREE ENERGY PREDICTED BY IDOCK:   -1.06 KCAL/MOL
REMARK 927      BINDING AFFINITY PREDICTED BY RF-SCORE:    0.00 PKD
ROOT
HETATM    1  C   UNL     1      -7.838   3.237  66.605  1.00  0.00    -0.080 C  
HETATM    2  C   UNL     1      -8.052   4.560  67.335  1.00  0.00    -0.101 C  
HETATM    3  C   UNL     1      -8.305   4.737  69.543  1.00  0.00    -0.082 A  
HETATM    4  C   UNL     1      -6.727   5.130  67.912  1.00  0.00    -0.055 C  
HETATM    5  N   UNL     1      -7.064   5.206  69.308  1.00  0.00    -0.055 NA 
HETATM    6  O   UNL     1      -6.383   6.057  73.253  1.00  0.00    -0.064 OA 
HETATM    7  C   UNL     1      -6.501   5.605  70.459  1.00  0.00    -0.035 A  
HETATM    8  O   UNL     1      -8.950   4.311  68.472  1.00  0.00    -0.101 OA 
HETATM    9  O   UNL     1      -8.424   5.263  73.502  1.00  0.00    -0.113 OA 
HETATM   10  C   UNL     1      -7.502   5.341  71.393  1.00  0.00    -0.095 A  
HETATM   11  N   UNL     1      -8.641   4.794  70.798  1.00  0.00    -0.103 NA 
HETATM   12  N   UNL     1      -7.438   5.568  72.820  1.00  0.00    -0.095 N  
ENDROOT
BRANCH   2  13
HETATM   13  C   UNL     1      -8.741   5.583  66.434  1.00  0.00    -0.123 C  
BRANCH  13  14
HETATM   14  O   UNL     1      -7.835   6.620  66.053  1.00  0.00    -0.096 OA 
BRANCH  14  15
HETATM   15  C   UNL     1      -8.417   7.856  65.979  1.00  0.00    -0.138 A  
HETATM   16  C   UNL     1      -9.659  10.426  66.088  1.00  0.00    -0.196 A  
HETATM   17  C   UNL     1      -7.882   8.938  65.295  1.00  0.00    -0.104 A  
HETATM   18  C   UNL     1      -9.625   8.023  66.640  1.00  0.00    -0.297 A  
HETATM   19  C   UNL     1      -8.492  10.190  65.355  1.00  0.00    -0.162 A  
HETATM   20  C   UNL     1     -10.234   9.288  66.684  1.00  0.00    -0.323 A  
BRANCH  16  21
HETATM   21  N   UNL     1     -10.221  11.691  66.159  1.00  0.00    -0.219 NA 
HETATM   22  C   UNL     1      -9.432  12.894  66.485  1.00  0.00    -0.251 C  
HETATM   23  C   UNL     1      -9.865  14.034  65.564  1.00  0.00    -0.229 C  
HETATM   24  C   UNL     1     -11.373  14.281  65.659  1.00  0.00    -0.317 C  
HETATM   25  C   UNL     1     -11.655  11.889  66.388  1.00  0.00    -0.243 C  
HETATM   26  C   UNL     1     -12.126  12.966  65.423  1.00  0.00    -0.501 C  
BRANCH  24  27
HETATM   27  O   UNL     1     -11.638  14.814  66.968  1.00  0.00    -0.362 OA 
BRANCH  27  28
HETATM   28  C   UNL     1     -10.976  15.959  67.315  1.00  0.00    -0.234 A  
HETATM   29  C   UNL     1     -10.532  16.264  68.597  1.00  0.00    -0.282 A  
HETATM   30  C   UNL     1      -9.854  17.457  68.837  1.00  0.00    -0.286 A  
HETATM   31  C   UNL     1      -9.613  18.366  67.812  1.00  0.00    -0.287 A  
HETATM   32  C   UNL     1     -10.071  18.072  66.528  1.00  0.00    -0.379 A  
HETATM   33  C   UNL     1     -10.728  16.858  66.277  1.00  0.00    -0.096 A  
BRANCH  31  34
HETATM   34  O   UNL     1      -9.022  19.514  68.220  1.00  0.00    -0.321 OA 
HETATM   35  C   UNL     1      -7.636  19.530  68.515  1.00  0.00    -0.343 C  
HETATM   36  F   UNL     1      -7.040  20.477  67.757  1.00  0.00    -0.301 F  
HETATM   37  F   UNL     1      -7.004  18.358  68.318  1.00  0.00    -0.221 F  
HETATM   38  F   UNL     1      -7.479  19.877  69.815  1.00  0.00    -0.328 F  
ENDBRANCH  31  34
ENDBRANCH  27  28
ENDBRANCH  24  27
ENDBRANCH  16  21
ENDBRANCH  14  15
ENDBRANCH  13  14
ENDBRANCH   2  13
TORSDOF 7
ENDMDL
MODEL       75
REMARK 921   NORMALIZED FREE ENERGY PREDICTED BY IDOCK:   -5.09 KCAL/MOL
REMARK 922        TOTAL FREE ENERGY PREDICTED BY IDOCK:   -8.65 KCAL/MOL
REMARK 923 INTER-LIGAND FREE ENERGY PREDICTED BY IDOCK:   -6.94 KCAL/MOL
REMARK 924 INTRA-LIGAND FREE ENERGY PREDICTED BY IDOCK:   -1.71 KCAL/MOL
REMARK 927      BINDING AFFINITY PREDICTED BY RF-SCORE:    0.00 PKD
ROOT
HETATM    1  C   UNL     1     -11.085  16.374  69.357  1.00  0.00    -0.300 C  
HETATM    2  C   UNL     1     -10.454  15.353  68.412  1.00  0.00    -0.239 C  
HETATM    3  C   UNL     1     -11.614  14.100  66.980  1.00  0.00    -0.382 A  
HETATM    4  C   UNL     1     -10.224  15.937  66.992  1.00  0.00    -0.283 C  
HETATM    5  N   UNL     1     -11.001  15.016  66.205  1.00  0.00    -0.332 NA 
HETATM    6  O   UNL     1     -12.550  13.475  62.745  1.00  0.00    -0.445 OA 
HETATM    7  C   UNL     1     -11.302  14.800  64.916  1.00  0.00    -0.410 A  
HETATM    8  O   UNL     1     -11.387  14.226  68.275  1.00  0.00    -0.262 OA 
HETATM    9  O   UNL     1     -13.498  12.038  64.122  1.00  0.00    -0.672 OA 
HETATM   10  C   UNL     1     -12.137  13.684  64.983  1.00  0.00    -0.392 A  
HETATM   11  N   UNL     1     -12.324  13.250  66.298  1.00  0.00    -0.365 NA 
HETATM   12  N   UNL     1     -12.778  13.013  63.874  1.00  0.00    -0.159 N  
ENDROOT
BRANCH   2  13
HETATM   13  C   UNL     1      -9.156  14.794  68.992  1.00  0.00    -0.136 C  
BRANCH  13  14
HETATM   14  O   UNL     1      -8.265  14.390  67.950  1.00  0.00    -0.136 OA 
BRANCH  14  15
HETATM   15  C   UNL     1      -7.958  13.057  67.978  1.00  0.00    -0.155 A  
HETATM   16  C   UNL     1      -7.364  10.281  68.297  1.00  0.00    -0.085 A  
HETATM   17  C   UNL     1      -8.499  12.107  67.123  1.00  0.00    -0.182 A  
HETATM   18  C   UNL     1      -7.043  12.642  68.934  1.00  0.00    -0.069 A  
HETATM   19  C   UNL     1      -8.206  10.754  67.286  1.00  0.00    -0.121 A  
HETATM   20  C   UNL     1      -6.750  11.276  69.081  1.00  0.00    -0.099 A  
BRANCH  16  21
HETATM   21  N   UNL     1      -7.122   8.926  68.457  1.00  0.00    -0.072 NA 
HETATM   22  C   UNL     1      -6.475   8.106  67.415  1.00  0.00    -0.057 C  
HETATM   23  C   UNL     1      -5.467   7.168  68.078  1.00  0.00    -0.021 C  
HETATM   24  C   UNL     1      -6.133   6.317  69.163  1.00  0.00    -0.029 C  
HETATM   25  C   UNL     1      -7.877   8.113  69.413  1.00  0.00    -0.105 C  
HETATM   26  C   UNL     1      -6.881   7.226  70.144  1.00  0.00    -0.059 C  
BRANCH  24  27
HETATM   27  O   UNL     1      -7.025   5.404  68.501  1.00  0.00    -0.057 OA 
BRANCH  27  28
HETATM   28  C   UNL     1      -7.751   4.563  69.297  1.00  0.00    -0.055 A  
HETATM   29  C   UNL     1      -9.133   4.413  69.246  1.00  0.00    -0.174 A  
HETATM   30  C   UNL     1      -9.772   3.514  70.097  1.00  0.00    -0.155 A  
HETATM   31  C   UNL     1      -9.051   2.758  71.015  1.00  0.00    -0.111 A  
HETATM   32  C   UNL     1      -7.667   2.916  71.082  1.00  0.00    -0.043 A  
HETATM   33  C   UNL     1      -7.018   3.799  70.206  1.00  0.00    -0.034 A  
BRANCH  31  34
HETATM   34  O   UNL     1      -9.822   1.997  71.828  1.00  0.00    -0.134 OA 
HETATM   35  C   UNL     1     -10.292   2.525  73.057  1.00  0.00    -0.148 C  
HETATM   36  F   UNL     1     -11.640   2.433  73.082  1.00  0.00    -0.242 F  
HETATM   37  F   UNL     1      -9.942   3.804  73.291  1.00  0.00    -0.136 F  
HETATM   38  F   UNL     1      -9.803   1.765  74.065  1.00  0.00    -0.087 F  
ENDBRANCH  31  34
ENDBRANCH  27  28
ENDBRANCH  24  27
ENDBRANCH  16  21
ENDBRANCH  14  15
ENDBRANCH  13  14
ENDBRANCH   2  13
TORSDOF 7
ENDMDL
MODEL       76
REMARK 921   NORMALIZED FREE ENERGY PREDICTED BY IDOCK:   -5.06 KCAL/MOL
REMARK 922        TOTAL FREE ENERGY PREDICTED BY IDOCK:   -8.61 KCAL/MOL
REMARK 923 INTER-LIGAND FREE ENERGY PREDICTED BY IDOCK:   -7.00 KCAL/MOL
REMARK 924 INTRA-LIGAND FREE ENERGY PREDICTED BY IDOCK:   -1.61 KCAL/MOL
REMARK 927      BINDING AFFINITY PREDICTED BY RF-SCORE:    0.00 PKD
ROOT
HETATM    1  C   UNL     1      -8.661   1.535  67.515  1.00  0.00    -0.123 C  
HETATM    2  C   UNL     1      -8.344   3.013  67.728  1.00  0.00    -0.081 C  
HETATM    3  C   UNL     1      -8.323   4.006  69.723  1.00  0.00    -0.060 A  
HETATM    4  C   UNL     1      -6.859   3.242  68.118  1.00  0.00    -0.049 C  
HETATM    5  N   UNL     1      -7.022   3.900  69.386  1.00  0.00    -0.045 NA 
HETATM    6  O   UNL     1      -5.740   5.745  72.807  1.00  0.00    -0.029 OA 
HETATM    7  C   UNL     1      -6.256   4.442  70.345  1.00  0.00    -0.019 A  
HETATM    8  O   UNL     1      -9.168   3.496  68.845  1.00  0.00    -0.136 OA 
HETATM    9  O   UNL     1      -7.899   5.852  73.242  1.00  0.00    -0.104 OA 
HETATM   10  C   UNL     1      -7.199   4.880  71.274  1.00  0.00    -0.060 A  
HETATM   11  N   UNL     1      -8.505   4.600  70.866  1.00  0.00    -0.096 NA 
HETATM   12  N   UNL     1      -6.933   5.541  72.534  1.00  0.00    -0.080 N  
ENDROOT
BRANCH   2  13
HETATM   13  C   UNL     1      -8.722   3.841  66.501  1.00  0.00    -0.118 C  
BRANCH  13  14
HETATM   14  O   UNL     1      -7.694   4.781  66.183  1.00  0.00    -0.090 OA 
BRANCH  14  15
HETATM   15  C   UNL     1      -8.027   6.076  66.472  1.00  0.00    -0.105 A  
HETATM   16  C   UNL     1      -8.933   8.684  67.204  1.00  0.00    -0.132 A  
HETATM   17  C   UNL     1      -7.154   7.012  67.009  1.00  0.00    -0.079 A  
HETATM   18  C   UNL     1      -9.332   6.464  66.207  1.00  0.00    -0.149 A  
HETATM   19  C   UNL     1      -7.604   8.282  67.365  1.00  0.00    -0.098 A  
HETATM   20  C   UNL     1      -9.769   7.750  66.562  1.00  0.00    -0.265 A  
BRANCH  16  21
HETATM   21  N   UNL     1      -9.359   9.941  67.603  1.00  0.00    -0.140 NA 
HETATM   22  C   UNL     1      -9.357  11.106  66.697  1.00  0.00    -0.177 C  
HETATM   23  C   UNL     1     -10.651  11.892  66.900  1.00  0.00    -0.264 C  
HETATM   24  C   UNL     1     -10.832  12.293  68.367  1.00  0.00    -0.230 C  
HETATM   25  C   UNL     1      -9.388  10.336  69.014  1.00  0.00    -0.189 C  
HETATM   26  C   UNL     1     -10.707  11.053  69.259  1.00  0.00    -0.263 C  
BRANCH  24  27
HETATM   27  O   UNL     1      -9.819  13.268  68.671  1.00  0.00    -0.191 OA 
BRANCH  27  28
HETATM   28  C   UNL     1     -10.082  14.563  68.324  1.00  0.00    -0.232 A  
HETATM   29  C   UNL     1      -9.892  15.101  67.056  1.00  0.00    -0.233 A  
HETATM   30  C   UNL     1     -10.208  16.435  66.807  1.00  0.00    -0.285 A  
HETATM   31  C   UNL     1     -10.708  17.255  67.813  1.00  0.00    -0.333 A  
HETATM   32  C   UNL     1     -10.885  16.724  69.091  1.00  0.00    -0.287 A  
HETATM   33  C   UNL     1     -10.596  15.374  69.337  1.00  0.00    -0.251 A  
BRANCH  31  34
HETATM   34  O   UNL     1     -10.882  18.544  67.438  1.00  0.00    -0.421 OA 
HETATM   35  C   UNL     1      -9.822  19.474  67.583  1.00  0.00    -0.364 C  
HETATM   36  F   UNL     1      -9.567  20.034  66.380  1.00  0.00    -0.418 F  
HETATM   37  F   UNL     1      -8.679  18.954  68.068  1.00  0.00    -0.289 F  
HETATM   38  F   UNL     1     -10.225  20.456  68.423  1.00  0.00    -0.511 F  
ENDBRANCH  31  34
ENDBRANCH  27  28
ENDBRANCH  24  27
ENDBRANCH  16  21
ENDBRANCH  14  15
ENDBRANCH  13  14
ENDBRANCH   2  13
TORSDOF 7
ENDMDL
MODEL       77
REMARK 921   NORMALIZED FREE ENERGY PREDICTED BY IDOCK:   -5.03 KCAL/MOL
REMARK 922        TOTAL FREE ENERGY PREDICTED BY IDOCK:   -8.57 KCAL/MOL
REMARK 923 INTER-LIGAND FREE ENERGY PREDICTED BY IDOCK:   -6.97 KCAL/MOL
REMARK 924 INTRA-LIGAND FREE ENERGY PREDICTED BY IDOCK:   -1.60 KCAL/MOL
REMARK 927      BINDING AFFINITY PREDICTED BY RF-SCORE:    0.00 PKD
ROOT
HETATM    1  C   UNL     1      -8.862   2.471  68.856  1.00  0.00    -0.150 C  
HETATM    2  C   UNL     1      -9.037   3.918  68.401  1.00  0.00    -0.138 C  
HETATM    3  C   UNL     1      -7.559   5.013  67.142  1.00  0.00    -0.088 A  
HETATM    4  C   UNL     1      -9.626   4.011  66.967  1.00  0.00    -0.201 C  
HETATM    5  N   UNL     1      -8.585   4.754  66.307  1.00  0.00    -0.113 NA 
HETATM    6  O   UNL     1      -6.802   6.643  63.145  1.00  0.00    -0.043 OA 
HETATM    7  C   UNL     1      -8.328   5.265  65.094  1.00  0.00    -0.145 A  
HETATM    8  O   UNL     1      -7.708   4.546  68.368  1.00  0.00    -0.078 OA 
HETATM    9  O   UNL     1      -5.192   6.999  64.608  1.00  0.00    -0.027 OA 
HETATM   10  C   UNL     1      -7.075   5.851  65.272  1.00  0.00    -0.065 A  
HETATM   11  N   UNL     1      -6.601   5.686  66.575  1.00  0.00    -0.054 NA 
HETATM   12  N   UNL     1      -6.295   6.549  64.274  1.00  0.00    -0.037 N  
ENDROOT
BRANCH   2  13
HETATM   13  C   UNL     1      -9.884   4.711  69.393  1.00  0.00    -0.202 C  
BRANCH  13  14
HETATM   14  O   UNL     1      -9.083   5.650  70.113  1.00  0.00    -0.135 OA 
BRANCH  14  15
HETATM   15  C   UNL     1      -9.257   6.944  69.706  1.00  0.00    -0.147 A  
HETATM   16  C   UNL     1      -9.866   9.633  68.958  1.00  0.00    -0.182 A  
HETATM   17  C   UNL     1      -8.366   7.977  69.960  1.00  0.00    -0.123 A  
HETATM   18  C   UNL     1     -10.412   7.229  68.991  1.00  0.00    -0.219 A  
HETATM   19  C   UNL     1      -8.670   9.287  69.594  1.00  0.00    -0.155 A  
HETATM   20  C   UNL     1     -10.702   8.552  68.621  1.00  0.00    -0.082 A  
BRANCH  16  21
HETATM   21  N   UNL     1     -10.157  10.951  68.640  1.00  0.00    -0.183 NA 
HETATM   22  C   UNL     1      -9.110  11.942  68.325  1.00  0.00    -0.183 C  
HETATM   23  C   UNL     1      -9.569  12.784  67.136  1.00  0.00    -0.219 C  
HETATM   24  C   UNL     1     -10.927  13.435  67.409  1.00  0.00    -0.272 C  
HETATM   25  C   UNL     1     -11.417  11.583  69.040  1.00  0.00    -0.291 C  
HETATM   26  C   UNL     1     -11.935  12.364  67.842  1.00  0.00    -0.260 C  
BRANCH  24  27
HETATM   27  O   UNL     1     -10.729  14.422  68.437  1.00  0.00    -0.234 OA 
BRANCH  27  28
HETATM   28  C   UNL     1      -9.963  15.506  68.114  1.00  0.00    -0.217 A  
HETATM   29  C   UNL     1      -8.748  15.827  68.711  1.00  0.00    -0.203 A  
HETATM   30  C   UNL     1      -8.040  16.952  68.294  1.00  0.00    -0.217 A  
HETATM   31  C   UNL     1      -8.528  17.777  67.286  1.00  0.00    -0.231 A  
HETATM   32  C   UNL     1      -9.753  17.467  66.695  1.00  0.00    -0.303 A  
HETATM   33  C   UNL     1     -10.454  16.319  67.092  1.00  0.00    -0.297 A  
BRANCH  31  34
HETATM   34  O   UNL     1      -7.770  18.875  67.055  1.00  0.00    -0.225 OA 
HETATM   35  C   UNL     1      -7.971  20.049  67.824  1.00  0.00    -0.289 C  
HETATM   36  F   UNL     1      -6.801  20.392  68.408  1.00  0.00    -0.314 F  
HETATM   37  F   UNL     1      -8.916  19.943  68.777  1.00  0.00    -0.346 F  
HETATM   38  F   UNL     1      -8.330  21.051  66.987  1.00  0.00    -0.299 F  
ENDBRANCH  31  34
ENDBRANCH  27  28
ENDBRANCH  24  27
ENDBRANCH  16  21
ENDBRANCH  14  15
ENDBRANCH  13  14
ENDBRANCH   2  13
TORSDOF 7
ENDMDL
MODEL       78
REMARK 921   NORMALIZED FREE ENERGY PREDICTED BY IDOCK:   -5.02 KCAL/MOL
REMARK 922        TOTAL FREE ENERGY PREDICTED BY IDOCK:   -8.56 KCAL/MOL
REMARK 923 INTER-LIGAND FREE ENERGY PREDICTED BY IDOCK:   -7.96 KCAL/MOL
REMARK 924 INTRA-LIGAND FREE ENERGY PREDICTED BY IDOCK:   -0.60 KCAL/MOL
REMARK 927      BINDING AFFINITY PREDICTED BY RF-SCORE:    0.00 PKD
ROOT
HETATM    1  C   UNL     1     -10.707   4.441  74.427  1.00  0.00    -0.216 C  
HETATM    2  C   UNL     1     -10.560   4.974  73.004  1.00  0.00    -0.225 C  
HETATM    3  C   UNL     1     -11.742   6.678  72.187  1.00  0.00    -0.304 A  
HETATM    4  C   UNL     1      -9.616   6.205  72.937  1.00  0.00    -0.154 C  
HETATM    5  N   UNL     1     -10.507   7.185  72.375  1.00  0.00    -0.210 NA 
HETATM    6  O   UNL     1     -11.543  10.874  70.938  1.00  0.00    -0.271 OA 
HETATM    7  C   UNL     1     -10.475   8.467  71.982  1.00  0.00    -0.336 A  
HETATM    8  O   UNL     1     -11.886   5.416  72.547  1.00  0.00    -0.207 OA 
HETATM    9  O   UNL     1     -13.517   9.927  70.683  1.00  0.00    -0.232 OA 
HETATM   10  C   UNL     1     -11.781   8.683  71.544  1.00  0.00    -0.305 A  
HETATM   11  N   UNL     1     -12.573   7.540  71.676  1.00  0.00    -0.336 NA 
HETATM   12  N   UNL     1     -12.325   9.914  71.015  1.00  0.00    -0.336 N  
ENDROOT
BRANCH   2  13
HETATM   13  C   UNL     1     -10.098   3.877  72.048  1.00  0.00    -0.149 C  
BRANCH  13  14
HETATM   14  O   UNL     1      -8.681   3.920  71.867  1.00  0.00    -0.093 OA 
BRANCH  14  15
HETATM   15  C   UNL     1      -8.294   4.574  70.729  1.00  0.00    -0.087 A  
HETATM   16  C   UNL     1      -7.722   6.059  68.358  1.00  0.00    -0.099 A  
HETATM   17  C   UNL     1      -7.085   5.236  70.575  1.00  0.00    -0.061 A  
HETATM   18  C   UNL     1      -9.185   4.567  69.666  1.00  0.00    -0.195 A  
HETATM   19  C   UNL     1      -6.813   5.960  69.415  1.00  0.00    -0.062 A  
HETATM   20  C   UNL     1      -8.894   5.294  68.500  1.00  0.00    -0.102 A  
BRANCH  16  21
HETATM   21  N   UNL     1      -7.438   6.819  67.234  1.00  0.00    -0.094 NA 
HETATM   22  C   UNL     1      -6.089   7.345  66.950  1.00  0.00    -0.046 C  
HETATM   23  C   UNL     1      -5.791   7.165  65.462  1.00  0.00    -0.036 C  
HETATM   24  C   UNL     1      -6.869   7.825  64.598  1.00  0.00    -0.054 C  
HETATM   25  C   UNL     1      -8.481   7.550  66.510  1.00  0.00    -0.131 C  
HETATM   26  C   UNL     1      -8.252   7.318  65.024  1.00  0.00    -0.100 C  
BRANCH  24  27
HETATM   27  O   UNL     1      -6.748   9.247  64.774  1.00  0.00    -0.077 OA 
BRANCH  27  28
HETATM   28  C   UNL     1      -7.789  10.015  64.335  1.00  0.00    -0.144 A  
HETATM   29  C   UNL     1      -8.143  10.187  63.001  1.00  0.00    -0.152 A  
HETATM   30  C   UNL     1      -9.235  10.984  62.664  1.00  0.00    -0.363 A  
HETATM   31  C   UNL     1      -9.985  11.628  63.643  1.00  0.00    -0.379 A  
HETATM   32  C   UNL     1      -9.624  11.471  64.981  1.00  0.00    -0.222 A  
HETATM   33  C   UNL     1      -8.543  10.645  65.325  1.00  0.00    -0.175 A  
BRANCH  31  34
HETATM   34  O   UNL     1     -10.956  12.434  63.152  1.00  0.00    -0.374 OA 
HETATM   35  C   UNL     1     -12.238  12.447  63.758  1.00  0.00    -0.533 C  
HETATM   36  F   UNL     1     -12.533  13.714  64.124  1.00  0.00    -0.421 F  
HETATM   37  F   UNL     1     -12.361  11.647  64.834  1.00  0.00    -0.177 F  
HETATM   38  F   UNL     1     -13.150  12.055  62.838  1.00  0.00    -0.499 F  
ENDBRANCH  31  34
ENDBRANCH  27  28
ENDBRANCH  24  27
ENDBRANCH  16  21
ENDBRANCH  14  15
ENDBRANCH  13  14
ENDBRANCH   2  13
TORSDOF 7
ENDMDL
MODEL       79
REMARK 921   NORMALIZED FREE ENERGY PREDICTED BY IDOCK:   -4.98 KCAL/MOL
REMARK 922        TOTAL FREE ENERGY PREDICTED BY IDOCK:   -8.49 KCAL/MOL
REMARK 923 INTER-LIGAND FREE ENERGY PREDICTED BY IDOCK:   -8.97 KCAL/MOL
REMARK 924 INTRA-LIGAND FREE ENERGY PREDICTED BY IDOCK:    0.47 KCAL/MOL
REMARK 927      BINDING AFFINITY PREDICTED BY RF-SCORE:    0.00 PKD
ROOT
HETATM    1  C   UNL     1     -11.684  15.976  69.380  1.00  0.00    -0.287 C  
HETATM    2  C   UNL     1     -10.720  16.200  68.218  1.00  0.00    -0.307 C  
HETATM    3  C   UNL     1      -9.619  18.105  67.865  1.00  0.00    -0.288 A  
HETATM    4  C   UNL     1      -9.242  15.967  68.632  1.00  0.00    -0.216 C  
HETATM    5  N   UNL     1      -8.680  17.254  68.321  1.00  0.00    -0.243 NA 
HETATM    6  O   UNL     1      -5.683  20.025  68.019  1.00  0.00    -0.197 OA 
HETATM    7  C   UNL     1      -7.486  17.866  68.355  1.00  0.00    -0.272 A  
HETATM    8  O   UNL     1     -10.839  17.603  67.795  1.00  0.00    -0.367 OA 
HETATM    9  O   UNL     1      -7.312  21.317  67.289  1.00  0.00    -0.484 OA 
HETATM   10  C   UNL     1      -7.787  19.143  67.881  1.00  0.00    -0.285 A  
HETATM   11  N   UNL     1      -9.142  19.280  67.571  1.00  0.00    -0.293 NA 
HETATM   12  N   UNL     1      -6.866  20.245  67.715  1.00  0.00    -0.274 N  
ENDROOT
BRANCH   2  13
HETATM   13  C   UNL     1     -11.095  15.336  67.016  1.00  0.00    -0.305 C  
BRANCH  13  14
HETATM   14  O   UNL     1     -10.085  14.358  66.756  1.00  0.00    -0.257 OA 
BRANCH  14  15
HETATM   15  C   UNL     1     -10.288  13.173  67.409  1.00  0.00    -0.239 A  
HETATM   16  C   UNL     1     -10.523  10.775  68.942  1.00  0.00    -0.205 A  
HETATM   17  C   UNL     1     -11.530  12.691  67.797  1.00  0.00    -0.375 A  
HETATM   18  C   UNL     1      -9.164  12.413  67.697  1.00  0.00    -0.185 A  
HETATM   19  C   UNL     1     -11.637  11.521  68.546  1.00  0.00    -0.377 A  
HETATM   20  C   UNL     1      -9.288  11.232  68.446  1.00  0.00    -0.181 A  
BRANCH  16  21
HETATM   21  N   UNL     1     -10.659   9.636  69.719  1.00  0.00    -0.227 NA 
HETATM   22  C   UNL     1      -9.895   8.400  69.461  1.00  0.00    -0.181 C  
HETATM   23  C   UNL     1      -9.412   7.830  70.793  1.00  0.00    -0.163 C  
HETATM   24  C   UNL     1     -10.580   7.603  71.756  1.00  0.00    -0.214 C  
HETATM   25  C   UNL     1     -11.858   9.388  70.525  1.00  0.00    -0.151 C  
HETATM   26  C   UNL     1     -11.397   8.894  71.888  1.00  0.00    -0.446 C  
BRANCH  24  27
HETATM   27  O   UNL     1     -11.372   6.528  71.221  1.00  0.00    -0.276 OA 
BRANCH  27  28
HETATM   28  C   UNL     1     -10.792   5.752  70.258  1.00  0.00    -0.303 A  
HETATM   29  C   UNL     1      -9.835   4.771  70.497  1.00  0.00    -0.301 A  
HETATM   30  C   UNL     1      -9.317   4.026  69.439  1.00  0.00    -0.243 A  
HETATM   31  C   UNL     1      -9.736   4.247  68.131  1.00  0.00    -0.102 A  
HETATM   32  C   UNL     1     -10.684   5.240  67.885  1.00  0.00    -0.008 A  
HETATM   33  C   UNL     1     -11.228   5.972  68.951  1.00  0.00    -0.246 A  
BRANCH  31  34
HETATM   34  O   UNL     1      -9.078   3.505  67.209  1.00  0.00    -0.141 OA 
HETATM   35  C   UNL     1      -7.934   4.033  66.560  1.00  0.00    -0.097 C  
HETATM   36  F   UNL     1      -6.896   3.190  66.754  1.00  0.00    -0.047 F  
HETATM   37  F   UNL     1      -7.573   5.265  66.968  1.00  0.00    -0.086 F  
HETATM   38  F   UNL     1      -8.184   4.089  65.230  1.00  0.00    -0.098 F  
ENDBRANCH  31  34
ENDBRANCH  27  28
ENDBRANCH  24  27
ENDBRANCH  16  21
ENDBRANCH  14  15
ENDBRANCH  13  14
ENDBRANCH   2  13
TORSDOF 7
ENDMDL
MODEL       80
REMARK 921   NORMALIZED FREE ENERGY PREDICTED BY IDOCK:   -4.97 KCAL/MOL
REMARK 922        TOTAL FREE ENERGY PREDICTED BY IDOCK:   -8.48 KCAL/MOL
REMARK 923 INTER-LIGAND FREE ENERGY PREDICTED BY IDOCK:   -6.79 KCAL/MOL
REMARK 924 INTRA-LIGAND FREE ENERGY PREDICTED BY IDOCK:   -1.69 KCAL/MOL
REMARK 927      BINDING AFFINITY PREDICTED BY RF-SCORE:    0.00 PKD
ROOT
HETATM    1  C   UNL     1     -10.858  17.242  69.712  1.00  0.00     0.382 C  
HETATM    2  C   UNL     1     -10.237  16.127  68.874  1.00  0.00    -0.245 C  
HETATM    3  C   UNL     1     -11.406  14.764  67.554  1.00  0.00    -0.344 A  
HETATM    4  C   UNL     1      -9.985  16.571  67.407  1.00  0.00    -0.267 C  
HETATM    5  N   UNL     1     -10.771  15.593  66.703  1.00  0.00    -0.308 NA 
HETATM    6  O   UNL     1     -12.319  13.760  63.387  1.00  0.00    -0.750 OA 
HETATM    7  C   UNL     1     -11.066  15.262  65.436  1.00  0.00    -0.347 A  
HETATM    8  O   UNL     1     -11.187  15.007  68.834  1.00  0.00    -0.249 OA 
HETATM    9  O   UNL     1     -13.302  12.474  64.884  1.00  0.00    -0.702 OA 
HETATM   10  C   UNL     1     -11.920  14.172  65.600  1.00  0.00    -0.396 A  
HETATM   11  N   UNL     1     -12.125  13.865  66.947  1.00  0.00    -0.436 NA 
HETATM   12  N   UNL     1     -12.563  13.409  64.552  1.00  0.00    -0.276 N  
ENDROOT
BRANCH   2  13
HETATM   13  C   UNL     1      -8.953  15.604  69.515  1.00  0.00    -0.231 C  
BRANCH  13  14
HETATM   14  O   UNL     1      -7.939  15.393  68.530  1.00  0.00    -0.130 OA 
BRANCH  14  15
HETATM   15  C   UNL     1      -7.694  14.073  68.271  1.00  0.00    -0.141 A  
HETATM   16  C   UNL     1      -7.239  11.267  67.983  1.00  0.00    -0.079 A  
HETATM   17  C   UNL     1      -8.228  13.368  67.202  1.00  0.00    -0.121 A  
HETATM   18  C   UNL     1      -6.851  13.406  69.148  1.00  0.00    -0.076 A  
HETATM   19  C   UNL     1      -8.004  11.999  67.069  1.00  0.00    -0.150 A  
HETATM   20  C   UNL     1      -6.626  12.028  68.996  1.00  0.00    -0.092 A  
BRANCH  16  21
HETATM   21  N   UNL     1      -7.066   9.900  67.844  1.00  0.00    -0.085 NA 
HETATM   22  C   UNL     1      -5.774   9.232  68.094  1.00  0.00    -0.038 C  
HETATM   23  C   UNL     1      -6.027   7.938  68.865  1.00  0.00    -0.038 C  
HETATM   24  C   UNL     1      -7.016   7.035  68.124  1.00  0.00    -0.080 C  
HETATM   25  C   UNL     1      -7.957   9.087  67.012  1.00  0.00    -0.102 C  
HETATM   26  C   UNL     1      -8.288   7.826  67.795  1.00  0.00    -0.125 C  
BRANCH  24  27
HETATM   27  O   UNL     1      -6.360   6.570  66.932  1.00  0.00    -0.038 OA 
BRANCH  27  28
HETATM   28  C   UNL     1      -7.101   5.807  66.075  1.00  0.00    -0.071 A  
HETATM   29  C   UNL     1      -7.415   6.156  64.766  1.00  0.00    -0.084 A  
HETATM   30  C   UNL     1      -8.169   5.294  63.972  1.00  0.00    -0.131 A  
HETATM   31  C   UNL     1      -8.628   4.079  64.468  1.00  0.00    -0.110 A  
HETATM   32  C   UNL     1      -8.330   3.731  65.785  1.00  0.00    -0.105 A  
HETATM   33  C   UNL     1      -7.547   4.583  66.577  1.00  0.00    -0.090 A  
BRANCH  31  34
HETATM   34  O   UNL     1      -9.419   3.395  63.606  1.00  0.00    -0.112 OA 
HETATM   35  C   UNL     1     -10.823   3.582  63.633  1.00  0.00    -0.204 C  
HETATM   36  F   UNL     1     -11.236   3.958  62.402  1.00  0.00    -0.140 F  
HETATM   37  F   UNL     1     -11.254   4.490  64.529  1.00  0.00    -0.209 F  
HETATM   38  F   UNL     1     -11.408   2.396  63.924  1.00  0.00    -0.072 F  
ENDBRANCH  31  34
ENDBRANCH  27  28
ENDBRANCH  24  27
ENDBRANCH  16  21
ENDBRANCH  14  15
ENDBRANCH  13  14
ENDBRANCH   2  13
TORSDOF 7
ENDMDL
MODEL       81
REMARK 921   NORMALIZED FREE ENERGY PREDICTED BY IDOCK:   -4.94 KCAL/MOL
REMARK 922        TOTAL FREE ENERGY PREDICTED BY IDOCK:   -8.44 KCAL/MOL
REMARK 923 INTER-LIGAND FREE ENERGY PREDICTED BY IDOCK:   -7.86 KCAL/MOL
REMARK 924 INTRA-LIGAND FREE ENERGY PREDICTED BY IDOCK:   -0.58 KCAL/MOL
REMARK 927      BINDING AFFINITY PREDICTED BY RF-SCORE:    0.00 PKD
ROOT
HETATM    1  C   UNL     1      -8.404   1.633  68.608  1.00  0.00    -0.073 C  
HETATM    2  C   UNL     1      -8.171   3.065  69.085  1.00  0.00    -0.059 C  
HETATM    3  C   UNL     1      -9.807   4.522  69.490  1.00  0.00    -0.207 A  
HETATM    4  C   UNL     1      -8.306   3.196  70.626  1.00  0.00    -0.056 C  
HETATM    5  N   UNL     1      -9.360   4.172  70.712  1.00  0.00    -0.138 NA 
HETATM    6  O   UNL     1     -11.979   6.651  72.646  1.00  0.00    -0.114 OA 
HETATM    7  C   UNL     1     -10.039   4.839  71.657  1.00  0.00    -0.194 A  
HETATM    8  O   UNL     1      -9.206   3.917  68.482  1.00  0.00    -0.131 OA 
HETATM    9  O   UNL     1     -12.621   7.137  70.594  1.00  0.00    -0.222 OA 
HETATM   10  C   UNL     1     -10.920   5.615  70.905  1.00  0.00    -0.187 A  
HETATM   11  N   UNL     1     -10.761   5.407  69.533  1.00  0.00    -0.259 NA 
HETATM   12  N   UNL     1     -11.914   6.536  71.412  1.00  0.00    -0.336 N  
ENDROOT
BRANCH   2  13
HETATM   13  C   UNL     1      -6.820   3.593  68.607  1.00  0.00    -0.046 C  
BRANCH  13  14
HETATM   14  O   UNL     1      -6.424   4.740  69.362  1.00  0.00    -0.033 OA 
BRANCH  14  15
HETATM   15  C   UNL     1      -6.896   5.920  68.856  1.00  0.00    -0.066 A  
HETATM   16  C   UNL     1      -8.024   8.239  67.628  1.00  0.00    -0.118 A  
HETATM   17  C   UNL     1      -7.411   6.955  69.622  1.00  0.00    -0.099 A  
HETATM   18  C   UNL     1      -6.851   6.075  67.478  1.00  0.00    -0.063 A  
HETATM   19  C   UNL     1      -7.962   8.083  69.016  1.00  0.00    -0.114 A  
HETATM   20  C   UNL     1      -7.401   7.221  66.881  1.00  0.00    -0.092 A  
BRANCH  16  21
HETATM   21  N   UNL     1      -8.613   9.355  67.055  1.00  0.00    -0.127 NA 
HETATM   22  C   UNL     1      -8.188  10.731  67.375  1.00  0.00    -0.116 C  
HETATM   23  C   UNL     1      -8.137  11.546  66.084  1.00  0.00     0.054 C  
HETATM   24  C   UNL     1      -9.479  11.506  65.350  1.00  0.00    -0.198 C  
HETATM   25  C   UNL     1      -9.961   9.311  66.481  1.00  0.00    -0.274 C  
HETATM   26  C   UNL     1      -9.915  10.049  65.152  1.00  0.00    -0.350 C  
BRANCH  24  27
HETATM   27  O   UNL     1     -10.425  12.238  66.148  1.00  0.00    -0.232 OA 
BRANCH  27  28
HETATM   28  C   UNL     1     -10.491  13.588  65.947  1.00  0.00    -0.292 A  
HETATM   29  C   UNL     1     -11.158  14.203  64.893  1.00  0.00    -0.389 A  
HETATM   30  C   UNL     1     -11.173  15.593  64.791  1.00  0.00    -0.391 A  
HETATM   31  C   UNL     1     -10.522  16.390  65.727  1.00  0.00    -0.354 A  
HETATM   32  C   UNL     1      -9.839  15.776  66.777  1.00  0.00    -0.256 A  
HETATM   33  C   UNL     1      -9.846  14.379  66.899  1.00  0.00    -0.263 A  
BRANCH  31  34
HETATM   34  O   UNL     1     -10.555  17.713  65.443  1.00  0.00    -0.657 OA 
HETATM   35  C   UNL     1     -10.218  18.661  66.442  1.00  0.00    -0.425 C  
HETATM   36  F   UNL     1      -9.214  19.440  65.982  1.00  0.00    -0.349 F  
HETATM   37  F   UNL     1      -9.847  18.128  67.621  1.00  0.00    -0.281 F  
HETATM   38  F   UNL     1     -11.295  19.453  66.660  1.00  0.00    -0.357 F  
ENDBRANCH  31  34
ENDBRANCH  27  28
ENDBRANCH  24  27
ENDBRANCH  16  21
ENDBRANCH  14  15
ENDBRANCH  13  14
ENDBRANCH   2  13
TORSDOF 7
ENDMDL
MODEL       82
REMARK 921   NORMALIZED FREE ENERGY PREDICTED BY IDOCK:   -4.88 KCAL/MOL
REMARK 922        TOTAL FREE ENERGY PREDICTED BY IDOCK:   -8.36 KCAL/MOL
REMARK 923 INTER-LIGAND FREE ENERGY PREDICTED BY IDOCK:   -7.30 KCAL/MOL
REMARK 924 INTRA-LIGAND FREE ENERGY PREDICTED BY IDOCK:   -1.07 KCAL/MOL
REMARK 927      BINDING AFFINITY PREDICTED BY RF-SCORE:    0.00 PKD
ROOT
HETATM    1  C   UNL     1     -10.749  19.668  66.784  1.00  0.00    -0.562 C  
HETATM    2  C   UNL     1      -9.987  18.406  67.180  1.00  0.00    -0.337 C  
HETATM    3  C   UNL     1     -10.915  16.667  68.221  1.00  0.00    -0.341 A  
HETATM    4  C   UNL     1     -10.152  17.271  66.133  1.00  0.00    -0.302 C  
HETATM    5  N   UNL     1     -10.724  16.239  66.957  1.00  0.00    -0.279 NA 
HETATM    6  O   UNL     1     -12.231  12.515  67.737  1.00  0.00    -0.372 OA 
HETATM    7  C   UNL     1     -11.133  14.967  66.839  1.00  0.00    -0.337 A  
HETATM    8  O   UNL     1     -10.549  17.916  68.447  1.00  0.00    -0.349 OA 
HETATM    9  O   UNL     1     -12.493  13.336  69.766  1.00  0.00    -0.173 OA 
HETATM   10  C   UNL     1     -11.576  14.670  68.127  1.00  0.00    -0.335 A  
HETATM   11  N   UNL     1     -11.430  15.756  68.994  1.00  0.00    -0.367 NA 
HETATM   12  N   UNL     1     -12.141  13.419  68.582  1.00  0.00    -0.314 N  
ENDROOT
BRANCH   2  13
HETATM   13  C   UNL     1      -8.511  18.708  67.431  1.00  0.00    -0.265 C  
BRANCH  13  14
HETATM   14  O   UNL     1      -8.063  18.096  68.642  1.00  0.00    -0.307 OA 
BRANCH  14  15
HETATM   15  C   UNL     1      -7.621  16.812  68.476  1.00  0.00    -0.217 A  
HETATM   16  C   UNL     1      -6.951  14.056  68.138  1.00  0.00    -0.120 A  
HETATM   17  C   UNL     1      -6.723  16.409  67.499  1.00  0.00    -0.181 A  
HETATM   18  C   UNL     1      -8.116  15.858  69.353  1.00  0.00    -0.178 A  
HETATM   19  C   UNL     1      -6.402  15.062  67.338  1.00  0.00     0.027 A  
HETATM   20  C   UNL     1      -7.777  14.506  69.186  1.00  0.00    -0.082 A  
BRANCH  16  21
HETATM   21  N   UNL     1      -6.642  12.721  67.929  1.00  0.00    -0.102 NA 
HETATM   22  C   UNL     1      -7.445  11.621  68.497  1.00  0.00    -0.113 C  
HETATM   23  C   UNL     1      -7.613  10.534  67.437  1.00  0.00    -0.094 C  
HETATM   24  C   UNL     1      -6.257  10.056  66.911  1.00  0.00    -0.064 C  
HETATM   25  C   UNL     1      -5.292  12.288  67.558  1.00  0.00    -0.113 C  
HETATM   26  C   UNL     1      -5.432  11.262  66.445  1.00  0.00    -0.139 C  
BRANCH  24  27
HETATM   27  O   UNL     1      -5.606   9.353  67.984  1.00  0.00    -0.037 OA 
BRANCH  27  28
HETATM   28  C   UNL     1      -6.208   8.210  68.428  1.00  0.00    -0.049 A  
HETATM   29  C   UNL     1      -6.664   8.004  69.726  1.00  0.00    -0.040 A  
HETATM   30  C   UNL     1      -7.278   6.801  70.069  1.00  0.00    -0.076 A  
HETATM   31  C   UNL     1      -7.440   5.784  69.134  1.00  0.00    -0.084 A  
HETATM   32  C   UNL     1      -6.971   5.980  67.836  1.00  0.00    -0.072 A  
HETATM   33  C   UNL     1      -6.379   7.201  67.479  1.00  0.00    -0.047 A  
BRANCH  31  34
HETATM   34  O   UNL     1      -7.974   4.648  69.642  1.00  0.00    -0.064 OA 
HETATM   35  C   UNL     1      -9.375   4.440  69.594  1.00  0.00    -0.158 C  
HETATM   36  F   UNL     1      -9.621   3.276  68.953  1.00  0.00    -0.225 F  
HETATM   37  F   UNL     1     -10.070   5.422  68.989  1.00  0.00    -0.199 F  
HETATM   38  F   UNL     1      -9.834   4.323  70.863  1.00  0.00    -0.230 F  
ENDBRANCH  31  34
ENDBRANCH  27  28
ENDBRANCH  24  27
ENDBRANCH  16  21
ENDBRANCH  14  15
ENDBRANCH  13  14
ENDBRANCH   2  13
TORSDOF 7
ENDMDL
MODEL       83
REMARK 921   NORMALIZED FREE ENERGY PREDICTED BY IDOCK:   -4.87 KCAL/MOL
REMARK 922        TOTAL FREE ENERGY PREDICTED BY IDOCK:   -8.35 KCAL/MOL
REMARK 923 INTER-LIGAND FREE ENERGY PREDICTED BY IDOCK:   -8.86 KCAL/MOL
REMARK 924 INTRA-LIGAND FREE ENERGY PREDICTED BY IDOCK:    0.51 KCAL/MOL
REMARK 927      BINDING AFFINITY PREDICTED BY RF-SCORE:    0.00 PKD
ROOT
HETATM    1  C   UNL     1     -12.202  14.436  64.665  1.00  0.00    -0.479 C  
HETATM    2  C   UNL     1     -11.024  14.746  65.585  1.00  0.00    -0.344 C  
HETATM    3  C   UNL     1     -10.262  16.802  65.981  1.00  0.00    -0.346 A  
HETATM    4  C   UNL     1     -11.488  15.147  67.012  1.00  0.00    -0.228 C  
HETATM    5  N   UNL     1     -10.902  16.457  67.116  1.00  0.00    -0.232 NA 
HETATM    6  O   UNL     1     -10.009  19.991  68.977  1.00  0.00    -0.344 OA 
HETATM    7  C   UNL     1     -10.806  17.449  68.015  1.00  0.00    -0.281 A  
HETATM    8  O   UNL     1     -10.299  15.894  65.023  1.00  0.00    -0.508 OA 
HETATM    9  O   UNL     1      -9.000  20.435  67.068  1.00  0.00    -0.341 OA 
HETATM   10  C   UNL     1     -10.058  18.406  67.330  1.00  0.00    -0.353 A  
HETATM   11  N   UNL     1      -9.718  17.983  66.043  1.00  0.00    -0.535 NA 
HETATM   12  N   UNL     1      -9.657  19.706  67.822  1.00  0.00    -0.338 N  
ENDROOT
BRANCH   2  13
HETATM   13  C   UNL     1     -10.042  13.577  65.638  1.00  0.00    -0.278 C  
BRANCH  13  14
HETATM   14  O   UNL     1      -9.353  13.545  66.890  1.00  0.00    -0.237 OA 
BRANCH  14  15
HETATM   15  C   UNL     1      -9.568  12.398  67.604  1.00  0.00    -0.193 A  
HETATM   16  C   UNL     1      -9.779  10.042  69.205  1.00  0.00    -0.209 A  
HETATM   17  C   UNL     1     -10.721  12.125  68.327  1.00  0.00    -0.248 A  
HETATM   18  C   UNL     1      -8.553  11.452  67.596  1.00  0.00    -0.130 A  
HETATM   19  C   UNL     1     -10.815  10.975  69.108  1.00  0.00    -0.283 A  
HETATM   20  C   UNL     1      -8.666  10.293  68.380  1.00  0.00    -0.129 A  
BRANCH  16  21
HETATM   21  N   UNL     1      -9.889   8.926  70.019  1.00  0.00    -0.169 NA 
HETATM   22  C   UNL     1      -9.227   7.645  69.707  1.00  0.00    -0.147 C  
HETATM   23  C   UNL     1      -8.629   7.071  70.990  1.00  0.00    -0.134 C  
HETATM   24  C   UNL     1      -9.693   6.928  72.082  1.00  0.00    -0.148 C  
HETATM   25  C   UNL     1     -11.002   8.760  70.959  1.00  0.00    -0.268 C  
HETATM   26  C   UNL     1     -10.418   8.265  72.273  1.00  0.00    -0.392 C  
BRANCH  24  27
HETATM   27  O   UNL     1     -10.597   5.890  71.663  1.00  0.00    -0.225 OA 
BRANCH  27  28
HETATM   28  C   UNL     1     -10.110   4.962  70.786  1.00  0.00    -0.233 A  
HETATM   29  C   UNL     1     -10.325   4.976  69.412  1.00  0.00    -0.215 A  
HETATM   30  C   UNL     1      -9.769   3.985  68.607  1.00  0.00    -0.138 A  
HETATM   31  C   UNL     1      -8.998   2.964  69.152  1.00  0.00    -0.116 A  
HETATM   32  C   UNL     1      -8.792   2.937  70.532  1.00  0.00    -0.145 A  
HETATM   33  C   UNL     1      -9.327   3.950  71.342  1.00  0.00    -0.208 A  
BRANCH  31  34
HETATM   34  O   UNL     1      -8.602   2.031  68.254  1.00  0.00    -0.065 OA 
HETATM   35  C   UNL     1      -7.633   2.360  67.272  1.00  0.00    -0.061 C  
HETATM   36  F   UNL     1      -6.602   1.493  67.371  1.00  0.00    -0.026 F  
HETATM   37  F   UNL     1      -7.152   3.615  67.353  1.00  0.00    -0.054 F  
HETATM   38  F   UNL     1      -8.194   2.205  66.049  1.00  0.00    -0.078 F  
ENDBRANCH  31  34
ENDBRANCH  27  28
ENDBRANCH  24  27
ENDBRANCH  16  21
ENDBRANCH  14  15
ENDBRANCH  13  14
ENDBRANCH   2  13
TORSDOF 7
ENDMDL
MODEL       84
REMARK 921   NORMALIZED FREE ENERGY PREDICTED BY IDOCK:   -4.84 KCAL/MOL
REMARK 922        TOTAL FREE ENERGY PREDICTED BY IDOCK:   -8.31 KCAL/MOL
REMARK 923 INTER-LIGAND FREE ENERGY PREDICTED BY IDOCK:   -7.50 KCAL/MOL
REMARK 924 INTRA-LIGAND FREE ENERGY PREDICTED BY IDOCK:   -0.81 KCAL/MOL
REMARK 927      BINDING AFFINITY PREDICTED BY RF-SCORE:    0.00 PKD
ROOT
HETATM    1  C   UNL     1      -9.992  16.734  68.418  1.00  0.00    -0.268 C  
HETATM    2  C   UNL     1     -10.367  15.256  68.345  1.00  0.00    -0.227 C  
HETATM    3  C   UNL     1     -10.433  14.082  66.451  1.00  0.00    -0.284 A  
HETATM    4  C   UNL     1      -9.116  14.337  68.324  1.00  0.00    -0.188 C  
HETATM    5  N   UNL     1      -9.324  13.644  67.079  1.00  0.00    -0.239 NA 
HETATM    6  O   UNL     1      -8.429  10.951  64.132  1.00  0.00    -0.048 OA 
HETATM    7  C   UNL     1      -8.733  12.686  66.350  1.00  0.00     0.088 A  
HETATM    8  O   UNL     1     -11.093  15.035  67.085  1.00  0.00    -0.320 OA 
HETATM    9  O   UNL     1     -10.261  11.754  63.207  1.00  0.00    -0.412 OA 
HETATM   10  C   UNL     1      -9.577  12.585  65.244  1.00  0.00     0.046 A  
HETATM   11  N   UNL     1     -10.652  13.473  65.322  1.00  0.00    -0.313 NA 
HETATM   12  N   UNL     1      -9.416  11.702  64.109  1.00  0.00    -0.098 N  
ENDROOT
BRANCH   2  13
HETATM   13  C   UNL     1     -11.312  14.870  69.481  1.00  0.00    -0.281 C  
BRANCH  13  14
HETATM   14  O   UNL     1     -12.328  13.978  69.018  1.00  0.00    -0.307 OA 
BRANCH  14  15
HETATM   15  C   UNL     1     -12.072  12.663  69.296  1.00  0.00    -0.166 A  
HETATM   16  C   UNL     1     -11.321   9.941  69.726  1.00  0.00    -0.193 A  
HETATM   17  C   UNL     1     -12.073  12.114  70.570  1.00  0.00    -0.383 A  
HETATM   18  C   UNL     1     -11.792  11.835  68.219  1.00  0.00    -0.340 A  
HETATM   19  C   UNL     1     -11.703  10.785  70.772  1.00  0.00    -0.400 A  
HETATM   20  C   UNL     1     -11.430  10.496  68.437  1.00  0.00    -0.285 A  
BRANCH  16  21
HETATM   21  N   UNL     1     -10.922   8.635  69.963  1.00  0.00    -0.234 NA 
HETATM   22  C   UNL     1     -10.165   8.242  71.167  1.00  0.00    -0.198 C  
HETATM   23  C   UNL     1     -10.729   6.925  71.698  1.00  0.00    -0.246 C  
HETATM   24  C   UNL     1     -10.715   5.840  70.618  1.00  0.00    -0.281 C  
HETATM   25  C   UNL     1     -10.788   7.658  68.880  1.00  0.00    -0.017 C  
HETATM   26  C   UNL     1     -11.417   6.358  69.358  1.00  0.00    -0.374 C  
BRANCH  24  27
HETATM   27  O   UNL     1      -9.338   5.512  70.360  1.00  0.00    -0.152 OA 
BRANCH  27  28
HETATM   28  C   UNL     1      -9.084   4.722  69.275  1.00  0.00    -0.105 A  
HETATM   29  C   UNL     1      -9.446   3.384  69.162  1.00  0.00    -0.211 A  
HETATM   30  C   UNL     1      -9.148   2.674  68.001  1.00  0.00    -0.229 A  
HETATM   31  C   UNL     1      -8.481   3.278  66.940  1.00  0.00    -0.102 A  
HETATM   32  C   UNL     1      -8.101   4.615  67.055  1.00  0.00    -0.102 A  
HETATM   33  C   UNL     1      -8.426   5.340  68.211  1.00  0.00    -0.096 A  
BRANCH  31  34
HETATM   34  O   UNL     1      -8.188   2.435  65.922  1.00  0.00    -0.083 OA 
HETATM   35  C   UNL     1      -8.824   2.595  64.665  1.00  0.00    -0.115 C  
HETATM   36  F   UNL     1      -7.875   2.736  63.712  1.00  0.00    -0.073 F  
HETATM   37  F   UNL     1      -9.670   3.639  64.590  1.00  0.00    -0.142 F  
HETATM   38  F   UNL     1      -9.524   1.468  64.393  1.00  0.00    -0.121 F  
ENDBRANCH  31  34
ENDBRANCH  27  28
ENDBRANCH  24  27
ENDBRANCH  16  21
ENDBRANCH  14  15
ENDBRANCH  13  14
ENDBRANCH   2  13
TORSDOF 7
ENDMDL
MODEL       85
REMARK 921   NORMALIZED FREE ENERGY PREDICTED BY IDOCK:   -4.82 KCAL/MOL
REMARK 922        TOTAL FREE ENERGY PREDICTED BY IDOCK:   -8.27 KCAL/MOL
REMARK 923 INTER-LIGAND FREE ENERGY PREDICTED BY IDOCK:   -6.65 KCAL/MOL
REMARK 924 INTRA-LIGAND FREE ENERGY PREDICTED BY IDOCK:   -1.62 KCAL/MOL
REMARK 927      BINDING AFFINITY PREDICTED BY RF-SCORE:    0.00 PKD
ROOT
HETATM    1  C   UNL     1      -9.739   1.759  73.772  1.00  0.00    -0.102 C  
HETATM    2  C   UNL     1      -9.110   2.653  72.706  1.00  0.00    -0.081 C  
HETATM    3  C   UNL     1      -9.393   4.861  72.609  1.00  0.00    -0.133 A  
HETATM    4  C   UNL     1      -7.794   3.313  73.200  1.00  0.00    -0.065 C  
HETATM    5  N   UNL     1      -8.129   4.704  73.050  1.00  0.00    -0.099 NA 
HETATM    6  O   UNL     1      -7.431   8.733  73.217  1.00  0.00    -0.367 OA 
HETATM    7  C   UNL     1      -7.553   5.902  73.225  1.00  0.00    -0.098 A  
HETATM    8  O   UNL     1     -10.056   3.737  72.407  1.00  0.00    -0.161 OA 
HETATM    9  O   UNL     1      -9.511   8.854  72.496  1.00  0.00    -0.287 OA 
HETATM   10  C   UNL     1      -8.567   6.783  72.850  1.00  0.00    -0.116 A  
HETATM   11  N   UNL     1      -9.727   6.110  72.459  1.00  0.00    -0.157 NA 
HETATM   12  N   UNL     1      -8.505   8.228  72.852  1.00  0.00    -0.200 N  
ENDROOT
BRANCH   2  13
HETATM   13  C   UNL     1      -8.883   1.885  71.406  1.00  0.00    -0.066 C  
BRANCH  13  14
HETATM   14  O   UNL     1      -7.553   2.085  70.920  1.00  0.00    -0.033 OA 
BRANCH  14  15
HETATM   15  C   UNL     1      -7.449   3.100  70.010  1.00  0.00    -0.044 A  
HETATM   16  C   UNL     1      -7.456   5.319  68.211  1.00  0.00    -0.076 A  
HETATM   17  C   UNL     1      -6.299   3.844  69.788  1.00  0.00    -0.028 A  
HETATM   18  C   UNL     1      -8.582   3.395  69.265  1.00  0.00    -0.112 A  
HETATM   19  C   UNL     1      -6.311   4.927  68.910  1.00  0.00    -0.032 A  
HETATM   20  C   UNL     1      -8.576   4.483  68.377  1.00  0.00    -0.104 A  
BRANCH  16  21
HETATM   21  N   UNL     1      -7.445   6.424  67.374  1.00  0.00    -0.087 NA 
HETATM   22  C   UNL     1      -6.284   7.329  67.267  1.00  0.00    -0.053 C  
HETATM   23  C   UNL     1      -6.064   7.679  65.797  1.00  0.00    -0.038 C  
HETATM   24  C   UNL     1      -7.329   8.275  65.174  1.00  0.00    -0.081 C  
HETATM   25  C   UNL     1      -8.683   7.053  66.906  1.00  0.00    -0.122 C  
HETATM   26  C   UNL     1      -8.517   7.338  65.422  1.00  0.00    -0.096 C  
BRANCH  24  27
HETATM   27  O   UNL     1      -7.537   9.564  65.778  1.00  0.00    -0.097 OA 
BRANCH  27  28
HETATM   28  C   UNL     1      -8.693  10.218  65.457  1.00  0.00    -0.162 A  
HETATM   29  C   UNL     1      -9.152  10.435  64.163  1.00  0.00    -0.272 A  
HETATM   30  C   UNL     1     -10.356  11.103  63.950  1.00  0.00    -0.441 A  
HETATM   31  C   UNL     1     -11.116  11.573  65.016  1.00  0.00    -0.201 A  
HETATM   32  C   UNL     1     -10.652  11.371  66.315  1.00  0.00    -0.312 A  
HETATM   33  C   UNL     1      -9.455  10.673  66.534  1.00  0.00    -0.199 A  
BRANCH  31  34
HETATM   34  O   UNL     1     -12.212  12.276  64.644  1.00  0.00    -0.411 OA 
HETATM   35  C   UNL     1     -12.140  13.686  64.522  1.00  0.00    -0.419 C  
HETATM   36  F   UNL     1     -12.524  14.035  63.274  1.00  0.00    -0.457 F  
HETATM   37  F   UNL     1     -10.924  14.212  64.763  1.00  0.00    -0.335 F  
HETATM   38  F   UNL     1     -13.015  14.237  65.397  1.00  0.00    -0.505 F  
ENDBRANCH  31  34
ENDBRANCH  27  28
ENDBRANCH  24  27
ENDBRANCH  16  21
ENDBRANCH  14  15
ENDBRANCH  13  14
ENDBRANCH   2  13
TORSDOF 7
ENDMDL
MODEL       86
REMARK 921   NORMALIZED FREE ENERGY PREDICTED BY IDOCK:   -4.80 KCAL/MOL
REMARK 922        TOTAL FREE ENERGY PREDICTED BY IDOCK:   -8.25 KCAL/MOL
REMARK 923 INTER-LIGAND FREE ENERGY PREDICTED BY IDOCK:   -6.90 KCAL/MOL
REMARK 924 INTRA-LIGAND FREE ENERGY PREDICTED BY IDOCK:   -1.35 KCAL/MOL
REMARK 927      BINDING AFFINITY PREDICTED BY RF-SCORE:    0.00 PKD
ROOT
HETATM    1  C   UNL     1      -8.063   4.334  66.786  1.00  0.00    -0.101 C  
HETATM    2  C   UNL     1      -9.045   4.746  67.880  1.00  0.00    -0.116 C  
HETATM    3  C   UNL     1      -9.414   3.560  69.731  1.00  0.00    -0.171 A  
HETATM    4  C   UNL     1      -8.340   5.481  69.052  1.00  0.00    -0.102 C  
HETATM    5  N   UNL     1      -8.693   4.619  70.149  1.00  0.00    -0.080 NA 
HETATM    6  O   UNL     1      -8.763   3.427  74.063  1.00  0.00    -0.087 OA 
HETATM    7  C   UNL     1      -8.511   4.554  71.476  1.00  0.00    -0.110 A  
HETATM    8  O   UNL     1      -9.647   3.524  68.432  1.00  0.00    -0.164 OA 
HETATM    9  O   UNL     1      -9.931   1.742  73.252  1.00  0.00    -0.086 OA 
HETATM   10  C   UNL     1      -9.182   3.380  71.816  1.00  0.00    -0.120 A  
HETATM   11  N   UNL     1      -9.752   2.761  70.701  1.00  0.00    -0.093 NA 
HETATM   12  N   UNL     1      -9.305   2.803  73.137  1.00  0.00    -0.088 N  
ENDROOT
BRANCH   2  13
HETATM   13  C   UNL     1     -10.184   5.590  67.311  1.00  0.00    -0.212 C  
BRANCH  13  14
HETATM   14  O   UNL     1      -9.714   6.442  66.265  1.00  0.00    -0.133 OA 
BRANCH  14  15
HETATM   15  C   UNL     1      -9.268   7.657  66.707  1.00  0.00    -0.160 A  
HETATM   16  C   UNL     1      -8.273  10.250  67.378  1.00  0.00    -0.114 A  
HETATM   17  C   UNL     1      -9.987   8.507  67.534  1.00  0.00    -0.258 A  
HETATM   18  C   UNL     1      -8.006   8.054  66.289  1.00  0.00    -0.105 A  
HETATM   19  C   UNL     1      -9.497   9.772  67.856  1.00  0.00    -0.146 A  
HETATM   20  C   UNL     1      -7.520   9.327  66.628  1.00  0.00    -0.093 A  
BRANCH  16  21
HETATM   21  N   UNL     1      -7.829  11.526  67.685  1.00  0.00    -0.119 NA 
HETATM   22  C   UNL     1      -8.568  12.741  67.290  1.00  0.00    -0.197 C  
HETATM   23  C   UNL     1      -8.560  13.726  68.457  1.00  0.00    -0.122 C  
HETATM   24  C   UNL     1      -7.131  14.034  68.913  1.00  0.00    -0.111 C  
HETATM   25  C   UNL     1      -6.422  11.806  67.983  1.00  0.00    -0.056 C  
HETATM   26  C   UNL     1      -6.387  12.724  69.196  1.00  0.00    -0.106 C  
BRANCH  24  27
HETATM   27  O   UNL     1      -6.500  14.785  67.861  1.00  0.00    -0.134 OA 
BRANCH  27  28
HETATM   28  C   UNL     1      -7.051  15.995  67.548  1.00  0.00    -0.171 A  
HETATM   29  C   UNL     1      -7.673  16.299  66.342  1.00  0.00    -0.193 A  
HETATM   30  C   UNL     1      -8.215  17.565  66.134  1.00  0.00    -0.222 A  
HETATM   31  C   UNL     1      -8.141  18.550  67.113  1.00  0.00    -0.243 A  
HETATM   32  C   UNL     1      -7.504  18.255  68.318  1.00  0.00    -0.288 A  
HETATM   33  C   UNL     1      -6.983  16.972  68.543  1.00  0.00    -0.197 A  
BRANCH  31  34
HETATM   34  O   UNL     1      -8.635  19.750  66.728  1.00  0.00    -0.298 OA 
HETATM   35  C   UNL     1      -9.987  20.079  66.997  1.00  0.00    -0.445 C  
HETATM   36  F   UNL     1     -10.022  21.232  67.702  1.00  0.00    -0.518 F  
HETATM   37  F   UNL     1     -10.672  19.138  67.673  1.00  0.00    -0.456 F  
HETATM   38  F   UNL     1     -10.618  20.292  65.818  1.00  0.00    -0.489 F  
ENDBRANCH  31  34
ENDBRANCH  27  28
ENDBRANCH  24  27
ENDBRANCH  16  21
ENDBRANCH  14  15
ENDBRANCH  13  14
ENDBRANCH   2  13
TORSDOF 7
ENDMDL
MODEL       87
REMARK 921   NORMALIZED FREE ENERGY PREDICTED BY IDOCK:   -4.80 KCAL/MOL
REMARK 922        TOTAL FREE ENERGY PREDICTED BY IDOCK:   -8.25 KCAL/MOL
REMARK 923 INTER-LIGAND FREE ENERGY PREDICTED BY IDOCK:   -6.42 KCAL/MOL
REMARK 924 INTRA-LIGAND FREE ENERGY PREDICTED BY IDOCK:   -1.83 KCAL/MOL
REMARK 927      BINDING AFFINITY PREDICTED BY RF-SCORE:    0.00 PKD
ROOT
HETATM    1  C   UNL     1      -8.773  19.692  67.997  1.00  0.00    -0.366 C  
HETATM    2  C   UNL     1      -8.425  18.209  67.894  1.00  0.00    -0.254 C  
HETATM    3  C   UNL     1      -9.922  16.604  67.507  1.00  0.00    -0.264 A  
HETATM    4  C   UNL     1      -8.247  17.752  66.421  1.00  0.00    -0.255 C  
HETATM    5  N   UNL     1      -9.245  16.718  66.348  1.00  0.00    -0.264 NA 
HETATM    6  O   UNL     1     -11.383  13.739  64.530  1.00  0.00    -0.363 OA 
HETATM    7  C   UNL     1      -9.711  15.830  65.457  1.00  0.00    -0.220 A  
HETATM    8  O   UNL     1      -9.545  17.441  68.457  1.00  0.00    -0.277 OA 
HETATM    9  O   UNL     1     -12.414  13.655  66.477  1.00  0.00    -0.381 OA 
HETATM   10  C   UNL     1     -10.711  15.176  66.176  1.00  0.00    -0.325 A  
HETATM   11  N   UNL     1     -10.833  15.675  67.475  1.00  0.00    -0.313 NA 
HETATM   12  N   UNL     1     -11.568  14.113  65.699  1.00  0.00    -0.331 N  
ENDROOT
BRANCH   2  13
HETATM   13  C   UNL     1      -7.188  17.873  68.725  1.00  0.00    -0.275 C  
BRANCH  13  14
HETATM   14  O   UNL     1      -6.341  16.954  68.032  1.00  0.00    -0.137 OA 
BRANCH  14  15
HETATM   15  C   UNL     1      -6.448  15.666  68.480  1.00  0.00    -0.107 A  
HETATM   16  C   UNL     1      -6.482  12.913  69.241  1.00  0.00    -0.104 A  
HETATM   17  C   UNL     1      -6.427  15.293  69.816  1.00  0.00    -0.169 A  
HETATM   18  C   UNL     1      -6.585  14.674  67.519  1.00  0.00    -0.113 A  
HETATM   19  C   UNL     1      -6.442  13.947  70.180  1.00  0.00    -0.023 A  
HETATM   20  C   UNL     1      -6.608  13.323  67.901  1.00  0.00    -0.145 A  
BRANCH  16  21
HETATM   21  N   UNL     1      -6.458  11.584  69.633  1.00  0.00    -0.125 NA 
HETATM   22  C   UNL     1      -5.303  10.980  70.326  1.00  0.00    -0.077 C  
HETATM   23  C   UNL     1      -5.815  10.084  71.453  1.00  0.00     0.041 C  
HETATM   24  C   UNL     1      -6.793   9.032  70.923  1.00  0.00    -0.088 C  
HETATM   25  C   UNL     1      -7.316  10.575  69.006  1.00  0.00    -0.103 C  
HETATM   26  C   UNL     1      -7.902   9.720  70.118  1.00  0.00    -0.196 C  
BRANCH  24  27
HETATM   27  O   UNL     1      -6.038   8.118  70.110  1.00  0.00    -0.031 OA 
BRANCH  27  28
HETATM   28  C   UNL     1      -6.529   6.848  69.990  1.00  0.00    -0.040 A  
HETATM   29  C   UNL     1      -6.700   5.958  71.045  1.00  0.00    -0.060 A  
HETATM   30  C   UNL     1      -7.222   4.688  70.811  1.00  0.00    -0.045 A  
HETATM   31  C   UNL     1      -7.575   4.280  69.529  1.00  0.00    -0.054 A  
HETATM   32  C   UNL     1      -7.391   5.164  68.465  1.00  0.00    -0.070 A  
HETATM   33  C   UNL     1      -6.892   6.453  68.702  1.00  0.00    -0.074 A  
BRANCH  31  34
HETATM   34  O   UNL     1      -7.986   2.992  69.452  1.00  0.00    -0.049 OA 
HETATM   35  C   UNL     1      -9.353   2.671  69.645  1.00  0.00    -0.114 C  
HETATM   36  F   UNL     1      -9.800   2.001  68.560  1.00  0.00    -0.243 F  
HETATM   37  F   UNL     1     -10.155   3.731  69.860  1.00  0.00    -0.248 F  
HETATM   38  F   UNL     1      -9.452   1.847  70.715  1.00  0.00    -0.158 F  
ENDBRANCH  31  34
ENDBRANCH  27  28
ENDBRANCH  24  27
ENDBRANCH  16  21
ENDBRANCH  14  15
ENDBRANCH  13  14
ENDBRANCH   2  13
TORSDOF 7
ENDMDL
MODEL       88
REMARK 921   NORMALIZED FREE ENERGY PREDICTED BY IDOCK:   -4.79 KCAL/MOL
REMARK 922        TOTAL FREE ENERGY PREDICTED BY IDOCK:   -8.24 KCAL/MOL
REMARK 923 INTER-LIGAND FREE ENERGY PREDICTED BY IDOCK:   -7.41 KCAL/MOL
REMARK 924 INTRA-LIGAND FREE ENERGY PREDICTED BY IDOCK:   -0.82 KCAL/MOL
REMARK 927      BINDING AFFINITY PREDICTED BY RF-SCORE:    0.00 PKD
ROOT
HETATM    1  C   UNL     1      -7.926  19.312  67.363  1.00  0.00    -0.292 C  
HETATM    2  C   UNL     1      -8.656  17.975  67.265  1.00  0.00    -0.239 C  
HETATM    3  C   UNL     1      -9.536  16.907  69.012  1.00  0.00    -0.216 A  
HETATM    4  C   UNL     1     -10.197  18.154  67.192  1.00  0.00    -0.367 C  
HETATM    5  N   UNL     1     -10.600  17.398  68.348  1.00  0.00    -0.371 NA 
HETATM    6  O   UNL     1     -13.288  15.785  70.979  1.00  0.00    -0.580 OA 
HETATM    7  C   UNL     1     -11.734  17.038  68.970  1.00  0.00     0.958 A  
HETATM    8  O   UNL     1      -8.363  17.208  68.485  1.00  0.00    -0.245 OA 
HETATM    9  O   UNL     1     -11.466  15.041  71.973  1.00  0.00    -0.389 OA 
HETATM   10  C   UNL     1     -11.262  16.293  70.050  1.00  0.00    -0.319 A  
HETATM   11  N   UNL     1      -9.868  16.215  70.063  1.00  0.00     0.073 NA 
HETATM   12  N   UNL     1     -12.058  15.658  71.078  1.00  0.00    -0.366 N  
ENDROOT
BRANCH   2  13
HETATM   13  C   UNL     1      -8.144  17.152  66.084  1.00  0.00    -0.248 C  
BRANCH  13  14
HETATM   14  O   UNL     1      -9.169  16.294  65.577  1.00  0.00    -0.402 OA 
BRANCH  14  15
HETATM   15  C   UNL     1      -9.128  15.027  66.091  1.00  0.00    -0.202 A  
HETATM   16  C   UNL     1      -9.089  12.293  66.917  1.00  0.00    -0.208 A  
HETATM   17  C   UNL     1      -8.113  14.540  66.903  1.00  0.00    -0.015 A  
HETATM   18  C   UNL     1     -10.179  14.182  65.766  1.00  0.00    -0.347 A  
HETATM   19  C   UNL     1      -8.100  13.204  67.300  1.00  0.00    -0.151 A  
HETATM   20  C   UNL     1     -10.157  12.841  66.182  1.00  0.00    -0.274 A  
BRANCH  16  21
HETATM   21  N   UNL     1      -9.028  10.962  67.298  1.00  0.00    -0.137 NA 
HETATM   22  C   UNL     1      -9.119   9.853  66.329  1.00  0.00    -0.155 C  
HETATM   23  C   UNL     1      -8.086   8.789  66.696  1.00  0.00    -0.103 C  
HETATM   24  C   UNL     1      -8.267   8.318  68.142  1.00  0.00    -0.128 C  
HETATM   25  C   UNL     1      -9.341  10.532  68.663  1.00  0.00    -0.172 C  
HETATM   26  C   UNL     1      -8.277   9.529  69.081  1.00  0.00    -0.111 C  
BRANCH  24  27
HETATM   27  O   UNL     1      -9.505   7.590  68.203  1.00  0.00    -0.143 OA 
BRANCH  27  28
HETATM   28  C   UNL     1      -9.606   6.620  69.159  1.00  0.00    -0.135 A  
HETATM   29  C   UNL     1      -8.659   5.628  69.390  1.00  0.00    -0.106 A  
HETATM   30  C   UNL     1      -8.856   4.693  70.404  1.00  0.00    -0.137 A  
HETATM   31  C   UNL     1      -9.998   4.724  71.198  1.00  0.00    -0.202 A  
HETATM   32  C   UNL     1     -10.958   5.707  70.961  1.00  0.00    -0.247 A  
HETATM   33  C   UNL     1     -10.749   6.667  69.959  1.00  0.00    -0.287 A  
BRANCH  31  34
HETATM   34  O   UNL     1     -10.085   3.700  72.079  1.00  0.00    -0.173 OA 
HETATM   35  C   UNL     1     -10.708   3.899  73.337  1.00  0.00    -0.208 C  
HETATM   36  F   UNL     1     -11.707   3.000  73.475  1.00  0.00    -0.320 F  
HETATM   37  F   UNL     1     -11.208   5.134  73.529  1.00  0.00    -0.325 F  
HETATM   38  F   UNL     1      -9.795   3.661  74.309  1.00  0.00    -0.120 F  
ENDBRANCH  31  34
ENDBRANCH  27  28
ENDBRANCH  24  27
ENDBRANCH  16  21
ENDBRANCH  14  15
ENDBRANCH  13  14
ENDBRANCH   2  13
TORSDOF 7
ENDMDL
MODEL       89
REMARK 921   NORMALIZED FREE ENERGY PREDICTED BY IDOCK:   -4.75 KCAL/MOL
REMARK 922        TOTAL FREE ENERGY PREDICTED BY IDOCK:   -8.18 KCAL/MOL
REMARK 923 INTER-LIGAND FREE ENERGY PREDICTED BY IDOCK:   -8.46 KCAL/MOL
REMARK 924 INTRA-LIGAND FREE ENERGY PREDICTED BY IDOCK:    0.28 KCAL/MOL
REMARK 927      BINDING AFFINITY PREDICTED BY RF-SCORE:    0.00 PKD
ROOT
HETATM    1  C   UNL     1      -8.343  18.474  66.966  1.00  0.00    -0.259 C  
HETATM    2  C   UNL     1      -9.002  17.114  67.180  1.00  0.00    -0.228 C  
HETATM    3  C   UNL     1      -9.819  16.422  69.135  1.00  0.00    -0.272 A  
HETATM    4  C   UNL     1     -10.551  17.195  67.093  1.00  0.00    -0.244 C  
HETATM    5  N   UNL     1     -10.910  16.698  68.394  1.00  0.00    -0.351 NA 
HETATM    6  O   UNL     1     -13.500  15.582  71.360  1.00  0.00    -0.496 OA 
HETATM    7  C   UNL     1     -12.020  16.430  69.098  1.00  0.00     0.219 A  
HETATM    8  O   UNL     1      -8.665  16.656  68.536  1.00  0.00    -0.222 OA 
HETATM    9  O   UNL     1     -11.638  15.172  72.467  1.00  0.00    -0.421 OA 
HETATM   10  C   UNL     1     -11.507  15.970  70.310  1.00  0.00    -0.359 A  
HETATM   11  N   UNL     1     -10.110  15.967  70.319  1.00  0.00    -0.022 NA 
HETATM   12  N   UNL     1     -12.264  15.542  71.466  1.00  0.00    -0.358 N  
ENDROOT
BRANCH   2  13
HETATM   13  C   UNL     1      -8.452  16.074  66.206  1.00  0.00    -0.302 C  
BRANCH  13  14
HETATM   14  O   UNL     1      -9.475  15.161  65.803  1.00  0.00    -0.327 OA 
BRANCH  14  15
HETATM   15  C   UNL     1      -9.687  14.147  66.695  1.00  0.00    -0.288 A  
HETATM   16  C   UNL     1     -10.289  11.919  68.379  1.00  0.00    -0.209 A  
HETATM   17  C   UNL     1      -8.681  13.461  67.361  1.00  0.00    -0.209 A  
HETATM   18  C   UNL     1     -11.005  13.789  66.940  1.00  0.00    -0.296 A  
HETATM   19  C   UNL     1      -8.983  12.373  68.179  1.00  0.00    -0.196 A  
HETATM   20  C   UNL     1     -11.294  12.697  67.774  1.00  0.00    -0.349 A  
BRANCH  16  21
HETATM   21  N   UNL     1     -10.553  10.811  69.168  1.00  0.00    -0.211 NA 
HETATM   22  C   UNL     1      -9.611   9.683  69.296  1.00  0.00    -0.185 C  
HETATM   23  C   UNL     1      -9.553   9.250  70.760  1.00  0.00    -0.341 C  
HETATM   24  C   UNL     1     -10.947   8.909  71.293  1.00  0.00    -0.293 C  
HETATM   25  C   UNL     1     -11.919  10.437  69.546  1.00  0.00    -0.103 C  
HETATM   26  C   UNL     1     -11.901  10.079  71.024  1.00  0.00    -0.476 C  
BRANCH  24  27
HETATM   27  O   UNL     1     -11.378   7.710  70.626  1.00  0.00    -0.276 OA 
BRANCH  27  28
HETATM   28  C   UNL     1     -10.451   6.718  70.478  1.00  0.00    -0.209 A  
HETATM   29  C   UNL     1      -9.251   6.638  71.177  1.00  0.00    -0.159 A  
HETATM   30  C   UNL     1      -8.382   5.572  70.958  1.00  0.00    -0.121 A  
HETATM   31  C   UNL     1      -8.687   4.574  70.038  1.00  0.00    -0.080 A  
HETATM   32  C   UNL     1      -9.881   4.657  69.323  1.00  0.00    -0.260 A  
HETATM   33  C   UNL     1     -10.772   5.714  69.562  1.00  0.00    -0.380 A  
BRANCH  31  34
HETATM   34  O   UNL     1      -7.705   3.655  69.875  1.00  0.00    -0.048 OA 
HETATM   35  C   UNL     1      -7.389   2.763  70.930  1.00  0.00    -0.033 C  
HETATM   36  F   UNL     1      -7.500   1.495  70.475  1.00  0.00    -0.033 F  
HETATM   37  F   UNL     1      -8.153   2.897  72.030  1.00  0.00    -0.054 F  
HETATM   38  F   UNL     1      -6.099   2.966  71.289  1.00  0.00    -0.013 F  
ENDBRANCH  31  34
ENDBRANCH  27  28
ENDBRANCH  24  27
ENDBRANCH  16  21
ENDBRANCH  14  15
ENDBRANCH  13  14
ENDBRANCH   2  13
TORSDOF 7
ENDMDL
MODEL       90
REMARK 921   NORMALIZED FREE ENERGY PREDICTED BY IDOCK:   -4.75 KCAL/MOL
REMARK 922        TOTAL FREE ENERGY PREDICTED BY IDOCK:   -8.17 KCAL/MOL
REMARK 923 INTER-LIGAND FREE ENERGY PREDICTED BY IDOCK:   -7.97 KCAL/MOL
REMARK 924 INTRA-LIGAND FREE ENERGY PREDICTED BY IDOCK:   -0.20 KCAL/MOL
REMARK 927      BINDING AFFINITY PREDICTED BY RF-SCORE:    0.00 PKD
ROOT
HETATM    1  C   UNL     1     -10.756  19.172  66.583  1.00  0.00    -0.467 C  
HETATM    2  C   UNL     1     -10.147  17.776  66.481  1.00  0.00    -0.358 C  
HETATM    3  C   UNL     1      -8.293  17.148  67.546  1.00  0.00    -0.190 A  
HETATM    4  C   UNL     1     -10.575  16.865  67.664  1.00  0.00    -0.325 C  
HETATM    5  N   UNL     1      -9.288  16.533  68.214  1.00  0.00    -0.212 NA 
HETATM    6  O   UNL     1      -6.726  14.696  70.823  1.00  0.00     0.028 OA 
HETATM    7  C   UNL     1      -8.781  15.788  69.208  1.00  0.00    -0.261 A  
HETATM    8  O   UNL     1      -8.685  17.914  66.545  1.00  0.00    -0.255 OA 
HETATM    9  O   UNL     1      -5.192  15.760  69.651  1.00  0.00    -0.106 OA 
HETATM   10  C   UNL     1      -7.409  16.004  69.078  1.00  0.00    -0.191 A  
HETATM   11  N   UNL     1      -7.114  16.866  68.019  1.00  0.00    -0.154 NA 
HETATM   12  N   UNL     1      -6.362  15.450  69.907  1.00  0.00    -0.160 N  
ENDROOT
BRANCH   2  13
HETATM   13  C   UNL     1     -10.479  17.125  65.140  1.00  0.00     0.139 C  
BRANCH  13  14
HETATM   14  O   UNL     1     -11.633  16.289  65.250  1.00  0.00     0.185 OA 
BRANCH  14  15
HETATM   15  C   UNL     1     -11.344  14.999  65.601  1.00  0.00    -0.297 A  
HETATM   16  C   UNL     1     -10.491  12.385  66.375  1.00  0.00    -0.243 A  
HETATM   17  C   UNL     1     -12.076  14.248  66.509  1.00  0.00    -0.454 A  
HETATM   18  C   UNL     1     -10.238  14.416  65.000  1.00  0.00    -0.406 A  
HETATM   19  C   UNL     1     -11.652  12.974  66.884  1.00  0.00    -0.419 A  
HETATM   20  C   UNL     1      -9.828  13.128  65.380  1.00  0.00    -0.123 A  
BRANCH  16  21
HETATM   21  N   UNL     1     -10.076  11.132  66.796  1.00  0.00    -0.211 NA 
HETATM   22  C   UNL     1     -10.746  10.396  67.885  1.00  0.00    -0.261 C  
HETATM   23  C   UNL     1     -10.874   8.927  67.485  1.00  0.00    -0.108 C  
HETATM   24  C   UNL     1      -9.510   8.329  67.129  1.00  0.00    -0.160 C  
HETATM   25  C   UNL     1      -8.714  10.646  66.555  1.00  0.00    -0.146 C  
HETATM   26  C   UNL     1      -8.822   9.206  66.077  1.00  0.00    -0.200 C  
BRANCH  24  27
HETATM   27  O   UNL     1      -8.744   8.260  68.344  1.00  0.00    -0.132 OA 
BRANCH  27  28
HETATM   28  C   UNL     1      -9.362   7.719  69.436  1.00  0.00    -0.152 A  
HETATM   29  C   UNL     1     -10.248   6.648  69.399  1.00  0.00    -0.207 A  
HETATM   30  C   UNL     1     -10.813   6.165  70.578  1.00  0.00    -0.364 A  
HETATM   31  C   UNL     1     -10.513   6.742  71.807  1.00  0.00    -0.207 A  
HETATM   32  C   UNL     1      -9.637   7.827  71.848  1.00  0.00    -0.210 A  
HETATM   33  C   UNL     1      -9.045   8.297  70.666  1.00  0.00    -0.164 A  
BRANCH  31  34
HETATM   34  O   UNL     1     -11.206   6.219  72.846  1.00  0.00    -0.251 OA 
HETATM   35  C   UNL     1     -11.028   4.859  73.203  1.00  0.00    -0.306 C  
HETATM   36  F   UNL     1     -10.661   4.794  74.502  1.00  0.00    -0.302 F  
HETATM   37  F   UNL     1     -10.118   4.197  72.463  1.00  0.00    -0.193 F  
HETATM   38  F   UNL     1     -12.216   4.223  73.073  1.00  0.00    -0.121 F  
ENDBRANCH  31  34
ENDBRANCH  27  28
ENDBRANCH  24  27
ENDBRANCH  16  21
ENDBRANCH  14  15
ENDBRANCH  13  14
ENDBRANCH   2  13
TORSDOF 7
ENDMDL
MODEL       91
REMARK 921   NORMALIZED FREE ENERGY PREDICTED BY IDOCK:   -4.72 KCAL/MOL
REMARK 922        TOTAL FREE ENERGY PREDICTED BY IDOCK:   -8.13 KCAL/MOL
REMARK 923 INTER-LIGAND FREE ENERGY PREDICTED BY IDOCK:   -7.94 KCAL/MOL
REMARK 924 INTRA-LIGAND FREE ENERGY PREDICTED BY IDOCK:   -0.19 KCAL/MOL
REMARK 927      BINDING AFFINITY PREDICTED BY RF-SCORE:    0.00 PKD
ROOT
HETATM    1  C   UNL     1      -9.031   4.565  74.501  1.00  0.00    -0.110 C  
HETATM    2  C   UNL     1      -9.242   5.084  73.081  1.00  0.00    -0.122 C  
HETATM    3  C   UNL     1     -10.812   6.563  72.519  1.00  0.00    -0.239 A  
HETATM    4  C   UNL     1      -8.535   6.446  72.846  1.00  0.00    -0.117 C  
HETATM    5  N   UNL     1      -9.660   7.261  72.472  1.00  0.00    -0.149 NA 
HETATM    6  O   UNL     1     -11.520  10.710  71.291  1.00  0.00    -0.114 OA 
HETATM    7  C   UNL     1      -9.906   8.524  72.092  1.00  0.00    -0.318 A  
HETATM    8  O   UNL     1     -10.683   5.302  72.889  1.00  0.00    -0.216 OA 
HETATM    9  O   UNL     1     -13.331   9.460  71.409  1.00  0.00    -0.361 OA 
HETATM   10  C   UNL     1     -11.289   8.522  71.912  1.00  0.00    -0.329 A  
HETATM   11  N   UNL     1     -11.850   7.272  72.183  1.00  0.00    -0.293 NA 
HETATM   12  N   UNL     1     -12.111   9.641  71.509  1.00  0.00    -0.376 N  
ENDROOT
BRANCH   2  13
HETATM   13  C   UNL     1      -8.802   4.052  72.045  1.00  0.00    -0.109 C  
BRANCH  13  14
HETATM   14  O   UNL     1      -7.568   4.435  71.436  1.00  0.00    -0.067 OA 
BRANCH  14  15
HETATM   15  C   UNL     1      -7.723   5.235  70.337  1.00  0.00    -0.076 A  
HETATM   16  C   UNL     1      -8.292   6.960  68.133  1.00  0.00    -0.118 A  
HETATM   17  C   UNL     1      -6.813   6.200  69.931  1.00  0.00    -0.058 A  
HETATM   18  C   UNL     1      -8.878   5.059  69.589  1.00  0.00    -0.121 A  
HETATM   19  C   UNL     1      -7.098   7.040  68.856  1.00  0.00    -0.085 A  
HETATM   20  C   UNL     1      -9.148   5.906  68.502  1.00  0.00    -0.111 A  
BRANCH  16  21
HETATM   21  N   UNL     1      -8.563   7.835  67.092  1.00  0.00    -0.126 NA 
HETATM   22  C   UNL     1      -8.876   9.260  67.312  1.00  0.00    -0.124 C  
HETATM   23  C   UNL     1      -8.140  10.095  66.266  1.00  0.00    -0.124 C  
HETATM   24  C   UNL     1      -8.483   9.634  64.847  1.00  0.00    -0.151 C  
HETATM   25  C   UNL     1      -9.022   7.362  65.784  1.00  0.00    -0.022 C  
HETATM   26  C   UNL     1      -8.243   8.125  64.724  1.00  0.00    -0.137 C  
BRANCH  24  27
HETATM   27  O   UNL     1      -9.861   9.972  64.609  1.00  0.00    -0.318 OA 
BRANCH  27  28
HETATM   28  C   UNL     1     -10.279  11.200  65.037  1.00  0.00    -0.296 A  
HETATM   29  C   UNL     1     -10.891  11.452  66.260  1.00  0.00    -0.318 A  
HETATM   30  C   UNL     1     -11.266  12.750  66.601  1.00  0.00    -0.344 A  
HETATM   31  C   UNL     1     -11.046  13.813  65.733  1.00  0.00    -0.289 A  
HETATM   32  C   UNL     1     -10.447  13.564  64.498  1.00  0.00    -0.426 A  
HETATM   33  C   UNL     1     -10.042  12.263  64.164  1.00  0.00    -0.329 A  
BRANCH  31  34
HETATM   34  O   UNL     1     -11.544  14.995  66.170  1.00  0.00    -0.286 OA 
HETATM   35  C   UNL     1     -10.936  15.657  67.265  1.00  0.00    -0.275 C  
HETATM   36  F   UNL     1     -10.585  16.904  66.879  1.00  0.00    -0.313 F  
HETATM   37  F   UNL     1      -9.850  15.038  67.766  1.00  0.00    -0.214 F  
HETATM   38  F   UNL     1     -11.849  15.769  68.259  1.00  0.00    -0.358 F  
ENDBRANCH  31  34
ENDBRANCH  27  28
ENDBRANCH  24  27
ENDBRANCH  16  21
ENDBRANCH  14  15
ENDBRANCH  13  14
ENDBRANCH   2  13
TORSDOF 7
ENDMDL
MODEL       92
REMARK 921   NORMALIZED FREE ENERGY PREDICTED BY IDOCK:   -4.71 KCAL/MOL
REMARK 922        TOTAL FREE ENERGY PREDICTED BY IDOCK:   -8.12 KCAL/MOL
REMARK 923 INTER-LIGAND FREE ENERGY PREDICTED BY IDOCK:   -7.40 KCAL/MOL
REMARK 924 INTRA-LIGAND FREE ENERGY PREDICTED BY IDOCK:   -0.72 KCAL/MOL
REMARK 927      BINDING AFFINITY PREDICTED BY RF-SCORE:    0.00 PKD
ROOT
HETATM    1  C   UNL     1     -10.028  16.526  66.756  1.00  0.00    -0.281 C  
HETATM    2  C   UNL     1     -10.347  15.093  67.175  1.00  0.00    -0.263 C  
HETATM    3  C   UNL     1     -10.130  13.327  65.833  1.00  0.00    -0.291 A  
HETATM    4  C   UNL     1      -9.078  14.320  67.625  1.00  0.00    -0.192 C  
HETATM    5  N   UNL     1      -9.100  13.221  66.696  1.00  0.00    -0.212 NA 
HETATM    6  O   UNL     1      -7.747   9.738  65.027  1.00  0.00    -0.114 OA 
HETATM    7  C   UNL     1      -8.391  12.115  66.428  1.00  0.00     0.106 A  
HETATM    8  O   UNL     1     -10.894  14.390  66.005  1.00  0.00    -0.299 OA 
HETATM    9  O   UNL     1      -9.466  10.028  63.677  1.00  0.00    -0.282 OA 
HETATM   10  C   UNL     1      -9.078  11.569  65.345  1.00  0.00    -0.052 A  
HETATM   11  N   UNL     1     -10.181  12.346  64.979  1.00  0.00    -0.286 NA 
HETATM   12  N   UNL     1      -8.745  10.358  64.627  1.00  0.00    -0.180 N  
ENDROOT
BRANCH   2  13
HETATM   13  C   UNL     1     -11.421  15.061  68.260  1.00  0.00    -0.332 C  
BRANCH  13  14
HETATM   14  O   UNL     1     -12.379  14.032  68.001  1.00  0.00    -0.239 OA 
BRANCH  14  15
HETATM   15  C   UNL     1     -12.097  12.850  68.629  1.00  0.00    -0.135 A  
HETATM   16  C   UNL     1     -11.737  10.410  70.070  1.00  0.00    -0.286 A  
HETATM   17  C   UNL     1     -11.715  11.685  67.979  1.00  0.00    -0.351 A  
HETATM   18  C   UNL     1     -12.206  12.830  70.012  1.00  0.00    -0.279 A  
HETATM   19  C   UNL     1     -11.543  10.498  68.688  1.00  0.00    -0.241 A  
HETATM   20  C   UNL     1     -12.021  11.629  70.714  1.00  0.00    -0.274 A  
BRANCH  16  21
HETATM   21  N   UNL     1     -11.595   9.206  70.741  1.00  0.00    -0.281 NA 
HETATM   22  C   UNL     1     -11.845   9.069  72.189  1.00  0.00    -0.313 C  
HETATM   23  C   UNL     1     -12.613   7.772  72.438  1.00  0.00    -0.105 C  
HETATM   24  C   UNL     1     -11.868   6.567  71.857  1.00  0.00    -0.334 C  
HETATM   25  C   UNL     1     -10.760   8.122  70.218  1.00  0.00    -0.235 C  
HETATM   26  C   UNL     1     -11.540   6.826  70.382  1.00  0.00    -0.422 C  
BRANCH  24  27
HETATM   27  O   UNL     1     -10.676   6.383  72.640  1.00  0.00    -0.215 OA 
BRANCH  27  28
HETATM   28  C   UNL     1      -9.783   5.450  72.197  1.00  0.00    -0.162 A  
HETATM   29  C   UNL     1      -8.447   5.703  71.903  1.00  0.00    -0.127 A  
HETATM   30  C   UNL     1      -7.618   4.671  71.469  1.00  0.00    -0.082 A  
HETATM   31  C   UNL     1      -8.103   3.376  71.314  1.00  0.00    -0.060 A  
HETATM   32  C   UNL     1      -9.445   3.120  71.592  1.00  0.00    -0.214 A  
HETATM   33  C   UNL     1     -10.275   4.152  72.057  1.00  0.00    -0.200 A  
BRANCH  31  34
HETATM   34  O   UNL     1      -7.199   2.506  70.803  1.00  0.00    -0.033 OA 
HETATM   35  C   UNL     1      -6.780   2.631  69.455  1.00  0.00    -0.033 C  
HETATM   36  F   UNL     1      -5.434   2.748  69.426  1.00  0.00    -0.013 F  
HETATM   37  F   UNL     1      -7.318   3.671  68.791  1.00  0.00    -0.051 F  
HETATM   38  F   UNL     1      -7.114   1.496  68.796  1.00  0.00    -0.035 F  
ENDBRANCH  31  34
ENDBRANCH  27  28
ENDBRANCH  24  27
ENDBRANCH  16  21
ENDBRANCH  14  15
ENDBRANCH  13  14
ENDBRANCH   2  13
TORSDOF 7
ENDMDL
MODEL       93
REMARK 921   NORMALIZED FREE ENERGY PREDICTED BY IDOCK:   -4.65 KCAL/MOL
REMARK 922        TOTAL FREE ENERGY PREDICTED BY IDOCK:   -8.03 KCAL/MOL
REMARK 923 INTER-LIGAND FREE ENERGY PREDICTED BY IDOCK:   -6.84 KCAL/MOL
REMARK 924 INTRA-LIGAND FREE ENERGY PREDICTED BY IDOCK:   -1.20 KCAL/MOL
REMARK 927      BINDING AFFINITY PREDICTED BY RF-SCORE:    0.00 PKD
ROOT
HETATM    1  C   UNL     1      -8.071   2.196  68.104  1.00  0.00    -0.067 C  
HETATM    2  C   UNL     1      -7.817   3.483  68.887  1.00  0.00    -0.051 C  
HETATM    3  C   UNL     1      -9.386   5.005  69.319  1.00  0.00    -0.125 A  
HETATM    4  C   UNL     1      -8.203   3.341  70.384  1.00  0.00    -0.051 C  
HETATM    5  N   UNL     1      -9.181   4.390  70.500  1.00  0.00    -0.113 NA 
HETATM    6  O   UNL     1     -11.901   6.733  72.465  1.00  0.00    -0.218 OA 
HETATM    7  C   UNL     1      -9.960   4.940  71.443  1.00  0.00    -0.197 A  
HETATM    8  O   UNL     1      -8.668   4.536  68.314  1.00  0.00    -0.097 OA 
HETATM    9  O   UNL     1     -12.146   7.654  70.477  1.00  0.00    -0.120 OA 
HETATM   10  C   UNL     1     -10.640   5.930  70.735  1.00  0.00    -0.265 A  
HETATM   11  N   UNL     1     -10.265   5.963  69.390  1.00  0.00    -0.199 NA 
HETATM   12  N   UNL     1     -11.635   6.841  71.257  1.00  0.00    -0.301 N  
ENDROOT
BRANCH   2  13
HETATM   13  C   UNL     1      -6.369   3.944  68.736  1.00  0.00    -0.033 C  
BRANCH  13  14
HETATM   14  O   UNL     1      -5.964   4.731  69.858  1.00  0.00    -0.016 OA 
BRANCH  14  15
HETATM   15  C   UNL     1      -6.156   6.074  69.685  1.00  0.00    -0.026 A  
HETATM   16  C   UNL     1      -6.700   8.818  69.107  1.00  0.00    -0.051 A  
HETATM   17  C   UNL     1      -6.581   6.944  70.679  1.00  0.00    -0.052 A  
HETATM   18  C   UNL     1      -5.906   6.587  68.420  1.00  0.00    -0.020 A  
HETATM   19  C   UNL     1      -6.846   8.281  70.389  1.00  0.00    -0.036 A  
HETATM   20  C   UNL     1      -6.169   7.938  68.145  1.00  0.00    -0.046 A  
BRANCH  16  21
HETATM   21  N   UNL     1      -7.008  10.143  68.842  1.00  0.00    -0.061 NA 
HETATM   22  C   UNL     1      -6.863  11.210  69.851  1.00  0.00    -0.057 C  
HETATM   23  C   UNL     1      -6.253  12.441  69.185  1.00  0.00    -0.090 C  
HETATM   24  C   UNL     1      -7.083  12.888  67.978  1.00  0.00    -0.111 C  
HETATM   25  C   UNL     1      -7.919  10.524  67.759  1.00  0.00    -0.106 C  
HETATM   26  C   UNL     1      -7.291  11.701  67.029  1.00  0.00    -0.143 C  
BRANCH  24  27
HETATM   27  O   UNL     1      -8.333  13.388  68.481  1.00  0.00    -0.151 OA 
BRANCH  27  28
HETATM   28  C   UNL     1      -9.391  13.393  67.616  1.00  0.00    -0.217 A  
HETATM   29  C   UNL     1     -10.515  12.583  67.729  1.00  0.00    -0.230 A  
HETATM   30  C   UNL     1     -11.545  12.679  66.795  1.00  0.00    -0.438 A  
HETATM   31  C   UNL     1     -11.470  13.574  65.733  1.00  0.00    -0.315 A  
HETATM   32  C   UNL     1     -10.337  14.377  65.606  1.00  0.00    -0.360 A  
HETATM   33  C   UNL     1      -9.312  14.303  66.561  1.00  0.00    -0.292 A  
BRANCH  31  34
HETATM   34  O   UNL     1     -12.506  13.487  64.865  1.00  0.00    -0.477 OA 
HETATM   35  C   UNL     1     -12.396  12.674  63.710  1.00  0.00    -0.478 C  
HETATM   36  F   UNL     1     -13.410  11.781  63.708  1.00  0.00    -0.516 F  
HETATM   37  F   UNL     1     -11.232  12.007  63.599  1.00  0.00    -0.374 F  
HETATM   38  F   UNL     1     -12.532  13.462  62.617  1.00  0.00    -0.336 F  
ENDBRANCH  31  34
ENDBRANCH  27  28
ENDBRANCH  24  27
ENDBRANCH  16  21
ENDBRANCH  14  15
ENDBRANCH  13  14
ENDBRANCH   2  13
TORSDOF 7
ENDMDL
MODEL       94
REMARK 921   NORMALIZED FREE ENERGY PREDICTED BY IDOCK:   -4.62 KCAL/MOL
REMARK 922        TOTAL FREE ENERGY PREDICTED BY IDOCK:   -7.99 KCAL/MOL
REMARK 923 INTER-LIGAND FREE ENERGY PREDICTED BY IDOCK:   -7.69 KCAL/MOL
REMARK 924 INTRA-LIGAND FREE ENERGY PREDICTED BY IDOCK:   -0.30 KCAL/MOL
REMARK 927      BINDING AFFINITY PREDICTED BY RF-SCORE:    0.00 PKD
ROOT
HETATM    1  C   UNL     1     -12.909  13.745  65.540  1.00  0.00    -0.464 C  
HETATM    2  C   UNL     1     -11.479  13.306  65.849  1.00  0.00    -0.332 C  
HETATM    3  C   UNL     1     -10.598  11.373  65.175  1.00  0.00    -0.293 A  
HETATM    4  C   UNL     1     -10.506  13.621  64.681  1.00  0.00    -0.423 C  
HETATM    5  N   UNL     1     -10.015  12.300  64.391  1.00  0.00    -0.243 NA 
HETATM    6  O   UNL     1      -7.733   9.536  62.414  1.00  0.00    -0.111 OA 
HETATM    7  C   UNL     1      -9.142  11.711  63.559  1.00  0.00     0.132 A  
HETATM    8  O   UNL     1     -11.483  11.848  66.033  1.00  0.00    -0.341 OA 
HETATM    9  O   UNL     1      -8.761   8.121  63.755  1.00  0.00     0.146 OA 
HETATM   10  C   UNL     1      -9.249  10.366  63.911  1.00  0.00    -0.266 A  
HETATM   11  N   UNL     1     -10.173  10.166  64.939  1.00  0.00    -0.224 NA 
HETATM   12  N   UNL     1      -8.532   9.257  63.321  1.00  0.00    -0.195 N  
ENDROOT
BRANCH   2  13
HETATM   13  C   UNL     1     -10.984  13.922  67.156  1.00  0.00    -0.291 C  
BRANCH  13  14
HETATM   14  O   UNL     1     -11.838  13.566  68.245  1.00  0.00    -0.337 OA 
BRANCH  14  15
HETATM   15  C   UNL     1     -11.430  12.449  68.920  1.00  0.00    -0.307 A  
HETATM   16  C   UNL     1     -10.794   9.995  70.237  1.00  0.00    -0.313 A  
HETATM   17  C   UNL     1     -10.154  11.908  68.848  1.00  0.00    -0.060 A  
HETATM   18  C   UNL     1     -12.368  11.823  69.727  1.00  0.00    -0.175 A  
HETATM   19  C   UNL     1      -9.852  10.709  69.492  1.00  0.00    -0.115 A  
HETATM   20  C   UNL     1     -12.047  10.621  70.378  1.00  0.00    -0.430 A  
BRANCH  16  21
HETATM   21  N   UNL     1     -10.473   8.786  70.835  1.00  0.00    -0.208 NA 
HETATM   22  C   UNL     1      -9.703   8.700  72.090  1.00  0.00    -0.313 C  
HETATM   23  C   UNL     1     -10.334   7.634  72.985  1.00  0.00    -0.393 C  
HETATM   24  C   UNL     1     -10.426   6.287  72.262  1.00  0.00    -0.199 C  
HETATM   25  C   UNL     1     -10.439   7.533  70.076  1.00  0.00    -0.228 C  
HETATM   26  C   UNL     1     -11.135   6.473  70.915  1.00  0.00    -0.345 C  
BRANCH  24  27
HETATM   27  O   UNL     1      -9.083   5.802  72.090  1.00  0.00    -0.143 OA 
BRANCH  27  28
HETATM   28  C   UNL     1      -8.849   4.999  71.009  1.00  0.00    -0.131 A  
HETATM   29  C   UNL     1      -9.736   4.046  70.519  1.00  0.00    -0.258 A  
HETATM   30  C   UNL     1      -9.400   3.290  69.398  1.00  0.00    -0.232 A  
HETATM   31  C   UNL     1      -8.180   3.462  68.753  1.00  0.00    -0.060 A  
HETATM   32  C   UNL     1      -7.281   4.405  69.251  1.00  0.00    -0.051 A  
HETATM   33  C   UNL     1      -7.628   5.189  70.362  1.00  0.00    -0.070 A  
BRANCH  31  34
HETATM   34  O   UNL     1      -7.966   2.594  67.736  1.00  0.00    -0.063 OA 
HETATM   35  C   UNL     1      -8.042   3.044  66.394  1.00  0.00    -0.085 C  
HETATM   36  F   UNL     1      -6.876   2.758  65.772  1.00  0.00    -0.042 F  
HETATM   37  F   UNL     1      -8.295   4.359  66.254  1.00  0.00    -0.110 F  
HETATM   38  F   UNL     1      -9.027   2.358  65.768  1.00  0.00    -0.119 F  
ENDBRANCH  31  34
ENDBRANCH  27  28
ENDBRANCH  24  27
ENDBRANCH  16  21
ENDBRANCH  14  15
ENDBRANCH  13  14
ENDBRANCH   2  13
TORSDOF 7
ENDMDL
MODEL       95
REMARK 921   NORMALIZED FREE ENERGY PREDICTED BY IDOCK:   -4.61 KCAL/MOL
REMARK 922        TOTAL FREE ENERGY PREDICTED BY IDOCK:   -7.98 KCAL/MOL
REMARK 923 INTER-LIGAND FREE ENERGY PREDICTED BY IDOCK:   -6.51 KCAL/MOL
REMARK 924 INTRA-LIGAND FREE ENERGY PREDICTED BY IDOCK:   -1.47 KCAL/MOL
REMARK 927      BINDING AFFINITY PREDICTED BY RF-SCORE:    0.00 PKD
ROOT
HETATM    1  C   UNL     1     -10.705  17.847  68.703  1.00  0.00    -0.021 C  
HETATM    2  C   UNL     1      -9.216  17.580  68.493  1.00  0.00    -0.278 C  
HETATM    3  C   UNL     1      -8.106  18.117  66.637  1.00  0.00    -0.260 A  
HETATM    4  C   UNL     1      -8.348  18.826  68.815  1.00  0.00    -0.287 C  
HETATM    5  N   UNL     1      -7.691  19.018  67.549  1.00  0.00    -0.239 NA 
HETATM    6  O   UNL     1      -5.138  20.851  64.928  1.00  0.00    -0.181 OA 
HETATM    7  C   UNL     1      -6.783  19.839  67.001  1.00  0.00    -0.199 A  
HETATM    8  O   UNL     1      -9.010  17.258  67.074  1.00  0.00    -0.221 OA 
HETATM    9  O   UNL     1      -5.900  19.325  63.532  1.00  0.00    -0.425 OA 
HETATM   10  C   UNL     1      -6.687  19.355  65.696  1.00  0.00    -0.275 A  
HETATM   11  N   UNL     1      -7.528  18.261  65.480  1.00  0.00    -0.512 NA 
HETATM   12  N   UNL     1      -5.850  19.877  64.638  1.00  0.00    -0.220 N  
ENDROOT
BRANCH   2  13
HETATM   13  C   UNL     1      -8.754  16.368  69.299  1.00  0.00    -0.108 C  
BRANCH  13  14
HETATM   14  O   UNL     1      -7.593  15.777  68.712  1.00  0.00    -0.150 OA 
BRANCH  14  15
HETATM   15  C   UNL     1      -7.683  14.420  68.566  1.00  0.00    -0.135 A  
HETATM   16  C   UNL     1      -7.783  11.565  68.509  1.00  0.00    -0.134 A  
HETATM   17  C   UNL     1      -8.797  13.753  68.076  1.00  0.00    -0.182 A  
HETATM   18  C   UNL     1      -6.575  13.672  68.938  1.00  0.00    -0.105 A  
HETATM   19  C   UNL     1      -8.840  12.360  68.054  1.00  0.00    -0.187 A  
HETATM   20  C   UNL     1      -6.629  12.269  68.902  1.00  0.00    -0.094 A  
BRANCH  16  21
HETATM   21  N   UNL     1      -7.871  10.183  68.509  1.00  0.00    -0.092 NA 
HETATM   22  C   UNL     1      -7.041   9.333  69.385  1.00  0.00    -0.053 C  
HETATM   23  C   UNL     1      -7.911   8.217  69.960  1.00  0.00    -0.103 C  
HETATM   24  C   UNL     1      -8.594   7.417  68.848  1.00  0.00    -0.129 C  
HETATM   25  C   UNL     1      -8.408   9.441  67.365  1.00  0.00    -0.125 C  
HETATM   26  C   UNL     1      -9.342   8.373  67.911  1.00  0.00    -0.147 C  
BRANCH  24  27
HETATM   27  O   UNL     1      -7.567   6.690  68.152  1.00  0.00    -0.099 OA 
BRANCH  27  28
HETATM   28  C   UNL     1      -7.974   5.837  67.165  1.00  0.00    -0.102 A  
HETATM   29  C   UNL     1      -7.700   5.997  65.811  1.00  0.00    -0.097 A  
HETATM   30  C   UNL     1      -8.154   5.056  64.889  1.00  0.00    -0.112 A  
HETATM   31  C   UNL     1      -8.891   3.949  65.295  1.00  0.00    -0.126 A  
HETATM   32  C   UNL     1      -9.182   3.792  66.650  1.00  0.00    -0.188 A  
HETATM   33  C   UNL     1      -8.702   4.722  67.584  1.00  0.00    -0.106 A  
BRANCH  31  34
HETATM   34  O   UNL     1      -9.332   3.175  64.275  1.00  0.00    -0.125 OA 
HETATM   35  C   UNL     1     -10.638   3.364  63.757  1.00  0.00    -0.265 C  
HETATM   36  F   UNL     1     -10.549   3.604  62.430  1.00  0.00    -0.148 F  
HETATM   37  F   UNL     1     -11.333   4.364  64.331  1.00  0.00    -0.238 F  
HETATM   38  F   UNL     1     -11.336   2.216  63.927  1.00  0.00    -0.041 F  
ENDBRANCH  31  34
ENDBRANCH  27  28
ENDBRANCH  24  27
ENDBRANCH  16  21
ENDBRANCH  14  15
ENDBRANCH  13  14
ENDBRANCH   2  13
TORSDOF 7
ENDMDL
MODEL       96
REMARK 921   NORMALIZED FREE ENERGY PREDICTED BY IDOCK:   -4.60 KCAL/MOL
REMARK 922        TOTAL FREE ENERGY PREDICTED BY IDOCK:   -7.97 KCAL/MOL
REMARK 923 INTER-LIGAND FREE ENERGY PREDICTED BY IDOCK:   -6.53 KCAL/MOL
REMARK 924 INTRA-LIGAND FREE ENERGY PREDICTED BY IDOCK:   -1.44 KCAL/MOL
REMARK 927      BINDING AFFINITY PREDICTED BY RF-SCORE:    0.00 PKD
ROOT
HETATM    1  C   UNL     1     -10.384  18.801  68.115  1.00  0.00    -0.419 C  
HETATM    2  C   UNL     1      -9.733  17.661  67.335  1.00  0.00    -0.283 C  
HETATM    3  C   UNL     1     -10.784  15.777  66.777  1.00  0.00    -0.293 A  
HETATM    4  C   UNL     1     -10.049  17.737  65.817  1.00  0.00    -0.061 C  
HETATM    5  N   UNL     1     -10.686  16.462  65.621  1.00  0.00    -0.312 NA 
HETATM    6  O   UNL     1     -12.516  13.518  63.446  1.00  0.00    -0.750 OA 
HETATM    7  C   UNL     1     -11.221  15.747  64.620  1.00  0.00    -0.363 A  
HETATM    8  O   UNL     1     -10.290  16.396  67.835  1.00  0.00    -0.267 OA 
HETATM    9  O   UNL     1     -12.617  12.503  65.400  1.00  0.00    -0.656 OA 
HETATM   10  C   UNL     1     -11.640  14.585  65.267  1.00  0.00    -0.359 A  
HETATM   11  N   UNL     1     -11.354  14.616  66.634  1.00  0.00    -0.350 NA 
HETATM   12  N   UNL     1     -12.306  13.450  64.667  1.00  0.00    -0.393 N  
ENDROOT
BRANCH   2  13
HETATM   13  C   UNL     1      -8.226  17.616  67.579  1.00  0.00    -0.216 C  
BRANCH  13  14
HETATM   14  O   UNL     1      -7.927  16.953  68.810  1.00  0.00    -0.242 OA 
BRANCH  14  15
HETATM   15  C   UNL     1      -7.511  15.661  68.650  1.00  0.00    -0.130 A  
HETATM   16  C   UNL     1      -6.849  12.888  68.464  1.00  0.00    -0.095 A  
HETATM   17  C   UNL     1      -7.192  15.082  67.430  1.00  0.00    -0.224 A  
HETATM   18  C   UNL     1      -7.408  14.886  69.796  1.00  0.00    -0.100 A  
HETATM   19  C   UNL     1      -6.871  13.728  67.347  1.00  0.00    -0.038 A  
HETATM   20  C   UNL     1      -7.075  13.526  69.698  1.00  0.00     0.279 A  
BRANCH  16  21
HETATM   21  N   UNL     1      -6.564  11.537  68.343  1.00  0.00    -0.058 NA 
HETATM   22  C   UNL     1      -5.185  11.011  68.356  1.00  0.00    -0.039 C  
HETATM   23  C   UNL     1      -5.147   9.744  69.208  1.00  0.00    -0.036 C  
HETATM   24  C   UNL     1      -6.161   8.711  68.711  1.00  0.00    -0.045 C  
HETATM   25  C   UNL     1      -7.510  10.598  67.735  1.00  0.00    -0.091 C  
HETATM   26  C   UNL     1      -7.548   9.357  68.613  1.00  0.00    -0.080 C  
BRANCH  24  27
HETATM   27  O   UNL     1      -5.703   8.244  67.431  1.00  0.00    -0.037 OA 
BRANCH  27  28
HETATM   28  C   UNL     1      -6.189   7.042  67.001  1.00  0.00    -0.041 A  
HETATM   29  C   UNL     1      -6.524   5.976  67.830  1.00  0.00    -0.046 A  
HETATM   30  C   UNL     1      -7.025   4.796  67.285  1.00  0.00    -0.061 A  
HETATM   31  C   UNL     1      -7.195   4.653  65.912  1.00  0.00    -0.076 A  
HETATM   32  C   UNL     1      -6.847   5.713  65.075  1.00  0.00    -0.051 A  
HETATM   33  C   UNL     1      -6.369   6.913  65.623  1.00  0.00    -0.043 A  
BRANCH  31  34
HETATM   34  O   UNL     1      -7.608   3.421  65.533  1.00  0.00    -0.076 OA 
HETATM   35  C   UNL     1      -8.949   3.220  65.119  1.00  0.00    -0.140 C  
HETATM   36  F   UNL     1      -8.946   2.684  63.878  1.00  0.00    -0.094 F  
HETATM   37  F   UNL     1      -9.708   4.331  65.108  1.00  0.00    -0.153 F  
HETATM   38  F   UNL     1      -9.526   2.326  65.957  1.00  0.00    -0.092 F  
ENDBRANCH  31  34
ENDBRANCH  27  28
ENDBRANCH  24  27
ENDBRANCH  16  21
ENDBRANCH  14  15
ENDBRANCH  13  14
ENDBRANCH   2  13
TORSDOF 7
ENDMDL
MODEL       97
REMARK 921   NORMALIZED FREE ENERGY PREDICTED BY IDOCK:   -4.57 KCAL/MOL
REMARK 922        TOTAL FREE ENERGY PREDICTED BY IDOCK:   -7.92 KCAL/MOL
REMARK 923 INTER-LIGAND FREE ENERGY PREDICTED BY IDOCK:   -7.46 KCAL/MOL
REMARK 924 INTRA-LIGAND FREE ENERGY PREDICTED BY IDOCK:   -0.46 KCAL/MOL
REMARK 927      BINDING AFFINITY PREDICTED BY RF-SCORE:    0.00 PKD
ROOT
HETATM    1  C   UNL     1      -9.085   7.104  66.316  1.00  0.00    -0.182 C  
HETATM    2  C   UNL     1      -8.207   6.530  67.425  1.00  0.00    -0.121 C  
HETATM    3  C   UNL     1      -9.001   5.458  69.211  1.00  0.00    -0.104 A  
HETATM    4  C   UNL     1      -7.925   5.017  67.223  1.00  0.00    -0.099 C  
HETATM    5  N   UNL     1      -8.461   4.487  68.449  1.00  0.00    -0.092 NA 
HETATM    6  O   UNL     1      -9.381   1.538  71.133  1.00  0.00    -0.085 OA 
HETATM    7  C   UNL     1      -8.589   3.300  69.061  1.00  0.00    -0.076 A  
HETATM    8  O   UNL     1      -8.932   6.673  68.696  1.00  0.00    -0.125 OA 
HETATM    9  O   UNL     1     -10.230   3.217  72.283  1.00  0.00    -0.161 OA 
HETATM   10  C   UNL     1      -9.241   3.641  70.246  1.00  0.00    -0.152 A  
HETATM   11  N   UNL     1      -9.493   5.012  70.330  1.00  0.00    -0.159 NA 
HETATM   12  N   UNL     1      -9.649   2.738  71.301  1.00  0.00    -0.153 N  
ENDROOT
BRANCH   2  13
HETATM   13  C   UNL     1      -6.905   7.317  67.561  1.00  0.00    -0.074 C  
BRANCH  13  14
HETATM   14  O   UNL     1      -6.923   8.135  68.733  1.00  0.00    -0.064 OA 
BRANCH  14  15
HETATM   15  C   UNL     1      -7.473   9.371  68.530  1.00  0.00    -0.080 A  
HETATM   16  C   UNL     1      -8.686  11.870  67.862  1.00  0.00    -0.167 A  
HETATM   17  C   UNL     1      -8.359   9.991  69.399  1.00  0.00    -0.169 A  
HETATM   18  C   UNL     1      -7.111  10.038  67.368  1.00  0.00    -0.084 A  
HETATM   19  C   UNL     1      -8.949  11.209  69.065  1.00  0.00    -0.027 A  
HETATM   20  C   UNL     1      -7.706  11.269  67.049  1.00  0.00    -0.147 A  
BRANCH  16  21
HETATM   21  N   UNL     1      -9.317  13.061  67.542  1.00  0.00    -0.193 NA 
HETATM   22  C   UNL     1     -10.191  13.207  66.363  1.00  0.00    -0.286 C  
HETATM   23  C   UNL     1     -11.423  14.019  66.757  1.00  0.00    -0.379 C  
HETATM   24  C   UNL     1     -11.027  15.370  67.360  1.00  0.00    -0.312 C  
HETATM   25  C   UNL     1      -8.825  14.353  68.030  1.00  0.00    -0.178 C  
HETATM   26  C   UNL     1     -10.030  15.150  68.504  1.00  0.00    -0.223 C  
BRANCH  24  27
HETATM   27  O   UNL     1     -10.454  16.158  66.303  1.00  0.00    -0.310 OA 
BRANCH  27  28
HETATM   28  C   UNL     1      -9.730  17.256  66.673  1.00  0.00    -0.288 A  
HETATM   29  C   UNL     1      -8.427  17.524  66.266  1.00  0.00    -0.247 A  
HETATM   30  C   UNL     1      -7.785  18.685  66.694  1.00  0.00    -0.265 A  
HETATM   31  C   UNL     1      -8.422  19.590  67.536  1.00  0.00    -0.302 A  
HETATM   32  C   UNL     1      -9.723  19.317  67.959  1.00  0.00    -0.430 A  
HETATM   33  C   UNL     1     -10.382  18.165  67.507  1.00  0.00    -0.405 A  
BRANCH  31  34
HETATM   34  O   UNL     1      -7.638  20.621  67.931  1.00  0.00    -0.215 OA 
HETATM   35  C   UNL     1      -6.333  20.370  68.422  1.00  0.00    -0.315 C  
HETATM   36  F   UNL     1      -5.447  21.076  67.684  1.00  0.00    -0.218 F  
HETATM   37  F   UNL     1      -5.967  19.074  68.414  1.00  0.00    -0.203 F  
HETATM   38  F   UNL     1      -6.262  20.817  69.699  1.00  0.00    -0.370 F  
ENDBRANCH  31  34
ENDBRANCH  27  28
ENDBRANCH  24  27
ENDBRANCH  16  21
ENDBRANCH  14  15
ENDBRANCH  13  14
ENDBRANCH   2  13
TORSDOF 7
ENDMDL
MODEL       98
REMARK 921   NORMALIZED FREE ENERGY PREDICTED BY IDOCK:   -4.51 KCAL/MOL
REMARK 922        TOTAL FREE ENERGY PREDICTED BY IDOCK:   -7.84 KCAL/MOL
REMARK 923 INTER-LIGAND FREE ENERGY PREDICTED BY IDOCK:   -6.14 KCAL/MOL
REMARK 924 INTRA-LIGAND FREE ENERGY PREDICTED BY IDOCK:   -1.70 KCAL/MOL
REMARK 927      BINDING AFFINITY PREDICTED BY RF-SCORE:    0.00 PKD
ROOT
HETATM    1  C   UNL     1      -6.762  18.932  69.194  1.00  0.00    -0.326 C  
HETATM    2  C   UNL     1      -6.852  17.504  68.662  1.00  0.00    -0.227 C  
HETATM    3  C   UNL     1      -8.771  16.463  68.214  1.00  0.00    -0.201 A  
HETATM    4  C   UNL     1      -7.012  17.466  67.117  1.00  0.00    -0.174 C  
HETATM    5  N   UNL     1      -8.256  16.752  67.004  1.00  0.00    -0.180 NA 
HETATM    6  O   UNL     1     -11.359  14.993  64.998  1.00  0.00    -0.370 OA 
HETATM    7  C   UNL     1      -9.066  16.289  66.039  1.00  0.00    -0.297 A  
HETATM    8  O   UNL     1      -8.051  16.880  69.240  1.00  0.00    -0.142 OA 
HETATM    9  O   UNL     1     -12.095  14.583  67.036  1.00  0.00    -0.398 OA 
HETATM   10  C   UNL     1     -10.098  15.700  66.769  1.00  0.00    -0.272 A  
HETATM   11  N   UNL     1      -9.897  15.814  68.146  1.00  0.00    -0.209 NA 
HETATM   12  N   UNL     1     -11.271  15.043  66.235  1.00  0.00    -0.336 N  
ENDROOT
BRANCH   2  13
HETATM   13  C   UNL     1      -5.652  16.671  69.109  1.00  0.00    -0.139 C  
BRANCH  13  14
HETATM   14  O   UNL     1      -5.388  15.617  68.181  1.00  0.00    -0.101 OA 
BRANCH  14  15
HETATM   15  C   UNL     1      -5.975  14.429  68.520  1.00  0.00    -0.093 A  
HETATM   16  C   UNL     1      -7.066  11.838  69.027  1.00  0.00    -0.100 A  
HETATM   17  C   UNL     1      -6.000  13.902  69.804  1.00  0.00    -0.124 A  
HETATM   18  C   UNL     1      -6.579  13.711  67.498  1.00  0.00    -0.122 A  
HETATM   19  C   UNL     1      -6.533  12.636  70.043  1.00  0.00     0.104 A  
HETATM   20  C   UNL     1      -7.120  12.441  67.756  1.00  0.00    -0.120 A  
BRANCH  16  21
HETATM   21  N   UNL     1      -7.554  10.568  69.290  1.00  0.00    -0.122 NA 
HETATM   22  C   UNL     1      -7.085   9.757  70.430  1.00  0.00    -0.141 C  
HETATM   23  C   UNL     1      -8.288   9.079  71.083  1.00  0.00    -0.212 C  
HETATM   24  C   UNL     1      -9.079   8.253  70.065  1.00  0.00    -0.150 C  
HETATM   25  C   UNL     1      -8.186   9.750  68.251  1.00  0.00    -0.105 C  
HETATM   26  C   UNL     1      -9.434   9.128  68.857  1.00  0.00    -0.151 C  
BRANCH  24  27
HETATM   27  O   UNL     1      -8.255   7.137  69.687  1.00  0.00    -0.127 OA 
BRANCH  27  28
HETATM   28  C   UNL     1      -8.478   5.955  70.336  1.00  0.00    -0.131 A  
HETATM   29  C   UNL     1      -7.609   5.375  71.253  1.00  0.00    -0.101 A  
HETATM   30  C   UNL     1      -7.943   4.170  71.868  1.00  0.00    -0.084 A  
HETATM   31  C   UNL     1      -9.138   3.522  71.577  1.00  0.00    -0.112 A  
HETATM   32  C   UNL     1     -10.006   4.092  70.646  1.00  0.00    -0.141 A  
HETATM   33  C   UNL     1      -9.686   5.319  70.047  1.00  0.00    -0.263 A  
BRANCH  31  34
HETATM   34  O   UNL     1      -9.278   2.321  72.189  1.00  0.00    -0.077 OA 
HETATM   35  C   UNL     1      -9.669   2.261  73.549  1.00  0.00    -0.090 C  
HETATM   36  F   UNL     1     -10.782   1.500  73.649  1.00  0.00    -0.135 F  
HETATM   37  F   UNL     1      -9.911   3.457  74.120  1.00  0.00    -0.117 F  
HETATM   38  F   UNL     1      -8.684   1.654  74.252  1.00  0.00    -0.052 F  
ENDBRANCH  31  34
ENDBRANCH  27  28
ENDBRANCH  24  27
ENDBRANCH  16  21
ENDBRANCH  14  15
ENDBRANCH  13  14
ENDBRANCH   2  13
TORSDOF 7
ENDMDL
MODEL       99
REMARK 921   NORMALIZED FREE ENERGY PREDICTED BY IDOCK:   -4.49 KCAL/MOL
REMARK 922        TOTAL FREE ENERGY PREDICTED BY IDOCK:   -7.80 KCAL/MOL
REMARK 923 INTER-LIGAND FREE ENERGY PREDICTED BY IDOCK:   -7.93 KCAL/MOL
REMARK 924 INTRA-LIGAND FREE ENERGY PREDICTED BY IDOCK:    0.13 KCAL/MOL
REMARK 927      BINDING AFFINITY PREDICTED BY RF-SCORE:    0.00 PKD
ROOT
HETATM    1  C   UNL     1     -12.241  12.402  65.009  1.00  0.00    -0.465 C  
HETATM    2  C   UNL     1     -11.022  13.160  65.529  1.00  0.00    -0.277 C  
HETATM    3  C   UNL     1     -10.774  15.370  65.378  1.00  0.00    -0.400 A  
HETATM    4  C   UNL     1     -11.263  13.754  66.944  1.00  0.00    -0.313 C  
HETATM    5  N   UNL     1     -11.042  15.151  66.680  1.00  0.00    -0.327 NA 
HETATM    6  O   UNL     1     -10.755  19.115  67.654  1.00  0.00    -0.448 OA 
HETATM    7  C   UNL     1     -11.027  16.312  67.352  1.00  0.00    -0.175 A  
HETATM    8  O   UNL     1     -10.769  14.288  64.620  1.00  0.00    -0.412 OA 
HETATM    9  O   UNL     1     -10.332  19.340  65.502  1.00  0.00    -0.469 OA 
HETATM   10  C   UNL     1     -10.726  17.236  66.352  1.00  0.00    -0.072 A  
HETATM   11  N   UNL     1     -10.566  16.626  65.106  1.00  0.00    -0.676 NA 
HETATM   12  N   UNL     1     -10.593  18.668  66.507  1.00  0.00    -0.397 N  
ENDROOT
BRANCH   2  13
HETATM   13  C   UNL     1      -9.775  12.280  65.510  1.00  0.00    -0.161 C  
BRANCH  13  14
HETATM   14  O   UNL     1     -10.128  10.895  65.506  1.00  0.00    -0.242 OA 
BRANCH  14  15
HETATM   15  C   UNL     1      -9.957  10.283  66.718  1.00  0.00    -0.209 A  
HETATM   16  C   UNL     1      -9.789   8.833  69.173  1.00  0.00    -0.181 A  
HETATM   17  C   UNL     1      -8.729   9.910  67.246  1.00  0.00    -0.131 A  
HETATM   18  C   UNL     1     -11.102  10.021  67.457  1.00  0.00    -0.190 A  
HETATM   19  C   UNL     1      -8.655   9.201  68.444  1.00  0.00    -0.129 A  
HETATM   20  C   UNL     1     -11.011   9.314  68.667  1.00  0.00    -0.039 A  
BRANCH  16  21
HETATM   21  N   UNL     1      -9.685   8.095  70.342  1.00  0.00    -0.177 NA 
HETATM   22  C   UNL     1      -8.756   6.958  70.483  1.00  0.00    -0.150 C  
HETATM   23  C   UNL     1      -8.090   7.031  71.857  1.00  0.00    -0.098 C  
HETATM   24  C   UNL     1      -9.134   7.075  72.976  1.00  0.00    -0.132 C  
HETATM   25  C   UNL     1     -10.766   8.054  71.330  1.00  0.00    -0.229 C  
HETATM   26  C   UNL     1     -10.133   8.206  72.705  1.00  0.00    -0.379 C  
BRANCH  24  27
HETATM   27  O   UNL     1      -9.782   5.792  73.007  1.00  0.00    -0.154 OA 
BRANCH  27  28
HETATM   28  C   UNL     1      -9.154   4.766  72.361  1.00  0.00    -0.126 A  
HETATM   29  C   UNL     1      -7.948   4.196  72.757  1.00  0.00    -0.085 A  
HETATM   30  C   UNL     1      -7.401   3.140  72.030  1.00  0.00    -0.051 A  
HETATM   31  C   UNL     1      -8.037   2.641  70.898  1.00  0.00    -0.049 A  
HETATM   32  C   UNL     1      -9.238   3.220  70.488  1.00  0.00    -0.213 A  
HETATM   33  C   UNL     1      -9.806   4.263  71.234  1.00  0.00    -0.257 A  
BRANCH  31  34
HETATM   34  O   UNL     1      -7.338   1.677  70.253  1.00  0.00    -0.033 OA 
HETATM   35  C   UNL     1      -6.357   2.034  69.295  1.00  0.00    -0.025 C  
HETATM   36  F   UNL     1      -5.178   1.478  69.652  1.00  0.00    -0.006 F  
HETATM   37  F   UNL     1      -6.180   3.359  69.136  1.00  0.00    -0.025 F  
HETATM   38  F   UNL     1      -6.718   1.513  68.098  1.00  0.00    -0.030 F  
ENDBRANCH  31  34
ENDBRANCH  27  28
ENDBRANCH  24  27
ENDBRANCH  16  21
ENDBRANCH  14  15
ENDBRANCH  13  14
ENDBRANCH   2  13
TORSDOF 7
ENDMDL
MODEL      100
REMARK 921   NORMALIZED FREE ENERGY PREDICTED BY IDOCK:   -4.46 KCAL/MOL
REMARK 922        TOTAL FREE ENERGY PREDICTED BY IDOCK:   -7.77 KCAL/MOL
REMARK 923 INTER-LIGAND FREE ENERGY PREDICTED BY IDOCK:   -7.20 KCAL/MOL
REMARK 924 INTRA-LIGAND FREE ENERGY PREDICTED BY IDOCK:   -0.58 KCAL/MOL
REMARK 927      BINDING AFFINITY PREDICTED BY RF-SCORE:    0.00 PKD
ROOT
HETATM    1  C   UNL     1     -10.623  18.894  67.714  1.00  0.00    -0.471 C  
HETATM    2  C   UNL     1      -9.951  17.867  66.807  1.00  0.00    -0.339 C  
HETATM    3  C   UNL     1     -10.786  15.843  66.387  1.00  0.00    -0.193 A  
HETATM    4  C   UNL     1     -10.531  17.892  65.366  1.00  0.00     0.170 C  
HETATM    5  N   UNL     1     -10.992  16.534  65.249  1.00  0.00    -0.367 NA 
HETATM    6  O   UNL     1     -12.703  13.343  63.341  1.00  0.00    -0.687 OA 
HETATM    7  C   UNL     1     -11.577  15.745  64.335  1.00  0.00    -0.240 A  
HETATM    8  O   UNL     1     -10.217  16.532  67.361  1.00  0.00    -0.273 OA 
HETATM    9  O   UNL     1     -12.312  12.327  65.258  1.00  0.00    -0.555 OA 
HETATM   10  C   UNL     1     -11.698  14.533  65.014  1.00  0.00    -0.392 A  
HETATM   11  N   UNL     1     -11.190  14.609  66.313  1.00  0.00    -0.337 NA 
HETATM   12  N   UNL     1     -12.278  13.309  64.507  1.00  0.00    -0.398 N  
ENDROOT
BRANCH   2  13
HETATM   13  C   UNL     1      -8.435  18.053  66.790  1.00  0.00    -0.257 C  
BRANCH  13  14
HETATM   14  O   UNL     1      -7.871  17.759  68.070  1.00  0.00    -0.227 OA 
BRANCH  14  15
HETATM   15  C   UNL     1      -7.498  16.451  68.217  1.00  0.00    -0.161 A  
HETATM   16  C   UNL     1      -6.922  13.694  68.694  1.00  0.00    -0.103 A  
HETATM   17  C   UNL     1      -7.247  15.581  67.166  1.00  0.00    -0.208 A  
HETATM   18  C   UNL     1      -7.368  15.977  69.514  1.00  0.00    -0.146 A  
HETATM   19  C   UNL     1      -6.968  14.237  67.406  1.00  0.00    -0.077 A  
HETATM   20  C   UNL     1      -7.078  14.622  69.741  1.00  0.00    -0.096 A  
BRANCH  16  21
HETATM   21  N   UNL     1      -6.680  12.345  68.898  1.00  0.00    -0.093 NA 
HETATM   22  C   UNL     1      -7.647  11.458  69.573  1.00  0.00     0.210 C  
HETATM   23  C   UNL     1      -7.710  10.131  68.818  1.00  0.00    -0.088 C  
HETATM   24  C   UNL     1      -6.322   9.497  68.694  1.00  0.00    -0.048 C  
HETATM   25  C   UNL     1      -5.322  11.795  68.909  1.00  0.00    -0.050 C  
HETATM   26  C   UNL     1      -5.343  10.512  68.093  1.00  0.00    -0.033 C  
BRANCH  24  27
HETATM   27  O   UNL     1      -5.919   9.090  70.013  1.00  0.00    -0.030 OA 
BRANCH  27  28
HETATM   28  C   UNL     1      -6.709   8.172  70.646  1.00  0.00    -0.037 A  
HETATM   29  C   UNL     1      -6.852   6.844  70.260  1.00  0.00    -0.057 A  
HETATM   30  C   UNL     1      -7.676   5.988  70.987  1.00  0.00    -0.102 A  
HETATM   31  C   UNL     1      -8.375   6.438  72.102  1.00  0.00    -0.108 A  
HETATM   32  C   UNL     1      -8.247   7.774  72.484  1.00  0.00    -0.165 A  
HETATM   33  C   UNL     1      -7.396   8.630  71.771  1.00  0.00    -0.108 A  
BRANCH  31  34
HETATM   34  O   UNL     1      -9.198   5.512  72.648  1.00  0.00    -0.138 OA 
HETATM   35  C   UNL     1     -10.531   5.859  72.983  1.00  0.00    -0.222 C  
HETATM   36  F   UNL     1     -11.374   5.015  72.349  1.00  0.00    -0.260 F  
HETATM   37  F   UNL     1     -10.877   7.125  72.680  1.00  0.00    -0.231 F  
HETATM   38  F   UNL     1     -10.695   5.689  74.317  1.00  0.00    -0.280 F  
ENDBRANCH  31  34
ENDBRANCH  27  28
ENDBRANCH  24  27
ENDBRANCH  16  21
ENDBRANCH  14  15
ENDBRANCH  13  14
ENDBRANCH   2  13
TORSDOF 7
ENDMDL
MODEL      101
REMARK 921   NORMALIZED FREE ENERGY PREDICTED BY IDOCK:   -4.46 KCAL/MOL
REMARK 922        TOTAL FREE ENERGY PREDICTED BY IDOCK:   -7.77 KCAL/MOL
REMARK 923 INTER-LIGAND FREE ENERGY PREDICTED BY IDOCK:   -7.71 KCAL/MOL
REMARK 924 INTRA-LIGAND FREE ENERGY PREDICTED BY IDOCK:   -0.06 KCAL/MOL
REMARK 927      BINDING AFFINITY PREDICTED BY RF-SCORE:    0.00 PKD
ROOT
HETATM    1  C   UNL     1      -6.029  15.328  70.322  1.00  0.00    -0.130 C  
HETATM    2  C   UNL     1      -6.381  15.808  68.916  1.00  0.00    -0.116 C  
HETATM    3  C   UNL     1      -8.201  16.998  68.428  1.00  0.00    -0.250 A  
HETATM    4  C   UNL     1      -5.927  17.273  68.670  1.00  0.00    -0.163 C  
HETATM    5  N   UNL     1      -7.189  17.884  68.347  1.00  0.00    -0.246 NA 
HETATM    6  O   UNL     1      -9.658  20.967  67.273  1.00  0.00    -0.435 OA 
HETATM    7  C   UNL     1      -7.663  19.087  67.989  1.00  0.00    -0.273 A  
HETATM    8  O   UNL     1      -7.844  15.776  68.780  1.00  0.00    -0.155 OA 
HETATM    9  O   UNL     1     -11.222  19.423  67.444  1.00  0.00    -0.348 OA 
HETATM   10  C   UNL     1      -9.030  18.848  67.861  1.00  0.00    -0.297 A  
HETATM   11  N   UNL     1      -9.358  17.519  68.139  1.00  0.00    -0.268 NA 
HETATM   12  N   UNL     1     -10.048  19.811  67.500  1.00  0.00    -0.392 N  
ENDROOT
BRANCH   2  13
HETATM   13  C   UNL     1      -5.810  14.872  67.853  1.00  0.00    -0.136 C  
BRANCH  13  14
HETATM   14  O   UNL     1      -5.227  13.714  68.454  1.00  0.00    -0.084 OA 
BRANCH  14  15
HETATM   15  C   UNL     1      -6.026  12.605  68.395  1.00  0.00    -0.059 A  
HETATM   16  C   UNL     1      -7.735  10.320  68.534  1.00  0.00    -0.091 A  
HETATM   17  C   UNL     1      -7.040  12.414  67.469  1.00  0.00    -0.145 A  
HETATM   18  C   UNL     1      -5.794  11.612  69.337  1.00  0.00    -0.071 A  
HETATM   19  C   UNL     1      -7.872  11.297  67.544  1.00  0.00    -0.123 A  
HETATM   20  C   UNL     1      -6.634  10.488  69.394  1.00  0.00    -0.069 A  
BRANCH  16  21
HETATM   21  N   UNL     1      -8.601   9.241  68.605  1.00  0.00    -0.126 NA 
HETATM   22  C   UNL     1      -9.972   9.285  68.062  1.00  0.00    -0.182 C  
HETATM   23  C   UNL     1     -10.262   7.970  67.342  1.00  0.00    -0.330 C  
HETATM   24  C   UNL     1     -10.039   6.770  68.267  1.00  0.00    -0.161 C  
HETATM   25  C   UNL     1      -8.432   8.177  69.598  1.00  0.00    -0.126 C  
HETATM   26  C   UNL     1      -8.637   6.850  68.884  1.00  0.00    -0.131 C  
BRANCH  24  27
HETATM   27  O   UNL     1     -11.064   6.811  69.275  1.00  0.00    -0.260 OA 
BRANCH  27  28
HETATM   28  C   UNL     1     -10.895   6.001  70.362  1.00  0.00    -0.318 A  
HETATM   29  C   UNL     1     -10.106   4.856  70.386  1.00  0.00    -0.316 A  
HETATM   30  C   UNL     1      -9.993   4.108  71.556  1.00  0.00    -0.230 A  
HETATM   31  C   UNL     1     -10.666   4.480  72.715  1.00  0.00    -0.186 A  
HETATM   32  C   UNL     1     -11.471   5.619  72.691  1.00  0.00    -0.339 A  
HETATM   33  C   UNL     1     -11.564   6.390  71.523  1.00  0.00    -0.364 A  
BRANCH  31  34
HETATM   34  O   UNL     1     -10.525   3.606  73.739  1.00  0.00    -0.150 OA 
HETATM   35  C   UNL     1     -10.589   2.212  73.495  1.00  0.00    -0.136 C  
HETATM   36  F   UNL     1      -9.454   1.637  73.951  1.00  0.00    -0.066 F  
HETATM   37  F   UNL     1     -10.756   1.873  72.202  1.00  0.00    -0.226 F  
HETATM   38  F   UNL     1     -11.627   1.701  74.198  1.00  0.00    -0.215 F  
ENDBRANCH  31  34
ENDBRANCH  27  28
ENDBRANCH  24  27
ENDBRANCH  16  21
ENDBRANCH  14  15
ENDBRANCH  13  14
ENDBRANCH   2  13
TORSDOF 7
ENDMDL
MODEL      102
REMARK 921   NORMALIZED FREE ENERGY PREDICTED BY IDOCK:   -4.44 KCAL/MOL
REMARK 922        TOTAL FREE ENERGY PREDICTED BY IDOCK:   -7.74 KCAL/MOL
REMARK 923 INTER-LIGAND FREE ENERGY PREDICTED BY IDOCK:   -6.50 KCAL/MOL
REMARK 924 INTRA-LIGAND FREE ENERGY PREDICTED BY IDOCK:   -1.25 KCAL/MOL
REMARK 927      BINDING AFFINITY PREDICTED BY RF-SCORE:    0.00 PKD
ROOT
HETATM    1  C   UNL     1     -12.005  15.535  68.324  1.00  0.00    -0.059 C  
HETATM    2  C   UNL     1     -10.503  15.686  68.091  1.00  0.00    -0.259 C  
HETATM    3  C   UNL     1      -9.588  17.344  66.917  1.00  0.00    -0.277 A  
HETATM    4  C   UNL     1      -9.851  16.667  69.102  1.00  0.00    -0.244 C  
HETATM    5  N   UNL     1      -9.295  17.639  68.199  1.00  0.00    -0.271 NA 
HETATM    6  O   UNL     1      -7.219  21.020  67.197  1.00  0.00    -0.348 OA 
HETATM    7  C   UNL     1      -8.569  18.765  68.254  1.00  0.00    -0.327 A  
HETATM    8  O   UNL     1     -10.309  16.250  66.748  1.00  0.00    -0.287 OA 
HETATM    9  O   UNL     1      -7.766  20.429  65.145  1.00  0.00     0.001 OA 
HETATM   10  C   UNL     1      -8.448  19.115  66.910  1.00  0.00    -0.294 A  
HETATM   11  N   UNL     1      -9.096  18.203  66.072  1.00  0.00    -0.521 NA 
HETATM   12  N   UNL     1      -7.763  20.269  66.372  1.00  0.00    -0.255 N  
ENDROOT
BRANCH   2  13
HETATM   13  C   UNL     1      -9.802  14.329  68.115  1.00  0.00    -0.226 C  
BRANCH  13  14
HETATM   14  O   UNL     1     -10.001  13.631  66.884  1.00  0.00    -0.249 OA 
BRANCH  14  15
HETATM   15  C   UNL     1      -9.811  12.280  66.983  1.00  0.00    -0.205 A  
HETATM   16  C   UNL     1      -9.195   9.491  67.048  1.00  0.00    -0.139 A  
HETATM   17  C   UNL     1      -9.864  11.563  68.170  1.00  0.00    -0.197 A  
HETATM   18  C   UNL     1      -9.547  11.593  65.807  1.00  0.00    -0.255 A  
HETATM   19  C   UNL     1      -9.561  10.203  68.194  1.00  0.00    -0.151 A  
HETATM   20  C   UNL     1      -9.252  10.221  65.846  1.00  0.00    -0.205 A  
BRANCH  16  21
HETATM   21  N   UNL     1      -8.862   8.148  67.111  1.00  0.00    -0.129 NA 
HETATM   22  C   UNL     1      -9.174   7.200  66.024  1.00  0.00    -0.022 C  
HETATM   23  C   UNL     1      -7.972   6.282  65.808  1.00  0.00    -0.116 C  
HETATM   24  C   UNL     1      -7.575   5.573  67.106  1.00  0.00    -0.092 C  
HETATM   25  C   UNL     1      -8.623   7.468  68.387  1.00  0.00    -0.124 C  
HETATM   26  C   UNL     1      -7.379   6.608  68.219  1.00  0.00    -0.090 C  
BRANCH  24  27
HETATM   27  O   UNL     1      -8.627   4.646  67.425  1.00  0.00    -0.104 OA 
BRANCH  27  28
HETATM   28  C   UNL     1      -8.557   4.025  68.640  1.00  0.00    -0.093 A  
HETATM   29  C   UNL     1      -7.550   3.148  69.028  1.00  0.00    -0.048 A  
HETATM   30  C   UNL     1      -7.568   2.580  70.301  1.00  0.00    -0.043 A  
HETATM   31  C   UNL     1      -8.588   2.868  71.201  1.00  0.00    -0.064 A  
HETATM   32  C   UNL     1      -9.609   3.734  70.811  1.00  0.00    -0.249 A  
HETATM   33  C   UNL     1      -9.578   4.330  69.541  1.00  0.00    -0.274 A  
BRANCH  31  34
HETATM   34  O   UNL     1      -8.513   2.172  72.361  1.00  0.00    -0.057 OA 
HETATM   35  C   UNL     1      -7.940   2.772  73.510  1.00  0.00    -0.060 C  
HETATM   36  F   UNL     1      -8.840   2.730  74.518  1.00  0.00    -0.075 F  
HETATM   37  F   UNL     1      -7.539   4.046  73.341  1.00  0.00    -0.068 F  
HETATM   38  F   UNL     1      -6.862   2.041  73.882  1.00  0.00    -0.019 F  
ENDBRANCH  31  34
ENDBRANCH  27  28
ENDBRANCH  24  27
ENDBRANCH  16  21
ENDBRANCH  14  15
ENDBRANCH  13  14
ENDBRANCH   2  13
TORSDOF 7
ENDMDL
MODEL      103
REMARK 921   NORMALIZED FREE ENERGY PREDICTED BY IDOCK:   -4.43 KCAL/MOL
REMARK 922        TOTAL FREE ENERGY PREDICTED BY IDOCK:   -7.72 KCAL/MOL
REMARK 923 INTER-LIGAND FREE ENERGY PREDICTED BY IDOCK:   -6.86 KCAL/MOL
REMARK 924 INTRA-LIGAND FREE ENERGY PREDICTED BY IDOCK:   -0.86 KCAL/MOL
REMARK 927      BINDING AFFINITY PREDICTED BY RF-SCORE:    0.00 PKD
ROOT
HETATM    1  C   UNL     1      -7.812  15.148  69.222  1.00  0.00    -0.206 C  
HETATM    2  C   UNL     1      -9.278  15.118  68.798  1.00  0.00    -0.200 C  
HETATM    3  C   UNL     1     -10.940  14.437  70.119  1.00  0.00     0.055 A  
HETATM    4  C   UNL     1     -10.048  16.382  69.267  1.00  0.00    -0.271 C  
HETATM    5  N   UNL     1     -11.079  15.776  70.067  1.00  0.00    -0.312 NA 
HETATM    6  O   UNL     1     -14.401  15.762  72.457  1.00  0.00    -0.528 OA 
HETATM    7  C   UNL     1     -12.146  16.153  70.788  1.00  0.00    -0.115 A  
HETATM    8  O   UNL     1      -9.911  13.958  69.443  1.00  0.00     0.154 OA 
HETATM    9  O   UNL     1     -14.062  13.584  72.463  1.00  0.00    -0.731 OA 
HETATM   10  C   UNL     1     -12.632  14.937  71.268  1.00  0.00    -0.331 A  
HETATM   11  N   UNL     1     -11.860  13.857  70.834  1.00  0.00    -0.218 NA 
HETATM   12  N   UNL     1     -13.780  14.740  72.125  1.00  0.00    -0.396 N  
ENDROOT
BRANCH   2  13
HETATM   13  C   UNL     1      -9.414  14.922  67.290  1.00  0.00    -0.213 C  
BRANCH  13  14
HETATM   14  O   UNL     1     -10.417  13.949  66.989  1.00  0.00    -0.274 OA 
BRANCH  14  15
HETATM   15  C   UNL     1      -9.944  12.873  66.290  1.00  0.00    -0.270 A  
HETATM   16  C   UNL     1      -8.951  10.493  65.060  1.00  0.00    -0.201 A  
HETATM   17  C   UNL     1     -10.515  12.377  65.127  1.00  0.00    -0.321 A  
HETATM   18  C   UNL     1      -8.815  12.242  66.793  1.00  0.00    -0.195 A  
HETATM   19  C   UNL     1     -10.026  11.214  64.533  1.00  0.00    -0.350 A  
HETATM   20  C   UNL     1      -8.328  11.077  66.179  1.00  0.00    -0.163 A  
BRANCH  16  21
HETATM   21  N   UNL     1      -8.512   9.319  64.468  1.00  0.00    -0.172 NA 
HETATM   22  C   UNL     1      -8.630   9.068  63.019  1.00  0.00    -0.162 C  
HETATM   23  C   UNL     1      -7.338   8.420  62.523  1.00  0.00    -0.097 C  
HETATM   24  C   UNL     1      -7.016   7.149  63.313  1.00  0.00    -0.058 C  
HETATM   25  C   UNL     1      -8.347   8.081  65.234  1.00  0.00    -0.143 C  
HETATM   26  C   UNL     1      -7.024   7.459  64.815  1.00  0.00    -0.051 C  
BRANCH  24  27
HETATM   27  O   UNL     1      -8.012   6.170  62.970  1.00  0.00    -0.099 OA 
BRANCH  27  28
HETATM   28  C   UNL     1      -8.182   5.129  63.839  1.00  0.00    -0.130 A  
HETATM   29  C   UNL     1      -7.155   4.343  64.349  1.00  0.00    -0.050 A  
HETATM   30  C   UNL     1      -7.440   3.313  65.243  1.00  0.00    -0.076 A  
HETATM   31  C   UNL     1      -8.746   3.044  65.637  1.00  0.00    -0.128 A  
HETATM   32  C   UNL     1      -9.781   3.819  65.116  1.00  0.00    -0.176 A  
HETATM   33  C   UNL     1      -9.495   4.876  64.239  1.00  0.00     0.181 A  
BRANCH  31  34
HETATM   34  O   UNL     1      -8.868   1.959  66.440  1.00  0.00    -0.117 OA 
HETATM   35  C   UNL     1      -8.940   2.123  67.846  1.00  0.00    -0.156 C  
HETATM   36  F   UNL     1     -10.074   1.541  68.294  1.00  0.00    -0.180 F  
HETATM   37  F   UNL     1      -8.914   3.402  68.266  1.00  0.00    -0.115 F  
HETATM   38  F   UNL     1      -7.889   1.477  68.406  1.00  0.00    -0.049 F  
ENDBRANCH  31  34
ENDBRANCH  27  28
ENDBRANCH  24  27
ENDBRANCH  16  21
ENDBRANCH  14  15
ENDBRANCH  13  14
ENDBRANCH   2  13
TORSDOF 7
ENDMDL
MODEL      104
REMARK 921   NORMALIZED FREE ENERGY PREDICTED BY IDOCK:   -4.39 KCAL/MOL
REMARK 922        TOTAL FREE ENERGY PREDICTED BY IDOCK:   -7.67 KCAL/MOL
REMARK 923 INTER-LIGAND FREE ENERGY PREDICTED BY IDOCK:   -6.27 KCAL/MOL
REMARK 924 INTRA-LIGAND FREE ENERGY PREDICTED BY IDOCK:   -1.39 KCAL/MOL
REMARK 927      BINDING AFFINITY PREDICTED BY RF-SCORE:    0.00 PKD
ROOT
HETATM    1  C   UNL     1      -7.629   2.827  66.290  1.00  0.00    -0.076 C  
HETATM    2  C   UNL     1      -8.089   4.249  66.598  1.00  0.00    -0.102 C  
HETATM    3  C   UNL     1      -8.424   5.030  68.658  1.00  0.00    -0.087 A  
HETATM    4  C   UNL     1      -6.899   5.187  66.939  1.00  0.00    -0.063 C  
HETATM    5  N   UNL     1      -7.279   5.617  68.259  1.00  0.00    -0.074 NA 
HETATM    6  O   UNL     1      -6.856   7.713  71.748  1.00  0.00    -0.058 OA 
HETATM    7  C   UNL     1      -6.823   6.433  69.221  1.00  0.00    -0.065 A  
HETATM    8  O   UNL     1      -8.958   4.198  67.782  1.00  0.00    -0.108 OA 
HETATM    9  O   UNL     1      -8.732   6.687  72.282  1.00  0.00    -0.132 OA 
HETATM   10  C   UNL     1      -7.786   6.290  70.220  1.00  0.00    -0.098 A  
HETATM   11  N   UNL     1      -8.797   5.401  69.849  1.00  0.00    -0.123 NA 
HETATM   12  N   UNL     1      -7.798   6.941  71.512  1.00  0.00    -0.099 N  
ENDROOT
BRANCH   2  13
HETATM   13  C   UNL     1      -8.924   4.819  65.453  1.00  0.00    -0.149 C  
BRANCH  13  14
HETATM   14  O   UNL     1      -8.220   5.866  64.780  1.00  0.00    -0.133 OA 
BRANCH  14  15
HETATM   15  C   UNL     1      -8.746   7.109  65.001  1.00  0.00     0.223 A  
HETATM   16  C   UNL     1      -9.776   9.675  65.719  1.00  0.00    -0.280 A  
HETATM   17  C   UNL     1      -8.443   8.237  64.251  1.00  0.00     0.001 A  
HETATM   18  C   UNL     1      -9.640   7.236  66.054  1.00  0.00     0.084 A  
HETATM   19  C   UNL     1      -8.948   9.486  64.609  1.00  0.00    -0.266 A  
HETATM   20  C   UNL     1     -10.148   8.500  66.397  1.00  0.00    -0.271 A  
BRANCH  16  21
HETATM   21  N   UNL     1     -10.231  10.936  66.070  1.00  0.00    -0.247 NA 
HETATM   22  C   UNL     1     -10.409  11.354  67.474  1.00  0.00    -0.195 C  
HETATM   23  C   UNL     1      -9.889  12.782  67.634  1.00  0.00    -0.214 C  
HETATM   24  C   UNL     1     -10.573  13.735  66.650  1.00  0.00    -0.274 C  
HETATM   25  C   UNL     1     -11.004  11.767  65.142  1.00  0.00    -0.294 C  
HETATM   26  C   UNL     1     -10.449  13.180  65.226  1.00  0.00    -0.319 C  
BRANCH  24  27
HETATM   27  O   UNL     1     -11.948  13.852  67.054  1.00  0.00    -0.391 OA 
BRANCH  27  28
HETATM   28  C   UNL     1     -12.188  14.420  68.273  1.00  0.00    -0.125 A  
HETATM   29  C   UNL     1     -12.780  13.771  69.351  1.00  0.00     0.401 A  
HETATM   30  C   UNL     1     -12.966  14.444  70.557  1.00  0.00    -0.283 A  
HETATM   31  C   UNL     1     -12.575  15.770  70.708  1.00  0.00    -0.357 A  
HETATM   32  C   UNL     1     -11.995  16.430  69.625  1.00  0.00     0.311 A  
HETATM   33  C   UNL     1     -11.780  15.747  68.419  1.00  0.00    -0.279 A  
BRANCH  31  34
HETATM   34  O   UNL     1     -12.901  16.308  71.907  1.00  0.00    -0.263 OA 
HETATM   35  C   UNL     1     -12.049  16.117  73.024  1.00  0.00    -0.533 C  
HETATM   36  F   UNL     1     -11.701  17.326  73.518  1.00  0.00    -0.413 F  
HETATM   37  F   UNL     1     -10.929  15.417  72.766  1.00  0.00    -0.362 F  
HETATM   38  F   UNL     1     -12.743  15.459  73.983  1.00  0.00    -0.559 F  
ENDBRANCH  31  34
ENDBRANCH  27  28
ENDBRANCH  24  27
ENDBRANCH  16  21
ENDBRANCH  14  15
ENDBRANCH  13  14
ENDBRANCH   2  13
TORSDOF 7
ENDMDL
MODEL      105
REMARK 921   NORMALIZED FREE ENERGY PREDICTED BY IDOCK:   -4.35 KCAL/MOL
REMARK 922        TOTAL FREE ENERGY PREDICTED BY IDOCK:   -7.62 KCAL/MOL
REMARK 923 INTER-LIGAND FREE ENERGY PREDICTED BY IDOCK:   -6.56 KCAL/MOL
REMARK 924 INTRA-LIGAND FREE ENERGY PREDICTED BY IDOCK:   -1.05 KCAL/MOL
REMARK 927      BINDING AFFINITY PREDICTED BY RF-SCORE:    0.00 PKD
ROOT
HETATM    1  C   UNL     1     -11.112  16.937  64.785  1.00  0.00     0.094 C  
HETATM    2  C   UNL     1     -10.800  16.170  66.068  1.00  0.00    -0.154 C  
HETATM    3  C   UNL     1      -8.742  15.867  66.867  1.00  0.00    -0.241 A  
HETATM    4  C   UNL     1     -10.631  17.116  67.288  1.00  0.00    -0.270 C  
HETATM    5  N   UNL     1      -9.291  16.781  67.691  1.00  0.00    -0.227 NA 
HETATM    6  O   UNL     1      -5.946  17.028  70.036  1.00  0.00    -0.232 OA 
HETATM    7  C   UNL     1      -8.416  17.116  68.651  1.00  0.00    -0.258 A  
HETATM    8  O   UNL     1      -9.521  15.470  65.878  1.00  0.00    -0.331 OA 
HETATM    9  O   UNL     1      -5.164  15.535  68.616  1.00  0.00    -0.089 OA 
HETATM   10  C   UNL     1      -7.308  16.329  68.338  1.00  0.00    -0.158 A  
HETATM   11  N   UNL     1      -7.529  15.540  67.207  1.00  0.00    -0.210 NA 
HETATM   12  N   UNL     1      -6.046  16.290  69.044  1.00  0.00    -0.135 N  
ENDROOT
BRANCH   2  13
HETATM   13  C   UNL     1     -11.858  15.103  66.344  1.00  0.00     0.079 C  
BRANCH  13  14
HETATM   14  O   UNL     1     -11.710  13.995  65.455  1.00  0.00    -0.322 OA 
BRANCH  14  15
HETATM   15  C   UNL     1     -11.282  12.851  66.071  1.00  0.00    -0.293 A  
HETATM   16  C   UNL     1     -10.139  10.546  67.312  1.00  0.00    -0.201 A  
HETATM   17  C   UNL     1     -11.737  12.402  67.303  1.00  0.00    -0.419 A  
HETATM   18  C   UNL     1     -10.323  12.100  65.406  1.00  0.00    -0.301 A  
HETATM   19  C   UNL     1     -11.173  11.278  67.903  1.00  0.00    -0.353 A  
HETATM   20  C   UNL     1      -9.771  10.964  66.020  1.00  0.00    -0.268 A  
BRANCH  16  21
HETATM   21  N   UNL     1      -9.574   9.455  67.952  1.00  0.00    -0.133 NA 
HETATM   22  C   UNL     1      -8.340   8.803  67.472  1.00  0.00    -0.109 C  
HETATM   23  C   UNL     1      -7.450   8.483  68.672  1.00  0.00    -0.093 C  
HETATM   24  C   UNL     1      -8.195   7.634  69.704  1.00  0.00    -0.128 C  
HETATM   25  C   UNL     1     -10.357   8.580  68.830  1.00  0.00    -0.213 C  
HETATM   26  C   UNL     1      -9.520   8.313  70.071  1.00  0.00    -0.167 C  
BRANCH  24  27
HETATM   27  O   UNL     1      -8.410   6.339  69.117  1.00  0.00    -0.118 OA 
BRANCH  27  28
HETATM   28  C   UNL     1      -8.837   5.344  69.951  1.00  0.00    -0.125 A  
HETATM   29  C   UNL     1      -9.251   4.082  69.538  1.00  0.00    -0.220 A  
HETATM   30  C   UNL     1      -9.654   3.136  70.478  1.00  0.00    -0.201 A  
HETATM   31  C   UNL     1      -9.659   3.429  71.838  1.00  0.00    -0.150 A  
HETATM   32  C   UNL     1      -9.259   4.699  72.255  1.00  0.00    -0.154 A  
HETATM   33  C   UNL     1      -8.825   5.644  71.314  1.00  0.00    -0.141 A  
BRANCH  31  34
HETATM   34  O   UNL     1     -10.158   2.439  72.614  1.00  0.00    -0.131 OA 
HETATM   35  C   UNL     1     -11.434   2.584  73.214  1.00  0.00    -0.027 C  
HETATM   36  F   UNL     1     -12.212   1.544  72.841  1.00  0.00    -0.167 F  
HETATM   37  F   UNL     1     -12.072   3.731  72.912  1.00  0.00     0.130 F  
HETATM   38  F   UNL     1     -11.283   2.531  74.559  1.00  0.00    -0.129 F  
ENDBRANCH  31  34
ENDBRANCH  27  28
ENDBRANCH  24  27
ENDBRANCH  16  21
ENDBRANCH  14  15
ENDBRANCH  13  14
ENDBRANCH   2  13
TORSDOF 7
ENDMDL
MODEL      106
REMARK 921   NORMALIZED FREE ENERGY PREDICTED BY IDOCK:   -4.34 KCAL/MOL
REMARK 922        TOTAL FREE ENERGY PREDICTED BY IDOCK:   -7.60 KCAL/MOL
REMARK 923 INTER-LIGAND FREE ENERGY PREDICTED BY IDOCK:   -7.24 KCAL/MOL
REMARK 924 INTRA-LIGAND FREE ENERGY PREDICTED BY IDOCK:   -0.36 KCAL/MOL
REMARK 927      BINDING AFFINITY PREDICTED BY RF-SCORE:    0.00 PKD
ROOT
HETATM    1  C   UNL     1      -8.072   4.182  74.500  1.00  0.00    -0.087 C  
HETATM    2  C   UNL     1      -8.284   5.021  73.242  1.00  0.00    -0.107 C  
HETATM    3  C   UNL     1     -10.277   5.730  72.542  1.00  0.00    -0.188 A  
HETATM    4  C   UNL     1      -8.376   6.538  73.561  1.00  0.00    -0.118 C  
HETATM    5  N   UNL     1      -9.681   6.834  73.031  1.00  0.00    -0.157 NA 
HETATM    6  O   UNL     1     -12.854   9.247  72.105  1.00  0.00    -0.379 OA 
HETATM    7  C   UNL     1     -10.489   7.894  72.882  1.00  0.00    -0.355 A  
HETATM    8  O   UNL     1      -9.565   4.621  72.643  1.00  0.00    -0.132 OA 
HETATM    9  O   UNL     1     -13.719   7.368  71.343  1.00  0.00    -0.383 OA 
HETATM   10  C   UNL     1     -11.608   7.337  72.264  1.00  0.00    -0.277 A  
HETATM   11  N   UNL     1     -11.459   5.964  72.052  1.00  0.00    -0.278 NA 
HETATM   12  N   UNL     1     -12.817   8.029  71.873  1.00  0.00    -0.323 N  
ENDROOT
BRANCH   2  13
HETATM   13  C   UNL     1      -7.197   4.744  72.205  1.00  0.00    -0.079 C  
BRANCH  13  14
HETATM   14  O   UNL     1      -7.734   4.052  71.076  1.00  0.00    -0.053 OA 
BRANCH  14  15
HETATM   15  C   UNL     1      -7.674   4.769  69.913  1.00  0.00    -0.055 A  
HETATM   16  C   UNL     1      -7.553   6.486  67.633  1.00  0.00    -0.105 A  
HETATM   17  C   UNL     1      -6.753   4.547  68.898  1.00  0.00    -0.046 A  
HETATM   18  C   UNL     1      -8.602   5.787  69.752  1.00  0.00    -0.127 A  
HETATM   19  C   UNL     1      -6.699   5.391  67.790  1.00  0.00    -0.055 A  
HETATM   20  C   UNL     1      -8.541   6.623  68.626  1.00  0.00    -0.125 A  
BRANCH  16  21
HETATM   21  N   UNL     1      -7.449   7.329  66.538  1.00  0.00    -0.086 NA 
HETATM   22  C   UNL     1      -6.185   7.992  66.162  1.00  0.00    -0.045 C  
HETATM   23  C   UNL     1      -6.023   7.922  64.644  1.00  0.00    -0.045 C  
HETATM   24  C   UNL     1      -7.234   8.525  63.929  1.00  0.00    -0.097 C  
HETATM   25  C   UNL     1      -8.619   7.998  65.963  1.00  0.00    -0.145 C  
HETATM   26  C   UNL     1      -8.519   7.871  64.451  1.00  0.00     0.093 C  
BRANCH  24  27
HETATM   27  O   UNL     1      -7.220   9.940  64.183  1.00  0.00    -0.125 OA 
BRANCH  27  28
HETATM   28  C   UNL     1      -8.431  10.571  64.238  1.00  0.00    -0.128 A  
HETATM   29  C   UNL     1      -9.378  10.567  63.219  1.00  0.00    -0.342 A  
HETATM   30  C   UNL     1     -10.589  11.234  63.388  1.00  0.00    -0.393 A  
HETATM   31  C   UNL     1     -10.876  11.918  64.564  1.00  0.00    -0.316 A  
HETATM   32  C   UNL     1      -9.924  11.938  65.582  1.00  0.00    -0.269 A  
HETATM   33  C   UNL     1      -8.715  11.244  65.427  1.00  0.00     0.008 A  
BRANCH  31  34
HETATM   34  O   UNL     1     -12.054  12.586  64.540  1.00  0.00    -0.381 OA 
HETATM   35  C   UNL     1     -12.065  14.003  64.540  1.00  0.00    -0.459 C  
HETATM   36  F   UNL     1     -12.759  14.433  63.462  1.00  0.00    -0.256 F  
HETATM   37  F   UNL     1     -10.847  14.576  64.526  1.00  0.00    -0.385 F  
HETATM   38  F   UNL     1     -12.714  14.427  65.650  1.00  0.00    -0.442 F  
ENDBRANCH  31  34
ENDBRANCH  27  28
ENDBRANCH  24  27
ENDBRANCH  16  21
ENDBRANCH  14  15
ENDBRANCH  13  14
ENDBRANCH   2  13
TORSDOF 7
ENDMDL
MODEL      107
REMARK 921   NORMALIZED FREE ENERGY PREDICTED BY IDOCK:   -4.33 KCAL/MOL
REMARK 922        TOTAL FREE ENERGY PREDICTED BY IDOCK:   -7.59 KCAL/MOL
REMARK 923 INTER-LIGAND FREE ENERGY PREDICTED BY IDOCK:   -8.33 KCAL/MOL
REMARK 924 INTRA-LIGAND FREE ENERGY PREDICTED BY IDOCK:    0.75 KCAL/MOL
REMARK 927      BINDING AFFINITY PREDICTED BY RF-SCORE:    0.00 PKD
ROOT
HETATM    1  C   UNL     1     -12.622  15.476  70.692  1.00  0.00    -0.493 C  
HETATM    2  C   UNL     1     -11.745  15.365  69.448  1.00  0.00    -0.351 C  
HETATM    3  C   UNL     1     -11.010  17.118  68.284  1.00  0.00    -0.229 A  
HETATM    4  C   UNL     1     -10.238  15.543  69.778  1.00  0.00    -0.294 C  
HETATM    5  N   UNL     1      -9.922  16.671  68.942  1.00  0.00    -0.258 NA 
HETATM    6  O   UNL     1      -7.473  19.517  67.313  1.00  0.00    -0.226 OA 
HETATM    7  C   UNL     1      -8.855  17.421  68.625  1.00  0.00    -0.258 A  
HETATM    8  O   UNL     1     -12.122  16.450  68.530  1.00  0.00     0.090 OA 
HETATM    9  O   UNL     1      -9.325  20.150  66.299  1.00  0.00    -0.367 OA 
HETATM   10  C   UNL     1      -9.391  18.343  67.726  1.00  0.00    -0.274 A  
HETATM   11  N   UNL     1     -10.757  18.138  67.517  1.00  0.00    -0.397 NA 
HETATM   12  N   UNL     1      -8.684  19.416  67.061  1.00  0.00    -0.283 N  
ENDROOT
BRANCH   2  13
HETATM   13  C   UNL     1     -11.993  14.049  68.713  1.00  0.00    -0.347 C  
BRANCH  13  14
HETATM   14  O   UNL     1     -11.099  13.906  67.607  1.00  0.00    -0.265 OA 
BRANCH  14  15
HETATM   15  C   UNL     1     -10.581  12.646  67.481  1.00  0.00    -0.221 A  
HETATM   16  C   UNL     1      -9.743   9.936  67.145  1.00  0.00    -0.178 A  
HETATM   17  C   UNL     1      -9.423  12.337  66.782  1.00  0.00    -0.222 A  
HETATM   18  C   UNL     1     -11.275  11.616  68.099  1.00  0.00    -0.325 A  
HETATM   19  C   UNL     1      -9.021  11.012  66.620  1.00  0.00    -0.176 A  
HETATM   20  C   UNL     1     -10.853  10.286  67.935  1.00  0.00    -0.337 A  
BRANCH  16  21
HETATM   21  N   UNL     1      -9.338   8.627  66.935  1.00  0.00    -0.159 NA 
HETATM   22  C   UNL     1      -9.847   7.499  67.737  1.00  0.00    -0.155 C  
HETATM   23  C   UNL     1     -10.135   6.321  66.807  1.00  0.00    -0.237 C  
HETATM   24  C   UNL     1      -8.896   5.944  65.990  1.00  0.00    -0.149 C  
HETATM   25  C   UNL     1      -8.073   8.306  66.266  1.00  0.00    -0.109 C  
HETATM   26  C   UNL     1      -8.353   7.187  65.275  1.00  0.00    -0.101 C  
BRANCH  24  27
HETATM   27  O   UNL     1      -7.931   5.396  66.904  1.00  0.00    -0.100 OA 
BRANCH  27  28
HETATM   28  C   UNL     1      -8.351   5.172  68.185  1.00  0.00    -0.097 A  
HETATM   29  C   UNL     1      -7.881   5.846  69.307  1.00  0.00    -0.095 A  
HETATM   30  C   UNL     1      -8.390   5.546  70.568  1.00  0.00    -0.116 A  
HETATM   31  C   UNL     1      -9.366   4.569  70.736  1.00  0.00    -0.151 A  
HETATM   32  C   UNL     1      -9.830   3.879  69.616  1.00  0.00    -0.106 A  
HETATM   33  C   UNL     1      -9.340   4.199  68.341  1.00  0.00    -0.213 A  
BRANCH  31  34
HETATM   34  O   UNL     1      -9.694   4.333  72.029  1.00  0.00    -0.148 OA 
HETATM   35  C   UNL     1     -10.658   5.147  72.674  1.00  0.00    -0.228 C  
HETATM   36  F   UNL     1     -11.644   4.357  73.154  1.00  0.00    -0.321 F  
HETATM   37  F   UNL     1     -11.207   6.098  71.895  1.00  0.00    -0.276 F  
HETATM   38  F   UNL     1     -10.066   5.759  73.727  1.00  0.00    -0.162 F  
ENDBRANCH  31  34
ENDBRANCH  27  28
ENDBRANCH  24  27
ENDBRANCH  16  21
ENDBRANCH  14  15
ENDBRANCH  13  14
ENDBRANCH   2  13
TORSDOF 7
ENDMDL
MODEL      108
REMARK 921   NORMALIZED FREE ENERGY PREDICTED BY IDOCK:   -4.25 KCAL/MOL
REMARK 922        TOTAL FREE ENERGY PREDICTED BY IDOCK:   -7.47 KCAL/MOL
REMARK 923 INTER-LIGAND FREE ENERGY PREDICTED BY IDOCK:   -6.37 KCAL/MOL
REMARK 924 INTRA-LIGAND FREE ENERGY PREDICTED BY IDOCK:   -1.11 KCAL/MOL
REMARK 927      BINDING AFFINITY PREDICTED BY RF-SCORE:    0.00 PKD
ROOT
HETATM    1  C   UNL     1      -9.546  18.417  66.133  1.00  0.00    -0.195 C  
HETATM    2  C   UNL     1      -9.695  17.614  67.423  1.00  0.00    -0.283 C  
HETATM    3  C   UNL     1      -8.292  16.000  68.053  1.00  0.00    -0.162 A  
HETATM    4  C   UNL     1      -8.816  18.182  68.570  1.00  0.00    -0.299 C  
HETATM    5  N   UNL     1      -8.006  17.031  68.871  1.00  0.00    -0.244 NA 
HETATM    6  O   UNL     1      -5.129  14.939  70.894  1.00  0.00    -0.117 OA 
HETATM    7  C   UNL     1      -7.039  16.679  69.731  1.00  0.00     0.248 A  
HETATM    8  O   UNL     1      -9.234  16.243  67.159  1.00  0.00    -0.208 OA 
HETATM    9  O   UNL     1      -5.689  13.332  69.493  1.00  0.00    -0.083 OA 
HETATM   10  C   UNL     1      -6.774  15.359  69.364  1.00  0.00    -0.166 A  
HETATM   11  N   UNL     1      -7.578  14.941  68.301  1.00  0.00    -0.107 NA 
HETATM   12  N   UNL     1      -5.795  14.475  69.956  1.00  0.00    -0.120 N  
ENDROOT
BRANCH   2  13
HETATM   13  C   UNL     1     -11.158  17.521  67.850  1.00  0.00     0.021 C  
BRANCH  13  14
HETATM   14  O   UNL     1     -11.814  16.434  67.192  1.00  0.00     0.646 OA 
BRANCH  14  15
HETATM   15  C   UNL     1     -11.767  15.261  67.894  1.00  0.00    -0.217 A  
HETATM   16  C   UNL     1     -11.884  12.895  69.491  1.00  0.00    -0.320 A  
HETATM   17  C   UNL     1     -11.653  14.003  67.319  1.00  0.00    -0.396 A  
HETATM   18  C   UNL     1     -11.843  15.351  69.277  1.00  0.00    -0.365 A  
HETATM   19  C   UNL     1     -11.713  12.853  68.104  1.00  0.00    -0.395 A  
HETATM   20  C   UNL     1     -11.893  14.184  70.056  1.00  0.00    -0.388 A  
BRANCH  16  21
HETATM   21  N   UNL     1     -11.978  11.733  70.240  1.00  0.00    -0.354 NA 
HETATM   22  C   UNL     1     -12.486  11.718  71.625  1.00  0.00    -0.017 C  
HETATM   23  C   UNL     1     -13.408  10.513  71.801  1.00  0.00    -0.446 C  
HETATM   24  C   UNL     1     -12.695   9.211  71.427  1.00  0.00    -0.318 C  
HETATM   25  C   UNL     1     -11.175  10.546  69.931  1.00  0.00    -0.307 C  
HETATM   26  C   UNL     1     -12.094   9.338  70.022  1.00  0.00     0.382 C  
BRANCH  24  27
HETATM   27  O   UNL     1     -11.680   8.979  72.418  1.00  0.00    -0.290 OA 
BRANCH  27  28
HETATM   28  C   UNL     1     -11.044   7.770  72.382  1.00  0.00    -0.323 A  
HETATM   29  C   UNL     1      -9.778   7.553  71.849  1.00  0.00    -0.191 A  
HETATM   30  C   UNL     1      -9.217   6.278  71.876  1.00  0.00    -0.147 A  
HETATM   31  C   UNL     1      -9.905   5.201  72.424  1.00  0.00    -0.167 A  
HETATM   32  C   UNL     1     -11.181   5.411  72.946  1.00  0.00    -0.372 A  
HETATM   33  C   UNL     1     -11.737   6.699  72.946  1.00  0.00     0.088 A  
BRANCH  31  34
HETATM   34  O   UNL     1      -9.264   4.014  72.297  1.00  0.00    -0.115 OA 
HETATM   35  C   UNL     1      -9.237   3.355  71.042  1.00  0.00    -0.127 C  
HETATM   36  F   UNL     1      -7.950   3.135  70.693  1.00  0.00    -0.046 F  
HETATM   37  F   UNL     1      -9.849   4.019  70.043  1.00  0.00    -0.257 F  
HETATM   38  F   UNL     1      -9.844   2.152  71.179  1.00  0.00    -0.209 F  
ENDBRANCH  31  34
ENDBRANCH  27  28
ENDBRANCH  24  27
ENDBRANCH  16  21
ENDBRANCH  14  15
ENDBRANCH  13  14
ENDBRANCH   2  13
TORSDOF 7
ENDMDL
MODEL      109
REMARK 921   NORMALIZED FREE ENERGY PREDICTED BY IDOCK:   -4.24 KCAL/MOL
REMARK 922        TOTAL FREE ENERGY PREDICTED BY IDOCK:   -7.45 KCAL/MOL
REMARK 923 INTER-LIGAND FREE ENERGY PREDICTED BY IDOCK:   -7.84 KCAL/MOL
REMARK 924 INTRA-LIGAND FREE ENERGY PREDICTED BY IDOCK:    0.38 KCAL/MOL
REMARK 927      BINDING AFFINITY PREDICTED BY RF-SCORE:    0.00 PKD
ROOT
HETATM    1  C   UNL     1      -7.801   5.680  67.150  1.00  0.00    -0.101 C  
HETATM    2  C   UNL     1      -7.651   7.134  67.591  1.00  0.00    -0.110 C  
HETATM    3  C   UNL     1      -9.362   8.540  67.844  1.00  0.00    -0.135 A  
HETATM    4  C   UNL     1      -7.887   7.310  69.116  1.00  0.00    -0.117 C  
HETATM    5  N   UNL     1      -8.980   8.246  69.102  1.00  0.00    -0.147 NA 
HETATM    6  O   UNL     1     -11.805  10.683  70.783  1.00  0.00    -0.323 OA 
HETATM    7  C   UNL     1      -9.741   8.917  69.980  1.00  0.00    -0.174 A  
HETATM    8  O   UNL     1      -8.676   7.926  66.896  1.00  0.00    -0.125 OA 
HETATM    9  O   UNL     1     -12.334  11.077  68.680  1.00  0.00    -0.539 OA 
HETATM   10  C   UNL     1     -10.601   9.634  69.148  1.00  0.00    -0.220 A  
HETATM   11  N   UNL     1     -10.348   9.388  67.796  1.00  0.00    -0.223 NA 
HETATM   12  N   UNL     1     -11.658  10.531  69.561  1.00  0.00    -0.264 N  
ENDROOT
BRANCH   2  13
HETATM   13  C   UNL     1      -6.293   7.699  67.179  1.00  0.00    -0.054 C  
BRANCH  13  14
HETATM   14  O   UNL     1      -5.681   8.401  68.264  1.00  0.00    -0.033 OA 
BRANCH  14  15
HETATM   15  C   UNL     1      -6.036   9.720  68.332  1.00  0.00    -0.046 A  
HETATM   16  C   UNL     1      -6.968  12.420  68.299  1.00  0.00    -0.091 A  
HETATM   17  C   UNL     1      -6.245  10.419  69.512  1.00  0.00    -0.054 A  
HETATM   18  C   UNL     1      -6.197  10.392  67.129  1.00  0.00    -0.062 A  
HETATM   19  C   UNL     1      -6.702  11.736  69.488  1.00  0.00    -0.067 A  
HETATM   20  C   UNL     1      -6.649  11.721  67.120  1.00  0.00    -0.143 A  
BRANCH  16  21
HETATM   21  N   UNL     1      -7.458  13.716  68.309  1.00  0.00    -0.112 NA 
HETATM   22  C   UNL     1      -7.765  14.441  69.557  1.00  0.00     0.131 C  
HETATM   23  C   UNL     1      -7.267  15.880  69.430  1.00  0.00    -0.214 C  
HETATM   24  C   UNL     1      -7.861  16.564  68.196  1.00  0.00    -0.168 C  
HETATM   25  C   UNL     1      -8.145  14.293  67.150  1.00  0.00    -0.129 C  
HETATM   26  C   UNL     1      -7.605  15.701  66.954  1.00  0.00    -0.201 C  
BRANCH  24  27
HETATM   27  O   UNL     1      -9.268  16.737  68.438  1.00  0.00    -0.214 OA 
BRANCH  27  28
HETATM   28  C   UNL     1     -10.125  16.092  67.593  1.00  0.00    -0.245 A  
HETATM   29  C   UNL     1     -10.859  14.956  67.918  1.00  0.00    -0.276 A  
HETATM   30  C   UNL     1     -11.717  14.385  66.981  1.00  0.00    -0.420 A  
HETATM   31  C   UNL     1     -11.854  14.926  65.707  1.00  0.00    -0.118 A  
HETATM   32  C   UNL     1     -11.108  16.056  65.371  1.00  0.00    -0.159 A  
HETATM   33  C   UNL     1     -10.266  16.651  66.322  1.00  0.00    -0.344 A  
BRANCH  31  34
HETATM   34  O   UNL     1     -12.657  14.209  64.886  1.00  0.00    -0.587 OA 
HETATM   35  C   UNL     1     -12.099  13.222  64.035  1.00  0.00    -0.447 C  
HETATM   36  F   UNL     1     -12.705  12.040  64.285  1.00  0.00    -0.487 F  
HETATM   37  F   UNL     1     -10.768  13.060  64.157  1.00  0.00    -0.344 F  
HETATM   38  F   UNL     1     -12.364  13.564  62.752  1.00  0.00    -0.476 F  
ENDBRANCH  31  34
ENDBRANCH  27  28
ENDBRANCH  24  27
ENDBRANCH  16  21
ENDBRANCH  14  15
ENDBRANCH  13  14
ENDBRANCH   2  13
TORSDOF 7
ENDMDL
MODEL      110
REMARK 921   NORMALIZED FREE ENERGY PREDICTED BY IDOCK:   -4.23 KCAL/MOL
REMARK 922        TOTAL FREE ENERGY PREDICTED BY IDOCK:   -7.44 KCAL/MOL
REMARK 923 INTER-LIGAND FREE ENERGY PREDICTED BY IDOCK:   -7.61 KCAL/MOL
REMARK 924 INTRA-LIGAND FREE ENERGY PREDICTED BY IDOCK:    0.17 KCAL/MOL
REMARK 927      BINDING AFFINITY PREDICTED BY RF-SCORE:    0.00 PKD
ROOT
HETATM    1  C   UNL     1      -9.879  17.717  68.459  1.00  0.00    -0.346 C  
HETATM    2  C   UNL     1      -9.494  16.467  67.671  1.00  0.00    -0.225 C  
HETATM    3  C   UNL     1     -10.970  15.055  66.779  1.00  0.00    -0.323 A  
HETATM    4  C   UNL     1      -9.509  16.716  66.138  1.00  0.00    -0.287 C  
HETATM    5  N   UNL     1     -10.469  15.727  65.724  1.00  0.00    -0.346 NA 
HETATM    6  O   UNL     1     -12.729  13.646  63.021  1.00  0.00    -0.681 OA 
HETATM    7  C   UNL     1     -11.022  15.274  64.589  1.00  0.00    -0.304 A  
HETATM    8  O   UNL     1     -10.494  15.428  67.954  1.00  0.00    -0.247 OA 
HETATM    9  O   UNL     1     -13.471  12.624  64.828  1.00  0.00    -0.608 OA 
HETATM   10  C   UNL     1     -11.885  14.280  65.048  1.00  0.00    -0.396 A  
HETATM   11  N   UNL     1     -11.841  14.150  66.439  1.00  0.00    -0.405 NA 
HETATM   12  N   UNL     1     -12.760  13.454  64.246  1.00  0.00    -0.124 N  
ENDROOT
BRANCH   2  13
HETATM   13  C   UNL     1      -8.141  15.924  68.124  1.00  0.00    -0.145 C  
BRANCH  13  14
HETATM   14  O   UNL     1      -8.307  14.839  69.040  1.00  0.00    -0.168 OA 
BRANCH  14  15
HETATM   15  C   UNL     1      -8.441  13.622  68.430  1.00  0.00    -0.147 A  
HETATM   16  C   UNL     1      -8.461  11.047  67.193  1.00  0.00    -0.137 A  
HETATM   17  C   UNL     1      -9.402  12.677  68.761  1.00  0.00     0.132 A  
HETATM   18  C   UNL     1      -7.546  13.327  67.412  1.00  0.00    -0.137 A  
HETATM   19  C   UNL     1      -9.404  11.422  68.154  1.00  0.00    -0.181 A  
HETATM   20  C   UNL     1      -7.565  12.061  66.804  1.00  0.00     0.008 A  
BRANCH  16  21
HETATM   21  N   UNL     1      -8.466   9.779  66.636  1.00  0.00    -0.124 NA 
HETATM   22  C   UNL     1      -9.136   9.475  65.357  1.00  0.00    -0.221 C  
HETATM   23  C   UNL     1      -8.236   8.556  64.533  1.00  0.00    -0.158 C  
HETATM   24  C   UNL     1      -7.869   7.292  65.315  1.00  0.00    -0.121 C  
HETATM   25  C   UNL     1      -8.246   8.577  67.445  1.00  0.00    -0.109 C  
HETATM   26  C   UNL     1      -7.285   7.681  66.679  1.00  0.00    -0.087 C  
BRANCH  24  27
HETATM   27  O   UNL     1      -9.070   6.513  65.456  1.00  0.00    -0.007 OA 
BRANCH  27  28
HETATM   28  C   UNL     1      -9.227   5.826  66.627  1.00  0.00    -0.137 A  
HETATM   29  C   UNL     1      -8.416   4.779  67.050  1.00  0.00    -0.105 A  
HETATM   30  C   UNL     1      -8.659   4.155  68.272  1.00  0.00    -0.110 A  
HETATM   31  C   UNL     1      -9.712   4.555  69.087  1.00  0.00    -0.179 A  
HETATM   32  C   UNL     1     -10.538   5.595  68.660  1.00  0.00    -0.268 A  
HETATM   33  C   UNL     1     -10.279   6.244  67.443  1.00  0.00    -0.223 A  
BRANCH  31  34
HETATM   34  O   UNL     1      -9.870   3.797  70.197  1.00  0.00    -0.188 OA 
HETATM   35  C   UNL     1      -9.178   4.132  71.388  1.00  0.00    -0.135 C  
HETATM   36  F   UNL     1     -10.077   4.289  72.385  1.00  0.00    -0.200 F  
HETATM   37  F   UNL     1      -8.423   5.244  71.307  1.00  0.00    -0.114 F  
HETATM   38  F   UNL     1      -8.367   3.098  71.717  1.00  0.00    -0.059 F  
ENDBRANCH  31  34
ENDBRANCH  27  28
ENDBRANCH  24  27
ENDBRANCH  16  21
ENDBRANCH  14  15
ENDBRANCH  13  14
ENDBRANCH   2  13
TORSDOF 7
ENDMDL
MODEL      111
REMARK 921   NORMALIZED FREE ENERGY PREDICTED BY IDOCK:   -4.23 KCAL/MOL
REMARK 922        TOTAL FREE ENERGY PREDICTED BY IDOCK:   -7.44 KCAL/MOL
REMARK 923 INTER-LIGAND FREE ENERGY PREDICTED BY IDOCK:   -9.46 KCAL/MOL
REMARK 924 INTRA-LIGAND FREE ENERGY PREDICTED BY IDOCK:    2.02 KCAL/MOL
REMARK 927      BINDING AFFINITY PREDICTED BY RF-SCORE:    0.00 PKD
ROOT
HETATM    1  C   UNL     1     -10.482  17.581  68.916  1.00  0.00    -0.286 C  
HETATM    2  C   UNL     1      -9.959  16.351  68.179  1.00  0.00    -0.242 C  
HETATM    3  C   UNL     1     -11.254  14.941  67.037  1.00  0.00    -0.344 A  
HETATM    4  C   UNL     1      -9.731  16.628  66.668  1.00  0.00    -0.266 C  
HETATM    5  N   UNL     1     -10.598  15.638  66.088  1.00  0.00    -0.313 NA 
HETATM    6  O   UNL     1     -12.367  13.586  63.021  1.00  0.00    -0.661 OA 
HETATM    7  C   UNL     1     -10.956  15.201  64.871  1.00  0.00    -0.419 A  
HETATM    8  O   UNL     1     -10.978  15.296  68.279  1.00  0.00    -0.255 OA 
HETATM    9  O   UNL     1     -13.376  12.523  64.667  1.00  0.00    -0.804 OA 
HETATM   10  C   UNL     1     -11.869  14.191  65.168  1.00  0.00    -0.372 A  
HETATM   11  N   UNL     1     -12.047  14.034  66.545  1.00  0.00    -0.446 NA 
HETATM   12  N   UNL     1     -12.593  13.370  64.222  1.00  0.00    -0.220 N  
ENDROOT
BRANCH   2  13
HETATM   13  C   UNL     1      -8.689  15.812  68.835  1.00  0.00    -0.217 C  
BRANCH  13  14
HETATM   14  O   UNL     1      -7.889  15.099  67.889  1.00  0.00    -0.120 OA 
BRANCH  14  15
HETATM   15  C   UNL     1      -7.763  13.767  68.172  1.00  0.00    -0.140 A  
HETATM   16  C   UNL     1      -7.518  11.050  69.019  1.00  0.00    -0.129 A  
HETATM   17  C   UNL     1      -8.504  12.761  67.570  1.00  0.00    -0.181 A  
HETATM   18  C   UNL     1      -6.825  13.414  69.132  1.00  0.00    -0.076 A  
HETATM   19  C   UNL     1      -8.381  11.437  67.990  1.00  0.00    -0.143 A  
HETATM   20  C   UNL     1      -6.705  12.076  69.538  1.00  0.00    -0.035 A  
BRANCH  16  21
HETATM   21  N   UNL     1      -7.445   9.732  69.440  1.00  0.00    -0.089 NA 
HETATM   22  C   UNL     1      -7.325   8.602  68.499  1.00  0.00    -0.085 C  
HETATM   23  C   UNL     1      -6.307   7.605  69.050  1.00  0.00    -0.036 C  
HETATM   24  C   UNL     1      -6.685   7.151  70.462  1.00  0.00    -0.052 C  
HETATM   25  C   UNL     1      -7.944   9.310  70.752  1.00  0.00    -0.154 C  
HETATM   26  C   UNL     1      -6.906   8.377  71.356  1.00  0.00    -0.069 C  
BRANCH  24  27
HETATM   27  O   UNL     1      -7.877   6.355  70.350  1.00  0.00    -0.102 OA 
BRANCH  27  28
HETATM   28  C   UNL     1      -9.049   6.938  70.745  1.00  0.00    -0.154 A  
HETATM   29  C   UNL     1     -10.054   7.365  69.885  1.00  0.00    -0.195 A  
HETATM   30  C   UNL     1     -11.218   7.936  70.398  1.00  0.00    -0.240 A  
HETATM   31  C   UNL     1     -11.397   8.097  71.768  1.00  0.00    -0.278 A  
HETATM   32  C   UNL     1     -10.384   7.684  72.633  1.00  0.00    -0.332 A  
HETATM   33  C   UNL     1      -9.224   7.083  72.122  1.00  0.00    -0.142 A  
BRANCH  31  34
HETATM   34  O   UNL     1     -12.538   8.744  72.103  1.00  0.00    -0.353 OA 
HETATM   35  C   UNL     1     -12.894   9.942  71.435  1.00  0.00    -0.405 C  
HETATM   36  F   UNL     1     -14.126   9.793  70.900  1.00  0.00    -0.299 F  
HETATM   37  F   UNL     1     -12.044  10.320  70.462  1.00  0.00    -0.308 F  
HETATM   38  F   UNL     1     -12.955  10.940  72.349  1.00  0.00    -0.494 F  
ENDBRANCH  31  34
ENDBRANCH  27  28
ENDBRANCH  24  27
ENDBRANCH  16  21
ENDBRANCH  14  15
ENDBRANCH  13  14
ENDBRANCH   2  13
TORSDOF 7
ENDMDL
MODEL      112
REMARK 921   NORMALIZED FREE ENERGY PREDICTED BY IDOCK:   -4.19 KCAL/MOL
REMARK 922        TOTAL FREE ENERGY PREDICTED BY IDOCK:   -7.39 KCAL/MOL
REMARK 923 INTER-LIGAND FREE ENERGY PREDICTED BY IDOCK:   -7.73 KCAL/MOL
REMARK 924 INTRA-LIGAND FREE ENERGY PREDICTED BY IDOCK:    0.35 KCAL/MOL
REMARK 927      BINDING AFFINITY PREDICTED BY RF-SCORE:    0.00 PKD
ROOT
HETATM    1  C   UNL     1     -11.600  16.006  71.271  1.00  0.00    -0.506 C  
HETATM    2  C   UNL     1     -11.196  15.683  69.835  1.00  0.00    -0.331 C  
HETATM    3  C   UNL     1     -10.564  17.217  68.345  1.00  0.00    -0.371 A  
HETATM    4  C   UNL     1      -9.655  15.569  69.674  1.00  0.00    -0.262 C  
HETATM    5  N   UNL     1      -9.423  16.584  68.681  1.00  0.00    -0.234 NA 
HETATM    6  O   UNL     1      -7.146  18.833  66.129  1.00  0.00    -0.231 OA 
HETATM    7  C   UNL     1      -8.395  17.097  67.987  1.00  0.00    -0.218 A  
HETATM    8  O   UNL     1     -11.643  16.791  68.978  1.00  0.00    -0.018 OA 
HETATM    9  O   UNL     1      -9.080  19.788  65.670  1.00  0.00    -0.323 OA 
HETATM   10  C   UNL     1      -9.013  18.077  67.211  1.00  0.00    -0.251 A  
HETATM   11  N   UNL     1     -10.388  18.141  67.446  1.00  0.00    -0.373 NA 
HETATM   12  N   UNL     1      -8.372  18.966  66.267  1.00  0.00    -0.288 N  
ENDROOT
BRANCH   2  13
HETATM   13  C   UNL     1     -11.893  14.420  69.335  1.00  0.00    -0.325 C  
BRANCH  13  14
HETATM   14  O   UNL     1     -12.133  14.491  67.928  1.00  0.00    -0.325 OA 
BRANCH  14  15
HETATM   15  C   UNL     1     -11.453  13.549  67.207  1.00  0.00    -0.339 A  
HETATM   16  C   UNL     1     -10.027  11.754  65.502  1.00  0.00    -0.242 A  
HETATM   17  C   UNL     1     -10.337  12.862  67.665  1.00  0.00    -0.218 A  
HETATM   18  C   UNL     1     -11.922  13.273  65.931  1.00  0.00    -0.466 A  
HETATM   19  C   UNL     1      -9.645  11.990  66.826  1.00  0.00    -0.215 A  
HETATM   20  C   UNL     1     -11.220  12.384  65.101  1.00  0.00    -0.356 A  
BRANCH  16  21
HETATM   21  N   UNL     1      -9.296  10.910  64.682  1.00  0.00    -0.216 NA 
HETATM   22  C   UNL     1      -9.751  10.522  63.333  1.00  0.00    -0.316 C  
HETATM   23  C   UNL     1      -8.560  10.563  62.378  1.00  0.00    -0.267 C  
HETATM   24  C   UNL     1      -7.414   9.682  62.883  1.00  0.00    -0.116 C  
HETATM   25  C   UNL     1      -8.300   9.980  65.220  1.00  0.00    -0.154 C  
HETATM   26  C   UNL     1      -7.070  10.063  64.328  1.00  0.00    -0.130 C  
BRANCH  24  27
HETATM   27  O   UNL     1      -7.850   8.316  62.786  1.00  0.00    -0.124 OA 
BRANCH  27  28
HETATM   28  C   UNL     1      -7.368   7.445  63.722  1.00  0.00    -0.089 A  
HETATM   29  C   UNL     1      -8.115   6.903  64.763  1.00  0.00    -0.095 A  
HETATM   30  C   UNL     1      -7.525   6.010  65.656  1.00  0.00    -0.082 A  
HETATM   31  C   UNL     1      -6.188   5.649  65.534  1.00  0.00    -0.034 A  
HETATM   32  C   UNL     1      -5.431   6.202  64.502  1.00  0.00    -0.018 A  
HETATM   33  C   UNL     1      -6.029   7.078  63.583  1.00  0.00    -0.040 A  
BRANCH  31  34
HETATM   34  O   UNL     1      -5.741   4.844  66.527  1.00  0.00    -0.017 OA 
HETATM   35  C   UNL     1      -6.210   5.027  67.852  1.00  0.00    -0.035 C  
HETATM   36  F   UNL     1      -6.745   3.865  68.289  1.00  0.00    -0.042 F  
HETATM   37  F   UNL     1      -7.123   6.006  67.997  1.00  0.00    -0.068 F  
HETATM   38  F   UNL     1      -5.151   5.321  68.644  1.00  0.00     0.000 F  
ENDBRANCH  31  34
ENDBRANCH  27  28
ENDBRANCH  24  27
ENDBRANCH  16  21
ENDBRANCH  14  15
ENDBRANCH  13  14
ENDBRANCH   2  13
TORSDOF 7
ENDMDL
MODEL      113
REMARK 921   NORMALIZED FREE ENERGY PREDICTED BY IDOCK:   -4.18 KCAL/MOL
REMARK 922        TOTAL FREE ENERGY PREDICTED BY IDOCK:   -7.37 KCAL/MOL
REMARK 923 INTER-LIGAND FREE ENERGY PREDICTED BY IDOCK:   -6.48 KCAL/MOL
REMARK 924 INTRA-LIGAND FREE ENERGY PREDICTED BY IDOCK:   -0.89 KCAL/MOL
REMARK 927      BINDING AFFINITY PREDICTED BY RF-SCORE:    0.00 PKD
ROOT
HETATM    1  C   UNL     1     -10.894  18.890  67.273  1.00  0.00    -0.448 C  
HETATM    2  C   UNL     1     -10.446  17.521  67.779  1.00  0.00    -0.381 C  
HETATM    3  C   UNL     1     -10.851  16.761  69.835  1.00  0.00    -0.100 A  
HETATM    4  C   UNL     1     -11.576  16.460  67.670  1.00  0.00     0.282 C  
HETATM    5  N   UNL     1     -11.691  16.061  69.047  1.00  0.00    -0.356 NA 
HETATM    6  O   UNL     1     -13.208  13.902  72.175  1.00  0.00    -0.376 OA 
HETATM    7  C   UNL     1     -12.396  15.193  69.788  1.00  0.00    -0.242 A  
HETATM    8  O   UNL     1     -10.109  17.653  69.204  1.00  0.00    -0.319 OA 
HETATM    9  O   UNL     1     -11.793  15.115  73.353  1.00  0.00    -0.406 OA 
HETATM   10  C   UNL     1     -11.910  15.428  71.074  1.00  0.00    -0.360 A  
HETATM   11  N   UNL     1     -10.929  16.422  71.089  1.00  0.00     0.111 NA 
HETATM   12  N   UNL     1     -12.330  14.771  72.292  1.00  0.00    -0.336 N  
ENDROOT
BRANCH   2  13
HETATM   13  C   UNL     1      -9.183  17.052  67.060  1.00  0.00    -0.236 C  
BRANCH  13  14
HETATM   14  O   UNL     1      -9.512  16.299  65.890  1.00  0.00    -0.358 OA 
BRANCH  14  15
HETATM   15  C   UNL     1      -9.323  14.952  66.035  1.00  0.00    -0.241 A  
HETATM   16  C   UNL     1      -8.928  12.180  66.599  1.00  0.00    -0.198 A  
HETATM   17  C   UNL     1     -10.089  13.978  65.410  1.00  0.00    -0.343 A  
HETATM   18  C   UNL     1      -8.292  14.547  66.870  1.00  0.00    -0.133 A  
HETATM   19  C   UNL     1      -9.892  12.628  65.692  1.00  0.00    -0.213 A  
HETATM   20  C   UNL     1      -8.099  13.182  67.138  1.00  0.00    -0.107 A  
BRANCH  16  21
HETATM   21  N   UNL     1      -8.781  10.832  66.887  1.00  0.00    -0.139 NA 
HETATM   22  C   UNL     1      -9.453   9.775  66.106  1.00  0.00    -0.205 C  
HETATM   23  C   UNL     1      -8.467   8.631  65.874  1.00  0.00    -0.158 C  
HETATM   24  C   UNL     1      -7.902   8.109  67.197  1.00  0.00    -0.101 C  
HETATM   25  C   UNL     1      -8.368  10.364  68.212  1.00  0.00    -0.119 C  
HETATM   26  C   UNL     1      -7.324   9.277  68.006  1.00  0.00    -0.080 C  
BRANCH  24  27
HETATM   27  O   UNL     1      -8.979   7.462  67.897  1.00  0.00    -0.132 OA 
BRANCH  27  28
HETATM   28  C   UNL     1      -8.693   6.275  68.510  1.00  0.00    -0.112 A  
HETATM   29  C   UNL     1      -9.585   5.546  69.289  1.00  0.00    -0.184 A  
HETATM   30  C   UNL     1      -9.192   4.337  69.858  1.00  0.00    -0.208 A  
HETATM   31  C   UNL     1      -7.907   3.837  69.669  1.00  0.00    -0.051 A  
HETATM   32  C   UNL     1      -7.004   4.572  68.902  1.00  0.00    -0.051 A  
HETATM   33  C   UNL     1      -7.406   5.776  68.304  1.00  0.00    -0.080 A  
BRANCH  31  34
HETATM   34  O   UNL     1      -7.652   2.699  70.356  1.00  0.00    -0.043 OA 
HETATM   35  C   UNL     1      -6.420   2.546  71.042  1.00  0.00    -0.023 C  
HETATM   36  F   UNL     1      -6.676   2.282  72.342  1.00  0.00    -0.016 F  
HETATM   37  F   UNL     1      -5.600   3.611  70.970  1.00  0.00    -0.010 F  
HETATM   38  F   UNL     1      -5.769   1.480  70.519  1.00  0.00    -0.013 F  
ENDBRANCH  31  34
ENDBRANCH  27  28
ENDBRANCH  24  27
ENDBRANCH  16  21
ENDBRANCH  14  15
ENDBRANCH  13  14
ENDBRANCH   2  13
TORSDOF 7
ENDMDL
MODEL      114
REMARK 921   NORMALIZED FREE ENERGY PREDICTED BY IDOCK:   -4.13 KCAL/MOL
REMARK 922        TOTAL FREE ENERGY PREDICTED BY IDOCK:   -7.30 KCAL/MOL
REMARK 923 INTER-LIGAND FREE ENERGY PREDICTED BY IDOCK:   -6.37 KCAL/MOL
REMARK 924 INTRA-LIGAND FREE ENERGY PREDICTED BY IDOCK:   -0.92 KCAL/MOL
REMARK 927      BINDING AFFINITY PREDICTED BY RF-SCORE:    0.00 PKD
ROOT
HETATM    1  C   UNL     1     -11.546  15.092  67.969  1.00  0.00    -0.345 C  
HETATM    2  C   UNL     1     -10.102  15.157  67.478  1.00  0.00    -0.232 C  
HETATM    3  C   UNL     1      -9.146  17.000  66.666  1.00  0.00    -0.254 A  
HETATM    4  C   UNL     1      -9.139  15.701  68.568  1.00  0.00    -0.196 C  
HETATM    5  N   UNL     1      -8.597  16.846  67.886  1.00  0.00    -0.205 NA 
HETATM    6  O   UNL     1      -6.207  20.145  67.487  1.00  0.00    -0.196 OA 
HETATM    7  C   UNL     1      -7.701  17.819  68.110  1.00  0.00    -0.254 A  
HETATM    8  O   UNL     1     -10.051  16.092  66.345  1.00  0.00    -0.277 OA 
HETATM    9  O   UNL     1      -7.184  20.285  65.516  1.00  0.00    -0.300 OA 
HETATM   10  C   UNL     1      -7.757  18.559  66.929  1.00  0.00    -0.227 A  
HETATM   11  N   UNL     1      -8.675  18.027  66.021  1.00  0.00    -0.512 NA 
HETATM   12  N   UNL     1      -6.997  19.749  66.616  1.00  0.00    -0.202 N  
ENDROOT
BRANCH   2  13
HETATM   13  C   UNL     1      -9.633  13.799  66.961  1.00  0.00    -0.251 C  
BRANCH  13  14
HETATM   14  O   UNL     1      -8.444  13.379  67.634  1.00  0.00    -0.161 OA 
BRANCH  14  15
HETATM   15  C   UNL     1      -8.397  12.033  67.874  1.00  0.00    -0.155 A  
HETATM   16  C   UNL     1      -8.294   9.282  68.633  1.00  0.00    -0.118 A  
HETATM   17  C   UNL     1      -9.248  11.100  67.299  1.00  0.00    -0.166 A  
HETATM   18  C   UNL     1      -7.425  11.586  68.757  1.00  0.00    -0.119 A  
HETATM   19  C   UNL     1      -9.193   9.760  67.676  1.00  0.00    -0.143 A  
HETATM   20  C   UNL     1      -7.376  10.231  69.121  1.00  0.00    -0.096 A  
BRANCH  16  21
HETATM   21  N   UNL     1      -8.290   7.949  69.015  1.00  0.00    -0.129 NA 
HETATM   22  C   UNL     1      -7.367   7.418  70.037  1.00  0.00    -0.082 C  
HETATM   23  C   UNL     1      -8.135   6.460  70.946  1.00  0.00    -0.124 C  
HETATM   24  C   UNL     1      -8.812   5.350  70.136  1.00  0.00    -0.127 C  
HETATM   25  C   UNL     1      -8.826   6.895  68.150  1.00  0.00    -0.125 C  
HETATM   26  C   UNL     1      -9.663   5.972  69.022  1.00  0.00    -0.161 C  
BRANCH  24  27
HETATM   27  O   UNL     1      -7.771   4.514  69.603  1.00  0.00    -0.054 OA 
BRANCH  27  28
HETATM   28  C   UNL     1      -8.075   3.780  68.492  1.00  0.00    -0.074 A  
HETATM   29  C   UNL     1      -9.177   2.940  68.370  1.00  0.00    -0.245 A  
HETATM   30  C   UNL     1      -9.400   2.247  67.182  1.00  0.00    -0.051 A  
HETATM   31  C   UNL     1      -8.532   2.371  66.103  1.00  0.00    -0.101 A  
HETATM   32  C   UNL     1      -7.417   3.200  66.226  1.00  0.00    -0.076 A  
HETATM   33  C   UNL     1      -7.205   3.922  67.410  1.00  0.00    -0.067 A  
BRANCH  31  34
HETATM   34  O   UNL     1      -8.836   1.569  65.055  1.00  0.00    -0.105 OA 
HETATM   35  C   UNL     1      -9.436   2.117  63.894  1.00  0.00    -0.122 C  
HETATM   36  F   UNL     1      -8.669   1.818  62.823  1.00  0.00    -0.072 F  
HETATM   37  F   UNL     1      -9.623   3.450  63.933  1.00  0.00    -0.114 F  
HETATM   38  F   UNL     1     -10.644   1.530  63.719  1.00  0.00    -0.135 F  
ENDBRANCH  31  34
ENDBRANCH  27  28
ENDBRANCH  24  27
ENDBRANCH  16  21
ENDBRANCH  14  15
ENDBRANCH  13  14
ENDBRANCH   2  13
TORSDOF 7
ENDMDL
MODEL      115
REMARK 921   NORMALIZED FREE ENERGY PREDICTED BY IDOCK:   -4.13 KCAL/MOL
REMARK 922        TOTAL FREE ENERGY PREDICTED BY IDOCK:   -7.30 KCAL/MOL
REMARK 923 INTER-LIGAND FREE ENERGY PREDICTED BY IDOCK:   -7.23 KCAL/MOL
REMARK 924 INTRA-LIGAND FREE ENERGY PREDICTED BY IDOCK:   -0.07 KCAL/MOL
REMARK 927      BINDING AFFINITY PREDICTED BY RF-SCORE:    0.00 PKD
ROOT
HETATM    1  C   UNL     1      -8.461  15.337  67.986  1.00  0.00    -0.147 C  
HETATM    2  C   UNL     1      -9.950  15.540  68.252  1.00  0.00    -0.213 C  
HETATM    3  C   UNL     1     -10.959  14.991  70.162  1.00  0.00    -0.221 A  
HETATM    4  C   UNL     1     -10.231  16.857  69.026  1.00  0.00    -0.308 C  
HETATM    5  N   UNL     1     -10.894  16.337  70.192  1.00  0.00    -0.327 NA 
HETATM    6  O   UNL     1     -12.806  16.589  73.801  1.00  0.00    -0.564 OA 
HETATM    7  C   UNL     1     -11.468  16.798  71.313  1.00  0.00     0.370 A  
HETATM    8  O   UNL     1     -10.415  14.431  69.097  1.00  0.00    -0.238 OA 
HETATM    9  O   UNL     1     -12.846  14.391  73.633  1.00  0.00    -0.471 OA 
HETATM   10  C   UNL     1     -11.882  15.626  71.945  1.00  0.00    -0.452 A  
HETATM   11  N   UNL     1     -11.556  14.488  71.203  1.00  0.00    -0.223 NA 
HETATM   12  N   UNL     1     -12.561  15.521  73.218  1.00  0.00    -0.440 N  
ENDROOT
BRANCH   2  13
HETATM   13  C   UNL     1     -10.756  15.485  66.955  1.00  0.00    -0.321 C  
BRANCH  13  14
HETATM   14  O   UNL     1     -11.552  14.299  66.899  1.00  0.00    -0.351 OA 
BRANCH  14  15
HETATM   15  C   UNL     1     -10.818  13.152  66.773  1.00  0.00    -0.276 A  
HETATM   16  C   UNL     1      -9.510  10.622  66.549  1.00  0.00    -0.169 A  
HETATM   17  C   UNL     1      -9.933  12.893  65.736  1.00  0.00    -0.261 A  
HETATM   18  C   UNL     1     -10.982  12.188  67.758  1.00  0.00    -0.278 A  
HETATM   19  C   UNL     1      -9.300  11.656  65.632  1.00  0.00    -0.195 A  
HETATM   20  C   UNL     1     -10.330  10.950  67.645  1.00  0.00    -0.232 A  
BRANCH  16  21
HETATM   21  N   UNL     1      -8.895   9.389  66.397  1.00  0.00    -0.141 NA 
HETATM   22  C   UNL     1      -8.454   8.877  65.086  1.00  0.00    -0.173 C  
HETATM   23  C   UNL     1      -7.080   8.229  65.245  1.00  0.00    -0.074 C  
HETATM   24  C   UNL     1      -7.102   7.139  66.320  1.00  0.00    -0.074 C  
HETATM   25  C   UNL     1      -9.052   8.319  67.386  1.00  0.00    -0.140 C  
HETATM   26  C   UNL     1      -7.678   7.711  67.621  1.00  0.00    -0.122 C  
BRANCH  24  27
HETATM   27  O   UNL     1      -7.905   6.058  65.817  1.00  0.00    -0.097 OA 
BRANCH  27  28
HETATM   28  C   UNL     1      -8.133   5.010  66.664  1.00  0.00    -0.108 A  
HETATM   29  C   UNL     1      -9.390   4.558  67.050  1.00  0.00    -0.160 A  
HETATM   30  C   UNL     1      -9.508   3.469  67.910  1.00  0.00    -0.220 A  
HETATM   31  C   UNL     1      -8.383   2.818  68.405  1.00  0.00    -0.065 A  
HETATM   32  C   UNL     1      -7.120   3.278  68.033  1.00  0.00    -0.050 A  
HETATM   33  C   UNL     1      -6.998   4.356  67.144  1.00  0.00    -0.063 A  
BRANCH  31  34
HETATM   34  O   UNL     1      -8.660   1.836  69.296  1.00  0.00    -0.052 OA 
HETATM   35  C   UNL     1      -8.984   2.167  70.636  1.00  0.00    -0.082 C  
HETATM   36  F   UNL     1     -10.187   1.630  70.938  1.00  0.00    -0.134 F  
HETATM   37  F   UNL     1      -9.021   3.487  70.898  1.00  0.00    -0.112 F  
HETATM   38  F   UNL     1      -8.060   1.604  71.450  1.00  0.00    -0.042 F  
ENDBRANCH  31  34
ENDBRANCH  27  28
ENDBRANCH  24  27
ENDBRANCH  16  21
ENDBRANCH  14  15
ENDBRANCH  13  14
ENDBRANCH   2  13
TORSDOF 7
ENDMDL
MODEL      116
REMARK 921   NORMALIZED FREE ENERGY PREDICTED BY IDOCK:   -4.09 KCAL/MOL
REMARK 922        TOTAL FREE ENERGY PREDICTED BY IDOCK:   -7.24 KCAL/MOL
REMARK 923 INTER-LIGAND FREE ENERGY PREDICTED BY IDOCK:   -5.74 KCAL/MOL
REMARK 924 INTRA-LIGAND FREE ENERGY PREDICTED BY IDOCK:   -1.51 KCAL/MOL
REMARK 927      BINDING AFFINITY PREDICTED BY RF-SCORE:    0.00 PKD
ROOT
HETATM    1  C   UNL     1      -8.786   4.717  70.090  1.00  0.00    -0.130 C  
HETATM    2  C   UNL     1      -8.299   4.945  68.661  1.00  0.00    -0.083 C  
HETATM    3  C   UNL     1      -8.807   3.613  66.947  1.00  0.00    -0.130 A  
HETATM    4  C   UNL     1      -9.356   5.683  67.794  1.00  0.00    -0.110 C  
HETATM    5  N   UNL     1      -9.546   4.721  66.742  1.00  0.00    -0.157 NA 
HETATM    6  O   UNL     1     -11.159   3.290  63.263  1.00  0.00    -0.193 OA 
HETATM    7  C   UNL     1     -10.253   4.596  65.608  1.00  0.00    -0.231 A  
HETATM    8  O   UNL     1      -8.073   3.629  68.045  1.00  0.00    -0.082 OA 
HETATM    9  O   UNL     1      -9.904   1.535  63.714  1.00  0.00    -0.124 OA 
HETATM   10  C   UNL     1      -9.875   3.333  65.154  1.00  0.00     0.005 A  
HETATM   11  N   UNL     1      -8.955   2.722  66.010  1.00  0.00    -0.143 NA 
HETATM   12  N   UNL     1     -10.343   2.666  63.959  1.00  0.00    -0.092 N  
ENDROOT
BRANCH   2  13
HETATM   13  C   UNL     1      -6.963   5.684  68.644  1.00  0.00    -0.064 C  
BRANCH  13  14
HETATM   14  O   UNL     1      -6.723   6.333  69.894  1.00  0.00    -0.052 OA 
BRANCH  14  15
HETATM   15  C   UNL     1      -6.621   7.693  69.796  1.00  0.00    -0.039 A  
HETATM   16  C   UNL     1      -6.651  10.532  69.482  1.00  0.00    -0.080 A  
HETATM   17  C   UNL     1      -6.242   8.532  70.835  1.00  0.00    -0.036 A  
HETATM   18  C   UNL     1      -6.923   8.259  68.566  1.00  0.00    -0.069 A  
HETATM   19  C   UNL     1      -6.261   9.916  70.674  1.00  0.00    -0.102 A  
HETATM   20  C   UNL     1      -6.929   9.655  68.417  1.00  0.00    -0.065 A  
BRANCH  16  21
HETATM   21  N   UNL     1      -6.695  11.912  69.366  1.00  0.00    -0.104 NA 
HETATM   22  C   UNL     1      -5.974  12.811  70.288  1.00  0.00    -0.127 C  
HETATM   23  C   UNL     1      -5.333  13.938  69.479  1.00  0.00    -0.084 C  
HETATM   24  C   UNL     1      -6.375  14.678  68.637  1.00  0.00    -0.082 C  
HETATM   25  C   UNL     1      -7.787  12.595  68.666  1.00  0.00    -0.043 C  
HETATM   26  C   UNL     1      -7.163  13.672  67.790  1.00  0.00    -0.169 C  
BRANCH  24  27
HETATM   27  O   UNL     1      -7.232  15.390  69.546  1.00  0.00    -0.182 OA 
BRANCH  27  28
HETATM   28  C   UNL     1      -7.876  16.491  69.056  1.00  0.00    -0.226 A  
HETATM   29  C   UNL     1      -9.234  16.751  69.205  1.00  0.00    -0.140 A  
HETATM   30  C   UNL     1      -9.786  17.916  68.674  1.00  0.00    -0.355 A  
HETATM   31  C   UNL     1      -9.001  18.833  67.983  1.00  0.00    -0.299 A  
HETATM   32  C   UNL     1      -7.642  18.569  67.818  1.00  0.00    -0.243 A  
HETATM   33  C   UNL     1      -7.078  17.412  68.376  1.00  0.00    -0.212 A  
BRANCH  31  34
HETATM   34  O   UNL     1      -9.698  19.867  67.455  1.00  0.00    -0.348 OA 
HETATM   35  C   UNL     1     -10.379  19.707  66.222  1.00  0.00    -0.518 C  
HETATM   36  F   UNL     1     -11.683  20.012  66.402  1.00  0.00     0.110 F  
HETATM   37  F   UNL     1     -10.293  18.474  65.688  1.00  0.00    -0.379 F  
HETATM   38  F   UNL     1      -9.863  20.587  65.331  1.00  0.00    -0.361 F  
ENDBRANCH  31  34
ENDBRANCH  27  28
ENDBRANCH  24  27
ENDBRANCH  16  21
ENDBRANCH  14  15
ENDBRANCH  13  14
ENDBRANCH   2  13
TORSDOF 7
ENDMDL
MODEL      117
REMARK 921   NORMALIZED FREE ENERGY PREDICTED BY IDOCK:   -4.06 KCAL/MOL
REMARK 922        TOTAL FREE ENERGY PREDICTED BY IDOCK:   -7.21 KCAL/MOL
REMARK 923 INTER-LIGAND FREE ENERGY PREDICTED BY IDOCK:   -7.43 KCAL/MOL
REMARK 924 INTRA-LIGAND FREE ENERGY PREDICTED BY IDOCK:    0.23 KCAL/MOL
REMARK 927      BINDING AFFINITY PREDICTED BY RF-SCORE:    0.00 PKD
ROOT
HETATM    1  C   UNL     1      -9.229   3.459  66.018  1.00  0.00    -0.164 C  
HETATM    2  C   UNL     1      -8.408   4.693  66.383  1.00  0.00    -0.106 C  
HETATM    3  C   UNL     1      -7.272   5.913  64.903  1.00  0.00    -0.066 A  
HETATM    4  C   UNL     1      -9.200   6.009  66.159  1.00  0.00    -0.138 C  
HETATM    5  N   UNL     1      -8.336   6.676  65.223  1.00  0.00    -0.134 NA 
HETATM    6  O   UNL     1      -7.165   9.748  62.784  1.00  0.00    -0.108 OA 
HETATM    7  C   UNL     1      -8.276   7.843  64.563  1.00  0.00    -0.069 A  
HETATM    8  O   UNL     1      -7.235   4.734  65.497  1.00  0.00    -0.069 OA 
HETATM    9  O   UNL     1      -5.476   8.402  62.344  1.00  0.00    -0.069 OA 
HETATM   10  C   UNL     1      -7.096   7.717  63.831  1.00  0.00    -0.066 A  
HETATM   11  N   UNL     1      -6.468   6.490  64.059  1.00  0.00    -0.033 NA 
HETATM   12  N   UNL     1      -6.533   8.688  62.919  1.00  0.00    -0.091 N  
ENDROOT
BRANCH   2  13
HETATM   13  C   UNL     1      -7.886   4.604  67.815  1.00  0.00    -0.086 C  
BRANCH  13  14
HETATM   14  O   UNL     1      -8.958   4.401  68.738  1.00  0.00    -0.098 OA 
BRANCH  14  15
HETATM   15  C   UNL     1      -9.565   5.560  69.137  1.00  0.00    -0.143 A  
HETATM   16  C   UNL     1     -10.667   8.109  69.807  1.00  0.00    -0.229 A  
HETATM   17  C   UNL     1     -10.938   5.761  69.163  1.00  0.00    -0.308 A  
HETATM   18  C   UNL     1      -8.737   6.598  69.538  1.00  0.00    -0.135 A  
HETATM   19  C   UNL     1     -11.468   7.008  69.489  1.00  0.00    -0.078 A  
HETATM   20  C   UNL     1      -9.286   7.846  69.873  1.00  0.00    -0.156 A  
BRANCH  16  21
HETATM   21  N   UNL     1     -11.224   9.346  70.090  1.00  0.00    -0.239 NA 
HETATM   22  C   UNL     1     -10.941  10.548  69.283  1.00  0.00    -0.244 C  
HETATM   23  C   UNL     1     -12.242  11.320  69.072  1.00  0.00    -0.211 C  
HETATM   24  C   UNL     1     -12.909  11.658  70.408  1.00  0.00     0.101 C  
HETATM   25  C   UNL     1     -11.730   9.680  71.424  1.00  0.00    -0.404 C  
HETATM   26  C   UNL     1     -13.068  10.380  71.242  1.00  0.00    -0.494 C  
BRANCH  24  27
HETATM   27  O   UNL     1     -12.073  12.622  71.072  1.00  0.00    -0.219 OA 
BRANCH  27  28
HETATM   28  C   UNL     1     -11.824  13.788  70.404  1.00  0.00    -0.253 A  
HETATM   29  C   UNL     1     -11.871  13.939  69.022  1.00  0.00    -0.397 A  
HETATM   30  C   UNL     1     -11.612  15.180  68.445  1.00  0.00    -0.356 A  
HETATM   31  C   UNL     1     -11.296  16.285  69.228  1.00  0.00    -0.288 A  
HETATM   32  C   UNL     1     -11.231  16.135  70.613  1.00  0.00    -0.371 A  
HETATM   33  C   UNL     1     -11.520  14.893  71.199  1.00  0.00    -0.312 A  
BRANCH  31  34
HETATM   34  O   UNL     1     -10.986  17.395  68.516  1.00  0.00    -0.251 OA 
HETATM   35  C   UNL     1      -9.655  17.883  68.508  1.00  0.00    -0.326 C  
HETATM   36  F   UNL     1      -9.227  17.960  67.228  1.00  0.00    -0.245 F  
HETATM   37  F   UNL     1      -8.779  17.141  69.212  1.00  0.00    -0.184 F  
HETATM   38  F   UNL     1      -9.655  19.134  69.025  1.00  0.00    -0.391 F  
ENDBRANCH  31  34
ENDBRANCH  27  28
ENDBRANCH  24  27
ENDBRANCH  16  21
ENDBRANCH  14  15
ENDBRANCH  13  14
ENDBRANCH   2  13
TORSDOF 7
ENDMDL
MODEL      118
REMARK 921   NORMALIZED FREE ENERGY PREDICTED BY IDOCK:   -4.01 KCAL/MOL
REMARK 922        TOTAL FREE ENERGY PREDICTED BY IDOCK:   -7.14 KCAL/MOL
REMARK 923 INTER-LIGAND FREE ENERGY PREDICTED BY IDOCK:   -8.86 KCAL/MOL
REMARK 924 INTRA-LIGAND FREE ENERGY PREDICTED BY IDOCK:    1.72 KCAL/MOL
REMARK 927      BINDING AFFINITY PREDICTED BY RF-SCORE:    0.00 PKD
ROOT
HETATM    1  C   UNL     1     -11.237   5.263  73.588  1.00  0.00    -0.142 C  
HETATM    2  C   UNL     1     -10.919   6.476  72.717  1.00  0.00    -0.253 C  
HETATM    3  C   UNL     1      -9.077   7.712  72.929  1.00  0.00    -0.178 A  
HETATM    4  C   UNL     1      -9.978   6.115  71.535  1.00  0.00    -0.182 C  
HETATM    5  N   UNL     1      -8.876   7.001  71.802  1.00  0.00    -0.126 NA 
HETATM    6  O   UNL     1      -5.230   8.715  71.086  1.00  0.00    -0.028 OA 
HETATM    7  C   UNL     1      -7.694   7.330  71.258  1.00  0.00    -0.088 A  
HETATM    8  O   UNL     1     -10.215   7.460  73.550  1.00  0.00    -0.320 OA 
HETATM    9  O   UNL     1      -5.677   9.812  72.946  1.00  0.00    -0.307 OA 
HETATM   10  C   UNL     1      -7.211   8.291  72.145  1.00  0.00    -0.096 A  
HETATM   11  N   UNL     1      -8.098   8.526  73.198  1.00  0.00    -0.400 NA 
HETATM   12  N   UNL     1      -5.949   8.994  72.058  1.00  0.00    -0.079 N  
ENDROOT
BRANCH   2  13
HETATM   13  C   UNL     1     -12.197   7.144  72.214  1.00  0.00    -0.143 C  
BRANCH  13  14
HETATM   14  O   UNL     1     -12.269   8.502  72.655  1.00  0.00    -0.379 OA 
BRANCH  14  15
HETATM   15  C   UNL     1     -12.156   9.414  71.641  1.00  0.00    -0.388 A  
HETATM   16  C   UNL     1     -11.844  11.494  69.708  1.00  0.00    -0.357 A  
HETATM   17  C   UNL     1     -11.467   9.193  70.457  1.00  0.00    -0.271 A  
HETATM   18  C   UNL     1     -12.776  10.641  71.826  1.00  0.00    -0.489 A  
HETATM   19  C   UNL     1     -11.317  10.213  69.520  1.00  0.00    -0.260 A  
HETATM   20  C   UNL     1     -12.625  11.657  70.869  1.00  0.00    -0.409 A  
BRANCH  16  21
HETATM   21  N   UNL     1     -11.646  12.499  68.775  1.00  0.00    -0.299 NA 
HETATM   22  C   UNL     1     -11.756  12.267  67.322  1.00  0.00    -0.324 C  
HETATM   23  C   UNL     1     -12.505  13.439  66.689  1.00  0.00    -0.212 C  
HETATM   24  C   UNL     1     -11.827  14.772  67.018  1.00  0.00    -0.271 C  
HETATM   25  C   UNL     1     -10.873  13.704  69.087  1.00  0.00    -0.152 C  
HETATM   26  C   UNL     1     -11.641  14.895  68.535  1.00  0.00    -0.347 C  
BRANCH  24  27
HETATM   27  O   UNL     1     -10.566  14.792  66.327  1.00  0.00    -0.291 OA 
BRANCH  27  28
HETATM   28  C   UNL     1     -10.252  13.692  65.580  1.00  0.00    -0.304 A  
HETATM   29  C   UNL     1     -10.790  13.397  64.332  1.00  0.00    -0.422 A  
HETATM   30  C   UNL     1     -10.388  12.251  63.649  1.00  0.00    -0.463 A  
HETATM   31  C   UNL     1      -9.454  11.379  64.197  1.00  0.00    -0.135 A  
HETATM   32  C   UNL     1      -8.923  11.662  65.456  1.00  0.00     0.033 A  
HETATM   33  C   UNL     1      -9.304  12.830  66.133  1.00  0.00    -0.114 A  
BRANCH  31  34
HETATM   34  O   UNL     1      -9.233  10.269  63.453  1.00  0.00    -0.244 OA 
HETATM   35  C   UNL     1      -8.168   9.394  63.786  1.00  0.00    -0.165 C  
HETATM   36  F   UNL     1      -8.667   8.152  63.972  1.00  0.00    -0.043 F  
HETATM   37  F   UNL     1      -7.469   9.748  64.880  1.00  0.00    -0.107 F  
HETATM   38  F   UNL     1      -7.311   9.347  62.738  1.00  0.00    -0.102 F  
ENDBRANCH  31  34
ENDBRANCH  27  28
ENDBRANCH  24  27
ENDBRANCH  16  21
ENDBRANCH  14  15
ENDBRANCH  13  14
ENDBRANCH   2  13
TORSDOF 7
ENDMDL
MODEL      119
REMARK 921   NORMALIZED FREE ENERGY PREDICTED BY IDOCK:   -4.00 KCAL/MOL
REMARK 922        TOTAL FREE ENERGY PREDICTED BY IDOCK:   -7.12 KCAL/MOL
REMARK 923 INTER-LIGAND FREE ENERGY PREDICTED BY IDOCK:   -6.88 KCAL/MOL
REMARK 924 INTRA-LIGAND FREE ENERGY PREDICTED BY IDOCK:   -0.24 KCAL/MOL
REMARK 927      BINDING AFFINITY PREDICTED BY RF-SCORE:    0.00 PKD
ROOT
HETATM    1  C   UNL     1     -13.276   7.211  71.429  1.00  0.00    -0.391 C  
HETATM    2  C   UNL     1     -12.374   8.360  71.873  1.00  0.00    -0.347 C  
HETATM    3  C   UNL     1     -12.061  10.224  70.691  1.00  0.00    -0.338 A  
HETATM    4  C   UNL     1     -13.174   9.494  72.571  1.00  0.00    -0.276 C  
HETATM    5  N   UNL     1     -12.847  10.605  71.717  1.00  0.00    -0.458 NA 
HETATM    6  O   UNL     1     -12.947  14.511  70.502  1.00  0.00    -0.350 OA 
HETATM    7  C   UNL     1     -13.100  11.920  71.635  1.00  0.00    -0.328 A  
HETATM    8  O   UNL     1     -11.754   8.939  70.673  1.00  0.00    -0.264 OA 
HETATM    9  O   UNL     1     -11.666  13.760  68.872  1.00  0.00    -0.290 OA 
HETATM   10  C   UNL     1     -12.401  12.291  70.487  1.00  0.00    -0.264 A  
HETATM   11  N   UNL     1     -11.745  11.207  69.900  1.00  0.00    -0.323 NA 
HETATM   12  N   UNL     1     -12.329  13.615  69.907  1.00  0.00    -0.289 N  
ENDROOT
BRANCH   2  13
HETATM   13  C   UNL     1     -11.241   7.860  72.767  1.00  0.00    -0.405 C  
BRANCH  13  14
HETATM   14  O   UNL     1     -11.058   6.450  72.618  1.00  0.00    -0.244 OA 
BRANCH  14  15
HETATM   15  C   UNL     1     -10.151   6.114  71.651  1.00  0.00    -0.187 A  
HETATM   16  C   UNL     1      -8.459   5.391  69.466  1.00  0.00    -0.100 A  
HETATM   17  C   UNL     1      -8.996   6.832  71.372  1.00  0.00    -0.142 A  
HETATM   18  C   UNL     1     -10.418   4.976  70.905  1.00  0.00    -0.212 A  
HETATM   19  C   UNL     1      -8.177   6.474  70.303  1.00  0.00    -0.126 A  
HETATM   20  C   UNL     1      -9.578   4.622  69.836  1.00  0.00    -0.261 A  
BRANCH  16  21
HETATM   21  N   UNL     1      -7.645   5.084  68.387  1.00  0.00    -0.078 NA 
HETATM   22  C   UNL     1      -7.230   6.091  67.392  1.00  0.00    -0.076 C  
HETATM   23  C   UNL     1      -5.753   5.883  67.064  1.00  0.00    -0.017 C  
HETATM   24  C   UNL     1      -5.485   4.451  66.593  1.00  0.00    -0.013 C  
HETATM   25  C   UNL     1      -7.520   3.716  67.877  1.00  0.00    -0.062 C  
HETATM   26  C   UNL     1      -6.044   3.458  67.619  1.00  0.00    -0.028 C  
BRANCH  24  27
HETATM   27  O   UNL     1      -6.117   4.298  65.311  1.00  0.00    -0.022 OA 
BRANCH  27  28
HETATM   28  C   UNL     1      -6.283   5.430  64.564  1.00  0.00    -0.022 A  
HETATM   29  C   UNL     1      -5.248   6.187  64.025  1.00  0.00    -0.017 A  
HETATM   30  C   UNL     1      -5.531   7.320  63.265  1.00  0.00    -0.034 A  
HETATM   31  C   UNL     1      -6.843   7.722  63.035  1.00  0.00    -0.076 A  
HETATM   32  C   UNL     1      -7.884   6.975  63.586  1.00  0.00    -0.112 A  
HETATM   33  C   UNL     1      -7.603   5.818  64.328  1.00  0.00    -0.082 A  
BRANCH  31  34
HETATM   34  O   UNL     1      -6.951   8.887  62.354  1.00  0.00    -0.095 OA 
HETATM   35  C   UNL     1      -6.981  10.118  63.056  1.00  0.00    -0.133 C  
HETATM   36  F   UNL     1      -5.988  10.908  62.592  1.00  0.00    -0.148 F  
HETATM   37  F   UNL     1      -6.857  10.007  64.392  1.00  0.00    -0.110 F  
HETATM   38  F   UNL     1      -8.160  10.732  62.794  1.00  0.00    -0.157 F  
ENDBRANCH  31  34
ENDBRANCH  27  28
ENDBRANCH  24  27
ENDBRANCH  16  21
ENDBRANCH  14  15
ENDBRANCH  13  14
ENDBRANCH   2  13
TORSDOF 7
ENDMDL
MODEL      120
REMARK 921   NORMALIZED FREE ENERGY PREDICTED BY IDOCK:   -3.98 KCAL/MOL
REMARK 922        TOTAL FREE ENERGY PREDICTED BY IDOCK:   -7.08 KCAL/MOL
REMARK 923 INTER-LIGAND FREE ENERGY PREDICTED BY IDOCK:   -5.73 KCAL/MOL
REMARK 924 INTRA-LIGAND FREE ENERGY PREDICTED BY IDOCK:   -1.35 KCAL/MOL
REMARK 927      BINDING AFFINITY PREDICTED BY RF-SCORE:    0.00 PKD
ROOT
HETATM    1  C   UNL     1     -11.196  17.999  68.087  1.00  0.00     0.462 C  
HETATM    2  C   UNL     1      -9.688  17.767  68.143  1.00  0.00    -0.313 C  
HETATM    3  C   UNL     1      -8.285  18.307  66.498  1.00  0.00    -0.268 A  
HETATM    4  C   UNL     1      -8.918  19.040  68.587  1.00  0.00    -0.363 C  
HETATM    5  N   UNL     1      -8.056  19.231  67.451  1.00  0.00    -0.273 NA 
HETATM    6  O   UNL     1      -5.129  21.093  65.281  1.00  0.00    -0.194 OA 
HETATM    7  C   UNL     1      -7.085  20.067  67.054  1.00  0.00    -0.228 A  
HETATM    8  O   UNL     1      -9.231  17.432  66.787  1.00  0.00    -0.244 OA 
HETATM    9  O   UNL     1      -5.601  19.528  63.801  1.00  0.00    -0.255 OA 
HETATM   10  C   UNL     1      -6.752  19.568  65.795  1.00  0.00    -0.257 A  
HETATM   11  N   UNL     1      -7.518  18.450  65.456  1.00  0.00    -0.503 NA 
HETATM   12  N   UNL     1      -5.756  20.096  64.889  1.00  0.00    -0.179 N  
ENDROOT
BRANCH   2  13
HETATM   13  C   UNL     1      -9.346  16.579  69.039  1.00  0.00    -0.239 C  
BRANCH  13  14
HETATM   14  O   UNL     1      -7.947  16.287  68.987  1.00  0.00    -0.222 OA 
BRANCH  14  15
HETATM   15  C   UNL     1      -7.667  15.029  68.528  1.00  0.00    -0.121 A  
HETATM   16  C   UNL     1      -7.265  12.442  67.385  1.00  0.00    -0.148 A  
HETATM   17  C   UNL     1      -6.390  14.555  68.263  1.00  0.00    -0.121 A  
HETATM   18  C   UNL     1      -8.744  14.181  68.317  1.00  0.00    -0.181 A  
HETATM   19  C   UNL     1      -6.202  13.292  67.703  1.00  0.00    -0.153 A  
HETATM   20  C   UNL     1      -8.539  12.908  67.761  1.00  0.00    -0.185 A  
BRANCH  16  21
HETATM   21  N   UNL     1      -7.048  11.208  66.794  1.00  0.00    -0.132 NA 
HETATM   22  C   UNL     1      -5.842  10.909  65.997  1.00  0.00    -0.143 C  
HETATM   23  C   UNL     1      -5.344   9.511  66.359  1.00  0.00    -0.044 C  
HETATM   24  C   UNL     1      -6.444   8.464  66.169  1.00  0.00    -0.053 C  
HETATM   25  C   UNL     1      -8.148  10.285  66.502  1.00  0.00    -0.121 C  
HETATM   26  C   UNL     1      -7.703   8.895  66.931  1.00  0.00    -0.098 C  
BRANCH  24  27
HETATM   27  O   UNL     1      -6.691   8.355  64.757  1.00  0.00    -0.067 OA 
BRANCH  27  28
HETATM   28  C   UNL     1      -7.233   7.182  64.313  1.00  0.00    -0.072 A  
HETATM   29  C   UNL     1      -7.142   5.962  64.975  1.00  0.00    -0.064 A  
HETATM   30  C   UNL     1      -7.746   4.827  64.437  1.00  0.00    -0.082 A  
HETATM   31  C   UNL     1      -8.440   4.884  63.233  1.00  0.00    -0.117 A  
HETATM   32  C   UNL     1      -8.520   6.102  62.557  1.00  0.00     0.031 A  
HETATM   33  C   UNL     1      -7.938   7.252  63.111  1.00  0.00    -0.085 A  
BRANCH  31  34
HETATM   34  O   UNL     1      -8.893   3.684  62.801  1.00  0.00    -0.088 OA 
HETATM   35  C   UNL     1     -10.013   3.082  63.428  1.00  0.00    -0.136 C  
HETATM   36  F   UNL     1     -10.956   2.834  62.492  1.00  0.00    -0.150 F  
HETATM   37  F   UNL     1     -10.565   3.811  64.416  1.00  0.00    -0.219 F  
HETATM   38  F   UNL     1      -9.623   1.895  63.951  1.00  0.00    -0.109 F  
ENDBRANCH  31  34
ENDBRANCH  27  28
ENDBRANCH  24  27
ENDBRANCH  16  21
ENDBRANCH  14  15
ENDBRANCH  13  14
ENDBRANCH   2  13
TORSDOF 7
ENDMDL
MODEL      121
REMARK 921   NORMALIZED FREE ENERGY PREDICTED BY IDOCK:   -3.93 KCAL/MOL
REMARK 922        TOTAL FREE ENERGY PREDICTED BY IDOCK:   -7.02 KCAL/MOL
REMARK 923 INTER-LIGAND FREE ENERGY PREDICTED BY IDOCK:   -5.96 KCAL/MOL
REMARK 924 INTRA-LIGAND FREE ENERGY PREDICTED BY IDOCK:   -1.05 KCAL/MOL
REMARK 927      BINDING AFFINITY PREDICTED BY RF-SCORE:    0.00 PKD
ROOT
HETATM    1  C   UNL     1      -8.742  19.168  67.614  1.00  0.00    -0.329 C  
HETATM    2  C   UNL     1      -9.187  17.708  67.564  1.00  0.00    -0.243 C  
HETATM    3  C   UNL     1     -10.051  16.610  69.301  1.00  0.00    -0.257 A  
HETATM    4  C   UNL     1     -10.714  17.572  67.315  1.00  0.00    -0.222 C  
HETATM    5  N   UNL     1     -11.102  16.833  68.487  1.00  0.00    -0.317 NA 
HETATM    6  O   UNL     1     -13.729  14.903  70.962  1.00  0.00    -0.382 OA 
HETATM    7  C   UNL     1     -12.212  16.298  69.018  1.00  0.00     0.457 A  
HETATM    8  O   UNL     1      -8.902  17.103  68.872  1.00  0.00    -0.259 OA 
HETATM    9  O   UNL     1     -11.931  14.608  72.203  1.00  0.00    -0.305 OA 
HETATM   10  C   UNL     1     -11.740  15.738  70.205  1.00  0.00    -0.358 A  
HETATM   11  N   UNL     1     -10.368  15.941  70.370  1.00  0.00    -0.100 NA 
HETATM   12  N   UNL     1     -12.518  15.031  71.199  1.00  0.00    -0.306 N  
ENDROOT
BRANCH   2  13
HETATM   13  C   UNL     1      -8.391  16.924  66.523  1.00  0.00    -0.280 C  
BRANCH  13  14
HETATM   14  O   UNL     1      -9.169  15.853  65.985  1.00  0.00    -0.322 OA 
BRANCH  14  15
HETATM   15  C   UNL     1      -8.941  14.650  66.595  1.00  0.00    -0.238 A  
HETATM   16  C   UNL     1      -8.518  12.023  67.634  1.00  0.00    -0.160 A  
HETATM   17  C   UNL     1      -7.826  14.357  67.366  1.00  0.00    -0.211 A  
HETATM   18  C   UNL     1      -9.900  13.663  66.417  1.00  0.00    -0.302 A  
HETATM   19  C   UNL     1      -7.625  13.072  67.868  1.00  0.00    -0.144 A  
HETATM   20  C   UNL     1      -9.689  12.376  66.937  1.00  0.00    -0.217 A  
BRANCH  16  21
HETATM   21  N   UNL     1      -8.271  10.747  68.115  1.00  0.00    -0.115 NA 
HETATM   22  C   UNL     1      -8.371   9.544  67.266  1.00  0.00    -0.125 C  
HETATM   23  C   UNL     1      -7.195   8.620  67.578  1.00  0.00    -0.081 C  
HETATM   24  C   UNL     1      -7.139   8.279  69.070  1.00  0.00    -0.065 C  
HETATM   25  C   UNL     1      -8.361  10.427  69.542  1.00  0.00    -0.113 C  
HETATM   26  C   UNL     1      -7.154   9.571  69.895  1.00  0.00    -0.084 C  
BRANCH  24  27
HETATM   27  O   UNL     1      -8.278   7.451  69.362  1.00  0.00    -0.127 OA 
BRANCH  27  28
HETATM   28  C   UNL     1      -8.172   6.609  70.433  1.00  0.00    -0.125 A  
HETATM   29  C   UNL     1      -7.962   7.015  71.747  1.00  0.00    -0.099 A  
HETATM   30  C   UNL     1      -7.883   6.069  72.767  1.00  0.00    -0.107 A  
HETATM   31  C   UNL     1      -8.003   4.710  72.498  1.00  0.00    -0.092 A  
HETATM   32  C   UNL     1      -8.198   4.297  71.180  1.00  0.00    -0.079 A  
HETATM   33  C   UNL     1      -8.307   5.248  70.155  1.00  0.00    -0.098 A  
BRANCH  31  34
HETATM   34  O   UNL     1      -7.817   3.915  73.579  1.00  0.00    -0.080 OA 
HETATM   35  C   UNL     1      -6.874   2.858  73.527  1.00  0.00    -0.031 C  
HETATM   36  F   UNL     1      -5.988   3.016  74.536  1.00  0.00    -0.008 F  
HETATM   37  F   UNL     1      -6.197   2.764  72.368  1.00  0.00    -0.011 F  
HETATM   38  F   UNL     1      -7.529   1.690  73.726  1.00  0.00    -0.029 F  
ENDBRANCH  31  34
ENDBRANCH  27  28
ENDBRANCH  24  27
ENDBRANCH  16  21
ENDBRANCH  14  15
ENDBRANCH  13  14
ENDBRANCH   2  13
TORSDOF 7
ENDMDL
MODEL      122
REMARK 921   NORMALIZED FREE ENERGY PREDICTED BY IDOCK:   -3.87 KCAL/MOL
REMARK 922        TOTAL FREE ENERGY PREDICTED BY IDOCK:   -6.93 KCAL/MOL
REMARK 923 INTER-LIGAND FREE ENERGY PREDICTED BY IDOCK:   -6.66 KCAL/MOL
REMARK 924 INTRA-LIGAND FREE ENERGY PREDICTED BY IDOCK:   -0.28 KCAL/MOL
REMARK 927      BINDING AFFINITY PREDICTED BY RF-SCORE:    0.00 PKD
ROOT
HETATM    1  C   UNL     1      -9.625   2.334  64.948  1.00  0.00     0.024 C  
HETATM    2  C   UNL     1      -8.871   3.522  65.541  1.00  0.00    -0.127 C  
HETATM    3  C   UNL     1      -7.451   4.795  64.388  1.00  0.00    -0.071 A  
HETATM    4  C   UNL     1      -9.585   4.870  65.251  1.00  0.00    -0.064 C  
HETATM    5  N   UNL     1      -8.544   5.567  64.542  1.00  0.00    -0.093 NA 
HETATM    6  O   UNL     1      -6.874   8.741  62.572  1.00  0.00    -0.095 OA 
HETATM    7  C   UNL     1      -8.339   6.768  63.980  1.00  0.00     0.176 A  
HETATM    8  O   UNL     1      -7.548   3.582  64.903  1.00  0.00    -0.075 OA 
HETATM    9  O   UNL     1      -5.152   7.378  62.384  1.00  0.00    -0.033 OA 
HETATM   10  C   UNL     1      -7.041   6.652  63.484  1.00  0.00    -0.056 A  
HETATM   11  N   UNL     1      -6.488   5.397  63.752  1.00  0.00    -0.026 NA 
HETATM   12  N   UNL     1      -6.297   7.659  62.761  1.00  0.00    -0.066 N  
ENDROOT
BRANCH   2  13
HETATM   13  C   UNL     1      -8.639   3.336  67.039  1.00  0.00    -0.111 C  
BRANCH  13  14
HETATM   14  O   UNL     1      -9.765   3.794  67.790  1.00  0.00    -0.170 OA 
BRANCH  14  15
HETATM   15  C   UNL     1      -9.816   5.154  67.929  1.00  0.00    -0.155 A  
HETATM   16  C   UNL     1      -9.715   8.006  68.053  1.00  0.00    -0.160 A  
HETATM   17  C   UNL     1     -10.966   5.917  67.789  1.00  0.00    -0.245 A  
HETATM   18  C   UNL     1      -8.626   5.800  68.228  1.00  0.00    -0.112 A  
HETATM   19  C   UNL     1     -10.909   7.308  67.848  1.00  0.00    -0.184 A  
HETATM   20  C   UNL     1      -8.584   7.202  68.294  1.00  0.00    -0.122 A  
BRANCH  16  21
HETATM   21  N   UNL     1      -9.684   9.391  68.069  1.00  0.00    -0.142 NA 
HETATM   22  C   UNL     1      -8.847  10.157  69.012  1.00  0.00    -0.166 C  
HETATM   23  C   UNL     1      -8.198  11.321  68.265  1.00  0.00    -0.143 C  
HETATM   24  C   UNL     1      -9.250  12.194  67.577  1.00  0.00    -0.182 C  
HETATM   25  C   UNL     1     -10.779  10.196  67.520  1.00  0.00    -0.290 C  
HETATM   26  C   UNL     1     -10.156  11.317  66.704  1.00  0.00    -0.251 C  
BRANCH  24  27
HETATM   27  O   UNL     1      -9.996  12.859  68.611  1.00  0.00    -0.191 OA 
BRANCH  27  28
HETATM   28  C   UNL     1     -10.017  14.225  68.577  1.00  0.00    -0.235 A  
HETATM   29  C   UNL     1      -8.900  15.042  68.712  1.00  0.00    -0.192 A  
HETATM   30  C   UNL     1      -9.033  16.427  68.648  1.00  0.00    -0.233 A  
HETATM   31  C   UNL     1     -10.276  17.021  68.458  1.00  0.00    -0.324 A  
HETATM   32  C   UNL     1     -11.402  16.207  68.338  1.00  0.00    -0.345 A  
HETATM   33  C   UNL     1     -11.267  14.811  68.373  1.00  0.00    -0.298 A  
BRANCH  31  34
HETATM   34  O   UNL     1     -10.254  18.374  68.505  1.00  0.00    -0.375 OA 
HETATM   35  C   UNL     1      -9.919  19.118  67.347  1.00  0.00    -0.351 C  
HETATM   36  F   UNL     1     -10.925  19.979  67.076  1.00  0.00    -0.523 F  
HETATM   37  F   UNL     1      -9.678  18.376  66.250  1.00  0.00    -0.307 F  
HETATM   38  F   UNL     1      -8.807  19.846  67.612  1.00  0.00    -0.343 F  
ENDBRANCH  31  34
ENDBRANCH  27  28
ENDBRANCH  24  27
ENDBRANCH  16  21
ENDBRANCH  14  15
ENDBRANCH  13  14
ENDBRANCH   2  13
TORSDOF 7
ENDMDL
MODEL      123
REMARK 921   NORMALIZED FREE ENERGY PREDICTED BY IDOCK:   -3.82 KCAL/MOL
REMARK 922        TOTAL FREE ENERGY PREDICTED BY IDOCK:   -6.87 KCAL/MOL
REMARK 923 INTER-LIGAND FREE ENERGY PREDICTED BY IDOCK:   -7.72 KCAL/MOL
REMARK 924 INTRA-LIGAND FREE ENERGY PREDICTED BY IDOCK:    0.85 KCAL/MOL
REMARK 927      BINDING AFFINITY PREDICTED BY RF-SCORE:    0.00 PKD
ROOT
HETATM    1  C   UNL     1     -11.841  15.541  67.759  1.00  0.00     0.026 C  
HETATM    2  C   UNL     1     -10.414  15.756  67.260  1.00  0.00    -0.308 C  
HETATM    3  C   UNL     1      -9.457  17.759  67.057  1.00  0.00    -0.271 A  
HETATM    4  C   UNL     1      -9.403  15.910  68.428  1.00  0.00    -0.201 C  
HETATM    5  N   UNL     1      -8.866  17.212  68.137  1.00  0.00    -0.230 NA 
HETATM    6  O   UNL     1      -6.437  20.449  68.744  1.00  0.00    -0.310 OA 
HETATM    7  C   UNL     1      -7.946  18.055  68.631  1.00  0.00    -0.294 A  
HETATM    8  O   UNL     1     -10.388  17.010  66.493  1.00  0.00    -0.309 OA 
HETATM    9  O   UNL     1      -7.480  21.231  66.967  1.00  0.00    -0.354 OA 
HETATM   10  C   UNL     1      -8.032  19.140  67.760  1.00  0.00    -0.273 A  
HETATM   11  N   UNL     1      -8.991  18.938  66.765  1.00  0.00    -0.302 NA 
HETATM   12  N   UNL     1      -7.263  20.364  67.823  1.00  0.00    -0.304 N  
ENDROOT
BRANCH   2  13
HETATM   13  C   UNL     1      -9.987  14.640  66.309  1.00  0.00    -0.290 C  
BRANCH  13  14
HETATM   14  O   UNL     1      -8.717  14.106  66.686  1.00  0.00    -0.169 OA 
BRANCH  14  15
HETATM   15  C   UNL     1      -8.711  12.745  66.818  1.00  0.00    -0.121 A  
HETATM   16  C   UNL     1      -8.571   9.892  66.861  1.00  0.00    -0.128 A  
HETATM   17  C   UNL     1      -8.309  12.065  67.959  1.00  0.00    -0.162 A  
HETATM   18  C   UNL     1      -9.138  12.005  65.724  1.00  0.00     0.008 A  
HETATM   19  C   UNL     1      -8.241  10.673  67.972  1.00  0.00    -0.113 A  
HETATM   20  C   UNL     1      -9.073  10.603  65.755  1.00  0.00    -0.208 A  
BRANCH  16  21
HETATM   21  N   UNL     1      -8.457   8.511  66.892  1.00  0.00    -0.112 NA 
HETATM   22  C   UNL     1      -8.832   7.656  65.750  1.00  0.00    -0.100 C  
HETATM   23  C   UNL     1      -7.775   6.566  65.580  1.00  0.00    -0.097 C  
HETATM   24  C   UNL     1      -7.590   5.766  66.872  1.00  0.00    -0.099 C  
HETATM   25  C   UNL     1      -8.421   7.766  68.154  1.00  0.00    -0.124 C  
HETATM   26  C   UNL     1      -7.318   6.725  68.037  1.00  0.00    -0.097 C  
BRANCH  24  27
HETATM   27  O   UNL     1      -8.794   5.008  67.081  1.00  0.00    -0.108 OA 
BRANCH  27  28
HETATM   28  C   UNL     1      -9.491   5.259  68.230  1.00  0.00    -0.124 A  
HETATM   29  C   UNL     1      -9.075   4.903  69.508  1.00  0.00    -0.149 A  
HETATM   30  C   UNL     1      -9.860   5.221  70.614  1.00  0.00    -0.264 A  
HETATM   31  C   UNL     1     -11.070   5.890  70.468  1.00  0.00    -0.277 A  
HETATM   32  C   UNL     1     -11.500   6.236  69.187  1.00  0.00    -0.229 A  
HETATM   33  C   UNL     1     -10.698   5.942  68.074  1.00  0.00    -0.332 A  
BRANCH  31  34
HETATM   34  O   UNL     1     -11.756   6.048  71.625  1.00  0.00    -0.262 OA 
HETATM   35  C   UNL     1     -11.758   7.305  72.280  1.00  0.00    -0.265 C  
HETATM   36  F   UNL     1     -13.037   7.709  72.443  1.00  0.00    -0.192 F  
HETATM   37  F   UNL     1     -11.077   8.275  71.641  1.00  0.00    -0.265 F  
HETATM   38  F   UNL     1     -11.210   7.149  73.509  1.00  0.00    -0.311 F  
ENDBRANCH  31  34
ENDBRANCH  27  28
ENDBRANCH  24  27
ENDBRANCH  16  21
ENDBRANCH  14  15
ENDBRANCH  13  14
ENDBRANCH   2  13
TORSDOF 7
ENDMDL
MODEL      124
REMARK 921   NORMALIZED FREE ENERGY PREDICTED BY IDOCK:   -3.80 KCAL/MOL
REMARK 922        TOTAL FREE ENERGY PREDICTED BY IDOCK:   -6.84 KCAL/MOL
REMARK 923 INTER-LIGAND FREE ENERGY PREDICTED BY IDOCK:   -7.99 KCAL/MOL
REMARK 924 INTRA-LIGAND FREE ENERGY PREDICTED BY IDOCK:    1.15 KCAL/MOL
REMARK 927      BINDING AFFINITY PREDICTED BY RF-SCORE:    0.00 PKD
ROOT
HETATM    1  C   UNL     1     -11.120   8.308  72.799  1.00  0.00    -0.319 C  
HETATM    2  C   UNL     1     -12.040   8.889  71.728  1.00  0.00    -0.362 C  
HETATM    3  C   UNL     1     -12.930  10.930  71.827  1.00  0.00    -0.451 A  
HETATM    4  C   UNL     1     -11.269   9.782  70.718  1.00  0.00    -0.348 C  
HETATM    5  N   UNL     1     -11.972  11.027  70.884  1.00  0.00    -0.318 NA 
HETATM    6  O   UNL     1     -12.790  14.963  70.118  1.00  0.00    -0.265 OA 
HETATM    7  C   UNL     1     -11.954  12.269  70.377  1.00  0.00    -0.263 A  
HETATM    8  O   UNL     1     -13.031   9.743  72.398  1.00  0.00    -0.363 OA 
HETATM    9  O   UNL     1     -14.320  14.674  71.679  1.00  0.00    -0.457 OA 
HETATM   10  C   UNL     1     -12.975  12.900  71.086  1.00  0.00    -0.174 A  
HETATM   11  N   UNL     1     -13.587  12.039  72.000  1.00  0.00    -0.280 NA 
HETATM   12  N   UNL     1     -13.397  14.278  70.956  1.00  0.00    -0.313 N  
ENDROOT
BRANCH   2  13
HETATM   13  C   UNL     1     -12.812   7.787  71.006  1.00  0.00    -0.057 C  
BRANCH  13  14
HETATM   14  O   UNL     1     -12.225   6.507  71.252  1.00  0.00    -0.340 OA 
BRANCH  14  15
HETATM   15  C   UNL     1     -11.322   6.125  70.298  1.00  0.00    -0.344 A  
HETATM   16  C   UNL     1      -9.460   5.571  68.205  1.00  0.00    -0.114 A  
HETATM   17  C   UNL     1     -10.109   5.506  70.565  1.00  0.00    -0.293 A  
HETATM   18  C   UNL     1     -11.656   6.383  68.977  1.00  0.00    -0.021 A  
HETATM   19  C   UNL     1      -9.205   5.241  69.539  1.00  0.00    -0.157 A  
HETATM   20  C   UNL     1     -10.739   6.101  67.952  1.00  0.00    -0.374 A  
BRANCH  16  21
HETATM   21  N   UNL     1      -8.524   5.328  67.212  1.00  0.00    -0.107 NA 
HETATM   22  C   UNL     1      -7.121   4.982  67.509  1.00  0.00    -0.066 C  
HETATM   23  C   UNL     1      -6.677   3.863  66.569  1.00  0.00    -0.046 C  
HETATM   24  C   UNL     1      -6.884   4.256  65.103  1.00  0.00    -0.053 C  
HETATM   25  C   UNL     1      -8.692   5.840  65.849  1.00  0.00    -0.149 C  
HETATM   26  C   UNL     1      -8.332   4.713  64.892  1.00  0.00    -0.129 C  
BRANCH  24  27
HETATM   27  O   UNL     1      -5.949   5.307  64.807  1.00  0.00    -0.021 OA 
BRANCH  27  28
HETATM   28  C   UNL     1      -6.470   6.541  64.537  1.00  0.00    -0.041 A  
HETATM   29  C   UNL     1      -6.361   7.649  65.369  1.00  0.00    -0.038 A  
HETATM   30  C   UNL     1      -6.921   8.867  64.989  1.00  0.00    -0.073 A  
HETATM   31  C   UNL     1      -7.601   9.001  63.783  1.00  0.00    -0.115 A  
HETATM   32  C   UNL     1      -7.726   7.888  62.952  1.00  0.00    -0.132 A  
HETATM   33  C   UNL     1      -7.139   6.668  63.319  1.00  0.00    -0.055 A  
BRANCH  31  34
HETATM   34  O   UNL     1      -8.160  10.220  63.597  1.00  0.00    -0.159 OA 
HETATM   35  C   UNL     1      -9.397  10.534  64.215  1.00  0.00    -0.267 C  
HETATM   36  F   UNL     1      -9.239  11.647  64.965  1.00  0.00    -0.198 F  
HETATM   37  F   UNL     1      -9.902   9.557  64.992  1.00  0.00    -0.357 F  
HETATM   38  F   UNL     1     -10.302  10.808  63.246  1.00  0.00    -0.372 F  
ENDBRANCH  31  34
ENDBRANCH  27  28
ENDBRANCH  24  27
ENDBRANCH  16  21
ENDBRANCH  14  15
ENDBRANCH  13  14
ENDBRANCH   2  13
TORSDOF 7
ENDMDL
MODEL      125
REMARK 921   NORMALIZED FREE ENERGY PREDICTED BY IDOCK:   -3.80 KCAL/MOL
REMARK 922        TOTAL FREE ENERGY PREDICTED BY IDOCK:   -6.84 KCAL/MOL
REMARK 923 INTER-LIGAND FREE ENERGY PREDICTED BY IDOCK:   -5.53 KCAL/MOL
REMARK 924 INTRA-LIGAND FREE ENERGY PREDICTED BY IDOCK:   -1.30 KCAL/MOL
REMARK 927      BINDING AFFINITY PREDICTED BY RF-SCORE:    0.00 PKD
ROOT
HETATM    1  C   UNL     1     -13.020  15.042  69.764  1.00  0.00     0.187 C  
HETATM    2  C   UNL     1     -11.595  15.289  69.274  1.00  0.00    -0.332 C  
HETATM    3  C   UNL     1     -11.050  16.835  67.764  1.00  0.00    -0.135 A  
HETATM    4  C   UNL     1     -10.912  16.460  70.032  1.00  0.00    -0.318 C  
HETATM    5  N   UNL     1     -10.605  17.336  68.933  1.00  0.00    -0.314 NA 
HETATM    6  O   UNL     1      -9.082  20.708  67.183  1.00  0.00    -0.352 OA 
HETATM    7  C   UNL     1     -10.006  18.519  68.725  1.00  0.00    -0.380 A  
HETATM    8  O   UNL     1     -11.664  15.669  67.856  1.00  0.00    -0.262 OA 
HETATM    9  O   UNL     1      -9.859  19.781  65.340  1.00  0.00    -0.239 OA 
HETATM   10  C   UNL     1     -10.125  18.680  67.345  1.00  0.00    -0.362 A  
HETATM   11  N   UNL     1     -10.786  17.604  66.748  1.00  0.00    -0.203 NA 
HETATM   12  N   UNL     1      -9.657  19.801  66.560  1.00  0.00    -0.378 N  
ENDROOT
BRANCH   2  13
HETATM   13  C   UNL     1     -10.754  14.018  69.358  1.00  0.00    -0.052 C  
BRANCH  13  14
HETATM   14  O   UNL     1      -9.399  14.276  68.984  1.00  0.00    -0.110 OA 
BRANCH  14  15
HETATM   15  C   UNL     1      -8.785  13.214  68.379  1.00  0.00    -0.120 A  
HETATM   16  C   UNL     1      -7.734  10.947  66.994  1.00  0.00    -0.129 A  
HETATM   17  C   UNL     1      -7.561  13.278  67.729  1.00  0.00    -0.161 A  
HETATM   18  C   UNL     1      -9.446  11.995  68.426  1.00  0.00    -0.181 A  
HETATM   19  C   UNL     1      -7.055  12.168  67.053  1.00  0.00    -0.064 A  
HETATM   20  C   UNL     1      -8.920  10.883  67.749  1.00  0.00    -0.139 A  
BRANCH  16  21
HETATM   21  N   UNL     1      -7.223   9.874  66.282  1.00  0.00    -0.098 NA 
HETATM   22  C   UNL     1      -6.094  10.009  65.341  1.00  0.00    -0.093 C  
HETATM   23  C   UNL     1      -5.148   8.824  65.531  1.00  0.00    -0.033 C  
HETATM   24  C   UNL     1      -5.887   7.493  65.370  1.00  0.00    -0.038 C  
HETATM   25  C   UNL     1      -8.013   8.666  66.030  1.00  0.00    -0.107 C  
HETATM   26  C   UNL     1      -7.112   7.469  66.292  1.00  0.00    -0.070 C  
BRANCH  24  27
HETATM   27  O   UNL     1      -6.264   7.378  63.987  1.00  0.00    -0.047 OA 
BRANCH  27  28
HETATM   28  C   UNL     1      -7.048   6.312  63.646  1.00  0.00    -0.050 A  
HETATM   29  C   UNL     1      -6.852   5.007  64.086  1.00  0.00    -0.048 A  
HETATM   30  C   UNL     1      -7.723   3.996  63.687  1.00  0.00    -0.074 A  
HETATM   31  C   UNL     1      -8.794   4.262  62.840  1.00  0.00    -0.114 A  
HETATM   32  C   UNL     1      -8.985   5.566  62.384  1.00  0.00     0.099 A  
HETATM   33  C   UNL     1      -8.127   6.592  62.807  1.00  0.00    -0.062 A  
BRANCH  31  34
HETATM   34  O   UNL     1      -9.495   3.163  62.474  1.00  0.00    -0.093 OA 
HETATM   35  C   UNL     1     -10.615   2.750  63.239  1.00  0.00    -0.217 C  
HETATM   36  F   UNL     1     -11.694   2.680  62.428  1.00  0.00    -0.083 F  
HETATM   37  F   UNL     1     -10.910   3.547  64.283  1.00  0.00    -0.231 F  
HETATM   38  F   UNL     1     -10.371   1.507  63.717  1.00  0.00    -0.131 F  
ENDBRANCH  31  34
ENDBRANCH  27  28
ENDBRANCH  24  27
ENDBRANCH  16  21
ENDBRANCH  14  15
ENDBRANCH  13  14
ENDBRANCH   2  13
TORSDOF 7
ENDMDL
MODEL      126
REMARK 921   NORMALIZED FREE ENERGY PREDICTED BY IDOCK:   -3.80 KCAL/MOL
REMARK 922        TOTAL FREE ENERGY PREDICTED BY IDOCK:   -6.83 KCAL/MOL
REMARK 923 INTER-LIGAND FREE ENERGY PREDICTED BY IDOCK:   -6.36 KCAL/MOL
REMARK 924 INTRA-LIGAND FREE ENERGY PREDICTED BY IDOCK:   -0.47 KCAL/MOL
REMARK 927      BINDING AFFINITY PREDICTED BY RF-SCORE:    0.00 PKD
ROOT
HETATM    1  C   UNL     1     -12.382  14.492  70.847  1.00  0.00    -0.415 C  
HETATM    2  C   UNL     1     -11.355  14.416  69.720  1.00  0.00    -0.237 C  
HETATM    3  C   UNL     1     -11.342  15.778  67.956  1.00  0.00    -0.310 A  
HETATM    4  C   UNL     1     -10.192  15.425  69.920  1.00  0.00    -0.266 C  
HETATM    5  N   UNL     1     -10.304  16.193  68.709  1.00  0.00    -0.235 NA 
HETATM    6  O   UNL     1      -9.241  19.122  66.055  1.00  0.00    -0.440 OA 
HETATM    7  C   UNL     1      -9.679  17.214  68.103  1.00  0.00    -0.276 A  
HETATM    8  O   UNL     1     -12.033  14.775  68.466  1.00  0.00    -0.309 OA 
HETATM    9  O   UNL     1     -10.966  18.350  64.920  1.00  0.00    -0.598 OA 
HETATM   10  C   UNL     1     -10.420  17.371  66.932  1.00  0.00    -0.279 A  
HETATM   11  N   UNL     1     -11.470  16.452  66.850  1.00  0.00     0.416 NA 
HETATM   12  N   UNL     1     -10.198  18.349  65.890  1.00  0.00    -0.310 N  
ENDROOT
BRANCH   2  13
HETATM   13  C   UNL     1     -10.824  12.994  69.552  1.00  0.00     0.197 C  
BRANCH  13  14
HETATM   14  O   UNL     1     -11.295  12.413  68.334  1.00  0.00    -0.240 OA 
BRANCH  14  15
HETATM   15  C   UNL     1     -11.023  11.077  68.222  1.00  0.00    -0.235 A  
HETATM   16  C   UNL     1     -10.228   8.356  67.874  1.00  0.00    -0.217 A  
HETATM   17  C   UNL     1     -11.122  10.165  69.263  1.00  0.00    -0.270 A  
HETATM   18  C   UNL     1     -10.621  10.619  66.976  1.00  0.00    -0.317 A  
HETATM   19  C   UNL     1     -10.730   8.839  69.086  1.00  0.00    -0.150 A  
HETATM   20  C   UNL     1     -10.239   9.278  66.810  1.00  0.00    -0.325 A  
BRANCH  16  21
HETATM   21  N   UNL     1      -9.812   7.041  67.740  1.00  0.00    -0.134 NA 
HETATM   22  C   UNL     1      -9.551   6.168  68.900  1.00  0.00    -0.129 C  
HETATM   23  C   UNL     1     -10.127   4.782  68.616  1.00  0.00    -0.114 C  
HETATM   24  C   UNL     1      -9.567   4.205  67.313  1.00  0.00    -0.190 C  
HETATM   25  C   UNL     1      -9.153   6.558  66.523  1.00  0.00    -0.152 C  
HETATM   26  C   UNL     1      -9.769   5.212  66.175  1.00  0.00    -0.192 C  
BRANCH  24  27
HETATM   27  O   UNL     1      -8.173   3.928  67.533  1.00  0.00    -0.093 OA 
BRANCH  27  28
HETATM   28  C   UNL     1      -7.813   3.523  68.787  1.00  0.00    -0.055 A  
HETATM   29  C   UNL     1      -6.767   4.062  69.528  1.00  0.00    -0.037 A  
HETATM   30  C   UNL     1      -6.495   3.582  70.807  1.00  0.00    -0.031 A  
HETATM   31  C   UNL     1      -7.250   2.557  71.366  1.00  0.00    -0.032 A  
HETATM   32  C   UNL     1      -8.291   2.002  70.621  1.00  0.00    -0.075 A  
HETATM   33  C   UNL     1      -8.586   2.504  69.345  1.00  0.00    -0.114 A  
BRANCH  31  34
HETATM   34  O   UNL     1      -6.808   2.143  72.578  1.00  0.00    -0.018 OA 
HETATM   35  C   UNL     1      -7.303   2.752  73.758  1.00  0.00    -0.045 C  
HETATM   36  F   UNL     1      -7.828   1.795  74.555  1.00  0.00    -0.034 F  
HETATM   37  F   UNL     1      -8.234   3.703  73.554  1.00  0.00    -0.078 F  
HETATM   38  F   UNL     1      -6.263   3.318  74.415  1.00  0.00    -0.016 F  
ENDBRANCH  31  34
ENDBRANCH  27  28
ENDBRANCH  24  27
ENDBRANCH  16  21
ENDBRANCH  14  15
ENDBRANCH  13  14
ENDBRANCH   2  13
TORSDOF 7
ENDMDL
MODEL      127
REMARK 921   NORMALIZED FREE ENERGY PREDICTED BY IDOCK:   -3.79 KCAL/MOL
REMARK 922        TOTAL FREE ENERGY PREDICTED BY IDOCK:   -6.82 KCAL/MOL
REMARK 923 INTER-LIGAND FREE ENERGY PREDICTED BY IDOCK:   -7.66 KCAL/MOL
REMARK 924 INTRA-LIGAND FREE ENERGY PREDICTED BY IDOCK:    0.84 KCAL/MOL
REMARK 927      BINDING AFFINITY PREDICTED BY RF-SCORE:    0.00 PKD
ROOT
HETATM    1  C   UNL     1     -13.029  11.509  63.368  1.00  0.00     0.196 C  
HETATM    2  C   UNL     1     -12.040  12.270  64.248  1.00  0.00    -0.412 C  
HETATM    3  C   UNL     1     -11.708  11.836  66.409  1.00  0.00    -0.051 A  
HETATM    4  C   UNL     1     -10.679  11.532  64.370  1.00  0.00    -0.344 C  
HETATM    5  N   UNL     1     -10.607  11.356  65.796  1.00  0.00    -0.261 NA 
HETATM    6  O   UNL     1      -8.892  10.142  69.308  1.00  0.00    -0.161 OA 
HETATM    7  C   UNL     1      -9.763  10.847  66.706  1.00  0.00    -0.190 A  
HETATM    8  O   UNL     1     -12.612  12.359  65.599  1.00  0.00    -0.575 OA 
HETATM    9  O   UNL     1     -10.741  10.960  70.186  1.00  0.00    -0.126 OA 
HETATM   10  C   UNL     1     -10.443  11.064  67.904  1.00  0.00    -0.192 A  
HETATM   11  N   UNL     1     -11.673  11.694  67.702  1.00  0.00    -0.574 NA 
HETATM   12  N   UNL     1      -9.999  10.698  69.232  1.00  0.00    -0.215 N  
ENDROOT
BRANCH   2  13
HETATM   13  C   UNL     1     -11.845  13.700  63.749  1.00  0.00    -0.329 C  
BRANCH  13  14
HETATM   14  O   UNL     1     -12.269  14.647  64.732  1.00  0.00    -0.423 OA 
BRANCH  14  15
HETATM   15  C   UNL     1     -11.263  15.453  65.188  1.00  0.00    -0.350 A  
HETATM   16  C   UNL     1      -9.348  17.289  66.248  1.00  0.00    -0.223 A  
HETATM   17  C   UNL     1     -10.137  15.002  65.863  1.00  0.00    -0.343 A  
HETATM   18  C   UNL     1     -11.391  16.814  64.952  1.00  0.00     0.151 A  
HETATM   19  C   UNL     1      -9.208  15.904  66.379  1.00  0.00    -0.344 A  
HETATM   20  C   UNL     1     -10.443  17.710  65.470  1.00  0.00    -0.048 A  
BRANCH  16  21
HETATM   21  N   UNL     1      -8.427  18.161  66.806  1.00  0.00    -0.251 NA 
HETATM   22  C   UNL     1      -7.415  18.871  66.000  1.00  0.00    -0.244 C  
HETATM   23  C   UNL     1      -7.319  20.316  66.487  1.00  0.00    -0.302 C  
HETATM   24  C   UNL     1      -7.019  20.376  67.987  1.00  0.00    -0.282 C  
HETATM   25  C   UNL     1      -8.062  18.099  68.224  1.00  0.00    -0.297 C  
HETATM   26  C   UNL     1      -8.039  19.525  68.752  1.00  0.00    -0.357 C  
BRANCH  24  27
HETATM   27  O   UNL     1      -5.678  19.890  68.174  1.00  0.00    -0.208 OA 
BRANCH  27  28
HETATM   28  C   UNL     1      -5.525  18.787  68.966  1.00  0.00    -0.203 A  
HETATM   29  C   UNL     1      -5.345  17.490  68.496  1.00  0.00    -0.151 A  
HETATM   30  C   UNL     1      -5.185  16.437  69.394  1.00  0.00    -0.129 A  
HETATM   31  C   UNL     1      -5.209  16.653  70.768  1.00  0.00    -0.188 A  
HETATM   32  C   UNL     1      -5.406  17.949  71.243  1.00  0.00    -0.054 A  
HETATM   33  C   UNL     1      -5.538  19.016  70.342  1.00  0.00    -0.249 A  
BRANCH  31  34
HETATM   34  O   UNL     1      -5.127  15.521  71.506  1.00  0.00    -0.171 OA 
HETATM   35  C   UNL     1      -6.076  14.484  71.321  1.00  0.00     0.040 C  
HETATM   36  F   UNL     1      -5.420  13.341  71.024  1.00  0.00    -0.137 F  
HETATM   37  F   UNL     1      -6.989  14.721  70.359  1.00  0.00    -0.178 F  
HETATM   38  F   UNL     1      -6.737  14.295  72.488  1.00  0.00     0.514 F  
ENDBRANCH  31  34
ENDBRANCH  27  28
ENDBRANCH  24  27
ENDBRANCH  16  21
ENDBRANCH  14  15
ENDBRANCH  13  14
ENDBRANCH   2  13
TORSDOF 7
ENDMDL
MODEL      128
REMARK 921   NORMALIZED FREE ENERGY PREDICTED BY IDOCK:   -3.78 KCAL/MOL
REMARK 922        TOTAL FREE ENERGY PREDICTED BY IDOCK:   -6.80 KCAL/MOL
REMARK 923 INTER-LIGAND FREE ENERGY PREDICTED BY IDOCK:   -5.53 KCAL/MOL
REMARK 924 INTRA-LIGAND FREE ENERGY PREDICTED BY IDOCK:   -1.28 KCAL/MOL
REMARK 927      BINDING AFFINITY PREDICTED BY RF-SCORE:    0.00 PKD
ROOT
HETATM    1  C   UNL     1      -6.999  19.244  68.967  1.00  0.00    -0.381 C  
HETATM    2  C   UNL     1      -7.056  17.744  68.688  1.00  0.00    -0.257 C  
HETATM    3  C   UNL     1      -8.884  16.677  67.988  1.00  0.00    -0.206 A  
HETATM    4  C   UNL     1      -6.860  17.423  67.181  1.00  0.00    -0.175 C  
HETATM    5  N   UNL     1      -8.087  16.726  66.903  1.00  0.00    -0.190 NA 
HETATM    6  O   UNL     1     -10.754  14.689  64.560  1.00  0.00    -0.334 OA 
HETATM    7  C   UNL     1      -8.682  16.109  65.871  1.00  0.00    -0.091 A  
HETATM    8  O   UNL     1      -8.393  17.263  69.066  1.00  0.00    -0.212 OA 
HETATM    9  O   UNL     1     -11.961  14.680  66.404  1.00  0.00    -0.356 OA 
HETATM   10  C   UNL     1      -9.890  15.686  66.426  1.00  0.00    -0.274 A  
HETATM   11  N   UNL     1     -10.003  16.051  67.770  1.00  0.00    -0.232 NA 
HETATM   12  N   UNL     1     -10.948  14.966  65.754  1.00  0.00    -0.335 N  
ENDROOT
BRANCH   2  13
HETATM   13  C   UNL     1      -6.047  16.984  69.546  1.00  0.00    -0.233 C  
BRANCH  13  14
HETATM   14  O   UNL     1      -5.321  16.035  68.761  1.00  0.00    -0.102 OA 
BRANCH  14  15
HETATM   15  C   UNL     1      -5.902  14.797  68.724  1.00  0.00    -0.085 A  
HETATM   16  C   UNL     1      -6.920  12.139  68.481  1.00  0.00    -0.091 A  
HETATM   17  C   UNL     1      -6.282  14.072  69.844  1.00  0.00    -0.142 A  
HETATM   18  C   UNL     1      -6.117  14.241  67.471  1.00  0.00     0.048 A  
HETATM   19  C   UNL     1      -6.776  12.774  69.718  1.00  0.00     0.162 A  
HETATM   20  C   UNL     1      -6.624  12.936  67.359  1.00  0.00    -0.132 A  
BRANCH  16  21
HETATM   21  N   UNL     1      -7.378  10.834  68.391  1.00  0.00    -0.088 NA 
HETATM   22  C   UNL     1      -7.441   9.932  69.556  1.00  0.00    -0.112 C  
HETATM   23  C   UNL     1      -8.756   9.155  69.510  1.00  0.00    -0.140 C  
HETATM   24  C   UNL     1      -8.912   8.408  68.183  1.00  0.00    -0.139 C  
HETATM   25  C   UNL     1      -7.384  10.102  67.121  1.00  0.00    -0.091 C  
HETATM   26  C   UNL     1      -8.721   9.384  67.016  1.00  0.00    -0.135 C  
BRANCH  24  27
HETATM   27  O   UNL     1      -7.926   7.361  68.164  1.00  0.00    -0.119 OA 
BRANCH  27  28
HETATM   28  C   UNL     1      -8.237   6.231  67.460  1.00  0.00    -0.113 A  
HETATM   29  C   UNL     1      -9.382   5.465  67.650  1.00  0.00    -0.122 A  
HETATM   30  C   UNL     1      -9.607   4.337  66.866  1.00  0.00    -0.225 A  
HETATM   31  C   UNL     1      -8.698   3.948  65.888  1.00  0.00    -0.114 A  
HETATM   32  C   UNL     1      -7.540   4.704  65.704  1.00  0.00    -0.082 A  
HETATM   33  C   UNL     1      -7.325   5.857  66.473  1.00  0.00    -0.078 A  
BRANCH  31  34
HETATM   34  O   UNL     1      -9.015   2.784  65.271  1.00  0.00    -0.128 OA 
HETATM   35  C   UNL     1      -9.772   2.801  64.073  1.00  0.00    -0.148 C  
HETATM   36  F   UNL     1      -9.080   2.152  63.111  1.00  0.00    -0.089 F  
HETATM   37  F   UNL     1     -10.089   4.030  63.624  1.00  0.00    -0.161 F  
HETATM   38  F   UNL     1     -10.925   2.124  64.287  1.00  0.00     0.176 F  
ENDBRANCH  31  34
ENDBRANCH  27  28
ENDBRANCH  24  27
ENDBRANCH  16  21
ENDBRANCH  14  15
ENDBRANCH  13  14
ENDBRANCH   2  13
TORSDOF 7
ENDMDL
MODEL      129
REMARK 921   NORMALIZED FREE ENERGY PREDICTED BY IDOCK:   -3.77 KCAL/MOL
REMARK 922        TOTAL FREE ENERGY PREDICTED BY IDOCK:   -6.80 KCAL/MOL
REMARK 923 INTER-LIGAND FREE ENERGY PREDICTED BY IDOCK:   -7.27 KCAL/MOL
REMARK 924 INTRA-LIGAND FREE ENERGY PREDICTED BY IDOCK:    0.47 KCAL/MOL
REMARK 927      BINDING AFFINITY PREDICTED BY RF-SCORE:    0.00 PKD
ROOT
HETATM    1  C   UNL     1      -5.742   6.650  70.255  1.00  0.00    -0.023 C  
HETATM    2  C   UNL     1      -6.210   7.043  68.856  1.00  0.00    -0.027 C  
HETATM    3  C   UNL     1      -7.048   5.604  67.374  1.00  0.00    -0.074 A  
HETATM    4  C   UNL     1      -7.744   7.276  68.797  1.00  0.00    -0.119 C  
HETATM    5  N   UNL     1      -8.114   6.310  67.798  1.00  0.00    -0.113 NA 
HETATM    6  O   UNL     1     -10.710   4.312  65.344  1.00  0.00    -0.221 OA 
HETATM    7  C   UNL     1      -9.219   5.896  67.159  1.00  0.00    -0.116 A  
HETATM    8  O   UNL     1      -5.902   5.930  67.947  1.00  0.00    -0.012 OA 
HETATM    9  O   UNL     1      -8.888   3.229  64.740  1.00  0.00    -0.112 OA 
HETATM   10  C   UNL     1      -8.728   4.895  66.322  1.00  0.00    -0.115 A  
HETATM   11  N   UNL     1      -7.349   4.722  66.467  1.00  0.00    -0.080 NA 
HETATM   12  N   UNL     1      -9.492   4.083  65.400  1.00  0.00    -0.160 N  
ENDROOT
BRANCH   2  13
HETATM   13  C   UNL     1      -5.450   8.265  68.343  1.00  0.00    -0.033 C  
BRANCH  13  14
HETATM   14  O   UNL     1      -5.245   9.215  69.390  1.00  0.00    -0.035 OA 
BRANCH  14  15
HETATM   15  C   UNL     1      -5.877  10.409  69.178  1.00  0.00    -0.037 A  
HETATM   16  C   UNL     1      -6.960  13.018  68.748  1.00  0.00    -0.103 A  
HETATM   17  C   UNL     1      -6.796  10.644  68.165  1.00  0.00    -0.068 A  
HETATM   18  C   UNL     1      -5.567  11.448  70.043  1.00  0.00    -0.099 A  
HETATM   19  C   UNL     1      -7.318  11.920  67.960  1.00  0.00    -0.100 A  
HETATM   20  C   UNL     1      -6.108  12.726  69.830  1.00  0.00    -0.122 A  
BRANCH  16  21
HETATM   21  N   UNL     1      -7.468  14.282  68.496  1.00  0.00    -0.113 NA 
HETATM   22  C   UNL     1      -7.836  15.221  69.573  1.00  0.00    -0.204 C  
HETATM   23  C   UNL     1      -7.354  16.620  69.195  1.00  0.00    -0.217 C  
HETATM   24  C   UNL     1      -7.906  17.049  67.833  1.00  0.00    -0.184 C  
HETATM   25  C   UNL     1      -8.114  14.616  67.224  1.00  0.00    -0.206 C  
HETATM   26  C   UNL     1      -7.586  15.974  66.787  1.00  0.00    -0.247 C  
BRANCH  24  27
HETATM   27  O   UNL     1      -9.324  17.234  67.986  1.00  0.00    -0.252 OA 
BRANCH  27  28
HETATM   28  C   UNL     1     -10.134  16.532  67.138  1.00  0.00    -0.274 A  
HETATM   29  C   UNL     1     -10.218  16.738  65.765  1.00  0.00    -0.311 A  
HETATM   30  C   UNL     1     -11.070  15.953  64.991  1.00  0.00    -0.370 A  
HETATM   31  C   UNL     1     -11.854  14.960  65.567  1.00  0.00    -0.155 A  
HETATM   32  C   UNL     1     -11.785  14.760  66.946  1.00  0.00    -0.316 A  
HETATM   33  C   UNL     1     -10.907  15.529  67.724  1.00  0.00    -0.309 A  
BRANCH  31  34
HETATM   34  O   UNL     1     -12.692  14.344  64.698  1.00  0.00    -0.655 OA 
HETATM   35  C   UNL     1     -12.360  13.068  64.178  1.00  0.00    -0.358 C  
HETATM   36  F   UNL     1     -13.366  12.210  64.456  1.00  0.00    -0.434 F  
HETATM   37  F   UNL     1     -11.209  12.551  64.647  1.00  0.00    -0.311 F  
HETATM   38  F   UNL     1     -12.256  13.169  62.832  1.00  0.00    -0.589 F  
ENDBRANCH  31  34
ENDBRANCH  27  28
ENDBRANCH  24  27
ENDBRANCH  16  21
ENDBRANCH  14  15
ENDBRANCH  13  14
ENDBRANCH   2  13
TORSDOF 7
ENDMDL
MODEL      130
REMARK 921   NORMALIZED FREE ENERGY PREDICTED BY IDOCK:   -3.74 KCAL/MOL
REMARK 922        TOTAL FREE ENERGY PREDICTED BY IDOCK:   -6.75 KCAL/MOL
REMARK 923 INTER-LIGAND FREE ENERGY PREDICTED BY IDOCK:   -5.64 KCAL/MOL
REMARK 924 INTRA-LIGAND FREE ENERGY PREDICTED BY IDOCK:   -1.11 KCAL/MOL
REMARK 927      BINDING AFFINITY PREDICTED BY RF-SCORE:    0.00 PKD
ROOT
HETATM    1  C   UNL     1      -6.321  14.665  68.845  1.00  0.00    -0.088 C  
HETATM    2  C   UNL     1      -7.768  14.942  68.447  1.00  0.00    -0.115 C  
HETATM    3  C   UNL     1      -8.685  16.974  68.426  1.00  0.00    -0.247 A  
HETATM    4  C   UNL     1      -7.892  15.382  66.963  1.00  0.00    -0.209 C  
HETATM    5  N   UNL     1      -8.513  16.670  67.125  1.00  0.00    -0.182 NA 
HETATM    6  O   UNL     1     -10.150  20.193  65.838  1.00  0.00    -0.463 OA 
HETATM    7  C   UNL     1      -8.972  17.669  66.357  1.00  0.00    -0.231 A  
HETATM    8  O   UNL     1      -8.260  16.054  69.274  1.00  0.00    -0.236 OA 
HETATM    9  O   UNL     1     -10.373  20.571  67.999  1.00  0.00    -0.251 OA 
HETATM   10  C   UNL     1      -9.433  18.588  67.300  1.00  0.00    -0.288 A  
HETATM   11  N   UNL     1      -9.247  18.133  68.607  1.00  0.00    -0.303 NA 
HETATM   12  N   UNL     1     -10.029  19.878  67.033  1.00  0.00    -0.398 N  
ENDROOT
BRANCH   2  13
HETATM   13  C   UNL     1      -8.662  13.738  68.738  1.00  0.00     0.038 C  
BRANCH  13  14
HETATM   14  O   UNL     1      -9.126  13.142  67.524  1.00  0.00    -0.186 OA 
BRANCH  14  15
HETATM   15  C   UNL     1      -8.975  11.783  67.488  1.00  0.00    -0.168 A  
HETATM   16  C   UNL     1      -8.399   8.987  67.383  1.00  0.00    -0.112 A  
HETATM   17  C   UNL     1      -9.516  10.906  68.417  1.00  0.00    -0.178 A  
HETATM   18  C   UNL     1      -8.223  11.261  66.445  1.00  0.00    -0.150 A  
HETATM   19  C   UNL     1      -9.229   9.543  68.360  1.00  0.00    -0.130 A  
HETATM   20  C   UNL     1      -7.950   9.885  66.396  1.00  0.00    -0.111 A  
BRANCH  16  21
HETATM   21  N   UNL     1      -8.102   7.634  67.376  1.00  0.00    -0.118 NA 
HETATM   22  C   UNL     1      -8.199   6.805  66.159  1.00  0.00    -0.124 C  
HETATM   23  C   UNL     1      -6.989   5.874  66.097  1.00  0.00    -0.062 C  
HETATM   24  C   UNL     1      -6.872   5.031  67.370  1.00  0.00    -0.056 C  
HETATM   25  C   UNL     1      -8.134   6.828  68.599  1.00  0.00    -0.120 C  
HETATM   26  C   UNL     1      -6.893   5.948  68.598  1.00  0.00    -0.066 C  
BRANCH  24  27
HETATM   27  O   UNL     1      -7.978   4.112  67.377  1.00  0.00    -0.091 OA 
BRANCH  27  28
HETATM   28  C   UNL     1      -8.248   3.478  68.557  1.00  0.00    -0.073 A  
HETATM   29  C   UNL     1      -9.432   3.604  69.276  1.00  0.00    -0.244 A  
HETATM   30  C   UNL     1      -9.608   2.899  70.464  1.00  0.00    -0.172 A  
HETATM   31  C   UNL     1      -8.610   2.067  70.961  1.00  0.00    -0.052 A  
HETATM   32  C   UNL     1      -7.415   1.949  70.252  1.00  0.00    -0.036 A  
HETATM   33  C   UNL     1      -7.246   2.635  69.040  1.00  0.00    -0.044 A  
BRANCH  31  34
HETATM   34  O   UNL     1      -8.896   1.521  72.167  1.00  0.00    -0.064 OA 
HETATM   35  C   UNL     1      -8.854   2.323  73.335  1.00  0.00    -0.070 C  
HETATM   36  F   UNL     1     -10.053   2.252  73.955  1.00  0.00    -0.116 F  
HETATM   37  F   UNL     1      -8.555   3.618  73.119  1.00  0.00    -0.086 F  
HETATM   38  F   UNL     1      -7.921   1.811  74.172  1.00  0.00    -0.041 F  
ENDBRANCH  31  34
ENDBRANCH  27  28
ENDBRANCH  24  27
ENDBRANCH  16  21
ENDBRANCH  14  15
ENDBRANCH  13  14
ENDBRANCH   2  13
TORSDOF 7
ENDMDL
MODEL      131
REMARK 921   NORMALIZED FREE ENERGY PREDICTED BY IDOCK:   -3.70 KCAL/MOL
REMARK 922        TOTAL FREE ENERGY PREDICTED BY IDOCK:   -6.69 KCAL/MOL
REMARK 923 INTER-LIGAND FREE ENERGY PREDICTED BY IDOCK:   -6.34 KCAL/MOL
REMARK 924 INTRA-LIGAND FREE ENERGY PREDICTED BY IDOCK:   -0.35 KCAL/MOL
REMARK 927      BINDING AFFINITY PREDICTED BY RF-SCORE:    0.00 PKD
ROOT
HETATM    1  C   UNL     1      -7.867  17.192  68.117  1.00  0.00    -0.206 C  
HETATM    2  C   UNL     1      -8.960  16.136  67.972  1.00  0.00    -0.185 C  
HETATM    3  C   UNL     1     -10.244  15.437  69.655  1.00  0.00    -0.277 A  
HETATM    4  C   UNL     1     -10.364  16.771  67.781  1.00  0.00    -0.318 C  
HETATM    5  N   UNL     1     -11.059  16.207  68.908  1.00  0.00    -0.326 NA 
HETATM    6  O   UNL     1     -14.288  15.562  71.338  1.00  0.00    -0.531 OA 
HETATM    7  C   UNL     1     -12.289  16.226  69.444  1.00  0.00     0.616 A  
HETATM    8  O   UNL     1      -9.001  15.353  69.217  1.00  0.00    -0.233 OA 
HETATM    9  O   UNL     1     -12.854  14.332  72.473  1.00  0.00    -0.365 OA 
HETATM   10  C   UNL     1     -12.144  15.405  70.562  1.00  0.00    -0.371 A  
HETATM   11  N   UNL     1     -10.843  14.909  70.682  1.00  0.00    -0.089 NA 
HETATM   12  N   UNL     1     -13.165  15.072  71.531  1.00  0.00    -0.368 N  
ENDROOT
BRANCH   2  13
HETATM   13  C   UNL     1      -8.641  15.162  66.840  1.00  0.00    -0.257 C  
BRANCH  13  14
HETATM   14  O   UNL     1      -9.818  14.472  66.413  1.00  0.00    -0.266 OA 
BRANCH  14  15
HETATM   15  C   UNL     1      -9.724  13.112  66.517  1.00  0.00    -0.268 A  
HETATM   16  C   UNL     1      -9.465  10.307  66.989  1.00  0.00    -0.163 A  
HETATM   17  C   UNL     1     -10.696  12.221  66.084  1.00  0.00    -0.296 A  
HETATM   18  C   UNL     1      -8.573  12.603  67.100  1.00  0.00    -0.199 A  
HETATM   19  C   UNL     1     -10.564  10.854  66.320  1.00  0.00    -0.276 A  
HETATM   20  C   UNL     1      -8.449  11.222  67.323  1.00  0.00    -0.144 A  
BRANCH  16  21
HETATM   21  N   UNL     1      -9.380   8.947  67.242  1.00  0.00    -0.137 NA 
HETATM   22  C   UNL     1     -10.368   7.979  66.727  1.00  0.00    -0.290 C  
HETATM   23  C   UNL     1      -9.630   6.740  66.223  1.00  0.00    -0.087 C  
HETATM   24  C   UNL     1      -8.741   6.141  67.316  1.00  0.00    -0.108 C  
HETATM   25  C   UNL     1      -8.629   8.417  68.383  1.00  0.00    -0.139 C  
HETATM   26  C   UNL     1      -7.822   7.228  67.885  1.00  0.00    -0.118 C  
BRANCH  24  27
HETATM   27  O   UNL     1      -9.611   5.602  68.326  1.00  0.00    -0.114 OA 
BRANCH  27  28
HETATM   28  C   UNL     1      -9.031   5.222  69.503  1.00  0.00    -0.103 A  
HETATM   29  C   UNL     1      -8.190   4.125  69.659  1.00  0.00    -0.067 A  
HETATM   30  C   UNL     1      -7.640   3.836  70.906  1.00  0.00    -0.044 A  
HETATM   31  C   UNL     1      -7.921   4.625  72.016  1.00  0.00    -0.100 A  
HETATM   32  C   UNL     1      -8.776   5.717  71.869  1.00  0.00    -0.135 A  
HETATM   33  C   UNL     1      -9.308   6.028  70.608  1.00  0.00    -0.176 A  
BRANCH  31  34
HETATM   34  O   UNL     1      -7.382   4.166  73.171  1.00  0.00    -0.067 OA 
HETATM   35  C   UNL     1      -7.258   2.770  73.387  1.00  0.00    -0.041 C  
HETATM   36  F   UNL     1      -5.963   2.484  73.648  1.00  0.00    -0.003 F  
HETATM   37  F   UNL     1      -7.673   2.001  72.363  1.00  0.00    -0.040 F  
HETATM   38  F   UNL     1      -7.986   2.441  74.481  1.00  0.00    -0.044 F  
ENDBRANCH  31  34
ENDBRANCH  27  28
ENDBRANCH  24  27
ENDBRANCH  16  21
ENDBRANCH  14  15
ENDBRANCH  13  14
ENDBRANCH   2  13
TORSDOF 7
ENDMDL
MODEL      132
REMARK 921   NORMALIZED FREE ENERGY PREDICTED BY IDOCK:   -3.50 KCAL/MOL
REMARK 922        TOTAL FREE ENERGY PREDICTED BY IDOCK:   -6.41 KCAL/MOL
REMARK 923 INTER-LIGAND FREE ENERGY PREDICTED BY IDOCK:   -5.34 KCAL/MOL
REMARK 924 INTRA-LIGAND FREE ENERGY PREDICTED BY IDOCK:   -1.07 KCAL/MOL
REMARK 927      BINDING AFFINITY PREDICTED BY RF-SCORE:    0.00 PKD
ROOT
HETATM    1  C   UNL     1      -5.533  15.756  69.643  1.00  0.00    -0.118 C  
HETATM    2  C   UNL     1      -6.716  15.493  68.714  1.00  0.00    -0.114 C  
HETATM    3  C   UNL     1      -8.391  16.929  68.396  1.00  0.00    -0.238 A  
HETATM    4  C   UNL     1      -6.516  16.139  67.317  1.00  0.00    -0.181 C  
HETATM    5  N   UNL     1      -7.669  16.996  67.260  1.00  0.00    -0.164 NA 
HETATM    6  O   UNL     1     -10.190  19.724  65.541  1.00  0.00    -0.387 OA 
HETATM    7  C   UNL     1      -8.243  17.856  66.404  1.00  0.00    -0.255 A  
HETATM    8  O   UNL     1      -7.908  16.110  69.313  1.00  0.00    -0.234 OA 
HETATM    9  O   UNL     1     -11.277  19.524  67.448  1.00  0.00    -0.340 OA 
HETATM   10  C   UNL     1      -9.361  18.290  67.116  1.00  0.00    -0.264 A  
HETATM   11  N   UNL     1      -9.444  17.692  68.376  1.00  0.00    -0.288 NA 
HETATM   12  N   UNL     1     -10.351  19.248  66.675  1.00  0.00    -0.403 N  
ENDROOT
BRANCH   2  13
HETATM   13  C   UNL     1      -6.999  13.997  68.591  1.00  0.00    -0.106 C  
BRANCH  13  14
HETATM   14  O   UNL     1      -6.199  13.248  69.508  1.00  0.00    -0.105 OA 
BRANCH  14  15
HETATM   15  C   UNL     1      -6.297  11.894  69.342  1.00  0.00    -0.115 A  
HETATM   16  C   UNL     1      -6.631   9.060  69.227  1.00  0.00    -0.049 A  
HETATM   17  C   UNL     1      -6.742  11.273  68.184  1.00  0.00    -0.058 A  
HETATM   18  C   UNL     1      -5.923  11.100  70.416  1.00  0.00    -0.144 A  
HETATM   19  C   UNL     1      -6.905   9.890  68.136  1.00  0.00    -0.064 A  
HETATM   20  C   UNL     1      -6.083   9.707  70.351  1.00  0.00    -0.065 A  
BRANCH  16  21
HETATM   21  N   UNL     1      -6.839   7.691  69.160  1.00  0.00    -0.052 NA 
HETATM   22  C   UNL     1      -5.912   6.716  69.764  1.00  0.00    -0.022 C  
HETATM   23  C   UNL     1      -6.725   5.622  70.455  1.00  0.00    -0.048 C  
HETATM   24  C   UNL     1      -7.710   4.967  69.483  1.00  0.00    -0.067 C  
HETATM   25  C   UNL     1      -7.685   7.086  68.127  1.00  0.00    -0.113 C  
HETATM   26  C   UNL     1      -8.563   6.047  68.807  1.00  0.00    -0.112 C  
BRANCH  24  27
HETATM   27  O   UNL     1      -6.936   4.227  68.523  1.00  0.00    -0.050 OA 
BRANCH  27  28
HETATM   28  C   UNL     1      -7.603   3.738  67.436  1.00  0.00    -0.075 A  
HETATM   29  C   UNL     1      -8.628   2.799  67.487  1.00  0.00    -0.120 A  
HETATM   30  C   UNL     1      -9.251   2.379  66.314  1.00  0.00    -0.024 A  
HETATM   31  C   UNL     1      -8.862   2.876  65.075  1.00  0.00    -0.127 A  
HETATM   32  C   UNL     1      -7.824   3.806  65.017  1.00  0.00    -0.086 A  
HETATM   33  C   UNL     1      -7.214   4.253  66.199  1.00  0.00    -0.075 A  
BRANCH  31  34
HETATM   34  O   UNL     1      -9.501   2.307  64.026  1.00  0.00    -0.119 OA 
HETATM   35  C   UNL     1     -10.807   2.734  63.675  1.00  0.00    -0.142 C  
HETATM   36  F   UNL     1     -10.803   3.128  62.382  1.00  0.00    -0.149 F  
HETATM   37  F   UNL     1     -11.294   3.736  64.431  1.00  0.00    -0.202 F  
HETATM   38  F   UNL     1     -11.647   1.678  63.787  1.00  0.00    -0.065 F  
ENDBRANCH  31  34
ENDBRANCH  27  28
ENDBRANCH  24  27
ENDBRANCH  16  21
ENDBRANCH  14  15
ENDBRANCH  13  14
ENDBRANCH   2  13
TORSDOF 7
ENDMDL
MODEL      133
REMARK 921   NORMALIZED FREE ENERGY PREDICTED BY IDOCK:   -3.49 KCAL/MOL
REMARK 922        TOTAL FREE ENERGY PREDICTED BY IDOCK:   -6.40 KCAL/MOL
REMARK 923 INTER-LIGAND FREE ENERGY PREDICTED BY IDOCK:   -7.13 KCAL/MOL
REMARK 924 INTRA-LIGAND FREE ENERGY PREDICTED BY IDOCK:    0.73 KCAL/MOL
REMARK 927      BINDING AFFINITY PREDICTED BY RF-SCORE:    0.00 PKD
ROOT
HETATM    1  C   UNL     1      -8.302   1.467  63.271  1.00  0.00    -0.065 C  
HETATM    2  C   UNL     1      -7.879   2.601  64.201  1.00  0.00    -0.077 C  
HETATM    3  C   UNL     1      -6.797   4.428  63.523  1.00  0.00    -0.043 A  
HETATM    4  C   UNL     1      -8.899   3.772  64.196  1.00  0.00    -0.110 C  
HETATM    5  N   UNL     1      -8.050   4.853  63.773  1.00  0.00    -0.105 NA 
HETATM    6  O   UNL     1      -7.183   8.733  62.799  1.00  0.00    -0.097 OA 
HETATM    7  C   UNL     1      -8.139   6.173  63.545  1.00  0.00    -0.065 A  
HETATM    8  O   UNL     1      -6.600   3.135  63.711  1.00  0.00    -0.029 OA 
HETATM    9  O   UNL     1      -5.173   7.910  62.422  1.00  0.00    -0.056 OA 
HETATM   10  C   UNL     1      -6.844   6.499  63.146  1.00  0.00    -0.046 A  
HETATM   11  N   UNL     1      -6.002   5.384  63.139  1.00  0.00    -0.020 NA 
HETATM   12  N   UNL     1      -6.359   7.806  62.760  1.00  0.00    -0.071 N  
ENDROOT
BRANCH   2  13
HETATM   13  C   UNL     1      -7.637   2.091  65.620  1.00  0.00    -0.071 C  
BRANCH  13  14
HETATM   14  O   UNL     1      -6.912   3.050  66.391  1.00  0.00    -0.051 OA 
BRANCH  14  15
HETATM   15  C   UNL     1      -7.700   3.782  67.237  1.00  0.00    -0.079 A  
HETATM   16  C   UNL     1      -9.325   5.109  69.175  1.00  0.00    -0.124 A  
HETATM   17  C   UNL     1      -7.477   5.111  67.568  1.00  0.00    -0.083 A  
HETATM   18  C   UNL     1      -8.792   3.135  67.796  1.00  0.00    -0.161 A  
HETATM   19  C   UNL     1      -8.273   5.751  68.516  1.00  0.00    -0.108 A  
HETATM   20  C   UNL     1      -9.592   3.796  68.743  1.00  0.00    -0.172 A  
BRANCH  16  21
HETATM   21  N   UNL     1     -10.075   5.761  70.141  1.00  0.00    -0.196 NA 
HETATM   22  C   UNL     1     -10.818   7.006  69.865  1.00  0.00    -0.251 C  
HETATM   23  C   UNL     1     -12.189   6.923  70.534  1.00  0.00    -0.253 C  
HETATM   24  C   UNL     1     -12.057   6.642  72.033  1.00  0.00    -0.310 C  
HETATM   25  C   UNL     1      -9.828   5.570  71.573  1.00  0.00    -0.171 C  
HETATM   26  C   UNL     1     -11.179   5.404  72.250  1.00  0.00    -0.235 C  
BRANCH  24  27
HETATM   27  O   UNL     1     -11.480   7.812  72.639  1.00  0.00    -0.354 OA 
BRANCH  27  28
HETATM   28  C   UNL     1     -11.716   9.008  72.021  1.00  0.00    -0.347 A  
HETATM   29  C   UNL     1     -10.935   9.545  71.003  1.00  0.00    -0.424 A  
HETATM   30  C   UNL     1     -11.274  10.769  70.432  1.00  0.00    -0.270 A  
HETATM   31  C   UNL     1     -12.388  11.481  70.866  1.00  0.00    -0.359 A  
HETATM   32  C   UNL     1     -13.165  10.954  71.897  1.00  0.00    -0.508 A  
HETATM   33  C   UNL     1     -12.842   9.708  72.454  1.00  0.00    -0.315 A  
BRANCH  31  34
HETATM   34  O   UNL     1     -12.535  12.690  70.275  1.00  0.00    -0.207 OA 
HETATM   35  C   UNL     1     -12.716  13.850  71.069  1.00  0.00    -0.357 C  
HETATM   36  F   UNL     1     -11.755  14.747  70.756  1.00  0.00    -0.293 F  
HETATM   37  F   UNL     1     -12.688  13.633  72.398  1.00  0.00    -0.357 F  
HETATM   38  F   UNL     1     -13.915  14.397  70.760  1.00  0.00    -0.289 F  
ENDBRANCH  31  34
ENDBRANCH  27  28
ENDBRANCH  24  27
ENDBRANCH  16  21
ENDBRANCH  14  15
ENDBRANCH  13  14
ENDBRANCH   2  13
TORSDOF 7
ENDMDL
MODEL      134
REMARK 921   NORMALIZED FREE ENERGY PREDICTED BY IDOCK:   -3.49 KCAL/MOL
REMARK 922        TOTAL FREE ENERGY PREDICTED BY IDOCK:   -6.40 KCAL/MOL
REMARK 923 INTER-LIGAND FREE ENERGY PREDICTED BY IDOCK:   -6.46 KCAL/MOL
REMARK 924 INTRA-LIGAND FREE ENERGY PREDICTED BY IDOCK:    0.06 KCAL/MOL
REMARK 927      BINDING AFFINITY PREDICTED BY RF-SCORE:    0.00 PKD
ROOT
HETATM    1  C   UNL     1      -8.345   6.165  65.784  1.00  0.00    -0.143 C  
HETATM    2  C   UNL     1      -8.108   6.501  67.254  1.00  0.00    -0.113 C  
HETATM    3  C   UNL     1      -9.698   7.237  68.633  1.00  0.00    -0.146 A  
HETATM    4  C   UNL     1      -8.493   5.324  68.191  1.00  0.00    -0.096 C  
HETATM    5  N   UNL     1      -9.485   5.963  69.015  1.00  0.00    -0.125 NA 
HETATM    6  O   UNL     1     -12.237   6.159  72.038  1.00  0.00    -0.312 OA 
HETATM    7  C   UNL     1     -10.272   5.661  70.059  1.00  0.00    -0.252 A  
HETATM    8  O   UNL     1      -8.973   7.637  67.603  1.00  0.00    -0.127 OA 
HETATM    9  O   UNL     1     -12.493   8.225  71.313  1.00  0.00    -0.303 OA 
HETATM   10  C   UNL     1     -10.965   6.853  70.270  1.00  0.00    -0.281 A  
HETATM   11  N   UNL     1     -10.589   7.845  69.361  1.00  0.00    -0.223 NA 
HETATM   12  N   UNL     1     -11.972   7.104  71.278  1.00  0.00    -0.318 N  
ENDROOT
BRANCH   2  13
HETATM   13  C   UNL     1      -6.667   6.944  67.495  1.00  0.00    -0.067 C  
BRANCH  13  14
HETATM   14  O   UNL     1      -6.480   7.362  68.848  1.00  0.00    -0.038 OA 
BRANCH  14  15
HETATM   15  C   UNL     1      -6.403   8.720  68.996  1.00  0.00    -0.044 A  
HETATM   16  C   UNL     1      -6.364  11.575  69.071  1.00  0.00    -0.069 A  
HETATM   17  C   UNL     1      -6.797   9.412  70.133  1.00  0.00    -0.071 A  
HETATM   18  C   UNL     1      -5.896   9.442  67.926  1.00  0.00    -0.045 A  
HETATM   19  C   UNL     1      -6.777  10.805  70.161  1.00  0.00    -0.116 A  
HETATM   20  C   UNL     1      -5.873  10.845  67.972  1.00  0.00    -0.045 A  
BRANCH  16  21
HETATM   21  N   UNL     1      -6.391  12.960  69.116  1.00  0.00    -0.100 NA 
HETATM   22  C   UNL     1      -6.203  13.718  70.368  1.00  0.00    -0.078 C  
HETATM   23  C   UNL     1      -5.295  14.915  70.089  1.00  0.00    -0.113 C  
HETATM   24  C   UNL     1      -5.854  15.784  68.959  1.00  0.00    -0.106 C  
HETATM   25  C   UNL     1      -7.057  13.755  68.081  1.00  0.00    -0.118 C  
HETATM   26  C   UNL     1      -6.133  14.911  67.729  1.00  0.00    -0.149 C  
BRANCH  24  27
HETATM   27  O   UNL     1      -7.054  16.405  69.450  1.00  0.00    -0.221 OA 
BRANCH  27  28
HETATM   28  C   UNL     1      -8.142  16.387  68.624  1.00  0.00    -0.218 A  
HETATM   29  C   UNL     1      -9.357  15.780  68.922  1.00  0.00    -0.228 A  
HETATM   30  C   UNL     1     -10.409  15.835  68.010  1.00  0.00    -0.252 A  
HETATM   31  C   UNL     1     -10.268  16.484  66.788  1.00  0.00    -0.295 A  
HETATM   32  C   UNL     1      -9.046  17.081  66.478  1.00  0.00    -0.291 A  
HETATM   33  C   UNL     1      -7.995  17.053  67.407  1.00  0.00    -0.197 A  
BRANCH  31  34
HETATM   34  O   UNL     1     -11.348  16.375  65.977  1.00  0.00     0.219 OA 
HETATM   35  C   UNL     1     -11.352  15.421  64.929  1.00  0.00    -0.363 C  
HETATM   36  F   UNL     1     -12.428  14.617  65.077  1.00  0.00    -0.395 F  
HETATM   37  F   UNL     1     -10.247  14.656  64.859  1.00  0.00    -0.400 F  
HETATM   38  F   UNL     1     -11.482  16.079  63.752  1.00  0.00    -0.213 F  
ENDBRANCH  31  34
ENDBRANCH  27  28
ENDBRANCH  24  27
ENDBRANCH  16  21
ENDBRANCH  14  15
ENDBRANCH  13  14
ENDBRANCH   2  13
TORSDOF 7
ENDMDL
MODEL      135
REMARK 921   NORMALIZED FREE ENERGY PREDICTED BY IDOCK:   -3.47 KCAL/MOL
REMARK 922        TOTAL FREE ENERGY PREDICTED BY IDOCK:   -6.37 KCAL/MOL
REMARK 923 INTER-LIGAND FREE ENERGY PREDICTED BY IDOCK:   -7.91 KCAL/MOL
REMARK 924 INTRA-LIGAND FREE ENERGY PREDICTED BY IDOCK:    1.54 KCAL/MOL
REMARK 927      BINDING AFFINITY PREDICTED BY RF-SCORE:    0.00 PKD
ROOT
HETATM    1  C   UNL     1      -5.229  15.665  68.324  1.00  0.00    -0.108 C  
HETATM    2  C   UNL     1      -6.747  15.584  68.189  1.00  0.00    -0.127 C  
HETATM    3  C   UNL     1      -8.106  17.342  68.368  1.00  0.00    -0.259 A  
HETATM    4  C   UNL     1      -7.227  15.949  66.758  1.00  0.00    -0.047 C  
HETATM    5  N   UNL     1      -8.097  17.057  67.051  1.00  0.00    -0.193 NA 
HETATM    6  O   UNL     1     -10.718  20.064  66.137  1.00  0.00    -0.405 OA 
HETATM    7  C   UNL     1      -8.905  17.903  66.394  1.00  0.00    -0.228 A  
HETATM    8  O   UNL     1      -7.336  16.568  69.110  1.00  0.00    -0.217 OA 
HETATM    9  O   UNL     1     -10.644  20.429  68.310  1.00  0.00    -0.188 OA 
HETATM   10  C   UNL     1      -9.398  18.708  67.420  1.00  0.00    -0.282 A  
HETATM   11  N   UNL     1      -8.886  18.339  68.666  1.00  0.00    -0.304 NA 
HETATM   12  N   UNL     1     -10.320  19.815  67.286  1.00  0.00    -0.430 N  
ENDROOT
BRANCH   2  13
HETATM   13  C   UNL     1      -7.266  14.210  68.608  1.00  0.00    -0.116 C  
BRANCH  13  14
HETATM   14  O   UNL     1      -7.492  13.380  67.467  1.00  0.00    -0.156 OA 
BRANCH  14  15
HETATM   15  C   UNL     1      -7.689  12.063  67.777  1.00  0.00    -0.139 A  
HETATM   16  C   UNL     1      -7.840   9.295  68.467  1.00  0.00    -0.090 A  
HETATM   17  C   UNL     1      -8.646  11.599  68.669  1.00  0.00    -0.086 A  
HETATM   18  C   UNL     1      -6.866  11.139  67.151  1.00  0.00    -0.107 A  
HETATM   19  C   UNL     1      -8.712  10.247  69.002  1.00  0.00    -0.164 A  
HETATM   20  C   UNL     1      -6.950   9.779  67.490  1.00  0.00    -0.083 A  
BRANCH  16  21
HETATM   21  N   UNL     1      -7.906   7.964  68.848  1.00  0.00    -0.115 NA 
HETATM   22  C   UNL     1      -7.881   6.857  67.873  1.00  0.00    -0.113 C  
HETATM   23  C   UNL     1      -6.977   5.747  68.408  1.00  0.00    -0.068 C  
HETATM   24  C   UNL     1      -7.424   5.291  69.799  1.00  0.00    -0.065 C  
HETATM   25  C   UNL     1      -8.468   7.555  70.138  1.00  0.00    -0.136 C  
HETATM   26  C   UNL     1      -7.539   6.506  70.728  1.00  0.00    -0.089 C  
BRANCH  24  27
HETATM   27  O   UNL     1      -8.687   4.622  69.645  1.00  0.00    -0.080 OA 
BRANCH  27  28
HETATM   28  C   UNL     1      -9.780   5.227  70.199  1.00  0.00    -0.196 A  
HETATM   29  C   UNL     1     -10.746   5.930  69.488  1.00  0.00    -0.414 A  
HETATM   30  C   UNL     1     -11.830   6.498  70.154  1.00  0.00    -0.331 A  
HETATM   31  C   UNL     1     -11.967   6.384  71.533  1.00  0.00    -0.273 A  
HETATM   32  C   UNL     1     -10.992   5.693  72.253  1.00  0.00    -0.312 A  
HETATM   33  C   UNL     1      -9.915   5.096  71.582  1.00  0.00    -0.243 A  
BRANCH  31  34
HETATM   34  O   UNL     1     -13.023   7.062  72.041  1.00  0.00    -0.259 OA 
HETATM   35  C   UNL     1     -13.090   8.472  71.907  1.00  0.00    -0.362 C  
HETATM   36  F   UNL     1     -14.248   8.795  71.290  1.00  0.00    -0.430 F  
HETATM   37  F   UNL     1     -12.069   9.023  71.225  1.00  0.00    -0.309 F  
HETATM   38  F   UNL     1     -13.110   9.019  73.146  1.00  0.00    -0.380 F  
ENDBRANCH  31  34
ENDBRANCH  27  28
ENDBRANCH  24  27
ENDBRANCH  16  21
ENDBRANCH  14  15
ENDBRANCH  13  14
ENDBRANCH   2  13
TORSDOF 7
ENDMDL
MODEL      136
REMARK 921   NORMALIZED FREE ENERGY PREDICTED BY IDOCK:   -3.43 KCAL/MOL
REMARK 922        TOTAL FREE ENERGY PREDICTED BY IDOCK:   -6.32 KCAL/MOL
REMARK 923 INTER-LIGAND FREE ENERGY PREDICTED BY IDOCK:   -6.88 KCAL/MOL
REMARK 924 INTRA-LIGAND FREE ENERGY PREDICTED BY IDOCK:    0.56 KCAL/MOL
REMARK 927      BINDING AFFINITY PREDICTED BY RF-SCORE:    0.00 PKD
ROOT
HETATM    1  C   UNL     1      -5.792  15.257  70.809  1.00  0.00     0.012 C  
HETATM    2  C   UNL     1      -6.040  15.674  69.362  1.00  0.00    -0.131 C  
HETATM    3  C   UNL     1      -7.457  17.285  68.757  1.00  0.00    -0.260 A  
HETATM    4  C   UNL     1      -5.193  16.912  68.957  1.00  0.00    -0.133 C  
HETATM    5  N   UNL     1      -6.237  17.826  68.576  1.00  0.00    -0.179 NA 
HETATM    6  O   UNL     1      -7.750  21.366  67.189  1.00  0.00    -0.299 OA 
HETATM    7  C   UNL     1      -6.356  19.072  68.094  1.00  0.00    -0.218 A  
HETATM    8  O   UNL     1      -7.455  16.054  69.236  1.00  0.00    -0.214 OA 
HETATM    9  O   UNL     1      -9.685  20.368  67.532  1.00  0.00    -0.409 OA 
HETATM   10  C   UNL     1      -7.739  19.228  67.998  1.00  0.00    -0.288 A  
HETATM   11  N   UNL     1      -8.425  18.087  68.419  1.00  0.00    -0.293 NA 
HETATM   12  N   UNL     1      -8.449  20.403  67.540  1.00  0.00    -0.312 N  
ENDROOT
BRANCH   2  13
HETATM   13  C   UNL     1      -5.801  14.510  68.403  1.00  0.00    -0.105 C  
BRANCH  13  14
HETATM   14  O   UNL     1      -5.208  13.402  69.084  1.00  0.00    -0.073 OA 
BRANCH  14  15
HETATM   15  C   UNL     1      -5.646  12.186  68.636  1.00  0.00    -0.053 A  
HETATM   16  C   UNL     1      -6.646   9.600  67.949  1.00  0.00    -0.062 A  
HETATM   17  C   UNL     1      -6.426  11.998  67.504  1.00  0.00    -0.124 A  
HETATM   18  C   UNL     1      -5.280  11.073  69.379  1.00  0.00    -0.041 A  
HETATM   19  C   UNL     1      -6.912  10.733  67.176  1.00  0.00    -0.091 A  
HETATM   20  C   UNL     1      -5.769   9.803  69.031  1.00  0.00    -0.035 A  
BRANCH  16  21
HETATM   21  N   UNL     1      -7.175   8.362  67.618  1.00  0.00    -0.087 NA 
HETATM   22  C   UNL     1      -7.781   8.083  66.302  1.00  0.00    -0.091 C  
HETATM   23  C   UNL     1      -7.323   6.705  65.829  1.00  0.00    -0.075 C  
HETATM   24  C   UNL     1      -7.652   5.626  66.864  1.00  0.00    -0.096 C  
HETATM   25  C   UNL     1      -7.608   7.406  68.641  1.00  0.00    -0.110 C  
HETATM   26  C   UNL     1      -7.092   6.036  68.231  1.00  0.00    -0.082 C  
BRANCH  24  27
HETATM   27  O   UNL     1      -9.083   5.489  66.898  1.00  0.00    -0.114 OA 
BRANCH  27  28
HETATM   28  C   UNL     1      -9.689   5.625  68.115  1.00  0.00    -0.127 A  
HETATM   29  C   UNL     1     -10.624   6.603  68.434  1.00  0.00    -0.289 A  
HETATM   30  C   UNL     1     -11.190   6.642  69.707  1.00  0.00    -0.413 A  
HETATM   31  C   UNL     1     -10.833   5.716  70.681  1.00  0.00    -0.234 A  
HETATM   32  C   UNL     1      -9.884   4.742  70.371  1.00  0.00    -0.309 A  
HETATM   33  C   UNL     1      -9.334   4.683  69.082  1.00  0.00    -0.206 A  
BRANCH  31  34
HETATM   34  O   UNL     1     -11.404   5.938  71.889  1.00  0.00    -0.276 OA 
HETATM   35  C   UNL     1     -10.677   6.609  72.904  1.00  0.00    -0.255 C  
HETATM   36  F   UNL     1     -11.385   7.688  73.306  1.00  0.00    -0.419 F  
HETATM   37  F   UNL     1      -9.444   7.011  72.541  1.00  0.00    -0.148 F  
HETATM   38  F   UNL     1     -10.550   5.774  73.963  1.00  0.00    -0.241 F  
ENDBRANCH  31  34
ENDBRANCH  27  28
ENDBRANCH  24  27
ENDBRANCH  16  21
ENDBRANCH  14  15
ENDBRANCH  13  14
ENDBRANCH   2  13
TORSDOF 7
ENDMDL
MODEL      137
REMARK 921   NORMALIZED FREE ENERGY PREDICTED BY IDOCK:   -3.42 KCAL/MOL
REMARK 922        TOTAL FREE ENERGY PREDICTED BY IDOCK:   -6.31 KCAL/MOL
REMARK 923 INTER-LIGAND FREE ENERGY PREDICTED BY IDOCK:   -6.32 KCAL/MOL
REMARK 924 INTRA-LIGAND FREE ENERGY PREDICTED BY IDOCK:    0.01 KCAL/MOL
REMARK 927      BINDING AFFINITY PREDICTED BY RF-SCORE:    0.00 PKD
ROOT
HETATM    1  C   UNL     1     -11.243   3.081  73.830  1.00  0.00    -0.250 C  
HETATM    2  C   UNL     1     -10.040   3.541  73.010  1.00  0.00    -0.149 C  
HETATM    3  C   UNL     1      -9.152   5.581  73.142  1.00  0.00    -0.126 A  
HETATM    4  C   UNL     1      -8.711   3.420  73.804  1.00  0.00    -0.084 C  
HETATM    5  N   UNL     1      -8.264   4.787  73.773  1.00  0.00    -0.105 NA 
HETATM    6  O   UNL     1      -5.699   7.877  74.561  1.00  0.00    -0.076 OA 
HETATM    7  C   UNL     1      -7.218   5.515  74.194  1.00  0.00    -0.082 A  
HETATM    8  O   UNL     1     -10.228   4.964  72.689  1.00  0.00    -0.174 OA 
HETATM    9  O   UNL     1      -7.230   9.066  73.511  1.00  0.00    -0.339 OA 
HETATM   10  C   UNL     1      -7.549   6.799  73.762  1.00  0.00    -0.081 A  
HETATM   11  N   UNL     1      -8.776   6.826  73.094  1.00  0.00    -0.122 NA 
HETATM   12  N   UNL     1      -6.774   8.005  73.955  1.00  0.00    -0.112 N  
ENDROOT
BRANCH   2  13
HETATM   13  C   UNL     1      -9.956   2.790  71.683  1.00  0.00    -0.086 C  
BRANCH  13  14
HETATM   14  O   UNL     1      -8.712   3.047  71.028  1.00  0.00    -0.068 OA 
BRANCH  14  15
HETATM   15  C   UNL     1      -8.732   4.158  70.231  1.00  0.00    -0.074 A  
HETATM   16  C   UNL     1      -9.032   6.500  68.624  1.00  0.00    -0.126 A  
HETATM   17  C   UNL     1      -7.825   5.205  70.316  1.00  0.00    -0.079 A  
HETATM   18  C   UNL     1      -9.736   4.229  69.276  1.00  0.00    -0.240 A  
HETATM   19  C   UNL     1      -7.979   6.346  69.530  1.00  0.00    -0.113 A  
HETATM   20  C   UNL     1      -9.873   5.381  68.485  1.00  0.00    -0.199 A  
BRANCH  16  21
HETATM   21  N   UNL     1      -9.179   7.663  67.883  1.00  0.00    -0.137 NA 
HETATM   22  C   UNL     1      -9.049   9.006  68.479  1.00  0.00    -0.133 C  
HETATM   23  C   UNL     1      -8.251   9.895  67.527  1.00  0.00    -0.114 C  
HETATM   24  C   UNL     1      -8.890   9.932  66.136  1.00  0.00    -0.144 C  
HETATM   25  C   UNL     1      -9.918   7.686  66.618  1.00  0.00    -0.214 C  
HETATM   26  C   UNL     1      -9.101   8.501  65.628  1.00  0.00    -0.189 C  
BRANCH  24  27
HETATM   27  O   UNL     1     -10.137  10.639  66.257  1.00  0.00    -0.220 OA 
BRANCH  27  28
HETATM   28  C   UNL     1     -10.065  11.983  66.493  1.00  0.00    -0.201 A  
HETATM   29  C   UNL     1     -10.284  12.971  65.540  1.00  0.00    -0.296 A  
HETATM   30  C   UNL     1     -10.199  14.316  65.893  1.00  0.00    -0.338 A  
HETATM   31  C   UNL     1      -9.888  14.699  67.193  1.00  0.00    -0.237 A  
HETATM   32  C   UNL     1      -9.652  13.712  68.150  1.00  0.00    -0.221 A  
HETATM   33  C   UNL     1      -9.766  12.357  67.804  1.00  0.00    -0.201 A  
BRANCH  31  34
HETATM   34  O   UNL     1      -9.757  16.037  67.358  1.00  0.00    -0.229 OA 
HETATM   35  C   UNL     1      -8.556  16.571  67.890  1.00  0.00    -0.183 C  
HETATM   36  F   UNL     1      -8.057  17.473  67.017  1.00  0.00    -0.202 F  
HETATM   37  F   UNL     1      -7.604  15.658  68.159  1.00  0.00    -0.113 F  
HETATM   38  F   UNL     1      -8.850  17.222  69.040  1.00  0.00    -0.262 F  
ENDBRANCH  31  34
ENDBRANCH  27  28
ENDBRANCH  24  27
ENDBRANCH  16  21
ENDBRANCH  14  15
ENDBRANCH  13  14
ENDBRANCH   2  13
TORSDOF 7
ENDMDL
MODEL      138
REMARK 921   NORMALIZED FREE ENERGY PREDICTED BY IDOCK:   -3.42 KCAL/MOL
REMARK 922        TOTAL FREE ENERGY PREDICTED BY IDOCK:   -6.30 KCAL/MOL
REMARK 923 INTER-LIGAND FREE ENERGY PREDICTED BY IDOCK:   -6.93 KCAL/MOL
REMARK 924 INTRA-LIGAND FREE ENERGY PREDICTED BY IDOCK:    0.62 KCAL/MOL
REMARK 927      BINDING AFFINITY PREDICTED BY RF-SCORE:    0.00 PKD
ROOT
HETATM    1  C   UNL     1     -13.962   7.389  71.396  1.00  0.00    -0.464 C  
HETATM    2  C   UNL     1     -12.924   8.380  71.917  1.00  0.00    -0.355 C  
HETATM    3  C   UNL     1     -12.338  10.245  70.846  1.00  0.00    -0.373 A  
HETATM    4  C   UNL     1     -13.580   9.572  72.666  1.00  0.00    -0.189 C  
HETATM    5  N   UNL     1     -13.088  10.673  71.880  1.00  0.00    -0.487 NA 
HETATM    6  O   UNL     1     -12.636  14.617  70.886  1.00  0.00    -0.302 OA 
HETATM    7  C   UNL     1     -13.160  12.013  71.870  1.00  0.00    -0.370 A  
HETATM    8  O   UNL     1     -12.206   8.933  70.760  1.00  0.00    -0.198 OA 
HETATM    9  O   UNL     1     -11.433  13.788  69.235  1.00  0.00    -0.262 OA 
HETATM   10  C   UNL     1     -12.393  12.348  70.754  1.00  0.00    -0.286 A  
HETATM   11  N   UNL     1     -11.876  11.218  70.116  1.00  0.00    -0.339 NA 
HETATM   12  N   UNL     1     -12.131  13.678  70.250  1.00  0.00    -0.346 N  
ENDROOT
BRANCH   2  13
HETATM   13  C   UNL     1     -11.889   7.684  72.797  1.00  0.00    -0.153 C  
BRANCH  13  14
HETATM   14  O   UNL     1     -11.617   6.364  72.319  1.00  0.00    -0.285 OA 
BRANCH  14  15
HETATM   15  C   UNL     1     -10.729   6.330  71.279  1.00  0.00    -0.248 A  
HETATM   16  C   UNL     1      -9.071   6.350  68.953  1.00  0.00    -0.129 A  
HETATM   17  C   UNL     1      -9.454   6.877  71.314  1.00  0.00    -0.165 A  
HETATM   18  C   UNL     1     -11.148   5.704  70.114  1.00  0.00    -0.206 A  
HETATM   19  C   UNL     1      -8.652   6.885  70.174  1.00  0.00    -0.141 A  
HETATM   20  C   UNL     1     -10.325   5.711  68.976  1.00  0.00    -0.314 A  
BRANCH  16  21
HETATM   21  N   UNL     1      -8.265   6.407  67.827  1.00  0.00    -0.118 NA 
HETATM   22  C   UNL     1      -7.104   5.517  67.635  1.00  0.00    -0.071 C  
HETATM   23  C   UNL     1      -7.084   5.035  66.185  1.00  0.00    -0.072 C  
HETATM   24  C   UNL     1      -7.083   6.215  65.209  1.00  0.00    -0.064 C  
HETATM   25  C   UNL     1      -8.186   7.608  66.991  1.00  0.00    -0.117 C  
HETATM   26  C   UNL     1      -8.247   7.157  65.539  1.00  0.00    -0.139 C  
BRANCH  24  27
HETATM   27  O   UNL     1      -5.813   6.876  65.340  1.00  0.00    -0.033 OA 
BRANCH  27  28
HETATM   28  C   UNL     1      -5.838   8.227  65.545  1.00  0.00    -0.044 A  
HETATM   29  C   UNL     1      -6.347   9.159  64.648  1.00  0.00    -0.071 A  
HETATM   30  C   UNL     1      -6.334  10.516  64.966  1.00  0.00    -0.048 A  
HETATM   31  C   UNL     1      -5.810  10.966  66.174  1.00  0.00    -0.145 A  
HETATM   32  C   UNL     1      -5.284  10.036  67.070  1.00  0.00    -0.041 A  
HETATM   33  C   UNL     1      -5.322   8.667  66.765  1.00  0.00    -0.036 A  
BRANCH  31  34
HETATM   34  O   UNL     1      -5.791  12.315  66.297  1.00  0.00     0.147 OA 
HETATM   35  C   UNL     1      -6.217  12.921  67.505  1.00  0.00    -0.152 C  
HETATM   36  F   UNL     1      -5.218  13.701  67.977  1.00  0.00    -0.087 F  
HETATM   37  F   UNL     1      -6.583  12.058  68.471  1.00  0.00    -0.051 F  
HETATM   38  F   UNL     1      -7.276  13.719  67.233  1.00  0.00    -0.175 F  
ENDBRANCH  31  34
ENDBRANCH  27  28
ENDBRANCH  24  27
ENDBRANCH  16  21
ENDBRANCH  14  15
ENDBRANCH  13  14
ENDBRANCH   2  13
TORSDOF 7
ENDMDL
MODEL      139
REMARK 921   NORMALIZED FREE ENERGY PREDICTED BY IDOCK:   -3.40 KCAL/MOL
REMARK 922        TOTAL FREE ENERGY PREDICTED BY IDOCK:   -6.26 KCAL/MOL
REMARK 923 INTER-LIGAND FREE ENERGY PREDICTED BY IDOCK:   -5.84 KCAL/MOL
REMARK 924 INTRA-LIGAND FREE ENERGY PREDICTED BY IDOCK:   -0.43 KCAL/MOL
REMARK 927      BINDING AFFINITY PREDICTED BY RF-SCORE:    0.00 PKD
ROOT
HETATM    1  C   UNL     1     -13.242  12.309  72.002  1.00  0.00    -0.508 C  
HETATM    2  C   UNL     1     -12.687  11.209  71.099  1.00  0.00    -0.408 C  
HETATM    3  C   UNL     1     -11.608   9.410  71.852  1.00  0.00    -0.278 A  
HETATM    4  C   UNL     1     -13.657  10.003  70.984  1.00  0.00    -0.074 C  
HETATM    5  N   UNL     1     -12.814   8.944  71.472  1.00  0.00    -0.332 NA 
HETATM    6  O   UNL     1     -11.899   5.080  72.464  1.00  0.00    -0.001 OA 
HETATM    7  C   UNL     1     -12.874   7.618  71.668  1.00  0.00    -0.349 A  
HETATM    8  O   UNL     1     -11.443  10.712  71.705  1.00  0.00     0.298 OA 
HETATM    9  O   UNL     1      -9.968   5.968  73.051  1.00  0.00    -0.170 OA 
HETATM   10  C   UNL     1     -11.612   7.332  72.188  1.00  0.00    -0.286 A  
HETATM   11  N   UNL     1     -10.819   8.476  72.296  1.00  0.00    -0.352 NA 
HETATM   12  N   UNL     1     -11.118   6.036  72.599  1.00  0.00    -0.260 N  
ENDROOT
BRANCH   2  13
HETATM   13  C   UNL     1     -12.327  11.756  69.720  1.00  0.00    -0.111 C  
BRANCH  13  14
HETATM   14  O   UNL     1     -12.528  10.766  68.709  1.00  0.00    -0.366 OA 
BRANCH  14  15
HETATM   15  C   UNL     1     -11.407  10.500  67.972  1.00  0.00    -0.246 A  
HETATM   16  C   UNL     1      -9.163   9.701  66.395  1.00  0.00    -0.163 A  
HETATM   17  C   UNL     1     -10.926  11.307  66.951  1.00  0.00    -0.348 A  
HETATM   18  C   UNL     1     -10.714   9.337  68.277  1.00  0.00    -0.195 A  
HETATM   19  C   UNL     1      -9.832  10.910  66.185  1.00  0.00    -0.268 A  
HETATM   20  C   UNL     1      -9.608   8.954  67.502  1.00  0.00    -0.183 A  
BRANCH  16  21
HETATM   21  N   UNL     1      -8.101   9.317  65.592  1.00  0.00    -0.110 NA 
HETATM   22  C   UNL     1      -8.096   8.051  64.833  1.00  0.00    -0.147 C  
HETATM   23  C   UNL     1      -7.532   8.312  63.438  1.00  0.00    -0.119 C  
HETATM   24  C   UNL     1      -6.144   8.954  63.513  1.00  0.00    -0.084 C  
HETATM   25  C   UNL     1      -6.751   9.854  65.783  1.00  0.00    -0.099 C  
HETATM   26  C   UNL     1      -6.199  10.198  64.408  1.00  0.00    -0.133 C  
BRANCH  24  27
HETATM   27  O   UNL     1      -5.243   7.964  64.037  1.00  0.00    -0.039 OA 
BRANCH  27  28
HETATM   28  C   UNL     1      -5.623   6.657  63.918  1.00  0.00    -0.031 A  
HETATM   29  C   UNL     1      -5.874   6.008  62.714  1.00  0.00    -0.025 A  
HETATM   30  C   UNL     1      -6.244   4.665  62.706  1.00  0.00    -0.018 A  
HETATM   31  C   UNL     1      -6.377   3.949  63.891  1.00  0.00    -0.030 A  
HETATM   32  C   UNL     1      -6.141   4.599  65.102  1.00  0.00    -0.030 A  
HETATM   33  C   UNL     1      -5.741   5.944  65.112  1.00  0.00    -0.024 A  
BRANCH  31  34
HETATM   34  O   UNL     1      -6.826   2.682  63.724  1.00  0.00    -0.031 OA 
HETATM   35  C   UNL     1      -8.212   2.404  63.819  1.00  0.00    -0.082 C  
HETATM   36  F   UNL     1      -8.616   1.807  62.676  1.00  0.00    -0.068 F  
HETATM   37  F   UNL     1      -8.989   3.481  64.042  1.00  0.00    -0.098 F  
HETATM   38  F   UNL     1      -8.404   1.531  64.836  1.00  0.00    -0.071 F  
ENDBRANCH  31  34
ENDBRANCH  27  28
ENDBRANCH  24  27
ENDBRANCH  16  21
ENDBRANCH  14  15
ENDBRANCH  13  14
ENDBRANCH   2  13
TORSDOF 7
ENDMDL
MODEL      140
REMARK 921   NORMALIZED FREE ENERGY PREDICTED BY IDOCK:   -3.32 KCAL/MOL
REMARK 922        TOTAL FREE ENERGY PREDICTED BY IDOCK:   -6.16 KCAL/MOL
REMARK 923 INTER-LIGAND FREE ENERGY PREDICTED BY IDOCK:   -6.28 KCAL/MOL
REMARK 924 INTRA-LIGAND FREE ENERGY PREDICTED BY IDOCK:    0.13 KCAL/MOL
REMARK 927      BINDING AFFINITY PREDICTED BY RF-SCORE:    0.00 PKD
ROOT
HETATM    1  C   UNL     1      -5.949   5.112  70.107  1.00  0.00    -0.018 C  
HETATM    2  C   UNL     1      -6.315   5.560  68.695  1.00  0.00    -0.041 C  
HETATM    3  C   UNL     1      -6.708   4.157  67.008  1.00  0.00    -0.047 A  
HETATM    4  C   UNL     1      -7.850   5.539  68.454  1.00  0.00    -0.088 C  
HETATM    5  N   UNL     1      -7.925   4.629  67.342  1.00  0.00    -0.100 NA 
HETATM    6  O   UNL     1      -9.824   2.482  64.421  1.00  0.00    -0.135 OA 
HETATM    7  C   UNL     1      -8.858   4.103  66.534  1.00  0.00    -0.118 A  
HETATM    8  O   UNL     1      -5.713   4.610  67.748  1.00  0.00    -0.019 OA 
HETATM    9  O   UNL     1      -7.781   1.784  63.977  1.00  0.00    -0.058 OA 
HETATM   10  C   UNL     1      -8.103   3.286  65.693  1.00  0.00    -0.090 A  
HETATM   11  N   UNL     1      -6.741   3.332  66.002  1.00  0.00    -0.043 NA 
HETATM   12  N   UNL     1      -8.599   2.455  64.618  1.00  0.00    -0.090 N  
ENDROOT
BRANCH   2  13
HETATM   13  C   UNL     1      -5.731   6.936  68.383  1.00  0.00    -0.018 C  
BRANCH  13  14
HETATM   14  O   UNL     1      -5.910   7.829  69.485  1.00  0.00    -0.023 OA 
BRANCH  14  15
HETATM   15  C   UNL     1      -6.746   8.876  69.212  1.00  0.00    -0.050 A  
HETATM   16  C   UNL     1      -8.435  11.027  68.385  1.00  0.00    -0.144 A  
HETATM   17  C   UNL     1      -8.034   9.007  69.711  1.00  0.00    -0.099 A  
HETATM   18  C   UNL     1      -6.258   9.868  68.374  1.00  0.00    -0.050 A  
HETATM   19  C   UNL     1      -8.853  10.058  69.302  1.00  0.00    -0.184 A  
HETATM   20  C   UNL     1      -7.091  10.927  67.977  1.00  0.00    -0.077 A  
BRANCH  16  21
HETATM   21  N   UNL     1      -9.286  12.038  67.969  1.00  0.00    -0.186 NA 
HETATM   22  C   UNL     1      -8.906  13.022  66.937  1.00  0.00    -0.180 C  
HETATM   23  C   UNL     1     -10.092  13.240  66.000  1.00  0.00    -0.301 C  
HETATM   24  C   UNL     1     -11.343  13.661  66.777  1.00  0.00    -0.328 C  
HETATM   25  C   UNL     1     -10.394  12.510  68.803  1.00  0.00    -0.117 C  
HETATM   26  C   UNL     1     -11.612  12.657  67.903  1.00  0.00    -0.401 C  
BRANCH  24  27
HETATM   27  O   UNL     1     -11.101  14.982  67.292  1.00  0.00    -0.318 OA 
BRANCH  27  28
HETATM   28  C   UNL     1     -11.573  15.253  68.545  1.00  0.00    -0.352 A  
HETATM   29  C   UNL     1     -12.767  14.768  69.067  1.00  0.00     0.410 A  
HETATM   30  C   UNL     1     -13.147  15.097  70.367  1.00  0.00    -0.232 A  
HETATM   31  C   UNL     1     -12.353  15.916  71.163  1.00  0.00    -0.384 A  
HETATM   32  C   UNL     1     -11.162  16.417  70.638  1.00  0.00    -0.211 A  
HETATM   33  C   UNL     1     -10.763  16.064  69.340  1.00  0.00    -0.294 A  
BRANCH  31  34
HETATM   34  O   UNL     1     -12.899  16.213  72.366  1.00  0.00    -0.426 OA 
HETATM   35  C   UNL     1     -12.290  15.742  73.556  1.00  0.00    -0.552 C  
HETATM   36  F   UNL     1     -12.022  16.798  74.355  1.00  0.00    -0.511 F  
HETATM   37  F   UNL     1     -11.156  15.042  73.369  1.00  0.00    -0.204 F  
HETATM   38  F   UNL     1     -13.174  14.944  74.201  1.00  0.00    -0.200 F  
ENDBRANCH  31  34
ENDBRANCH  27  28
ENDBRANCH  24  27
ENDBRANCH  16  21
ENDBRANCH  14  15
ENDBRANCH  13  14
ENDBRANCH   2  13
TORSDOF 7
ENDMDL
MODEL      141
REMARK 921   NORMALIZED FREE ENERGY PREDICTED BY IDOCK:   -3.31 KCAL/MOL
REMARK 922        TOTAL FREE ENERGY PREDICTED BY IDOCK:   -6.14 KCAL/MOL
REMARK 923 INTER-LIGAND FREE ENERGY PREDICTED BY IDOCK:   -7.08 KCAL/MOL
REMARK 924 INTRA-LIGAND FREE ENERGY PREDICTED BY IDOCK:    0.94 KCAL/MOL
REMARK 927      BINDING AFFINITY PREDICTED BY RF-SCORE:    0.00 PKD
ROOT
HETATM    1  C   UNL     1     -12.791  12.932  64.323  1.00  0.00    -0.179 C  
HETATM    2  C   UNL     1     -11.426  13.496  64.708  1.00  0.00    -0.346 C  
HETATM    3  C   UNL     1     -11.096  15.585  65.413  1.00  0.00    -0.298 A  
HETATM    4  C   UNL     1     -11.181  13.437  66.240  1.00  0.00    -0.305 C  
HETATM    5  N   UNL     1     -10.963  14.831  66.522  1.00  0.00    -0.320 NA 
HETATM    6  O   UNL     1     -10.138  18.056  68.903  1.00  0.00    -0.375 OA 
HETATM    7  C   UNL     1     -10.667  15.611  67.572  1.00  0.00    -0.303 A  
HETATM    8  O   UNL     1     -11.393  14.912  64.315  1.00  0.00    -0.226 OA 
HETATM    9  O   UNL     1     -10.385  19.174  67.019  1.00  0.00    -0.359 OA 
HETATM   10  C   UNL     1     -10.632  16.884  67.003  1.00  0.00    -0.230 A  
HETATM   11  N   UNL     1     -10.902  16.852  65.633  1.00  0.00    -0.245 NA 
HETATM   12  N   UNL     1     -10.366  18.132  67.685  1.00  0.00    -0.380 N  
ENDROOT
BRANCH   2  13
HETATM   13  C   UNL     1     -10.304  12.793  63.947  1.00  0.00    -0.324 C  
BRANCH  13  14
HETATM   14  O   UNL     1     -10.603  11.408  63.759  1.00  0.00    -0.343 OA 
BRANCH  14  15
HETATM   15  C   UNL     1      -9.838  10.574  64.526  1.00  0.00    -0.337 A  
HETATM   16  C   UNL     1      -8.458   8.688  66.170  1.00  0.00    -0.133 A  
HETATM   17  C   UNL     1      -8.627  10.026  64.125  1.00  0.00    -0.195 A  
HETATM   18  C   UNL     1     -10.320  10.260  65.788  1.00  0.00    -0.236 A  
HETATM   19  C   UNL     1      -7.961   9.105  64.932  1.00  0.00    -0.123 A  
HETATM   20  C   UNL     1      -9.633   9.337  66.594  1.00  0.00    -0.263 A  
BRANCH  16  21
HETATM   21  N   UNL     1      -7.791   7.742  66.931  1.00  0.00    -0.106 NA 
HETATM   22  C   UNL     1      -7.432   6.410  66.409  1.00  0.00    -0.086 C  
HETATM   23  C   UNL     1      -6.016   6.065  66.867  1.00  0.00    -0.018 C  
HETATM   24  C   UNL     1      -5.890   6.147  68.390  1.00  0.00    -0.013 C  
HETATM   25  C   UNL     1      -7.808   7.776  68.397  1.00  0.00    -0.121 C  
HETATM   26  C   UNL     1      -6.388   7.514  68.875  1.00  0.00    -0.039 C  
BRANCH  24  27
HETATM   27  O   UNL     1      -6.671   5.074  68.942  1.00  0.00    -0.047 OA 
BRANCH  27  28
HETATM   28  C   UNL     1      -7.255   4.214  68.055  1.00  0.00    -0.060 A  
HETATM   29  C   UNL     1      -6.565   3.375  67.188  1.00  0.00    -0.038 A  
HETATM   30  C   UNL     1      -7.262   2.526  66.331  1.00  0.00    -0.065 A  
HETATM   31  C   UNL     1      -8.653   2.502  66.318  1.00  0.00    -0.110 A  
HETATM   32  C   UNL     1      -9.350   3.353  67.176  1.00  0.00    -0.224 A  
HETATM   33  C   UNL     1      -8.651   4.188  68.059  1.00  0.00    -0.108 A  
BRANCH  31  34
HETATM   34  O   UNL     1      -9.182   1.690  65.373  1.00  0.00    -0.114 OA 
HETATM   35  C   UNL     1      -9.524   2.213  64.101  1.00  0.00    -0.131 C  
HETATM   36  F   UNL     1      -8.874   1.506  63.150  1.00  0.00    -0.080 F  
HETATM   37  F   UNL     1      -9.245   3.520  63.935  1.00  0.00    -0.109 F  
HETATM   38  F   UNL     1     -10.854   2.042  63.912  1.00  0.00    -0.097 F  
ENDBRANCH  31  34
ENDBRANCH  27  28
ENDBRANCH  24  27
ENDBRANCH  16  21
ENDBRANCH  14  15
ENDBRANCH  13  14
ENDBRANCH   2  13
TORSDOF 7
ENDMDL
MODEL      142
REMARK 921   NORMALIZED FREE ENERGY PREDICTED BY IDOCK:   -3.30 KCAL/MOL
REMARK 922        TOTAL FREE ENERGY PREDICTED BY IDOCK:   -6.12 KCAL/MOL
REMARK 923 INTER-LIGAND FREE ENERGY PREDICTED BY IDOCK:   -7.74 KCAL/MOL
REMARK 924 INTRA-LIGAND FREE ENERGY PREDICTED BY IDOCK:    1.61 KCAL/MOL
REMARK 927      BINDING AFFINITY PREDICTED BY RF-SCORE:    0.00 PKD
ROOT
HETATM    1  C   UNL     1      -9.604  16.588  65.731  1.00  0.00    -0.191 C  
HETATM    2  C   UNL     1      -9.726  17.666  66.806  1.00  0.00    -0.300 C  
HETATM    3  C   UNL     1      -8.085  18.210  68.212  1.00  0.00    -0.297 A  
HETATM    4  C   UNL     1      -9.143  19.027  66.336  1.00  0.00    -0.329 C  
HETATM    5  N   UNL     1      -8.140  19.240  67.345  1.00  0.00    -0.273 NA 
HETATM    6  O   UNL     1      -5.135  21.291  69.221  1.00  0.00    -0.303 OA 
HETATM    7  C   UNL     1      -7.230  20.168  67.678  1.00  0.00    -0.290 A  
HETATM    8  O   UNL     1      -8.941  17.233  67.971  1.00  0.00    -0.231 OA 
HETATM    9  O   UNL     1      -5.145  19.545  70.567  1.00  0.00    -0.188 OA 
HETATM   10  C   UNL     1      -6.633  19.613  68.811  1.00  0.00    -0.302 A  
HETATM   11  N   UNL     1      -7.187  18.374  69.140  1.00  0.00    -0.227 NA 
HETATM   12  N   UNL     1      -5.560  20.186  69.594  1.00  0.00    -0.259 N  
ENDROOT
BRANCH   2  13
HETATM   13  C   UNL     1     -11.172  17.820  67.271  1.00  0.00     0.386 C  
BRANCH  13  14
HETATM   14  O   UNL     1     -11.482  16.875  68.298  1.00  0.00    -0.123 OA 
BRANCH  14  15
HETATM   15  C   UNL     1     -11.152  15.587  67.974  1.00  0.00    -0.322 A  
HETATM   16  C   UNL     1     -10.452  12.849  67.559  1.00  0.00    -0.223 A  
HETATM   17  C   UNL     1     -11.851  14.799  67.070  1.00  0.00    -0.290 A  
HETATM   18  C   UNL     1     -10.041  15.045  68.603  1.00  0.00    -0.233 A  
HETATM   19  C   UNL     1     -11.504  13.464  66.874  1.00  0.00    -0.376 A  
HETATM   20  C   UNL     1      -9.698  13.700  68.389  1.00  0.00    -0.217 A  
BRANCH  16  21
HETATM   21  N   UNL     1     -10.156  11.509  67.370  1.00  0.00    -0.189 NA 
HETATM   22  C   UNL     1     -10.215  10.520  68.464  1.00  0.00    -0.174 C  
HETATM   23  C   UNL     1     -10.867   9.242  67.940  1.00  0.00    -0.181 C  
HETATM   24  C   UNL     1     -10.129   8.708  66.709  1.00  0.00    -0.296 C  
HETATM   25  C   UNL     1      -9.329  11.049  66.251  1.00  0.00    -0.183 C  
HETATM   26  C   UNL     1     -10.004   9.820  65.661  1.00  0.00    -0.352 C  
BRANCH  24  27
HETATM   27  O   UNL     1      -8.840   8.247  67.149  1.00  0.00    -0.133 OA 
BRANCH  27  28
HETATM   28  C   UNL     1      -8.825   7.258  68.092  1.00  0.00    -0.126 A  
HETATM   29  C   UNL     1      -7.872   7.131  69.097  1.00  0.00    -0.118 A  
HETATM   30  C   UNL     1      -7.961   6.088  70.017  1.00  0.00    -0.109 A  
HETATM   31  C   UNL     1      -8.989   5.154  69.949  1.00  0.00    -0.107 A  
HETATM   32  C   UNL     1      -9.939   5.269  68.933  1.00  0.00    -0.250 A  
HETATM   33  C   UNL     1      -9.869   6.334  68.023  1.00  0.00    -0.128 A  
BRANCH  31  34
HETATM   34  O   UNL     1      -8.888   4.155  70.857  1.00  0.00    -0.085 OA 
HETATM   35  C   UNL     1      -9.631   4.216  72.063  1.00  0.00    -0.152 C  
HETATM   36  F   UNL     1     -10.389   3.102  72.164  1.00  0.00    -0.232 F  
HETATM   37  F   UNL     1     -10.430   5.294  72.179  1.00  0.00    -0.237 F  
HETATM   38  F   UNL     1      -8.762   4.226  73.101  1.00  0.00    -0.098 F  
ENDBRANCH  31  34
ENDBRANCH  27  28
ENDBRANCH  24  27
ENDBRANCH  16  21
ENDBRANCH  14  15
ENDBRANCH  13  14
ENDBRANCH   2  13
TORSDOF 7
ENDMDL
MODEL      143
REMARK 921   NORMALIZED FREE ENERGY PREDICTED BY IDOCK:   -3.29 KCAL/MOL
REMARK 922        TOTAL FREE ENERGY PREDICTED BY IDOCK:   -6.12 KCAL/MOL
REMARK 923 INTER-LIGAND FREE ENERGY PREDICTED BY IDOCK:   -9.27 KCAL/MOL
REMARK 924 INTRA-LIGAND FREE ENERGY PREDICTED BY IDOCK:    3.15 KCAL/MOL
REMARK 927      BINDING AFFINITY PREDICTED BY RF-SCORE:    0.00 PKD
ROOT
HETATM    1  C   UNL     1     -12.825   5.688  72.810  1.00  0.00     0.681 C  
HETATM    2  C   UNL     1     -11.317   5.914  72.748  1.00  0.00    -0.263 C  
HETATM    3  C   UNL     1      -9.803   4.334  73.176  1.00  0.00    -0.134 A  
HETATM    4  C   UNL     1     -10.714   5.467  71.389  1.00  0.00    -0.221 C  
HETATM    5  N   UNL     1      -9.758   4.490  71.838  1.00  0.00    -0.160 NA 
HETATM    6  O   UNL     1      -6.799   1.701  71.374  1.00  0.00    -0.023 OA 
HETATM    7  C   UNL     1      -8.830   3.675  71.314  1.00  0.00    -0.088 A  
HETATM    8  O   UNL     1     -10.692   5.091  73.794  1.00  0.00    -0.259 OA 
HETATM    9  O   UNL     1      -6.973   1.540  73.566  1.00  0.00    -0.021 OA 
HETATM   10  C   UNL     1      -8.325   3.028  72.441  1.00  0.00    -0.074 A  
HETATM   11  N   UNL     1      -8.948   3.457  73.615  1.00  0.00    -0.090 NA 
HETATM   12  N   UNL     1      -7.291   2.016  72.469  1.00  0.00    -0.034 N  
ENDROOT
BRANCH   2  13
HETATM   13  C   UNL     1     -10.964   7.369  73.052  1.00  0.00    -0.374 C  
BRANCH  13  14
HETATM   14  O   UNL     1     -12.059   8.234  72.746  1.00  0.00    -0.353 OA 
BRANCH  14  15
HETATM   15  C   UNL     1     -11.765   9.175  71.798  1.00  0.00    -0.386 A  
HETATM   16  C   UNL     1     -11.039  10.946  69.677  1.00  0.00    -0.266 A  
HETATM   17  C   UNL     1     -12.679  10.080  71.277  1.00  0.00    -0.500 A  
HETATM   18  C   UNL     1     -10.459   9.214  71.333  1.00  0.00    -0.414 A  
HETATM   19  C   UNL     1     -12.318  10.940  70.241  1.00  0.00    -0.412 A  
HETATM   20  C   UNL     1     -10.107  10.091  70.295  1.00  0.00    -0.228 A  
BRANCH  16  21
HETATM   21  N   UNL     1     -10.722  11.786  68.622  1.00  0.00    -0.213 NA 
HETATM   22  C   UNL     1      -9.330  12.084  68.234  1.00  0.00    -0.197 C  
HETATM   23  C   UNL     1      -9.225  12.059  66.710  1.00  0.00    -0.201 C  
HETATM   24  C   UNL     1     -10.229  13.021  66.069  1.00  0.00    -0.287 C  
HETATM   25  C   UNL     1     -11.664  12.792  68.124  1.00  0.00    -0.345 C  
HETATM   26  C   UNL     1     -11.636  12.730  66.604  1.00  0.00    -0.430 C  
BRANCH  24  27
HETATM   27  O   UNL     1      -9.807  14.357  66.393  1.00  0.00    -0.271 OA 
BRANCH  27  28
HETATM   28  C   UNL     1     -10.203  14.856  67.602  1.00  0.00    -0.236 A  
HETATM   29  C   UNL     1      -9.415  14.884  68.748  1.00  0.00    -0.214 A  
HETATM   30  C   UNL     1      -9.916  15.429  69.928  1.00  0.00    -0.229 A  
HETATM   31  C   UNL     1     -11.205  15.947  69.990  1.00  0.00    -0.353 A  
HETATM   32  C   UNL     1     -12.005  15.907  68.848  1.00  0.00    -0.202 A  
HETATM   33  C   UNL     1     -11.493  15.385  67.651  1.00  0.00    -0.255 A  
BRANCH  31  34
HETATM   34  O   UNL     1     -11.575  16.359  71.226  1.00  0.00    -0.414 OA 
HETATM   35  C   UNL     1     -12.278  15.479  72.086  1.00  0.00    -0.404 C  
HETATM   36  F   UNL     1     -11.592  15.362  73.244  1.00  0.00    -0.525 F  
HETATM   37  F   UNL     1     -12.490  14.249  71.582  1.00  0.00    -0.366 F  
HETATM   38  F   UNL     1     -13.483  16.029  72.369  1.00  0.00    -0.516 F  
ENDBRANCH  31  34
ENDBRANCH  27  28
ENDBRANCH  24  27
ENDBRANCH  16  21
ENDBRANCH  14  15
ENDBRANCH  13  14
ENDBRANCH   2  13
TORSDOF 7
ENDMDL
MODEL      144
REMARK 921   NORMALIZED FREE ENERGY PREDICTED BY IDOCK:   -3.26 KCAL/MOL
REMARK 922        TOTAL FREE ENERGY PREDICTED BY IDOCK:   -6.07 KCAL/MOL
REMARK 923 INTER-LIGAND FREE ENERGY PREDICTED BY IDOCK:   -8.49 KCAL/MOL
REMARK 924 INTRA-LIGAND FREE ENERGY PREDICTED BY IDOCK:    2.42 KCAL/MOL
REMARK 927      BINDING AFFINITY PREDICTED BY RF-SCORE:    0.00 PKD
ROOT
HETATM    1  C   UNL     1      -9.578   8.663  72.190  1.00  0.00    -0.378 C  
HETATM    2  C   UNL     1     -10.695   7.715  72.622  1.00  0.00    -0.321 C  
HETATM    3  C   UNL     1     -10.666   5.515  72.267  1.00  0.00    -0.231 A  
HETATM    4  C   UNL     1     -10.385   7.029  73.980  1.00  0.00    -0.273 C  
HETATM    5  N   UNL     1     -10.431   5.645  73.588  1.00  0.00    -0.245 NA 
HETATM    6  O   UNL     1     -10.225   1.603  74.192  1.00  0.00    -0.087 OA 
HETATM    7  C   UNL     1     -10.303   4.434  74.151  1.00  0.00    -0.235 A  
HETATM    8  O   UNL     1     -10.804   6.653  71.612  1.00  0.00    -0.226 OA 
HETATM    9  O   UNL     1     -10.612   1.527  72.023  1.00  0.00    -0.143 OA 
HETATM   10  C   UNL     1     -10.484   3.576  73.067  1.00  0.00    -0.166 A  
HETATM   11  N   UNL     1     -10.716   4.274  71.880  1.00  0.00     0.105 NA 
HETATM   12  N   UNL     1     -10.438   2.130  73.089  1.00  0.00    -0.125 N  
ENDROOT
BRANCH   2  13
HETATM   13  C   UNL     1     -12.042   8.433  72.667  1.00  0.00    -0.257 C  
BRANCH  13  14
HETATM   14  O   UNL     1     -12.600   8.552  71.356  1.00  0.00    -0.309 OA 
BRANCH  14  15
HETATM   15  C   UNL     1     -12.338   9.752  70.755  1.00  0.00    -0.236 A  
HETATM   16  C   UNL     1     -11.683  12.336  69.729  1.00  0.00    -0.298 A  
HETATM   17  C   UNL     1     -11.715   9.896  69.523  1.00  0.00     0.024 A  
HETATM   18  C   UNL     1     -12.725  10.896  71.438  1.00  0.00    -0.539 A  
HETATM   19  C   UNL     1     -11.397  11.160  69.030  1.00  0.00    -0.343 A  
HETATM   20  C   UNL     1     -12.406  12.163  70.924  1.00  0.00    -0.370 A  
BRANCH  16  21
HETATM   21  N   UNL     1     -11.319  13.577  69.230  1.00  0.00    -0.267 NA 
HETATM   22  C   UNL     1     -11.910  14.144  68.002  1.00  0.00    -0.365 C  
HETATM   23  C   UNL     1     -12.199  15.626  68.231  1.00  0.00     0.329 C  
HETATM   24  C   UNL     1     -10.938  16.375  68.673  1.00  0.00    -0.345 C  
HETATM   25  C   UNL     1     -10.038  14.203  69.569  1.00  0.00     0.317 C  
HETATM   26  C   UNL     1     -10.314  15.666  69.880  1.00  0.00    -0.322 C  
BRANCH  24  27
HETATM   27  O   UNL     1     -10.040  16.398  67.550  1.00  0.00    -0.250 OA 
BRANCH  27  28
HETATM   28  C   UNL     1     -10.305  15.531  66.528  1.00  0.00    -0.288 A  
HETATM   29  C   UNL     1      -9.669  14.310  66.334  1.00  0.00    -0.315 A  
HETATM   30  C   UNL     1     -10.029  13.496  65.262  1.00  0.00    -0.206 A  
HETATM   31  C   UNL     1     -11.018  13.884  64.364  1.00  0.00    -0.308 A  
HETATM   32  C   UNL     1     -11.648  15.115  64.546  1.00  0.00    -0.330 A  
HETATM   33  C   UNL     1     -11.308  15.924  65.640  1.00  0.00     0.128 A  
BRANCH  31  34
HETATM   34  O   UNL     1     -11.192  13.027  63.330  1.00  0.00    -0.321 OA 
HETATM   35  C   UNL     1     -11.832  11.781  63.543  1.00  0.00    -0.378 C  
HETATM   36  F   UNL     1     -12.890  11.686  62.708  1.00  0.00    -0.537 F  
HETATM   37  F   UNL     1     -12.257  11.573  64.804  1.00  0.00    -0.147 F  
HETATM   38  F   UNL     1     -10.960  10.793  63.228  1.00  0.00    -0.234 F  
ENDBRANCH  31  34
ENDBRANCH  27  28
ENDBRANCH  24  27
ENDBRANCH  16  21
ENDBRANCH  14  15
ENDBRANCH  13  14
ENDBRANCH   2  13
TORSDOF 7
ENDMDL
MODEL      145
REMARK 921   NORMALIZED FREE ENERGY PREDICTED BY IDOCK:   -3.16 KCAL/MOL
REMARK 922        TOTAL FREE ENERGY PREDICTED BY IDOCK:   -5.93 KCAL/MOL
REMARK 923 INTER-LIGAND FREE ENERGY PREDICTED BY IDOCK:   -7.01 KCAL/MOL
REMARK 924 INTRA-LIGAND FREE ENERGY PREDICTED BY IDOCK:    1.08 KCAL/MOL
REMARK 927      BINDING AFFINITY PREDICTED BY RF-SCORE:    0.00 PKD
ROOT
HETATM    1  C   UNL     1      -9.502   8.695  71.000  1.00  0.00    -0.261 C  
HETATM    2  C   UNL     1      -8.574   7.583  70.516  1.00  0.00    -0.138 C  
HETATM    3  C   UNL     1      -7.535   6.152  71.873  1.00  0.00    -0.095 A  
HETATM    4  C   UNL     1      -9.306   6.219  70.402  1.00  0.00    -0.161 C  
HETATM    5  N   UNL     1      -8.510   5.422  71.297  1.00  0.00    -0.124 NA 
HETATM    6  O   UNL     1      -7.431   1.996  73.258  1.00  0.00    -0.035 OA 
HETATM    7  C   UNL     1      -8.453   4.155  71.736  1.00  0.00    -0.103 A  
HETATM    8  O   UNL     1      -7.504   7.422  71.511  1.00  0.00    -0.078 OA 
HETATM    9  O   UNL     1      -5.882   3.300  74.131  1.00  0.00    -0.006 OA 
HETATM   10  C   UNL     1      -7.369   4.188  72.613  1.00  0.00    -0.072 A  
HETATM   11  N   UNL     1      -6.794   5.459  72.687  1.00  0.00    -0.074 NA 
HETATM   12  N   UNL     1      -6.852   3.085  73.393  1.00  0.00    -0.033 N  
ENDROOT
BRANCH   2  13
HETATM   13  C   UNL     1      -7.905   7.958  69.195  1.00  0.00    -0.109 C  
BRANCH  13  14
HETATM   14  O   UNL     1      -6.741   8.755  69.421  1.00  0.00    -0.047 OA 
BRANCH  14  15
HETATM   15  C   UNL     1      -6.927  10.085  69.157  1.00  0.00    -0.059 A  
HETATM   16  C   UNL     1      -7.576  12.813  68.616  1.00  0.00    -0.085 A  
HETATM   17  C   UNL     1      -6.302  11.118  69.841  1.00  0.00    -0.141 A  
HETATM   18  C   UNL     1      -7.806  10.406  68.133  1.00  0.00    -0.108 A  
HETATM   19  C   UNL     1      -6.626  12.447  69.573  1.00  0.00    -0.048 A  
HETATM   20  C   UNL     1      -8.115  11.750  67.868  1.00  0.00    -0.144 A  
BRANCH  16  21
HETATM   21  N   UNL     1      -7.904  14.142  68.399  1.00  0.00    -0.135 NA 
HETATM   22  C   UNL     1      -8.238  15.068  69.498  1.00  0.00    -0.106 C  
HETATM   23  C   UNL     1      -7.559  16.412  69.236  1.00  0.00    -0.180 C  
HETATM   24  C   UNL     1      -7.946  16.970  67.864  1.00  0.00    -0.189 C  
HETATM   25  C   UNL     1      -8.402  14.615  67.104  1.00  0.00    -0.211 C  
HETATM   26  C   UNL     1      -7.679  15.914  66.784  1.00  0.00    -0.245 C  
BRANCH  24  27
HETATM   27  O   UNL     1      -9.338  17.326  67.924  1.00  0.00    -0.249 OA 
BRANCH  27  28
HETATM   28  C   UNL     1     -10.197  16.593  67.154  1.00  0.00    -0.290 A  
HETATM   29  C   UNL     1     -11.093  15.649  67.641  1.00  0.00    -0.305 A  
HETATM   30  C   UNL     1     -11.936  14.967  66.766  1.00  0.00    -0.106 A  
HETATM   31  C   UNL     1     -11.896  15.206  65.396  1.00  0.00    -0.017 A  
HETATM   32  C   UNL     1     -10.988  16.141  64.901  1.00  0.00    -0.364 A  
HETATM   33  C   UNL     1     -10.158  16.851  65.783  1.00  0.00    -0.251 A  
BRANCH  31  34
HETATM   34  O   UNL     1     -12.713  14.405  64.672  1.00  0.00    -0.655 OA 
HETATM   35  C   UNL     1     -12.255  13.135  64.238  1.00  0.00    -0.396 C  
HETATM   36  F   UNL     1     -13.108  12.188  64.688  1.00  0.00    -0.501 F  
HETATM   37  F   UNL     1     -11.009  12.818  64.636  1.00  0.00    -0.301 F  
HETATM   38  F   UNL     1     -12.281  13.110  62.884  1.00  0.00    -0.589 F  
ENDBRANCH  31  34
ENDBRANCH  27  28
ENDBRANCH  24  27
ENDBRANCH  16  21
ENDBRANCH  14  15
ENDBRANCH  13  14
ENDBRANCH   2  13
TORSDOF 7
ENDMDL
MODEL      146
REMARK 921   NORMALIZED FREE ENERGY PREDICTED BY IDOCK:   -3.15 KCAL/MOL
REMARK 922        TOTAL FREE ENERGY PREDICTED BY IDOCK:   -5.92 KCAL/MOL
REMARK 923 INTER-LIGAND FREE ENERGY PREDICTED BY IDOCK:   -5.45 KCAL/MOL
REMARK 924 INTRA-LIGAND FREE ENERGY PREDICTED BY IDOCK:   -0.47 KCAL/MOL
REMARK 927      BINDING AFFINITY PREDICTED BY RF-SCORE:    0.00 PKD
ROOT
HETATM    1  C   UNL     1     -11.086  18.722  67.178  1.00  0.00    -0.033 C  
HETATM    2  C   UNL     1     -10.221  17.484  66.955  1.00  0.00    -0.329 C  
HETATM    3  C   UNL     1      -8.334  17.069  68.066  1.00  0.00    -0.211 A  
HETATM    4  C   UNL     1     -10.525  16.365  67.987  1.00  0.00    -0.303 C  
HETATM    5  N   UNL     1      -9.226  16.203  68.584  1.00  0.00    -0.210 NA 
HETATM    6  O   UNL     1      -6.489  14.538  71.130  1.00  0.00     0.031 OA 
HETATM    7  C   UNL     1      -8.635  15.440  69.516  1.00  0.00    -0.212 A  
HETATM    8  O   UNL     1      -8.816  17.876  67.137  1.00  0.00    -0.239 OA 
HETATM    9  O   UNL     1      -5.130  16.005  70.204  1.00  0.00    -0.120 OA 
HETATM   10  C   UNL     1      -7.324  15.916  69.509  1.00  0.00    -0.170 A  
HETATM   11  N   UNL     1      -7.146  16.947  68.583  1.00  0.00    -0.191 NA 
HETATM   12  N   UNL     1      -6.231  15.457  70.338  1.00  0.00    -0.068 N  
ENDROOT
BRANCH   2  13
HETATM   13  C   UNL     1     -10.360  16.964  65.526  1.00  0.00    -0.177 C  
BRANCH  13  14
HETATM   14  O   UNL     1     -11.517  16.135  65.395  1.00  0.00     0.064 OA 
BRANCH  14  15
HETATM   15  C   UNL     1     -11.314  14.843  65.796  1.00  0.00    -0.314 A  
HETATM   16  C   UNL     1     -10.678  12.232  66.764  1.00  0.00    -0.240 A  
HETATM   17  C   UNL     1     -12.290  14.030  66.355  1.00  0.00    -0.468 A  
HETATM   18  C   UNL     1     -10.039  14.325  65.626  1.00  0.00    -0.364 A  
HETATM   19  C   UNL     1     -11.971  12.758  66.828  1.00  0.00    -0.389 A  
HETATM   20  C   UNL     1      -9.735  13.038  66.098  1.00  0.00    -0.255 A  
BRANCH  16  21
HETATM   21  N   UNL     1     -10.384  10.979  67.277  1.00  0.00    -0.202 NA 
HETATM   22  C   UNL     1     -11.406   9.927  67.439  1.00  0.00     0.418 C  
HETATM   23  C   UNL     1     -10.816   8.591  66.993  1.00  0.00    -0.030 C  
HETATM   24  C   UNL     1      -9.526   8.273  67.753  1.00  0.00    -0.149 C  
HETATM   25  C   UNL     1      -9.207  10.742  68.117  1.00  0.00    -0.151 C  
HETATM   26  C   UNL     1      -8.556   9.455  67.637  1.00  0.00    -0.116 C  
BRANCH  24  27
HETATM   27  O   UNL     1      -9.888   8.018  69.121  1.00  0.00    -0.171 OA 
BRANCH  27  28
HETATM   28  C   UNL     1      -9.293   6.948  69.729  1.00  0.00    -0.146 A  
HETATM   29  C   UNL     1      -8.620   6.996  70.945  1.00  0.00    -0.139 A  
HETATM   30  C   UNL     1      -8.061   5.839  71.482  1.00  0.00    -0.118 A  
HETATM   31  C   UNL     1      -8.154   4.620  70.817  1.00  0.00    -0.084 A  
HETATM   32  C   UNL     1      -8.814   4.570  69.590  1.00  0.00    -0.125 A  
HETATM   33  C   UNL     1      -9.403   5.728  69.061  1.00  0.00    -0.144 A  
BRANCH  31  34
HETATM   34  O   UNL     1      -7.487   3.609  71.423  1.00  0.00    -0.042 OA 
HETATM   35  C   UNL     1      -6.212   3.216  70.945  1.00  0.00    -0.019 C  
HETATM   36  F   UNL     1      -5.323   3.293  71.960  1.00  0.00     0.000 F  
HETATM   37  F   UNL     1      -5.750   3.941  69.910  1.00  0.00    -0.014 F  
HETATM   38  F   UNL     1      -6.283   1.922  70.551  1.00  0.00    -0.020 F  
ENDBRANCH  31  34
ENDBRANCH  27  28
ENDBRANCH  24  27
ENDBRANCH  16  21
ENDBRANCH  14  15
ENDBRANCH  13  14
ENDBRANCH   2  13
TORSDOF 7
ENDMDL
MODEL      147
REMARK 921   NORMALIZED FREE ENERGY PREDICTED BY IDOCK:   -3.11 KCAL/MOL
REMARK 922        TOTAL FREE ENERGY PREDICTED BY IDOCK:   -5.86 KCAL/MOL
REMARK 923 INTER-LIGAND FREE ENERGY PREDICTED BY IDOCK:   -6.40 KCAL/MOL
REMARK 924 INTRA-LIGAND FREE ENERGY PREDICTED BY IDOCK:    0.54 KCAL/MOL
REMARK 927      BINDING AFFINITY PREDICTED BY RF-SCORE:    0.00 PKD
ROOT
HETATM    1  C   UNL     1     -13.626  14.609  71.562  1.00  0.00    -0.481 C  
HETATM    2  C   UNL     1     -12.645  14.122  70.498  1.00  0.00    -0.342 C  
HETATM    3  C   UNL     1     -11.759  15.435  68.930  1.00  0.00    -0.359 A  
HETATM    4  C   UNL     1     -11.169  14.393  70.897  1.00  0.00     0.208 C  
HETATM    5  N   UNL     1     -10.747  15.211  69.791  1.00  0.00    -0.271 NA 
HETATM    6  O   UNL     1      -8.083  17.421  67.608  1.00  0.00    -0.193 OA 
HETATM    7  C   UNL     1      -9.636  15.827  69.362  1.00  0.00    -0.284 A  
HETATM    8  O   UNL     1     -12.908  14.874  69.263  1.00  0.00     0.183 OA 
HETATM    9  O   UNL     1      -9.819  17.713  66.281  1.00  0.00    -0.322 OA 
HETATM   10  C   UNL     1     -10.062  16.430  68.179  1.00  0.00    -0.251 A  
HETATM   11  N   UNL     1     -11.410  16.171  67.915  1.00  0.00    -0.247 NA 
HETATM   12  N   UNL     1      -9.269  17.248  67.288  1.00  0.00    -0.229 N  
ENDROOT
BRANCH   2  13
HETATM   13  C   UNL     1     -12.864  12.645  70.180  1.00  0.00     0.434 C  
BRANCH  13  14
HETATM   14  O   UNL     1     -11.652  12.034  69.731  1.00  0.00    -0.299 OA 
BRANCH  14  15
HETATM   15  C   UNL     1     -11.403  10.820  70.310  1.00  0.00    -0.290 A  
HETATM   16  C   UNL     1     -10.632   8.369  71.557  1.00  0.00    -0.241 A  
HETATM   17  C   UNL     1     -12.185  10.245  71.301  1.00  0.00    -0.496 A  
HETATM   18  C   UNL     1     -10.284  10.130  69.866  1.00  0.00    -0.284 A  
HETATM   19  C   UNL     1     -11.802   9.049  71.906  1.00  0.00    -0.447 A  
HETATM   20  C   UNL     1      -9.915   8.921  70.479  1.00  0.00    -0.243 A  
BRANCH  16  21
HETATM   21  N   UNL     1     -10.259   7.201  72.204  1.00  0.00    -0.185 NA 
HETATM   22  C   UNL     1      -9.101   6.392  71.778  1.00  0.00    -0.143 C  
HETATM   23  C   UNL     1      -8.332   5.937  73.018  1.00  0.00    -0.117 C  
HETATM   24  C   UNL     1      -9.245   5.185  73.990  1.00  0.00    -0.121 C  
HETATM   25  C   UNL     1     -11.203   6.432  73.019  1.00  0.00    -0.143 C  
HETATM   26  C   UNL     1     -10.482   6.036  74.299  1.00  0.00    -0.216 C  
BRANCH  24  27
HETATM   27  O   UNL     1      -9.601   3.940  73.365  1.00  0.00    -0.109 OA 
BRANCH  27  28
HETATM   28  C   UNL     1      -8.934   3.610  72.219  1.00  0.00    -0.100 A  
HETATM   29  C   UNL     1      -7.575   3.323  72.144  1.00  0.00    -0.057 A  
HETATM   30  C   UNL     1      -6.998   2.984  70.922  1.00  0.00    -0.033 A  
HETATM   31  C   UNL     1      -7.758   2.931  69.758  1.00  0.00    -0.043 A  
HETATM   32  C   UNL     1      -9.118   3.233  69.826  1.00  0.00    -0.200 A  
HETATM   33  C   UNL     1      -9.707   3.547  71.059  1.00  0.00    -0.225 A  
BRANCH  31  34
HETATM   34  O   UNL     1      -7.038   2.673  68.641  1.00  0.00    -0.047 OA 
HETATM   35  C   UNL     1      -6.898   3.668  67.642  1.00  0.00    -0.050 C  
HETATM   36  F   UNL     1      -5.582   3.890  67.428  1.00  0.00    -0.017 F  
HETATM   37  F   UNL     1      -7.493   4.842  67.929  1.00  0.00    -0.073 F  
HETATM   38  F   UNL     1      -7.435   3.198  66.491  1.00  0.00    -0.070 F  
ENDBRANCH  31  34
ENDBRANCH  27  28
ENDBRANCH  24  27
ENDBRANCH  16  21
ENDBRANCH  14  15
ENDBRANCH  13  14
ENDBRANCH   2  13
TORSDOF 7
ENDMDL
MODEL      148
REMARK 921   NORMALIZED FREE ENERGY PREDICTED BY IDOCK:   -3.08 KCAL/MOL
REMARK 922        TOTAL FREE ENERGY PREDICTED BY IDOCK:   -5.82 KCAL/MOL
REMARK 923 INTER-LIGAND FREE ENERGY PREDICTED BY IDOCK:   -6.49 KCAL/MOL
REMARK 924 INTRA-LIGAND FREE ENERGY PREDICTED BY IDOCK:    0.67 KCAL/MOL
REMARK 927      BINDING AFFINITY PREDICTED BY RF-SCORE:    0.00 PKD
ROOT
HETATM    1  C   UNL     1      -7.751   3.522  66.631  1.00  0.00    -0.081 C  
HETATM    2  C   UNL     1      -8.077   4.922  67.145  1.00  0.00    -0.107 C  
HETATM    3  C   UNL     1      -9.336   5.326  68.939  1.00  0.00    -0.124 A  
HETATM    4  C   UNL     1      -7.126   5.360  68.292  1.00  0.00    -0.066 C  
HETATM    5  N   UNL     1      -8.080   5.603  69.341  1.00  0.00    -0.098 NA 
HETATM    6  O   UNL     1      -9.269   6.705  73.099  1.00  0.00    -0.128 OA 
HETATM    7  C   UNL     1      -8.090   6.025  70.614  1.00  0.00    -0.116 A  
HETATM    8  O   UNL     1      -9.440   4.895  67.695  1.00  0.00    -0.128 OA 
HETATM    9  O   UNL     1     -11.272   6.214  72.321  1.00  0.00    -0.259 OA 
HETATM   10  C   UNL     1      -9.445   5.981  70.937  1.00  0.00    -0.168 A  
HETATM   11  N   UNL     1     -10.225   5.539  69.866  1.00  0.00    -0.243 NA 
HETATM   12  N   UNL     1     -10.045   6.323  72.208  1.00  0.00    -0.177 N  
ENDROOT
BRANCH   2  13
HETATM   13  C   UNL     1      -8.071   5.942  66.009  1.00  0.00    -0.115 C  
BRANCH  13  14
HETATM   14  O   UNL     1      -9.403   6.333  65.667  1.00  0.00     0.008 OA 
BRANCH  14  15
HETATM   15  C   UNL     1      -9.641   7.669  65.835  1.00  0.00     0.215 A  
HETATM   16  C   UNL     1     -10.217  10.466  65.931  1.00  0.00    -0.234 A  
HETATM   17  C   UNL     1     -10.372   8.213  66.881  1.00  0.00    -0.401 A  
HETATM   18  C   UNL     1      -9.110   8.528  64.883  1.00  0.00     0.181 A  
HETATM   19  C   UNL     1     -10.651   9.578  66.920  1.00  0.00    -0.241 A  
HETATM   20  C   UNL     1      -9.392   9.902  64.940  1.00  0.00    -0.329 A  
BRANCH  16  21
HETATM   21  N   UNL     1     -10.543  11.812  65.979  1.00  0.00    -0.251 NA 
HETATM   22  C   UNL     1      -9.567  12.877  65.678  1.00  0.00    -0.021 C  
HETATM   23  C   UNL     1     -10.250  13.946  64.825  1.00  0.00    -0.353 C  
HETATM   24  C   UNL     1     -11.508  14.483  65.512  1.00  0.00    -0.343 C  
HETATM   25  C   UNL     1     -11.679  12.306  66.762  1.00  0.00    -0.342 C  
HETATM   26  C   UNL     1     -12.422  13.315  65.899  1.00  0.00    -0.433 C  
BRANCH  24  27
HETATM   27  O   UNL     1     -11.080  15.226  66.666  1.00  0.00    -0.324 OA 
BRANCH  27  28
HETATM   28  C   UNL     1     -10.100  16.158  66.474  1.00  0.00    -0.291 A  
HETATM   29  C   UNL     1      -8.833  15.888  65.967  1.00  0.00    -0.298 A  
HETATM   30  C   UNL     1      -7.912  16.919  65.798  1.00  0.00     0.371 A  
HETATM   31  C   UNL     1      -8.230  18.230  66.136  1.00  0.00    -0.139 A  
HETATM   32  C   UNL     1      -9.494  18.504  66.659  1.00  0.00    -0.313 A  
HETATM   33  C   UNL     1     -10.433  17.472  66.803  1.00  0.00    -0.270 A  
BRANCH  31  34
HETATM   34  O   UNL     1      -7.203  19.101  65.996  1.00  0.00    -0.252 OA 
HETATM   35  C   UNL     1      -7.437  20.495  66.101  1.00  0.00    -0.078 C  
HETATM   36  F   UNL     1      -6.635  21.000  67.064  1.00  0.00    -0.293 F  
HETATM   37  F   UNL     1      -8.711  20.833  66.378  1.00  0.00    -0.126 F  
HETATM   38  F   UNL     1      -7.095  21.076  64.926  1.00  0.00    -0.126 F  
ENDBRANCH  31  34
ENDBRANCH  27  28
ENDBRANCH  24  27
ENDBRANCH  16  21
ENDBRANCH  14  15
ENDBRANCH  13  14
ENDBRANCH   2  13
TORSDOF 7
ENDMDL
MODEL      149
REMARK 921   NORMALIZED FREE ENERGY PREDICTED BY IDOCK:   -3.07 KCAL/MOL
REMARK 922        TOTAL FREE ENERGY PREDICTED BY IDOCK:   -5.81 KCAL/MOL
REMARK 923 INTER-LIGAND FREE ENERGY PREDICTED BY IDOCK:   -8.62 KCAL/MOL
REMARK 924 INTRA-LIGAND FREE ENERGY PREDICTED BY IDOCK:    2.81 KCAL/MOL
REMARK 927      BINDING AFFINITY PREDICTED BY RF-SCORE:    0.00 PKD
ROOT
HETATM    1  C   UNL     1     -11.485   5.091  72.921  1.00  0.00    -0.306 C  
HETATM    2  C   UNL     1     -11.073   6.495  72.485  1.00  0.00    -0.260 C  
HETATM    3  C   UNL     1      -9.285   7.567  73.273  1.00  0.00    -0.205 A  
HETATM    4  C   UNL     1      -9.987   6.467  71.376  1.00  0.00    -0.183 C  
HETATM    5  N   UNL     1      -8.937   7.208  72.022  1.00  0.00    -0.130 NA 
HETATM    6  O   UNL     1      -5.247   8.957  72.290  1.00  0.00    -0.043 OA 
HETATM    7  C   UNL     1      -7.700   7.648  71.747  1.00  0.00    -0.086 A  
HETATM    8  O   UNL     1     -10.489   7.177  73.650  1.00  0.00    -0.358 OA 
HETATM    9  O   UNL     1      -5.935   9.480  74.318  1.00  0.00    -0.328 OA 
HETATM   10  C   UNL     1      -7.341   8.298  72.927  1.00  0.00    -0.104 A  
HETATM   11  N   UNL     1      -8.356   8.242  73.886  1.00  0.00    -0.297 NA 
HETATM   12  N   UNL     1      -6.085   8.961  73.204  1.00  0.00    -0.057 N  
ENDROOT
BRANCH   2  13
HETATM   13  C   UNL     1     -12.284   7.315  72.046  1.00  0.00    -0.277 C  
BRANCH  13  14
HETATM   14  O   UNL     1     -12.169   8.671  72.483  1.00  0.00    -0.381 OA 
BRANCH  14  15
HETATM   15  C   UNL     1     -12.034   9.567  71.458  1.00  0.00    -0.399 A  
HETATM   16  C   UNL     1     -11.662  11.612  69.498  1.00  0.00    -0.344 A  
HETATM   17  C   UNL     1     -11.398   9.297  70.255  1.00  0.00    -0.238 A  
HETATM   18  C   UNL     1     -12.573  10.830  71.652  1.00  0.00    -0.456 A  
HETATM   19  C   UNL     1     -11.218  10.301  69.304  1.00  0.00    -0.281 A  
HETATM   20  C   UNL     1     -12.393  11.829  70.681  1.00  0.00    -0.421 A  
BRANCH  16  21
HETATM   21  N   UNL     1     -11.434  12.596  68.550  1.00  0.00    -0.286 NA 
HETATM   22  C   UNL     1     -11.769  12.419  67.124  1.00  0.00    -0.345 C  
HETATM   23  C   UNL     1     -12.403  13.707  66.601  1.00  0.00    -0.381 C  
HETATM   24  C   UNL     1     -11.489  14.912  66.841  1.00  0.00    -0.313 C  
HETATM   25  C   UNL     1     -10.449  13.660  68.760  1.00  0.00    -0.202 C  
HETATM   26  C   UNL     1     -11.089  14.968  68.320  1.00  0.00    -0.292 C  
BRANCH  24  27
HETATM   27  O   UNL     1     -10.342  14.755  65.988  1.00  0.00    -0.279 OA 
BRANCH  27  28
HETATM   28  C   UNL     1      -9.286  14.053  66.495  1.00  0.00    -0.218 A  
HETATM   29  C   UNL     1      -9.121  12.676  66.389  1.00  0.00    -0.114 A  
HETATM   30  C   UNL     1      -7.995  12.061  66.933  1.00  0.00    -0.112 A  
HETATM   31  C   UNL     1      -7.021  12.802  67.595  1.00  0.00    -0.146 A  
HETATM   32  C   UNL     1      -7.189  14.181  67.717  1.00  0.00    -0.187 A  
HETATM   33  C   UNL     1      -8.308  14.806  67.146  1.00  0.00    -0.240 A  
BRANCH  31  34
HETATM   34  O   UNL     1      -6.035  12.052  68.142  1.00  0.00    -0.050 OA 
HETATM   35  C   UNL     1      -6.325  11.177  69.218  1.00  0.00    -0.076 C  
HETATM   36  F   UNL     1      -5.942   9.926  68.878  1.00  0.00    -0.038 F  
HETATM   37  F   UNL     1      -7.619  11.147  69.588  1.00  0.00    -0.109 F  
HETATM   38  F   UNL     1      -5.592  11.560  70.291  1.00  0.00    -0.078 F  
ENDBRANCH  31  34
ENDBRANCH  27  28
ENDBRANCH  24  27
ENDBRANCH  16  21
ENDBRANCH  14  15
ENDBRANCH  13  14
ENDBRANCH   2  13
TORSDOF 7
ENDMDL
MODEL      150
REMARK 921   NORMALIZED FREE ENERGY PREDICTED BY IDOCK:   -3.03 KCAL/MOL
REMARK 922        TOTAL FREE ENERGY PREDICTED BY IDOCK:   -5.75 KCAL/MOL
REMARK 923 INTER-LIGAND FREE ENERGY PREDICTED BY IDOCK:   -6.84 KCAL/MOL
REMARK 924 INTRA-LIGAND FREE ENERGY PREDICTED BY IDOCK:    1.09 KCAL/MOL
REMARK 927      BINDING AFFINITY PREDICTED BY RF-SCORE:    0.00 PKD
ROOT
HETATM    1  C   UNL     1      -8.618   7.703  66.030  1.00  0.00    -0.165 C  
HETATM    2  C   UNL     1      -7.721   7.217  67.166  1.00  0.00    -0.108 C  
HETATM    3  C   UNL     1      -8.484   6.522  69.142  1.00  0.00    -0.126 A  
HETATM    4  C   UNL     1      -7.601   5.669  67.193  1.00  0.00    -0.096 C  
HETATM    5  N   UNL     1      -8.096   5.394  68.516  1.00  0.00    -0.094 NA 
HETATM    6  O   UNL     1      -9.099   3.006  71.685  1.00  0.00    -0.087 OA 
HETATM    7  C   UNL     1      -8.293   4.335  69.317  1.00  0.00    -0.073 A  
HETATM    8  O   UNL     1      -8.336   7.629  68.436  1.00  0.00    -0.124 OA 
HETATM    9  O   UNL     1      -9.699   4.922  72.597  1.00  0.00    -0.145 OA 
HETATM   10  C   UNL     1      -8.822   4.921  70.466  1.00  0.00    -0.115 A  
HETATM   11  N   UNL     1      -8.935   6.308  70.343  1.00  0.00    -0.153 NA 
HETATM   12  N   UNL     1      -9.238   4.239  71.673  1.00  0.00    -0.126 N  
ENDROOT
BRANCH   2  13
HETATM   13  C   UNL     1      -6.344   7.872  67.101  1.00  0.00    -0.055 C  
BRANCH  13  14
HETATM   14  O   UNL     1      -6.025   8.514  68.338  1.00  0.00    -0.040 OA 
BRANCH  14  15
HETATM   15  C   UNL     1      -6.344   9.844  68.363  1.00  0.00    -0.050 A  
HETATM   16  C   UNL     1      -7.167  12.575  68.208  1.00  0.00    -0.111 A  
HETATM   17  C   UNL     1      -6.750  10.534  69.497  1.00  0.00    -0.089 A  
HETATM   18  C   UNL     1      -6.253  10.536  67.165  1.00  0.00    -0.063 A  
HETATM   19  C   UNL     1      -7.153  11.866  69.412  1.00  0.00     0.055 A  
HETATM   20  C   UNL     1      -6.652  11.881  67.097  1.00  0.00    -0.148 A  
BRANCH  16  21
HETATM   21  N   UNL     1      -7.609  13.887  68.150  1.00  0.00    -0.119 NA 
HETATM   22  C   UNL     1      -7.870  14.692  69.359  1.00  0.00    -0.028 C  
HETATM   23  C   UNL     1      -7.322  16.101  69.143  1.00  0.00    -0.215 C  
HETATM   24  C   UNL     1      -7.909  16.737  67.880  1.00  0.00    -0.172 C  
HETATM   25  C   UNL     1      -8.291  14.423  66.969  1.00  0.00    -0.145 C  
HETATM   26  C   UNL     1      -7.703  15.797  66.687  1.00  0.00    -0.140 C  
BRANCH  24  27
HETATM   27  O   UNL     1      -9.304  16.976  68.131  1.00  0.00    -0.241 OA 
BRANCH  27  28
HETATM   28  C   UNL     1     -10.198  16.310  67.341  1.00  0.00    -0.275 A  
HETATM   29  C   UNL     1     -11.042  15.294  67.776  1.00  0.00    -0.318 A  
HETATM   30  C   UNL     1     -11.927  14.690  66.885  1.00  0.00    -0.294 A  
HETATM   31  C   UNL     1     -11.981  15.079  65.551  1.00  0.00     0.000 A  
HETATM   32  C   UNL     1     -11.125  16.086  65.106  1.00  0.00    -0.291 A  
HETATM   33  C   UNL     1     -10.254  16.716  66.007  1.00  0.00    -0.366 A  
BRANCH  31  34
HETATM   34  O   UNL     1     -12.828  14.340  64.795  1.00  0.00    -0.671 OA 
HETATM   35  C   UNL     1     -12.409  13.086  64.283  1.00  0.00    -0.366 C  
HETATM   36  F   UNL     1     -13.279  12.136  64.692  1.00  0.00    -0.453 F  
HETATM   37  F   UNL     1     -11.165  12.717  64.644  1.00  0.00    -0.307 F  
HETATM   38  F   UNL     1     -12.454  13.139  62.931  1.00  0.00    -0.521 F  
ENDBRANCH  31  34
ENDBRANCH  27  28
ENDBRANCH  24  27
ENDBRANCH  16  21
ENDBRANCH  14  15
ENDBRANCH  13  14
ENDBRANCH   2  13
TORSDOF 7
ENDMDL
MODEL      151
REMARK 921   NORMALIZED FREE ENERGY PREDICTED BY IDOCK:   -3.03 KCAL/MOL
REMARK 922        TOTAL FREE ENERGY PREDICTED BY IDOCK:   -5.75 KCAL/MOL
REMARK 923 INTER-LIGAND FREE ENERGY PREDICTED BY IDOCK:   -8.15 KCAL/MOL
REMARK 924 INTRA-LIGAND FREE ENERGY PREDICTED BY IDOCK:    2.40 KCAL/MOL
REMARK 927      BINDING AFFINITY PREDICTED BY RF-SCORE:    0.00 PKD
ROOT
HETATM    1  C   UNL     1      -9.587   8.643  72.208  1.00  0.00    -0.348 C  
HETATM    2  C   UNL     1     -10.677   7.625  72.533  1.00  0.00    -0.296 C  
HETATM    3  C   UNL     1     -10.498   5.440  72.127  1.00  0.00    -0.218 A  
HETATM    4  C   UNL     1     -10.430   6.918  73.893  1.00  0.00    -0.318 C  
HETATM    5  N   UNL     1     -10.368   5.546  73.464  1.00  0.00    -0.208 NA 
HETATM    6  O   UNL     1      -9.980   1.505  73.984  1.00  0.00    -0.075 OA 
HETATM    7  C   UNL     1     -10.214   4.328  74.006  1.00  0.00    -0.193 A  
HETATM    8  O   UNL     1     -10.652   6.588  71.491  1.00  0.00    -0.222 OA 
HETATM    9  O   UNL     1     -10.202   1.469  71.791  1.00  0.00    -0.152 OA 
HETATM   10  C   UNL     1     -10.266   3.492  72.891  1.00  0.00    -0.164 A  
HETATM   11  N   UNL     1     -10.450   4.210  71.707  1.00  0.00    -0.001 NA 
HETATM   12  N   UNL     1     -10.141   2.051  72.881  1.00  0.00    -0.108 N  
ENDROOT
BRANCH   2  13
HETATM   13  C   UNL     1     -12.062   8.267  72.493  1.00  0.00    -0.337 C  
BRANCH  13  14
HETATM   14  O   UNL     1     -12.488   8.481  71.146  1.00  0.00    -0.273 OA 
BRANCH  14  15
HETATM   15  C   UNL     1     -12.269   9.755  70.698  1.00  0.00    -0.202 A  
HETATM   16  C   UNL     1     -11.732  12.474  70.008  1.00  0.00    -0.221 A  
HETATM   17  C   UNL     1     -11.558  10.075  69.550  1.00  0.00    -0.119 A  
HETATM   18  C   UNL     1     -12.800  10.788  71.456  1.00  0.00    -0.567 A  
HETATM   19  C   UNL     1     -11.298  11.404  69.221  1.00  0.00    -0.355 A  
HETATM   20  C   UNL     1     -12.538  12.123  71.107  1.00  0.00    -0.360 A  
BRANCH  16  21
HETATM   21  N   UNL     1     -11.425  13.784  69.674  1.00  0.00    -0.257 NA 
HETATM   22  C   UNL     1     -10.608  14.134  68.496  1.00  0.00    -0.252 C  
HETATM   23  C   UNL     1     -11.236  15.340  67.800  1.00  0.00    -0.327 C  
HETATM   24  C   UNL     1     -11.398  16.516  68.768  1.00  0.00    -0.221 C  
HETATM   25  C   UNL     1     -11.460  14.864  70.665  1.00  0.00    -0.266 C  
HETATM   26  C   UNL     1     -12.155  16.052  70.018  1.00  0.00    -0.140 C  
BRANCH  24  27
HETATM   27  O   UNL     1     -10.080  16.988  69.092  1.00  0.00    -0.283 OA 
BRANCH  27  28
HETATM   28  C   UNL     1      -9.034  16.165  68.782  1.00  0.00    -0.236 A  
HETATM   29  C   UNL     1      -8.364  15.353  69.691  1.00  0.00    -0.127 A  
HETATM   30  C   UNL     1      -7.317  14.540  69.263  1.00  0.00    -0.126 A  
HETATM   31  C   UNL     1      -6.915  14.525  67.931  1.00  0.00    -0.162 A  
HETATM   32  C   UNL     1      -7.574  15.349  67.019  1.00  0.00    -0.195 A  
HETATM   33  C   UNL     1      -8.648  16.148  67.441  1.00  0.00    -0.196 A  
BRANCH  31  34
HETATM   34  O   UNL     1      -5.831  13.751  67.690  1.00  0.00    -0.271 OA 
HETATM   35  C   UNL     1      -5.948  12.339  67.720  1.00  0.00    -0.098 C  
HETATM   36  F   UNL     1      -5.525  11.841  66.537  1.00  0.00    -0.134 F  
HETATM   37  F   UNL     1      -7.191  11.882  67.962  1.00  0.00    -0.073 F  
HETATM   38  F   UNL     1      -5.131  11.862  68.689  1.00  0.00    -0.047 F  
ENDBRANCH  31  34
ENDBRANCH  27  28
ENDBRANCH  24  27
ENDBRANCH  16  21
ENDBRANCH  14  15
ENDBRANCH  13  14
ENDBRANCH   2  13
TORSDOF 7
ENDMDL
MODEL      152
REMARK 921   NORMALIZED FREE ENERGY PREDICTED BY IDOCK:   -2.84 KCAL/MOL
REMARK 922        TOTAL FREE ENERGY PREDICTED BY IDOCK:   -5.48 KCAL/MOL
REMARK 923 INTER-LIGAND FREE ENERGY PREDICTED BY IDOCK:   -7.78 KCAL/MOL
REMARK 924 INTRA-LIGAND FREE ENERGY PREDICTED BY IDOCK:    2.29 KCAL/MOL
REMARK 927      BINDING AFFINITY PREDICTED BY RF-SCORE:    0.00 PKD
ROOT
HETATM    1  C   UNL     1     -12.145   6.136  72.532  1.00  0.00    -0.108 C  
HETATM    2  C   UNL     1     -10.697   6.222  72.056  1.00  0.00    -0.228 C  
HETATM    3  C   UNL     1      -9.182   4.621  72.389  1.00  0.00    -0.125 A  
HETATM    4  C   UNL     1     -10.484   5.494  70.701  1.00  0.00    -0.272 C  
HETATM    5  N   UNL     1      -9.481   4.534  71.078  1.00  0.00    -0.149 NA 
HETATM    6  O   UNL     1      -6.844   1.469  70.437  1.00  0.00    -0.031 OA 
HETATM    7  C   UNL     1      -8.750   3.565  70.506  1.00  0.00    -0.074 A  
HETATM    8  O   UNL     1      -9.853   5.546  73.052  1.00  0.00    -0.160 OA 
HETATM    9  O   UNL     1      -6.449   1.712  72.592  1.00  0.00    -0.009 OA 
HETATM   10  C   UNL     1      -7.993   3.086  71.575  1.00  0.00    -0.056 A  
HETATM   11  N   UNL     1      -8.274   3.767  72.762  1.00  0.00    -0.088 NA 
HETATM   12  N   UNL     1      -7.024   2.013  71.539  1.00  0.00    -0.030 N  
ENDROOT
BRANCH   2  13
HETATM   13  C   UNL     1     -10.226   7.672  71.978  1.00  0.00    -0.197 C  
BRANCH  13  14
HETATM   14  O   UNL     1     -11.319   8.550  71.697  1.00  0.00    -0.259 OA 
BRANCH  14  15
HETATM   15  C   UNL     1     -11.191   9.222  70.513  1.00  0.00    -0.265 A  
HETATM   16  C   UNL     1     -11.040  10.419  67.923  1.00  0.00    -0.299 A  
HETATM   17  C   UNL     1     -11.577  10.540  70.310  1.00  0.00    -0.417 A  
HETATM   18  C   UNL     1     -10.637   8.524  69.449  1.00  0.00    -0.203 A  
HETATM   19  C   UNL     1     -11.502  11.116  69.043  1.00  0.00    -0.364 A  
HETATM   20  C   UNL     1     -10.559   9.121  68.181  1.00  0.00    -0.235 A  
BRANCH  16  21
HETATM   21  N   UNL     1     -11.013  11.008  66.669  1.00  0.00    -0.233 NA 
HETATM   22  C   UNL     1      -9.906  10.800  65.717  1.00  0.00    -0.240 C  
HETATM   23  C   UNL     1     -10.487  10.599  64.318  1.00  0.00    -0.221 C  
HETATM   24  C   UNL     1     -11.389  11.770  63.919  1.00  0.00    -0.411 C  
HETATM   25  C   UNL     1     -11.789  12.213  66.364  1.00  0.00    -0.246 C  
HETATM   26  C   UNL     1     -12.444  12.002  65.007  1.00  0.00     0.087 C  
BRANCH  24  27
HETATM   27  O   UNL     1     -10.544  12.921  63.747  1.00  0.00    -0.390 OA 
BRANCH  27  28
HETATM   28  C   UNL     1     -10.564  13.857  64.743  1.00  0.00    -0.426 A  
HETATM   29  C   UNL     1      -9.546  14.053  65.671  1.00  0.00    -0.090 A  
HETATM   30  C   UNL     1      -9.664  15.048  66.639  1.00  0.00    -0.273 A  
HETATM   31  C   UNL     1     -10.794  15.856  66.706  1.00  0.00    -0.228 A  
HETATM   32  C   UNL     1     -11.824  15.653  65.787  1.00  0.00     0.556 A  
HETATM   33  C   UNL     1     -11.695  14.671  64.793  1.00  0.00    -0.429 A  
BRANCH  31  34
HETATM   34  O   UNL     1     -10.796  16.715  67.752  1.00  0.00    -0.340 OA 
HETATM   35  C   UNL     1     -10.131  17.962  67.647  1.00  0.00    -0.348 C  
HETATM   36  F   UNL     1     -11.014  18.951  67.912  1.00  0.00    -0.410 F  
HETATM   37  F   UNL     1      -9.564  18.199  66.449  1.00  0.00    -0.283 F  
HETATM   38  F   UNL     1      -9.158  18.009  68.587  1.00  0.00    -0.283 F  
ENDBRANCH  31  34
ENDBRANCH  27  28
ENDBRANCH  24  27
ENDBRANCH  16  21
ENDBRANCH  14  15
ENDBRANCH  13  14
ENDBRANCH   2  13
TORSDOF 7
ENDMDL
MODEL      153
REMARK 921   NORMALIZED FREE ENERGY PREDICTED BY IDOCK:   -2.82 KCAL/MOL
REMARK 922        TOTAL FREE ENERGY PREDICTED BY IDOCK:   -5.46 KCAL/MOL
REMARK 923 INTER-LIGAND FREE ENERGY PREDICTED BY IDOCK:   -7.39 KCAL/MOL
REMARK 924 INTRA-LIGAND FREE ENERGY PREDICTED BY IDOCK:    1.93 KCAL/MOL
REMARK 927      BINDING AFFINITY PREDICTED BY RF-SCORE:    0.00 PKD
ROOT
HETATM    1  C   UNL     1     -10.009   6.745  66.712  1.00  0.00    -0.242 C  
HETATM    2  C   UNL     1      -9.107   6.270  67.849  1.00  0.00    -0.111 C  
HETATM    3  C   UNL     1      -9.737   6.187  69.985  1.00  0.00    -0.164 A  
HETATM    4  C   UNL     1      -9.353   4.778  68.204  1.00  0.00    -0.134 C  
HETATM    5  N   UNL     1      -9.715   4.899  69.591  1.00  0.00    -0.177 NA 
HETATM    6  O   UNL     1     -10.815   3.505  73.279  1.00  0.00    -0.185 OA 
HETATM    7  C   UNL     1     -10.046   4.101  70.618  1.00  0.00    -0.008 A  
HETATM    8  O   UNL     1      -9.429   7.062  69.044  1.00  0.00    -0.140 OA 
HETATM    9  O   UNL     1     -10.816   5.648  73.795  1.00  0.00    -0.272 OA 
HETATM   10  C   UNL     1     -10.261   5.012  71.652  1.00  0.00    -0.208 A  
HETATM   11  N   UNL     1     -10.059   6.331  71.237  1.00  0.00    -0.187 NA 
HETATM   12  N   UNL     1     -10.659   4.706  73.008  1.00  0.00    -0.199 N  
ENDROOT
BRANCH   2  13
HETATM   13  C   UNL     1      -7.635   6.521  67.527  1.00  0.00    -0.105 C  
BRANCH  13  14
HETATM   14  O   UNL     1      -7.001   7.253  68.578  1.00  0.00    -0.073 OA 
BRANCH  14  15
HETATM   15  C   UNL     1      -7.177   8.606  68.488  1.00  0.00    -0.081 A  
HETATM   16  C   UNL     1      -7.754  11.382  68.142  1.00  0.00    -0.118 A  
HETATM   17  C   UNL     1      -7.214   9.470  69.573  1.00  0.00    -0.074 A  
HETATM   18  C   UNL     1      -7.331   9.137  67.215  1.00  0.00    -0.087 A  
HETATM   19  C   UNL     1      -7.498  10.823  69.397  1.00  0.00    -0.124 A  
HETATM   20  C   UNL     1      -7.608  10.504  67.052  1.00  0.00    -0.107 A  
BRANCH  16  21
HETATM   21  N   UNL     1      -8.071  12.724  68.003  1.00  0.00    -0.151 NA 
HETATM   22  C   UNL     1      -7.067  13.797  68.136  1.00  0.00    -0.118 C  
HETATM   23  C   UNL     1      -7.303  14.835  67.041  1.00  0.00     0.172 C  
HETATM   24  C   UNL     1      -8.737  15.370  67.084  1.00  0.00    -0.220 C  
HETATM   25  C   UNL     1      -9.438  13.220  68.188  1.00  0.00    -0.222 C  
HETATM   26  C   UNL     1      -9.725  14.197  67.059  1.00  0.00    -0.258 C  
BRANCH  24  27
HETATM   27  O   UNL     1      -8.868  16.145  68.288  1.00  0.00    -0.181 OA 
BRANCH  27  28
HETATM   28  C   UNL     1      -9.984  15.928  69.046  1.00  0.00    -0.233 A  
HETATM   29  C   UNL     1      -9.978  15.636  70.405  1.00  0.00     0.246 A  
HETATM   30  C   UNL     1     -11.179  15.445  71.085  1.00  0.00    -0.410 A  
HETATM   31  C   UNL     1     -12.400  15.535  70.426  1.00  0.00    -0.413 A  
HETATM   32  C   UNL     1     -12.411  15.813  69.060  1.00  0.00     0.121 A  
HETATM   33  C   UNL     1     -11.204  16.034  68.378  1.00  0.00    -0.364 A  
BRANCH  31  34
HETATM   34  O   UNL     1     -13.470  15.240  71.203  1.00  0.00    -0.461 OA 
HETATM   35  C   UNL     1     -13.365  15.325  72.614  1.00  0.00    -0.478 C  
HETATM   36  F   UNL     1     -14.320  16.164  73.072  1.00  0.00    -0.665 F  
HETATM   37  F   UNL     1     -12.168  15.744  73.066  1.00  0.00    -0.421 F  
HETATM   38  F   UNL     1     -13.602  14.097  73.135  1.00  0.00    -0.539 F  
ENDBRANCH  31  34
ENDBRANCH  27  28
ENDBRANCH  24  27
ENDBRANCH  16  21
ENDBRANCH  14  15
ENDBRANCH  13  14
ENDBRANCH   2  13
TORSDOF 7
ENDMDL
MODEL      154
REMARK 921   NORMALIZED FREE ENERGY PREDICTED BY IDOCK:   -2.70 KCAL/MOL
REMARK 922        TOTAL FREE ENERGY PREDICTED BY IDOCK:   -5.28 KCAL/MOL
REMARK 923 INTER-LIGAND FREE ENERGY PREDICTED BY IDOCK:   -9.14 KCAL/MOL
REMARK 924 INTRA-LIGAND FREE ENERGY PREDICTED BY IDOCK:    3.86 KCAL/MOL
REMARK 927      BINDING AFFINITY PREDICTED BY RF-SCORE:    0.00 PKD
ROOT
HETATM    1  C   UNL     1     -14.073   7.392  71.691  1.00  0.00    -0.552 C  
HETATM    2  C   UNL     1     -12.597   7.541  71.332  1.00  0.00    -0.351 C  
HETATM    3  C   UNL     1     -10.927   6.769  72.589  1.00  0.00    -0.257 A  
HETATM    4  C   UNL     1     -12.036   6.273  70.633  1.00  0.00    -0.021 C  
HETATM    5  N   UNL     1     -10.973   5.927  71.539  1.00  0.00    -0.267 NA 
HETATM    6  O   UNL     1      -7.808   3.704  72.876  1.00  0.00    -0.064 OA 
HETATM    7  C   UNL     1     -10.007   5.002  71.651  1.00  0.00    -0.187 A  
HETATM    8  O   UNL     1     -11.843   7.720  72.581  1.00  0.00    -0.330 OA 
HETATM    9  O   UNL     1      -7.841   5.147  74.542  1.00  0.00    -0.095 OA 
HETATM   10  C   UNL     1      -9.382   5.361  72.845  1.00  0.00    -0.137 A  
HETATM   11  N   UNL     1      -9.973   6.484  73.428  1.00  0.00    -0.181 NA 
HETATM   12  N   UNL     1      -8.262   4.693  73.471  1.00  0.00    -0.102 N  
ENDROOT
BRANCH   2  13
HETATM   13  C   UNL     1     -12.359   8.786  70.481  1.00  0.00     0.275 C  
BRANCH  13  14
HETATM   14  O   UNL     1     -12.439   9.971  71.276  1.00  0.00    -0.331 OA 
BRANCH  14  15
HETATM   15  C   UNL     1     -12.066  11.105  70.609  1.00  0.00    -0.379 A  
HETATM   16  C   UNL     1     -11.183  13.560  69.444  1.00  0.00    -0.187 A  
HETATM   17  C   UNL     1     -11.388  11.119  69.398  1.00  0.00    -0.352 A  
HETATM   18  C   UNL     1     -12.394  12.318  71.197  1.00  0.00    -0.251 A  
HETATM   19  C   UNL     1     -10.958  12.321  68.837  1.00  0.00    -0.265 A  
HETATM   20  C   UNL     1     -11.963  13.521  70.616  1.00  0.00    -0.308 A  
BRANCH  16  21
HETATM   21  N   UNL     1     -10.711  14.734  68.880  1.00  0.00    -0.244 NA 
HETATM   22  C   UNL     1     -11.525  15.564  67.973  1.00  0.00    -0.308 C  
HETATM   23  C   UNL     1     -11.323  17.035  68.332  1.00  0.00     0.114 C  
HETATM   24  C   UNL     1      -9.840  17.415  68.298  1.00  0.00    -0.310 C  
HETATM   25  C   UNL     1      -9.277  15.003  68.740  1.00  0.00    -0.200 C  
HETATM   26  C   UNL     1      -9.039  16.442  69.171  1.00  0.00    -0.202 C  
BRANCH  24  27
HETATM   27  O   UNL     1      -9.417  17.365  66.925  1.00  0.00    -0.253 OA 
BRANCH  27  28
HETATM   28  C   UNL     1     -10.061  16.475  66.112  1.00  0.00    -0.348 A  
HETATM   29  C   UNL     1     -11.187  16.765  65.349  1.00  0.00     0.201 A  
HETATM   30  C   UNL     1     -11.757  15.783  64.541  1.00  0.00    -0.191 A  
HETATM   31  C   UNL     1     -11.224  14.499  64.485  1.00  0.00    -0.294 A  
HETATM   32  C   UNL     1     -10.104  14.199  65.261  1.00  0.00    -0.364 A  
HETATM   33  C   UNL     1      -9.511  15.194  66.052  1.00  0.00    -0.358 A  
BRANCH  31  34
HETATM   34  O   UNL     1     -11.940  13.637  63.725  1.00  0.00    -0.443 OA 
HETATM   35  C   UNL     1     -12.309  12.372  64.246  1.00  0.00    -0.455 C  
HETATM   36  F   UNL     1     -13.652  12.244  64.169  1.00  0.00    -0.224 F  
HETATM   37  F   UNL     1     -11.926  12.152  65.517  1.00  0.00    -0.429 F  
HETATM   38  F   UNL     1     -11.754  11.411  63.469  1.00  0.00    -0.491 F  
ENDBRANCH  31  34
ENDBRANCH  27  28
ENDBRANCH  24  27
ENDBRANCH  16  21
ENDBRANCH  14  15
ENDBRANCH  13  14
ENDBRANCH   2  13
TORSDOF 7
ENDMDL
MODEL      155
REMARK 921   NORMALIZED FREE ENERGY PREDICTED BY IDOCK:   -2.69 KCAL/MOL
REMARK 922        TOTAL FREE ENERGY PREDICTED BY IDOCK:   -5.28 KCAL/MOL
REMARK 923 INTER-LIGAND FREE ENERGY PREDICTED BY IDOCK:   -5.17 KCAL/MOL
REMARK 924 INTRA-LIGAND FREE ENERGY PREDICTED BY IDOCK:   -0.11 KCAL/MOL
REMARK 927      BINDING AFFINITY PREDICTED BY RF-SCORE:    0.00 PKD
ROOT
HETATM    1  C   UNL     1      -6.957   6.538  69.472  1.00  0.00    -0.067 C  
HETATM    2  C   UNL     1      -6.889   6.575  67.948  1.00  0.00    -0.074 C  
HETATM    3  C   UNL     1      -7.451   4.863  66.636  1.00  0.00    -0.087 A  
HETATM    4  C   UNL     1      -8.264   6.910  67.310  1.00  0.00    -0.118 C  
HETATM    5  N   UNL     1      -8.461   5.743  66.491  1.00  0.00    -0.114 NA 
HETATM    6  O   UNL     1     -10.455   3.377  63.813  1.00  0.00    -0.215 OA 
HETATM    7  C   UNL     1      -9.363   5.265  65.621  1.00  0.00    -0.114 A  
HETATM    8  O   UNL     1      -6.505   5.236  67.479  1.00  0.00    -0.048 OA 
HETATM    9  O   UNL     1      -8.746   2.024  64.140  1.00  0.00    -0.088 OA 
HETATM   10  C   UNL     1      -8.811   4.037  65.257  1.00  0.00    -0.127 A  
HETATM   11  N   UNL     1      -7.597   3.796  65.906  1.00  0.00    -0.084 NA 
HETATM   12  N   UNL     1      -9.373   3.072  64.337  1.00  0.00    -0.137 N  
ENDROOT
BRANCH   2  13
HETATM   13  C   UNL     1      -5.812   7.545  67.466  1.00  0.00    -0.036 C  
BRANCH  13  14
HETATM   14  O   UNL     1      -5.342   8.361  68.542  1.00  0.00    -0.032 OA 
BRANCH  14  15
HETATM   15  C   UNL     1      -5.782   9.654  68.481  1.00  0.00    -0.039 A  
HETATM   16  C   UNL     1      -6.913  12.265  68.223  1.00  0.00    -0.082 A  
HETATM   17  C   UNL     1      -5.859  10.511  69.570  1.00  0.00    -0.040 A  
HETATM   18  C   UNL     1      -6.178  10.127  67.238  1.00  0.00    -0.059 A  
HETATM   19  C   UNL     1      -6.414  11.783  69.437  1.00  0.00    -0.120 A  
HETATM   20  C   UNL     1      -6.726  11.414  67.118  1.00  0.00    -0.121 A  
BRANCH  16  21
HETATM   21  N   UNL     1      -7.494  13.520  68.131  1.00  0.00    -0.118 NA 
HETATM   22  C   UNL     1      -8.484  14.011  69.108  1.00  0.00     0.260 C  
HETATM   23  C   UNL     1      -8.173  15.470  69.437  1.00  0.00    -0.247 C  
HETATM   24  C   UNL     1      -8.128  16.327  68.169  1.00  0.00    -0.158 C  
HETATM   25  C   UNL     1      -7.554  14.254  66.864  1.00  0.00     0.433 C  
HETATM   26  C   UNL     1      -7.168  15.696  67.154  1.00  0.00    -0.230 C  
BRANCH  24  27
HETATM   27  O   UNL     1      -9.469  16.399  67.655  1.00  0.00    -0.222 OA 
BRANCH  27  28
HETATM   28  C   UNL     1     -10.483  16.135  68.532  1.00  0.00    -0.269 A  
HETATM   29  C   UNL     1     -10.670  16.780  69.749  1.00  0.00    -0.187 A  
HETATM   30  C   UNL     1     -11.749  16.441  70.563  1.00  0.00     0.008 A  
HETATM   31  C   UNL     1     -12.652  15.453  70.185  1.00  0.00    -0.293 A  
HETATM   32  C   UNL     1     -12.460  14.792  68.972  1.00  0.00     0.045 A  
HETATM   33  C   UNL     1     -11.391  15.152  68.137  1.00  0.00    -0.345 A  
BRANCH  31  34
HETATM   34  O   UNL     1     -13.593  15.179  71.119  1.00  0.00    -0.444 OA 
HETATM   35  C   UNL     1     -13.300  14.283  72.178  1.00  0.00    -0.416 C  
HETATM   36  F   UNL     1     -13.516  14.913  73.354  1.00  0.00    -0.525 F  
HETATM   37  F   UNL     1     -12.045  13.796  72.172  1.00  0.00    -0.156 F  
HETATM   38  F   UNL     1     -14.156  13.236  72.102  1.00  0.00    -0.503 F  
ENDBRANCH  31  34
ENDBRANCH  27  28
ENDBRANCH  24  27
ENDBRANCH  16  21
ENDBRANCH  14  15
ENDBRANCH  13  14
ENDBRANCH   2  13
TORSDOF 7
ENDMDL
MODEL      156
REMARK 921   NORMALIZED FREE ENERGY PREDICTED BY IDOCK:   -2.66 KCAL/MOL
REMARK 922        TOTAL FREE ENERGY PREDICTED BY IDOCK:   -5.23 KCAL/MOL
REMARK 923 INTER-LIGAND FREE ENERGY PREDICTED BY IDOCK:   -8.89 KCAL/MOL
REMARK 924 INTRA-LIGAND FREE ENERGY PREDICTED BY IDOCK:    3.66 KCAL/MOL
REMARK 927      BINDING AFFINITY PREDICTED BY RF-SCORE:    0.00 PKD
ROOT
HETATM    1  C   UNL     1     -11.135  11.595  67.004  1.00  0.00    -0.359 C  
HETATM    2  C   UNL     1     -10.299  12.457  66.061  1.00  0.00    -0.251 C  
HETATM    3  C   UNL     1     -10.729  14.600  65.625  1.00  0.00    -0.332 A  
HETATM    4  C   UNL     1      -9.248  13.307  66.825  1.00  0.00    -0.233 C  
HETATM    5  N   UNL     1      -9.642  14.630  66.421  1.00  0.00    -0.286 NA 
HETATM    6  O   UNL     1      -9.372  18.712  66.297  1.00  0.00    -0.373 OA 
HETATM    7  C   UNL     1      -9.248  15.899  66.607  1.00  0.00    -0.252 A  
HETATM    8  O   UNL     1     -11.205  13.392  65.380  1.00  0.00    -0.287 OA 
HETATM    9  O   UNL     1     -11.151  18.526  65.009  1.00  0.00    -0.528 OA 
HETATM   10  C   UNL     1     -10.179  16.619  65.859  1.00  0.00    -0.340 A  
HETATM   11  N   UNL     1     -11.111  15.782  65.239  1.00  0.00    -0.309 NA 
HETATM   12  N   UNL     1     -10.244  18.056  65.707  1.00  0.00    -0.203 N  
ENDROOT
BRANCH   2  13
HETATM   13  C   UNL     1      -9.635  11.607  64.979  1.00  0.00    -0.164 C  
BRANCH  13  14
HETATM   14  O   UNL     1     -10.208  10.299  64.934  1.00  0.00    -0.327 OA 
BRANCH  14  15
HETATM   15  C   UNL     1      -9.754   9.467  65.920  1.00  0.00    -0.282 A  
HETATM   16  C   UNL     1      -8.707   7.946  68.100  1.00  0.00    -0.126 A  
HETATM   17  C   UNL     1     -10.528   8.511  66.563  1.00  0.00    -0.104 A  
HETATM   18  C   UNL     1      -8.425   9.603  66.295  1.00  0.00    -0.125 A  
HETATM   19  C   UNL     1     -10.011   7.774  67.627  1.00  0.00    -0.230 A  
HETATM   20  C   UNL     1      -7.915   8.846  67.363  1.00  0.00    -0.101 A  
BRANCH  16  21
HETATM   21  N   UNL     1      -8.234   7.225  69.184  1.00  0.00    -0.121 NA 
HETATM   22  C   UNL     1      -8.144   5.752  69.181  1.00  0.00    -0.101 C  
HETATM   23  C   UNL     1      -6.820   5.336  69.822  1.00  0.00    -0.056 C  
HETATM   24  C   UNL     1      -6.674   5.927  71.226  1.00  0.00    -0.061 C  
HETATM   25  C   UNL     1      -8.237   7.777  70.542  1.00  0.00    -0.120 C  
HETATM   26  C   UNL     1      -6.893   7.444  71.172  1.00  0.00    -0.050 C  
BRANCH  24  27
HETATM   27  O   UNL     1      -7.647   5.282  72.065  1.00  0.00    -0.093 OA 
BRANCH  27  28
HETATM   28  C   UNL     1      -8.786   5.983  72.343  1.00  0.00    -0.133 A  
HETATM   29  C   UNL     1      -8.827   7.205  73.007  1.00  0.00    -0.153 A  
HETATM   30  C   UNL     1     -10.046   7.842  73.227  1.00  0.00    -0.374 A  
HETATM   31  C   UNL     1     -11.241   7.275  72.799  1.00  0.00    -0.304 A  
HETATM   32  C   UNL     1     -11.208   6.042  72.146  1.00  0.00    -0.341 A  
HETATM   33  C   UNL     1      -9.979   5.412  71.898  1.00  0.00    -0.233 A  
BRANCH  31  34
HETATM   34  O   UNL     1     -12.344   7.971  73.163  1.00  0.00    -0.016 OA 
HETATM   35  C   UNL     1     -13.084   8.686  72.188  1.00  0.00    -0.383 C  
HETATM   36  F   UNL     1     -14.367   8.261  72.217  1.00  0.00    -0.437 F  
HETATM   37  F   UNL     1     -12.619   8.570  70.930  1.00  0.00    -0.249 F  
HETATM   38  F   UNL     1     -13.072   9.999  72.520  1.00  0.00    -0.453 F  
ENDBRANCH  31  34
ENDBRANCH  27  28
ENDBRANCH  24  27
ENDBRANCH  16  21
ENDBRANCH  14  15
ENDBRANCH  13  14
ENDBRANCH   2  13
TORSDOF 7
ENDMDL
MODEL      157
REMARK 921   NORMALIZED FREE ENERGY PREDICTED BY IDOCK:   -2.61 KCAL/MOL
REMARK 922        TOTAL FREE ENERGY PREDICTED BY IDOCK:   -5.15 KCAL/MOL
REMARK 923 INTER-LIGAND FREE ENERGY PREDICTED BY IDOCK:   -5.88 KCAL/MOL
REMARK 924 INTRA-LIGAND FREE ENERGY PREDICTED BY IDOCK:    0.73 KCAL/MOL
REMARK 927      BINDING AFFINITY PREDICTED BY RF-SCORE:    0.00 PKD
ROOT
HETATM    1  C   UNL     1     -10.694  17.632  69.477  1.00  0.00     0.455 C  
HETATM    2  C   UNL     1     -10.049  16.669  68.483  1.00  0.00    -0.266 C  
HETATM    3  C   UNL     1     -11.188  15.183  67.273  1.00  0.00    -0.324 A  
HETATM    4  C   UNL     1     -10.111  17.204  67.027  1.00  0.00    -0.297 C  
HETATM    5  N   UNL     1     -10.837  16.138  66.389  1.00  0.00    -0.200 NA 
HETATM    6  O   UNL     1     -12.594  14.204  63.239  1.00  0.00    -0.766 OA 
HETATM    7  C   UNL     1     -11.277  15.812  65.165  1.00  0.00    -0.248 A  
HETATM    8  O   UNL     1     -10.806  15.409  68.517  1.00  0.00    -0.245 OA 
HETATM    9  O   UNL     1     -13.108  12.716  64.783  1.00  0.00    -0.852 OA 
HETATM   10  C   UNL     1     -11.912  14.590  65.387  1.00  0.00    -0.332 A  
HETATM   11  N   UNL     1     -11.845  14.202  66.727  1.00  0.00    -0.407 NA 
HETATM   12  N   UNL     1     -12.588  13.773  64.403  1.00  0.00    -0.237 N  
ENDROOT
BRANCH   2  13
HETATM   13  C   UNL     1      -8.613  16.340  68.885  1.00  0.00    -0.260 C  
BRANCH  13  14
HETATM   14  O   UNL     1      -8.554  15.112  69.613  1.00  0.00    -0.198 OA 
BRANCH  14  15
HETATM   15  C   UNL     1      -8.331  14.017  68.823  1.00  0.00    -0.048 A  
HETATM   16  C   UNL     1      -7.656  11.678  67.330  1.00  0.00    -0.147 A  
HETATM   17  C   UNL     1      -9.299  13.085  68.477  1.00  0.00    -0.078 A  
HETATM   18  C   UNL     1      -7.041  13.839  68.345  1.00  0.00    -0.105 A  
HETATM   19  C   UNL     1      -8.962  11.945  67.750  1.00  0.00    -0.173 A  
HETATM   20  C   UNL     1      -6.718  12.690  67.606  1.00  0.00    -0.144 A  
BRANCH  16  21
HETATM   21  N   UNL     1      -7.345  10.516  66.640  1.00  0.00    -0.113 NA 
HETATM   22  C   UNL     1      -7.493   9.175  67.236  1.00  0.00    -0.088 C  
HETATM   23  C   UNL     1      -8.100   8.235  66.196  1.00  0.00    -0.111 C  
HETATM   24  C   UNL     1      -7.265   8.215  64.913  1.00  0.00    -0.081 C  
HETATM   25  C   UNL     1      -6.430  10.517  65.496  1.00  0.00    -0.106 C  
HETATM   26  C   UNL     1      -7.054   9.650  64.413  1.00  0.00    -0.118 C  
BRANCH  24  27
HETATM   27  O   UNL     1      -6.015   7.576  65.225  1.00  0.00    -0.037 OA 
BRANCH  27  28
HETATM   28  C   UNL     1      -6.082   6.352  65.830  1.00  0.00    -0.030 A  
HETATM   29  C   UNL     1      -5.315   5.961  66.922  1.00  0.00    -0.005 A  
HETATM   30  C   UNL     1      -5.473   4.690  67.470  1.00  0.00    -0.013 A  
HETATM   31  C   UNL     1      -6.388   3.787  66.939  1.00  0.00    -0.036 A  
HETATM   32  C   UNL     1      -7.148   4.169  65.833  1.00  0.00    -0.067 A  
HETATM   33  C   UNL     1      -7.011   5.458  65.298  1.00  0.00    -0.064 A  
BRANCH  31  34
HETATM   34  O   UNL     1      -6.363   2.567  67.525  1.00  0.00    -0.030 OA 
HETATM   35  C   UNL     1      -6.391   2.459  68.938  1.00  0.00    -0.029 C  
HETATM   36  F   UNL     1      -7.439   1.684  69.295  1.00  0.00    -0.042 F  
HETATM   37  F   UNL     1      -6.480   3.633  69.591  1.00  0.00    -0.029 F  
HETATM   38  F   UNL     1      -5.256   1.840  69.343  1.00  0.00    -0.009 F  
ENDBRANCH  31  34
ENDBRANCH  27  28
ENDBRANCH  24  27
ENDBRANCH  16  21
ENDBRANCH  14  15
ENDBRANCH  13  14
ENDBRANCH   2  13
TORSDOF 7
ENDMDL
MODEL      158
REMARK 921   NORMALIZED FREE ENERGY PREDICTED BY IDOCK:   -2.55 KCAL/MOL
REMARK 922        TOTAL FREE ENERGY PREDICTED BY IDOCK:   -5.08 KCAL/MOL
REMARK 923 INTER-LIGAND FREE ENERGY PREDICTED BY IDOCK:   -8.01 KCAL/MOL
REMARK 924 INTRA-LIGAND FREE ENERGY PREDICTED BY IDOCK:    2.93 KCAL/MOL
REMARK 927      BINDING AFFINITY PREDICTED BY RF-SCORE:    0.00 PKD
ROOT
HETATM    1  C   UNL     1     -14.171   8.145  71.815  1.00  0.00    -0.548 C  
HETATM    2  C   UNL     1     -12.708   8.159  71.378  1.00  0.00    -0.268 C  
HETATM    3  C   UNL     1     -11.033   7.366  72.616  1.00  0.00    -0.317 A  
HETATM    4  C   UNL     1     -12.272   6.804  70.758  1.00  0.00    -0.297 C  
HETATM    5  N   UNL     1     -11.190   6.452  71.639  1.00  0.00    -0.266 NA 
HETATM    6  O   UNL     1      -8.121   4.114  73.005  1.00  0.00    -0.087 OA 
HETATM    7  C   UNL     1     -10.286   5.471  71.781  1.00  0.00    -0.216 A  
HETATM    8  O   UNL     1     -11.881   8.378  72.573  1.00  0.00    -0.391 OA 
HETATM    9  O   UNL     1      -7.970   5.679  74.550  1.00  0.00    -0.103 OA 
HETATM   10  C   UNL     1      -9.578   5.874  72.913  1.00  0.00    -0.155 A  
HETATM   11  N   UNL     1     -10.060   7.079  73.430  1.00  0.00    -0.249 NA 
HETATM   12  N   UNL     1      -8.476   5.177  73.539  1.00  0.00    -0.113 N  
ENDROOT
BRANCH   2  13
HETATM   13  C   UNL     1     -12.429   9.315  70.420  1.00  0.00     0.310 C  
BRANCH  13  14
HETATM   14  O   UNL     1     -12.734  10.570  71.032  1.00  0.00    -0.347 OA 
BRANCH  14  15
HETATM   15  C   UNL     1     -12.223  11.646  70.359  1.00  0.00    -0.347 A  
HETATM   16  C   UNL     1     -11.079  13.987  69.189  1.00  0.00    -0.259 A  
HETATM   17  C   UNL     1     -11.402  11.560  69.244  1.00  0.00    -0.353 A  
HETATM   18  C   UNL     1     -12.558  12.904  70.838  1.00  0.00    -0.355 A  
HETATM   19  C   UNL     1     -10.846  12.706  68.679  1.00  0.00    -0.281 A  
HETATM   20  C   UNL     1     -11.997  14.051  70.254  1.00  0.00    -0.409 A  
BRANCH  16  21
HETATM   21  N   UNL     1     -10.481  15.104  68.628  1.00  0.00    -0.228 NA 
HETATM   22  C   UNL     1      -9.399  15.010  67.629  1.00  0.00    -0.194 C  
HETATM   23  C   UNL     1      -9.649  16.043  66.531  1.00  0.00    -0.283 C  
HETATM   24  C   UNL     1      -9.783  17.452  67.116  1.00  0.00    -0.267 C  
HETATM   25  C   UNL     1     -10.513  16.413  69.288  1.00  0.00    -0.303 C  
HETATM   26  C   UNL     1     -10.841  17.451  68.225  1.00  0.00    -0.256 C  
BRANCH  24  27
HETATM   27  O   UNL     1      -8.490  17.831  67.618  1.00  0.00    -0.225 OA 
BRANCH  27  28
HETATM   28  C   UNL     1      -7.662  16.821  68.021  1.00  0.00    -0.171 A  
HETATM   29  C   UNL     1      -6.925  16.007  67.167  1.00  0.00    -0.242 A  
HETATM   30  C   UNL     1      -6.100  15.013  67.688  1.00  0.00    -0.110 A  
HETATM   31  C   UNL     1      -6.000  14.806  69.059  1.00  0.00    -0.092 A  
HETATM   32  C   UNL     1      -6.749  15.609  69.919  1.00  0.00    -0.096 A  
HETATM   33  C   UNL     1      -7.558  16.630  69.400  1.00  0.00    -0.028 A  
BRANCH  31  34
HETATM   34  O   UNL     1      -5.227  13.749  69.403  1.00  0.00    -0.082 OA 
HETATM   35  C   UNL     1      -5.817  12.475  69.603  1.00  0.00    -0.115 C  
HETATM   36  F   UNL     1      -5.213  11.583  68.786  1.00  0.00    -0.047 F  
HETATM   37  F   UNL     1      -7.145  12.429  69.387  1.00  0.00    -0.083 F  
HETATM   38  F   UNL     1      -5.587  12.093  70.881  1.00  0.00    -0.142 F  
ENDBRANCH  31  34
ENDBRANCH  27  28
ENDBRANCH  24  27
ENDBRANCH  16  21
ENDBRANCH  14  15
ENDBRANCH  13  14
ENDBRANCH   2  13
TORSDOF 7
ENDMDL
MODEL      159
REMARK 921   NORMALIZED FREE ENERGY PREDICTED BY IDOCK:   -2.53 KCAL/MOL
REMARK 922        TOTAL FREE ENERGY PREDICTED BY IDOCK:   -5.04 KCAL/MOL
REMARK 923 INTER-LIGAND FREE ENERGY PREDICTED BY IDOCK:   -5.04 KCAL/MOL
REMARK 924 INTRA-LIGAND FREE ENERGY PREDICTED BY IDOCK:    0.00 KCAL/MOL
REMARK 927      BINDING AFFINITY PREDICTED BY RF-SCORE:    0.00 PKD
ROOT
HETATM    1  C   UNL     1     -12.134   5.451  72.687  1.00  0.00     0.021 C  
HETATM    2  C   UNL     1     -11.037   6.434  72.284  1.00  0.00    -0.265 C  
HETATM    3  C   UNL     1     -11.240   7.915  70.631  1.00  0.00    -0.263 A  
HETATM    4  C   UNL     1     -11.237   7.830  72.933  1.00  0.00    -0.376 C  
HETATM    5  N   UNL     1     -11.320   8.653  71.756  1.00  0.00    -0.299 NA 
HETATM    6  O   UNL     1     -11.706  12.173  69.703  1.00  0.00    -0.303 OA 
HETATM    7  C   UNL     1     -11.459   9.950  71.443  1.00  0.00    -0.321 A  
HETATM    8  O   UNL     1     -11.105   6.616  70.827  1.00  0.00    -0.252 OA 
HETATM    9  O   UNL     1     -11.566  10.854  67.943  1.00  0.00    -0.497 OA 
HETATM   10  C   UNL     1     -11.452   9.927  70.048  1.00  0.00    -0.217 A  
HETATM   11  N   UNL     1     -11.309   8.631  69.547  1.00  0.00     0.150 NA 
HETATM   12  N   UNL     1     -11.583  11.063  69.162  1.00  0.00    -0.292 N  
ENDROOT
BRANCH   2  13
HETATM   13  C   UNL     1      -9.652   5.875  72.602  1.00  0.00    -0.152 C  
BRANCH  13  14
HETATM   14  O   UNL     1      -9.556   4.500  72.223  1.00  0.00    -0.143 OA 
BRANCH  14  15
HETATM   15  C   UNL     1      -8.865   4.300  71.060  1.00  0.00    -0.106 A  
HETATM   16  C   UNL     1      -7.653   3.901  68.504  1.00  0.00    -0.058 A  
HETATM   17  C   UNL     1      -7.717   4.990  70.697  1.00  0.00    -0.074 A  
HETATM   18  C   UNL     1      -9.360   3.337  70.192  1.00  0.00    -0.242 A  
HETATM   19  C   UNL     1      -7.132   4.791  69.447  1.00  0.00    -0.051 A  
HETATM   20  C   UNL     1      -8.755   3.141  68.940  1.00  0.00    -0.137 A  
BRANCH  16  21
HETATM   21  N   UNL     1      -7.071   3.754  67.255  1.00  0.00    -0.058 NA 
HETATM   22  C   UNL     1      -6.734   4.904  66.394  1.00  0.00    -0.050 C  
HETATM   23  C   UNL     1      -5.363   4.666  65.764  1.00  0.00    -0.009 C  
HETATM   24  C   UNL     1      -5.325   3.337  65.005  1.00  0.00    -0.009 C  
HETATM   25  C   UNL     1      -7.173   2.505  66.495  1.00  0.00    -0.064 C  
HETATM   26  C   UNL     1      -5.795   2.205  65.924  1.00  0.00    -0.021 C  
BRANCH  24  27
HETATM   27  O   UNL     1      -6.179   3.477  63.857  1.00  0.00    -0.018 OA 
BRANCH  27  28
HETATM   28  C   UNL     1      -6.511   4.749  63.483  1.00  0.00    -0.026 A  
HETATM   29  C   UNL     1      -5.631   5.667  62.920  1.00  0.00    -0.014 A  
HETATM   30  C   UNL     1      -6.080   6.937  62.563  1.00  0.00    -0.040 A  
HETATM   31  C   UNL     1      -7.403   7.316  62.765  1.00  0.00    -0.090 A  
HETATM   32  C   UNL     1      -8.285   6.403  63.344  1.00  0.00     0.042 A  
HETATM   33  C   UNL     1      -7.843   5.114  63.678  1.00  0.00    -0.088 A  
BRANCH  31  34
HETATM   34  O   UNL     1      -7.662   8.606  62.448  1.00  0.00    -0.111 OA 
HETATM   35  C   UNL     1      -7.961   9.541  63.471  1.00  0.00    -0.139 C  
HETATM   36  F   UNL     1      -7.089  10.571  63.388  1.00  0.00    -0.134 F  
HETATM   37  F   UNL     1      -7.921   9.041  64.720  1.00  0.00    -0.106 F  
HETATM   38  F   UNL     1      -9.205  10.029  63.254  1.00  0.00    -0.228 F  
ENDBRANCH  31  34
ENDBRANCH  27  28
ENDBRANCH  24  27
ENDBRANCH  16  21
ENDBRANCH  14  15
ENDBRANCH  13  14
ENDBRANCH   2  13
TORSDOF 7
ENDMDL
MODEL      160
REMARK 921   NORMALIZED FREE ENERGY PREDICTED BY IDOCK:   -2.51 KCAL/MOL
REMARK 922        TOTAL FREE ENERGY PREDICTED BY IDOCK:   -5.02 KCAL/MOL
REMARK 923 INTER-LIGAND FREE ENERGY PREDICTED BY IDOCK:   -7.06 KCAL/MOL
REMARK 924 INTRA-LIGAND FREE ENERGY PREDICTED BY IDOCK:    2.04 KCAL/MOL
REMARK 927      BINDING AFFINITY PREDICTED BY RF-SCORE:    0.00 PKD
ROOT
HETATM    1  C   UNL     1      -6.009   8.681  73.568  1.00  0.00    -0.117 C  
HETATM    2  C   UNL     1      -7.131   8.273  72.618  1.00  0.00    -0.097 C  
HETATM    3  C   UNL     1      -7.813   6.171  72.328  1.00  0.00    -0.101 A  
HETATM    4  C   UNL     1      -8.491   8.119  73.352  1.00  0.00    -0.239 C  
HETATM    5  N   UNL     1      -8.796   6.746  73.048  1.00  0.00    -0.126 NA 
HETATM    6  O   UNL     1     -11.060   3.338  73.125  1.00  0.00    -0.147 OA 
HETATM    7  C   UNL     1      -9.776   5.859  73.274  1.00  0.00    -0.152 A  
HETATM    8  O   UNL     1      -6.790   6.960  72.052  1.00  0.00    -0.058 OA 
HETATM    9  O   UNL     1      -9.384   2.515  71.954  1.00  0.00    -0.087 OA 
HETATM   10  C   UNL     1      -9.303   4.715  72.632  1.00  0.00    -0.130 A  
HETATM   11  N   UNL     1      -8.059   4.927  72.034  1.00  0.00    -0.109 NA 
HETATM   12  N   UNL     1      -9.958   3.427  72.562  1.00  0.00    -0.152 N  
ENDROOT
BRANCH   2  13
HETATM   13  C   UNL     1      -7.247   9.249  71.449  1.00  0.00     0.080 C  
BRANCH  13  14
HETATM   14  O   UNL     1      -7.853   8.620  70.317  1.00  0.00    -0.085 OA 
BRANCH  14  15
HETATM   15  C   UNL     1      -8.460   9.498  69.462  1.00  0.00    -0.155 A  
HETATM   16  C   UNL     1      -9.904  11.378  67.868  1.00  0.00    -0.179 A  
HETATM   17  C   UNL     1      -7.800  10.496  68.758  1.00  0.00    -0.116 A  
HETATM   18  C   UNL     1      -9.832   9.371  69.299  1.00  0.00    -0.176 A  
HETATM   19  C   UNL     1      -8.512  11.411  67.984  1.00  0.00    -0.145 A  
HETATM   20  C   UNL     1     -10.535  10.294  68.508  1.00  0.00    -0.217 A  
BRANCH  16  21
HETATM   21  N   UNL     1     -10.587  12.325  67.121  1.00  0.00    -0.222 NA 
HETATM   22  C   UNL     1     -10.745  12.220  65.658  1.00  0.00    -0.267 C  
HETATM   23  C   UNL     1     -12.176  12.607  65.287  1.00  0.00    -0.532 C  
HETATM   24  C   UNL     1     -12.528  14.001  65.814  1.00  0.00    -0.494 C  
HETATM   25  C   UNL     1     -10.786  13.695  67.603  1.00  0.00    -0.245 C  
HETATM   26  C   UNL     1     -12.230  14.074  67.316  1.00  0.00    -0.325 C  
BRANCH  24  27
HETATM   27  O   UNL     1     -11.741  14.949  65.072  1.00  0.00    -0.363 OA 
BRANCH  27  28
HETATM   28  C   UNL     1     -10.702  15.541  65.733  1.00  0.00    -0.353 A  
HETATM   29  C   UNL     1      -9.368  15.161  65.621  1.00  0.00    -0.096 A  
HETATM   30  C   UNL     1      -8.384  15.845  66.332  1.00  0.00    -0.310 A  
HETATM   31  C   UNL     1      -8.708  16.909  67.167  1.00  0.00    -0.201 A  
HETATM   32  C   UNL     1     -10.046  17.283  67.295  1.00  0.00    -0.300 A  
HETATM   33  C   UNL     1     -11.036  16.616  66.558  1.00  0.00     0.112 A  
BRANCH  31  34
HETATM   34  O   UNL     1      -7.655  17.412  67.854  1.00  0.00    -0.186 OA 
HETATM   35  C   UNL     1      -6.654  18.149  67.174  1.00  0.00    -0.181 C  
HETATM   36  F   UNL     1      -6.540  19.365  67.752  1.00  0.00    -0.222 F  
HETATM   37  F   UNL     1      -6.874  18.317  65.856  1.00  0.00    -0.246 F  
HETATM   38  F   UNL     1      -5.472  17.504  67.322  1.00  0.00    -0.120 F  
ENDBRANCH  31  34
ENDBRANCH  27  28
ENDBRANCH  24  27
ENDBRANCH  16  21
ENDBRANCH  14  15
ENDBRANCH  13  14
ENDBRANCH   2  13
TORSDOF 7
ENDMDL
MODEL      161
REMARK 921   NORMALIZED FREE ENERGY PREDICTED BY IDOCK:   -2.47 KCAL/MOL
REMARK 922        TOTAL FREE ENERGY PREDICTED BY IDOCK:   -4.95 KCAL/MOL
REMARK 923 INTER-LIGAND FREE ENERGY PREDICTED BY IDOCK:   -5.89 KCAL/MOL
REMARK 924 INTRA-LIGAND FREE ENERGY PREDICTED BY IDOCK:    0.93 KCAL/MOL
REMARK 927      BINDING AFFINITY PREDICTED BY RF-SCORE:    0.00 PKD
ROOT
HETATM    1  C   UNL     1      -8.990   4.991  65.892  1.00  0.00    -0.141 C  
HETATM    2  C   UNL     1      -9.284   4.693  67.360  1.00  0.00    -0.131 C  
HETATM    3  C   UNL     1      -7.979   3.438  68.660  1.00  0.00    -0.061 A  
HETATM    4  C   UNL     1      -8.519   5.650  68.315  1.00  0.00    -0.105 C  
HETATM    5  N   UNL     1      -7.764   4.698  69.085  1.00  0.00    -0.066 NA 
HETATM    6  O   UNL     1      -5.144   3.522  72.001  1.00  0.00     0.000 OA 
HETATM    7  C   UNL     1      -6.895   4.694  70.108  1.00  0.00    -0.037 A  
HETATM    8  O   UNL     1      -8.820   3.328  67.647  1.00  0.00    -0.108 OA 
HETATM    9  O   UNL     1      -5.581   1.511  71.210  1.00  0.00    -0.007 OA 
HETATM   10  C   UNL     1      -6.615   3.337  70.261  1.00  0.00    -0.033 A  
HETATM   11  N   UNL     1      -7.312   2.551  69.339  1.00  0.00    -0.044 NA 
HETATM   12  N   UNL     1      -5.716   2.740  71.225  1.00  0.00    -0.012 N  
ENDROOT
BRANCH   2  13
HETATM   13  C   UNL     1     -10.785   4.725  67.640  1.00  0.00     0.477 C  
BRANCH  13  14
HETATM   14  O   UNL     1     -11.079   5.571  68.754  1.00  0.00    -0.061 OA 
BRANCH  14  15
HETATM   15  C   UNL     1     -10.745   6.881  68.551  1.00  0.00    -0.207 A  
HETATM   16  C   UNL     1     -10.290   9.652  68.023  1.00  0.00    -0.218 A  
HETATM   17  C   UNL     1     -10.189   7.711  69.514  1.00  0.00    -0.209 A  
HETATM   18  C   UNL     1     -10.987   7.403  67.288  1.00  0.00    -0.234 A  
HETATM   19  C   UNL     1      -9.972   9.062  69.250  1.00  0.00    -0.188 A  
HETATM   20  C   UNL     1     -10.754   8.764  67.034  1.00  0.00    -0.186 A  
BRANCH  16  21
HETATM   21  N   UNL     1     -10.098  11.006  67.804  1.00  0.00    -0.175 NA 
HETATM   22  C   UNL     1      -9.060  11.786  68.506  1.00  0.00    -0.144 C  
HETATM   23  C   UNL     1      -8.385  12.724  67.507  1.00  0.00    -0.179 C  
HETATM   24  C   UNL     1      -9.411  13.617  66.805  1.00  0.00    -0.270 C  
HETATM   25  C   UNL     1     -11.155  11.860  67.255  1.00  0.00    -0.288 C  
HETATM   26  C   UNL     1     -10.520  12.749  66.197  1.00  0.00    -0.284 C  
BRANCH  24  27
HETATM   27  O   UNL     1      -9.932  14.526  67.790  1.00  0.00    -0.222 OA 
BRANCH  27  28
HETATM   28  C   UNL     1      -9.490  15.818  67.734  1.00  0.00    -0.212 A  
HETATM   29  C   UNL     1      -9.411  16.680  68.822  1.00  0.00    -0.256 A  
HETATM   30  C   UNL     1      -8.931  17.977  68.654  1.00  0.00    -0.278 A  
HETATM   31  C   UNL     1      -8.531  18.440  67.405  1.00  0.00    -0.253 A  
HETATM   32  C   UNL     1      -8.624  17.584  66.307  1.00  0.00    -0.234 A  
HETATM   33  C   UNL     1      -9.080  16.268  66.478  1.00  0.00    -0.302 A  
BRANCH  31  34
HETATM   34  O   UNL     1      -8.173  19.746  67.389  1.00  0.00    -0.286 OA 
HETATM   35  C   UNL     1      -6.843  20.111  67.063  1.00  0.00    -0.229 C  
HETATM   36  F   UNL     1      -6.871  20.971  66.020  1.00  0.00    -0.250 F  
HETATM   37  F   UNL     1      -6.035  19.080  66.751  1.00  0.00    -0.164 F  
HETATM   38  F   UNL     1      -6.305  20.759  68.123  1.00  0.00    -0.293 F  
ENDBRANCH  31  34
ENDBRANCH  27  28
ENDBRANCH  24  27
ENDBRANCH  16  21
ENDBRANCH  14  15
ENDBRANCH  13  14
ENDBRANCH   2  13
TORSDOF 7
ENDMDL
MODEL      162
REMARK 921   NORMALIZED FREE ENERGY PREDICTED BY IDOCK:   -2.44 KCAL/MOL
REMARK 922        TOTAL FREE ENERGY PREDICTED BY IDOCK:   -4.92 KCAL/MOL
REMARK 923 INTER-LIGAND FREE ENERGY PREDICTED BY IDOCK:   -6.19 KCAL/MOL
REMARK 924 INTRA-LIGAND FREE ENERGY PREDICTED BY IDOCK:    1.27 KCAL/MOL
REMARK 927      BINDING AFFINITY PREDICTED BY RF-SCORE:    0.00 PKD
ROOT
HETATM    1  C   UNL     1      -8.521   9.475  66.192  1.00  0.00    -0.127 C  
HETATM    2  C   UNL     1      -7.705   8.704  67.226  1.00  0.00    -0.097 C  
HETATM    3  C   UNL     1      -8.575   7.771  69.054  1.00  0.00    -0.135 A  
HETATM    4  C   UNL     1      -7.757   7.171  66.986  1.00  0.00    -0.107 C  
HETATM    5  N   UNL     1      -8.304   6.731  68.242  1.00  0.00    -0.118 NA 
HETATM    6  O   UNL     1      -9.623   3.964  70.954  1.00  0.00    -0.163 OA 
HETATM    7  C   UNL     1      -8.632   5.580  68.849  1.00  0.00    -0.100 A  
HETATM    8  O   UNL     1      -8.293   8.959  68.549  1.00  0.00    -0.122 OA 
HETATM    9  O   UNL     1     -10.022   5.750  72.183  1.00  0.00    -0.172 OA 
HETATM   10  C   UNL     1      -9.113   6.015  70.083  1.00  0.00    -0.147 A  
HETATM   11  N   UNL     1      -9.069   7.406  70.201  1.00  0.00    -0.148 NA 
HETATM   12  N   UNL     1      -9.624   5.189  71.155  1.00  0.00    -0.159 N  
ENDROOT
BRANCH   2  13
HETATM   13  C   UNL     1      -6.262   9.202  67.273  1.00  0.00    -0.058 C  
BRANCH  13  14
HETATM   14  O   UNL     1      -5.906   9.612  68.596  1.00  0.00    -0.040 OA 
BRANCH  14  15
HETATM   15  C   UNL     1      -5.865  10.969  68.756  1.00  0.00    -0.039 A  
HETATM   16  C   UNL     1      -5.946  13.822  68.886  1.00  0.00    -0.085 A  
HETATM   17  C   UNL     1      -6.059  11.625  69.964  1.00  0.00    -0.158 A  
HETATM   18  C   UNL     1      -5.614  11.730  67.624  1.00  0.00    -0.067 A  
HETATM   19  C   UNL     1      -6.099  13.018  70.019  1.00  0.00    -0.112 A  
HETATM   20  C   UNL     1      -5.648  13.132  67.696  1.00  0.00    -0.088 A  
BRANCH  16  21
HETATM   21  N   UNL     1      -6.029  15.203  68.967  1.00  0.00    -0.096 NA 
HETATM   22  C   UNL     1      -6.026  15.925  70.254  1.00  0.00    -0.084 C  
HETATM   23  C   UNL     1      -5.134  17.159  70.126  1.00  0.00    -0.204 C  
HETATM   24  C   UNL     1      -5.579  18.046  68.960  1.00  0.00    -0.197 C  
HETATM   25  C   UNL     1      -6.589  16.010  67.880  1.00  0.00    -0.144 C  
HETATM   26  C   UNL     1      -5.671  17.206  67.680  1.00  0.00    -0.144 C  
BRANCH  24  27
HETATM   27  O   UNL     1      -6.852  18.611  69.314  1.00  0.00    -0.278 OA 
BRANCH  27  28
HETATM   28  C   UNL     1      -7.937  18.189  68.599  1.00  0.00    -0.288 A  
HETATM   29  C   UNL     1      -8.913  17.318  69.073  1.00  0.00    -0.083 A  
HETATM   30  C   UNL     1      -9.988  16.962  68.261  1.00  0.00    -0.282 A  
HETATM   31  C   UNL     1     -10.106  17.459  66.967  1.00  0.00    -0.313 A  
HETATM   32  C   UNL     1      -9.123  18.320  66.482  1.00  0.00    -0.291 A  
HETATM   33  C   UNL     1      -8.054  18.702  67.307  1.00  0.00    -0.249 A  
BRANCH  31  34
HETATM   34  O   UNL     1     -11.156  16.953  66.277  1.00  0.00     0.088 OA 
HETATM   35  C   UNL     1     -10.996  15.773  65.509  1.00  0.00    -0.268 C  
HETATM   36  F   UNL     1     -11.902  14.859  65.920  1.00  0.00    -0.337 F  
HETATM   37  F   UNL     1      -9.769  15.222  65.570  1.00  0.00    -0.337 F  
HETATM   38  F   UNL     1     -11.258  16.067  64.213  1.00  0.00    -0.438 F  
ENDBRANCH  31  34
ENDBRANCH  27  28
ENDBRANCH  24  27
ENDBRANCH  16  21
ENDBRANCH  14  15
ENDBRANCH  13  14
ENDBRANCH   2  13
TORSDOF 7
ENDMDL
MODEL      163
REMARK 921   NORMALIZED FREE ENERGY PREDICTED BY IDOCK:   -2.39 KCAL/MOL
REMARK 922        TOTAL FREE ENERGY PREDICTED BY IDOCK:   -4.84 KCAL/MOL
REMARK 923 INTER-LIGAND FREE ENERGY PREDICTED BY IDOCK:   -6.36 KCAL/MOL
REMARK 924 INTRA-LIGAND FREE ENERGY PREDICTED BY IDOCK:    1.52 KCAL/MOL
REMARK 927      BINDING AFFINITY PREDICTED BY RF-SCORE:    0.00 PKD
ROOT
HETATM    1  C   UNL     1      -9.667   1.467  67.198  1.00  0.00     0.366 C  
HETATM    2  C   UNL     1      -8.562   2.519  67.246  1.00  0.00    -0.107 C  
HETATM    3  C   UNL     1      -7.312   3.090  65.491  1.00  0.00    -0.072 A  
HETATM    4  C   UNL     1      -9.056   3.907  66.754  1.00  0.00    -0.150 C  
HETATM    5  N   UNL     1      -8.146   4.134  65.663  1.00  0.00    -0.101 NA 
HETATM    6  O   UNL     1      -6.529   6.245  62.552  1.00  0.00    -0.029 OA 
HETATM    7  C   UNL     1      -7.883   5.084  64.753  1.00  0.00    -0.092 A  
HETATM    8  O   UNL     1      -7.490   2.091  66.336  1.00  0.00    -0.060 OA 
HETATM    9  O   UNL     1      -5.228   4.474  62.375  1.00  0.00    -0.008 OA 
HETATM   10  C   UNL     1      -6.828   4.528  64.031  1.00  0.00    -0.045 A  
HETATM   11  N   UNL     1      -6.474   3.265  64.511  1.00  0.00    -0.033 NA 
HETATM   12  N   UNL     1      -6.141   5.120  62.904  1.00  0.00    -0.021 N  
ENDROOT
BRANCH   2  13
HETATM   13  C   UNL     1      -7.953   2.618  68.643  1.00  0.00    -0.053 C  
BRANCH  13  14
HETATM   14  O   UNL     1      -8.964   2.525  69.648  1.00  0.00    -0.082 OA 
BRANCH  14  15
HETATM   15  C   UNL     1      -9.514   3.731  69.985  1.00  0.00    -0.193 A  
HETATM   16  C   UNL     1     -10.809   6.232  70.467  1.00  0.00    -0.288 A  
HETATM   17  C   UNL     1     -10.035   4.038  71.234  1.00  0.00    -0.202 A  
HETATM   18  C   UNL     1      -9.549   4.705  68.997  1.00  0.00    -0.242 A  
HETATM   19  C   UNL     1     -10.667   5.259  71.462  1.00  0.00    -0.221 A  
HETATM   20  C   UNL     1     -10.180   5.935  69.244  1.00  0.00    -0.275 A  
BRANCH  16  21
HETATM   21  N   UNL     1     -11.476   7.421  70.714  1.00  0.00    -0.284 NA 
HETATM   22  C   UNL     1     -12.948   7.514  70.752  1.00  0.00     0.123 C  
HETATM   23  C   UNL     1     -13.358   8.403  71.924  1.00  0.00    -0.380 C  
HETATM   24  C   UNL     1     -12.688   9.777  71.839  1.00  0.00    -0.410 C  
HETATM   25  C   UNL     1     -10.844   8.724  70.489  1.00  0.00    -0.233 C  
HETATM   26  C   UNL     1     -11.172   9.603  71.686  1.00  0.00    -0.287 C  
BRANCH  24  27
HETATM   27  O   UNL     1     -13.258  10.461  70.710  1.00  0.00    -0.375 OA 
BRANCH  27  28
HETATM   28  C   UNL     1     -12.591  11.563  70.253  1.00  0.00    -0.115 A  
HETATM   29  C   UNL     1     -12.110  11.721  68.957  1.00  0.00    -0.276 A  
HETATM   30  C   UNL     1     -11.454  12.895  68.593  1.00  0.00    -0.346 A  
HETATM   31  C   UNL     1     -11.260  13.923  69.508  1.00  0.00    -0.184 A  
HETATM   32  C   UNL     1     -11.726  13.763  70.813  1.00  0.00    -0.081 A  
HETATM   33  C   UNL     1     -12.413  12.594  71.175  1.00  0.00    -0.326 A  
BRANCH  31  34
HETATM   34  O   UNL     1     -10.531  14.959  69.028  1.00  0.00    -0.233 OA 
HETATM   35  C   UNL     1     -11.045  15.760  67.978  1.00  0.00    -0.337 C  
HETATM   36  F   UNL     1     -11.062  17.050  68.382  1.00  0.00    -0.351 F  
HETATM   37  F   UNL     1     -12.281  15.421  67.564  1.00  0.00    -0.102 F  
HETATM   38  F   UNL     1     -10.208  15.665  66.918  1.00  0.00    -0.257 F  
ENDBRANCH  31  34
ENDBRANCH  27  28
ENDBRANCH  24  27
ENDBRANCH  16  21
ENDBRANCH  14  15
ENDBRANCH  13  14
ENDBRANCH   2  13
TORSDOF 7
ENDMDL
MODEL      164
REMARK 921   NORMALIZED FREE ENERGY PREDICTED BY IDOCK:   -2.35 KCAL/MOL
REMARK 922        TOTAL FREE ENERGY PREDICTED BY IDOCK:   -4.79 KCAL/MOL
REMARK 923 INTER-LIGAND FREE ENERGY PREDICTED BY IDOCK:   -6.45 KCAL/MOL
REMARK 924 INTRA-LIGAND FREE ENERGY PREDICTED BY IDOCK:    1.66 KCAL/MOL
REMARK 927      BINDING AFFINITY PREDICTED BY RF-SCORE:    0.00 PKD
ROOT
HETATM    1  C   UNL     1     -12.889  11.776  70.762  1.00  0.00    -0.164 C  
HETATM    2  C   UNL     1     -11.776  11.672  69.722  1.00  0.00    -0.352 C  
HETATM    3  C   UNL     1     -12.081  11.994  67.538  1.00  0.00     0.147 A  
HETATM    4  C   UNL     1     -11.177  13.060  69.368  1.00  0.00    -0.145 C  
HETATM    5  N   UNL     1     -11.426  13.096  67.952  1.00  0.00    -0.288 NA 
HETATM    6  O   UNL     1     -11.311  14.726  64.199  1.00  0.00    -0.138 OA 
HETATM    7  C   UNL     1     -11.201  13.912  66.911  1.00  0.00    -0.312 A  
HETATM    8  O   UNL     1     -12.358  11.121  68.490  1.00  0.00    -0.561 OA 
HETATM    9  O   UNL     1     -12.383  12.879  63.653  1.00  0.00    -0.594 OA 
HETATM   10  C   UNL     1     -11.769  13.210  65.848  1.00  0.00    -0.384 A  
HETATM   11  N   UNL     1     -12.320  11.994  66.259  1.00  0.00    -0.138 NA 
HETATM   12  N   UNL     1     -11.828  13.629  64.465  1.00  0.00    -0.394 N  
ENDROOT
BRANCH   2  13
HETATM   13  C   UNL     1     -10.686  10.704  70.176  1.00  0.00    -0.087 C  
BRANCH  13  14
HETATM   14  O   UNL     1     -11.243   9.437  70.531  1.00  0.00    -0.248 OA 
BRANCH  14  15
HETATM   15  C   UNL     1     -10.634   8.378  69.914  1.00  0.00    -0.228 A  
HETATM   16  C   UNL     1      -9.587   6.134  68.490  1.00  0.00    -0.119 A  
HETATM   17  C   UNL     1      -9.373   8.423  69.337  1.00  0.00    -0.154 A  
HETATM   18  C   UNL     1     -11.340   7.185  69.870  1.00  0.00    -0.199 A  
HETATM   19  C   UNL     1      -8.870   7.324  68.642  1.00  0.00    -0.129 A  
HETATM   20  C   UNL     1     -10.817   6.083  69.174  1.00  0.00    -0.422 A  
BRANCH  16  21
HETATM   21  N   UNL     1      -9.075   5.073  67.761  1.00  0.00    -0.111 NA 
HETATM   22  C   UNL     1      -7.916   4.281  68.216  1.00  0.00    -0.078 C  
HETATM   23  C   UNL     1      -8.193   2.802  67.953  1.00  0.00    -0.084 C  
HETATM   24  C   UNL     1      -8.528   2.554  66.479  1.00  0.00    -0.099 C  
HETATM   25  C   UNL     1      -9.304   4.943  66.319  1.00  0.00    -0.149 C  
HETATM   26  C   UNL     1      -9.662   3.490  66.044  1.00  0.00    -0.043 C  
BRANCH  24  27
HETATM   27  O   UNL     1      -7.327   2.790  65.723  1.00  0.00    -0.068 OA 
BRANCH  27  28
HETATM   28  C   UNL     1      -7.283   3.933  64.974  1.00  0.00    -0.067 A  
HETATM   29  C   UNL     1      -8.146   4.231  63.926  1.00  0.00    -0.093 A  
HETATM   30  C   UNL     1      -8.020   5.435  63.236  1.00  0.00    -0.099 A  
HETATM   31  C   UNL     1      -7.032   6.355  63.570  1.00  0.00    -0.047 A  
HETATM   32  C   UNL     1      -6.153   6.053  64.611  1.00  0.00    -0.026 A  
HETATM   33  C   UNL     1      -6.297   4.855  65.326  1.00  0.00    -0.035 A  
BRANCH  31  34
HETATM   34  O   UNL     1      -6.983   7.433  62.753  1.00  0.00    -0.067 OA 
HETATM   35  C   UNL     1      -7.524   8.671  63.181  1.00  0.00    -0.106 C  
HETATM   36  F   UNL     1      -6.562   9.617  63.105  1.00  0.00    -0.098 F  
HETATM   37  F   UNL     1      -8.026   8.665  64.431  1.00  0.00    -0.114 F  
HETATM   38  F   UNL     1      -8.520   9.020  62.332  1.00  0.00    -0.158 F  
ENDBRANCH  31  34
ENDBRANCH  27  28
ENDBRANCH  24  27
ENDBRANCH  16  21
ENDBRANCH  14  15
ENDBRANCH  13  14
ENDBRANCH   2  13
TORSDOF 7
ENDMDL
MODEL      165
REMARK 921   NORMALIZED FREE ENERGY PREDICTED BY IDOCK:   -2.29 KCAL/MOL
REMARK 922        TOTAL FREE ENERGY PREDICTED BY IDOCK:   -4.70 KCAL/MOL
REMARK 923 INTER-LIGAND FREE ENERGY PREDICTED BY IDOCK:   -6.02 KCAL/MOL
REMARK 924 INTRA-LIGAND FREE ENERGY PREDICTED BY IDOCK:    1.32 KCAL/MOL
REMARK 927      BINDING AFFINITY PREDICTED BY RF-SCORE:    0.00 PKD
ROOT
HETATM    1  C   UNL     1     -11.660  17.140  70.986  1.00  0.00     1.473 C  
HETATM    2  C   UNL     1     -11.154  16.295  69.820  1.00  0.00    -0.337 C  
HETATM    3  C   UNL     1      -9.469  16.893  68.489  1.00  0.00    -0.266 A  
HETATM    4  C   UNL     1      -9.922  15.435  70.214  1.00  0.00     0.056 C  
HETATM    5  N   UNL     1      -8.956  15.916  69.262  1.00  0.00    -0.254 NA 
HETATM    6  O   UNL     1      -5.299  16.062  67.432  1.00  0.00    -0.231 OA 
HETATM    7  C   UNL     1      -7.682  15.681  68.915  1.00  0.00    -0.181 A  
HETATM    8  O   UNL     1     -10.725  17.208  68.751  1.00  0.00    -0.337 OA 
HETATM    9  O   UNL     1      -6.255  17.648  66.237  1.00  0.00    -0.195 OA 
HETATM   10  C   UNL     1      -7.478  16.588  67.877  1.00  0.00    -0.150 A  
HETATM   11  N   UNL     1      -8.621  17.348  67.614  1.00  0.00    -0.215 NA 
HETATM   12  N   UNL     1      -6.259  16.785  67.124  1.00  0.00    -0.166 N  
ENDROOT
BRANCH   2  13
HETATM   13  C   UNL     1     -12.269  15.424  69.246  1.00  0.00    -0.188 C  
BRANCH  13  14
HETATM   14  O   UNL     1     -11.729  14.316  68.522  1.00  0.00    -0.304 OA 
BRANCH  14  15
HETATM   15  C   UNL     1     -11.980  13.105  69.107  1.00  0.00    -0.281 A  
HETATM   16  C   UNL     1     -12.283  10.487  70.209  1.00  0.00    -0.311 A  
HETATM   17  C   UNL     1     -12.261  12.924  70.453  1.00  0.00    -0.381 A  
HETATM   18  C   UNL     1     -11.944  11.989  68.283  1.00  0.00    -0.244 A  
HETATM   19  C   UNL     1     -12.406  11.644  70.985  1.00  0.00    -0.405 A  
HETATM   20  C   UNL     1     -12.101  10.705  68.831  1.00  0.00    -0.014 A  
BRANCH  16  21
HETATM   21  N   UNL     1     -12.395   9.227  70.774  1.00  0.00    -0.160 NA 
HETATM   22  C   UNL     1     -13.269   8.948  71.930  1.00  0.00    -0.393 C  
HETATM   23  C   UNL     1     -13.990   7.622  71.696  1.00  0.00    -0.510 C  
HETATM   24  C   UNL     1     -12.995   6.489  71.429  1.00  0.00     0.130 C  
HETATM   25  C   UNL     1     -11.353   8.209  70.609  1.00  0.00    -0.249 C  
HETATM   26  C   UNL     1     -12.047   6.893  70.295  1.00  0.00    -0.182 C  
BRANCH  24  27
HETATM   27  O   UNL     1     -12.283   6.249  72.655  1.00  0.00    -0.055 OA 
BRANCH  27  28
HETATM   28  C   UNL     1     -10.941   6.506  72.650  1.00  0.00    -0.255 A  
HETATM   29  C   UNL     1     -10.333   7.575  73.300  1.00  0.00    -0.412 A  
HETATM   30  C   UNL     1      -8.950   7.736  73.241  1.00  0.00    -0.289 A  
HETATM   31  C   UNL     1      -8.153   6.844  72.532  1.00  0.00    -0.102 A  
HETATM   32  C   UNL     1      -8.759   5.779  71.866  1.00  0.00    -0.135 A  
HETATM   33  C   UNL     1     -10.148   5.598  71.948  1.00  0.00    -0.235 A  
BRANCH  31  34
HETATM   34  O   UNL     1      -6.842   7.184  72.497  1.00  0.00    -0.063 OA 
HETATM   35  C   UNL     1      -6.376   8.110  71.531  1.00  0.00    -0.043 C  
HETATM   36  F   UNL     1      -5.762   9.132  72.167  1.00  0.00    -0.065 F  
HETATM   37  F   UNL     1      -7.331   8.614  70.726  1.00  0.00    -0.047 F  
HETATM   38  F   UNL     1      -5.457   7.491  70.752  1.00  0.00    -0.026 F  
ENDBRANCH  31  34
ENDBRANCH  27  28
ENDBRANCH  24  27
ENDBRANCH  16  21
ENDBRANCH  14  15
ENDBRANCH  13  14
ENDBRANCH   2  13
TORSDOF 7
ENDMDL
MODEL      166
REMARK 921   NORMALIZED FREE ENERGY PREDICTED BY IDOCK:   -2.26 KCAL/MOL
REMARK 922        TOTAL FREE ENERGY PREDICTED BY IDOCK:   -4.66 KCAL/MOL
REMARK 923 INTER-LIGAND FREE ENERGY PREDICTED BY IDOCK:   -6.12 KCAL/MOL
REMARK 924 INTRA-LIGAND FREE ENERGY PREDICTED BY IDOCK:    1.46 KCAL/MOL
REMARK 927      BINDING AFFINITY PREDICTED BY RF-SCORE:    0.00 PKD
ROOT
HETATM    1  C   UNL     1     -10.676   5.469  71.461  1.00  0.00    -0.290 C  
HETATM    2  C   UNL     1      -9.886   5.918  70.235  1.00  0.00    -0.185 C  
HETATM    3  C   UNL     1      -9.589   4.662  68.418  1.00  0.00    -0.151 A  
HETATM    4  C   UNL     1     -10.809   6.484  69.121  1.00  0.00    -0.302 C  
HETATM    5  N   UNL     1     -10.480   5.598  68.037  1.00  0.00    -0.210 NA 
HETATM    6  O   UNL     1     -10.715   4.161  64.212  1.00  0.00    -0.215 OA 
HETATM    7  C   UNL     1     -10.805   5.423  66.747  1.00  0.00    -0.106 A  
HETATM    8  O   UNL     1      -9.204   4.740  69.679  1.00  0.00    -0.106 OA 
HETATM    9  O   UNL     1      -9.259   2.685  64.960  1.00  0.00    -0.141 OA 
HETATM   10  C   UNL     1     -10.036   4.316  66.389  1.00  0.00    -0.152 A  
HETATM   11  N   UNL     1      -9.268   3.845  67.457  1.00  0.00    -0.157 NA 
HETATM   12  N   UNL     1      -9.996   3.670  65.096  1.00  0.00    -0.127 N  
ENDROOT
BRANCH   2  13
HETATM   13  C   UNL     1      -8.804   6.926  70.614  1.00  0.00    -0.150 C  
BRANCH  13  14
HETATM   14  O   UNL     1      -8.176   7.465  69.448  1.00  0.00    -0.127 OA 
BRANCH  14  15
HETATM   15  C   UNL     1      -8.162   8.832  69.415  1.00  0.00    -0.108 A  
HETATM   16  C   UNL     1      -7.901  11.670  69.218  1.00  0.00     0.222 A  
HETATM   17  C   UNL     1      -9.223   9.620  68.994  1.00  0.00    -0.156 A  
HETATM   18  C   UNL     1      -6.997   9.459  69.833  1.00  0.00    -0.071 A  
HETATM   19  C   UNL     1      -9.088  11.004  68.898  1.00  0.00    -0.132 A  
HETATM   20  C   UNL     1      -6.878  10.855  69.740  1.00  0.00    -0.134 A  
BRANCH  16  21
HETATM   21  N   UNL     1      -7.785  13.043  69.077  1.00  0.00     0.104 NA 
HETATM   22  C   UNL     1      -8.925  13.903  68.704  1.00  0.00    -0.079 C  
HETATM   23  C   UNL     1      -8.892  15.168  69.561  1.00  0.00    -0.125 C  
HETATM   24  C   UNL     1      -7.548  15.890  69.430  1.00  0.00    -0.210 C  
HETATM   25  C   UNL     1      -6.496  13.689  68.815  1.00  0.00    -0.097 C  
HETATM   26  C   UNL     1      -6.406  14.909  69.718  1.00  0.00    -0.152 C  
BRANCH  24  27
HETATM   27  O   UNL     1      -7.472  16.412  68.092  1.00  0.00    -0.143 OA 
BRANCH  27  28
HETATM   28  C   UNL     1      -8.557  16.209  67.286  1.00  0.00    -0.178 A  
HETATM   29  C   UNL     1      -9.733  16.949  67.334  1.00  0.00    -0.247 A  
HETATM   30  C   UNL     1     -10.775  16.665  66.454  1.00  0.00    -0.123 A  
HETATM   31  C   UNL     1     -10.668  15.640  65.520  1.00  0.00    -0.389 A  
HETATM   32  C   UNL     1      -9.497  14.885  65.479  1.00  0.00    -0.044 A  
HETATM   33  C   UNL     1      -8.435  15.187  66.344  1.00  0.00    -0.034 A  
BRANCH  31  34
HETATM   34  O   UNL     1     -11.795  15.432  64.798  1.00  0.00    -0.280 OA 
HETATM   35  C   UNL     1     -12.493  14.204  64.913  1.00  0.00    -0.401 C  
HETATM   36  F   UNL     1     -13.771  14.461  65.268  1.00  0.00    -0.090 F  
HETATM   37  F   UNL     1     -11.965  13.336  65.796  1.00  0.00    -0.358 F  
HETATM   38  F   UNL     1     -12.510  13.606  63.697  1.00  0.00    -0.475 F  
ENDBRANCH  31  34
ENDBRANCH  27  28
ENDBRANCH  24  27
ENDBRANCH  16  21
ENDBRANCH  14  15
ENDBRANCH  13  14
ENDBRANCH   2  13
TORSDOF 7
ENDMDL
MODEL      167
REMARK 921   NORMALIZED FREE ENERGY PREDICTED BY IDOCK:   -2.24 KCAL/MOL
REMARK 922        TOTAL FREE ENERGY PREDICTED BY IDOCK:   -4.63 KCAL/MOL
REMARK 923 INTER-LIGAND FREE ENERGY PREDICTED BY IDOCK:   -8.42 KCAL/MOL
REMARK 924 INTRA-LIGAND FREE ENERGY PREDICTED BY IDOCK:    3.79 KCAL/MOL
REMARK 927      BINDING AFFINITY PREDICTED BY RF-SCORE:    0.00 PKD
ROOT
HETATM    1  C   UNL     1     -13.442   8.796  71.557  1.00  0.00    -0.358 C  
HETATM    2  C   UNL     1     -12.225   9.306  70.789  1.00  0.00    -0.134 C  
HETATM    3  C   UNL     1     -10.122   9.068  71.491  1.00  0.00    -0.339 A  
HETATM    4  C   UNL     1     -11.569   8.192  69.927  1.00  0.00     0.290 C  
HETATM    5  N   UNL     1     -10.240   8.187  70.478  1.00  0.00    -0.196 NA 
HETATM    6  O   UNL     1      -6.353   6.946  70.789  1.00  0.00    -0.038 OA 
HETATM    7  C   UNL     1      -9.073   7.555  70.284  1.00  0.00    -0.154 A  
HETATM    8  O   UNL     1     -11.222   9.745  71.771  1.00  0.00    -0.260 OA 
HETATM    9  O   UNL     1      -6.292   8.419  72.427  1.00  0.00    -0.071 OA 
HETATM   10  C   UNL     1      -8.252   8.129  71.254  1.00  0.00    -0.116 A  
HETATM   11  N   UNL     1      -8.929   9.089  72.010  1.00  0.00    -0.351 NA 
HETATM   12  N   UNL     1      -6.865   7.813  71.514  1.00  0.00    -0.049 N  
ENDROOT
BRANCH   2  13
HETATM   13  C   UNL     1     -12.580  10.521  69.936  1.00  0.00    -0.058 C  
BRANCH  13  14
HETATM   14  O   UNL     1     -12.413  11.732  70.678  1.00  0.00    -0.324 OA 
BRANCH  14  15
HETATM   15  C   UNL     1     -12.077  12.807  69.903  1.00  0.00    -0.259 A  
HETATM   16  C   UNL     1     -11.201  15.120  68.473  1.00  0.00    -0.293 A  
HETATM   17  C   UNL     1     -11.764  12.738  68.552  1.00  0.00    -0.371 A  
HETATM   18  C   UNL     1     -12.049  14.047  70.525  1.00  0.00    -0.424 A  
HETATM   19  C   UNL     1     -11.335  13.870  67.862  1.00  0.00    -0.320 A  
HETATM   20  C   UNL     1     -11.625  15.181  69.814  1.00  0.00    -0.338 A  
BRANCH  16  21
HETATM   21  N   UNL     1     -10.737  16.220  67.769  1.00  0.00    -0.323 NA 
HETATM   22  C   UNL     1     -10.361  16.150  66.343  1.00  0.00    -0.315 C  
HETATM   23  C   UNL     1     -10.893  17.392  65.630  1.00  0.00    -0.011 C  
HETATM   24  C   UNL     1     -10.395  18.674  66.303  1.00  0.00    -0.444 C  
HETATM   25  C   UNL     1     -10.139  17.375  68.443  1.00  0.00    -0.347 C  
HETATM   26  C   UNL     1     -10.717  18.627  67.802  1.00  0.00    -0.394 C  
BRANCH  24  27
HETATM   27  O   UNL     1      -8.979  18.757  66.069  1.00  0.00    -0.479 OA 
BRANCH  27  28
HETATM   28  C   UNL     1      -8.186  17.883  66.757  1.00  0.00    -0.250 A  
HETATM   29  C   UNL     1      -7.986  16.550  66.413  1.00  0.00    -0.352 A  
HETATM   30  C   UNL     1      -7.142  15.749  67.179  1.00  0.00    -0.225 A  
HETATM   31  C   UNL     1      -6.492  16.255  68.300  1.00  0.00    -0.127 A  
HETATM   32  C   UNL     1      -6.701  17.586  68.658  1.00  0.00    -0.211 A  
HETATM   33  C   UNL     1      -7.527  18.403  67.871  1.00  0.00    -0.245 A  
BRANCH  31  34
HETATM   34  O   UNL     1      -5.778  15.332  68.987  1.00  0.00    -0.097 OA 
HETATM   35  C   UNL     1      -6.436  14.446  69.876  1.00  0.00    -0.152 C  
HETATM   36  F   UNL     1      -6.151  13.175  69.516  1.00  0.00    -0.087 F  
HETATM   37  F   UNL     1      -7.774  14.590  69.928  1.00  0.00    -0.045 F  
HETATM   38  F   UNL     1      -5.944  14.647  71.122  1.00  0.00    -0.158 F  
ENDBRANCH  31  34
ENDBRANCH  27  28
ENDBRANCH  24  27
ENDBRANCH  16  21
ENDBRANCH  14  15
ENDBRANCH  13  14
ENDBRANCH   2  13
TORSDOF 7
ENDMDL
MODEL      168
REMARK 921   NORMALIZED FREE ENERGY PREDICTED BY IDOCK:   -2.24 KCAL/MOL
REMARK 922        TOTAL FREE ENERGY PREDICTED BY IDOCK:   -4.63 KCAL/MOL
REMARK 923 INTER-LIGAND FREE ENERGY PREDICTED BY IDOCK:   -4.85 KCAL/MOL
REMARK 924 INTRA-LIGAND FREE ENERGY PREDICTED BY IDOCK:    0.21 KCAL/MOL
REMARK 927      BINDING AFFINITY PREDICTED BY RF-SCORE:    0.00 PKD
ROOT
HETATM    1  C   UNL     1     -12.355  16.090  69.280  1.00  0.00     0.220 C  
HETATM    2  C   UNL     1     -11.472  15.199  68.410  1.00  0.00    -0.332 C  
HETATM    3  C   UNL     1     -12.242  13.925  66.751  1.00  0.00    -0.399 A  
HETATM    4  C   UNL     1     -11.082  15.889  67.074  1.00  0.00    -0.119 C  
HETATM    5  N   UNL     1     -11.617  14.944  66.130  1.00  0.00    -0.284 NA 
HETATM    6  O   UNL     1     -12.412  13.470  62.396  1.00  0.00     0.410 OA 
HETATM    7  C   UNL     1     -11.682  14.778  64.800  1.00  0.00    -0.422 A  
HETATM    8  O   UNL     1     -12.241  13.993  68.070  1.00  0.00    -0.321 OA 
HETATM    9  O   UNL     1     -13.405  11.863  63.532  1.00  0.00    -0.605 OA 
HETATM   10  C   UNL     1     -12.389  13.582  64.679  1.00  0.00    -0.372 A  
HETATM   11  N   UNL     1     -12.735  13.051  65.923  1.00  0.00    -0.378 NA 
HETATM   12  N   UNL     1     -12.765  12.919  63.450  1.00  0.00    -0.137 N  
ENDROOT
BRANCH   2  13
HETATM   13  C   UNL     1     -10.230  14.739  69.172  1.00  0.00    -0.220 C  
BRANCH  13  14
HETATM   14  O   UNL     1     -10.568  13.756  70.152  1.00  0.00     0.544 OA 
BRANCH  14  15
HETATM   15  C   UNL     1     -10.551  12.475  69.673  1.00  0.00     0.609 A  
HETATM   16  C   UNL     1     -10.274   9.778  68.775  1.00  0.00    -0.194 A  
HETATM   17  C   UNL     1     -11.566  11.549  69.866  1.00  0.00    -0.387 A  
HETATM   18  C   UNL     1      -9.435  12.090  68.946  1.00  0.00     0.132 A  
HETATM   19  C   UNL     1     -11.423  10.234  69.427  1.00  0.00    -0.248 A  
HETATM   20  C   UNL     1      -9.308  10.764  68.501  1.00  0.00    -0.174 A  
BRANCH  16  21
HETATM   21  N   UNL     1     -10.146   8.454  68.383  1.00  0.00    -0.192 NA 
HETATM   22  C   UNL     1      -9.900   7.362  69.344  1.00  0.00    -0.168 C  
HETATM   23  C   UNL     1     -10.771   6.165  68.966  1.00  0.00    -0.377 C  
HETATM   24  C   UNL     1     -10.525   5.736  67.517  1.00  0.00    -0.245 C  
HETATM   25  C   UNL     1      -9.774   8.084  67.015  1.00  0.00    -0.211 C  
HETATM   26  C   UNL     1     -10.685   6.944  66.587  1.00  0.00    -0.161 C  
BRANCH  24  27
HETATM   27  O   UNL     1      -9.196   5.191  67.453  1.00  0.00    -0.113 OA 
BRANCH  27  28
HETATM   28  C   UNL     1      -8.830   4.332  68.451  1.00  0.00    -0.107 A  
HETATM   29  C   UNL     1      -7.815   4.568  69.372  1.00  0.00    -0.062 A  
HETATM   30  C   UNL     1      -7.534   3.627  70.360  1.00  0.00    -0.041 A  
HETATM   31  C   UNL     1      -8.250   2.437  70.444  1.00  0.00    -0.041 A  
HETATM   32  C   UNL     1      -9.258   2.189  69.513  1.00  0.00    -0.179 A  
HETATM   33  C   UNL     1      -9.563   3.148  68.535  1.00  0.00    -0.114 A  
BRANCH  31  34
HETATM   34  O   UNL     1      -7.802   1.590  71.401  1.00  0.00    -0.039 OA 
HETATM   35  C   UNL     1      -7.303   2.103  72.624  1.00  0.00    -0.032 C  
HETATM   36  F   UNL     1      -7.999   1.553  73.643  1.00  0.00    -0.037 F  
HETATM   37  F   UNL     1      -7.359   3.444  72.737  1.00  0.00    -0.044 F  
HETATM   38  F   UNL     1      -6.009   1.726  72.751  1.00  0.00    -0.007 F  
ENDBRANCH  31  34
ENDBRANCH  27  28
ENDBRANCH  24  27
ENDBRANCH  16  21
ENDBRANCH  14  15
ENDBRANCH  13  14
ENDBRANCH   2  13
TORSDOF 7
ENDMDL
MODEL      169
REMARK 921   NORMALIZED FREE ENERGY PREDICTED BY IDOCK:   -2.05 KCAL/MOL
REMARK 922        TOTAL FREE ENERGY PREDICTED BY IDOCK:   -4.37 KCAL/MOL
REMARK 923 INTER-LIGAND FREE ENERGY PREDICTED BY IDOCK:   -6.54 KCAL/MOL
REMARK 924 INTRA-LIGAND FREE ENERGY PREDICTED BY IDOCK:    2.17 KCAL/MOL
REMARK 927      BINDING AFFINITY PREDICTED BY RF-SCORE:    0.00 PKD
ROOT
HETATM    1  C   UNL     1      -8.368   3.031  63.429  1.00  0.00    -0.086 C  
HETATM    2  C   UNL     1      -7.842   3.838  64.613  1.00  0.00    -0.085 C  
HETATM    3  C   UNL     1      -6.782   5.789  64.415  1.00  0.00    -0.046 A  
HETATM    4  C   UNL     1      -8.833   4.952  65.047  1.00  0.00    -0.154 C  
HETATM    5  N   UNL     1      -8.000   6.115  64.890  1.00  0.00    -0.119 NA 
HETATM    6  O   UNL     1      -7.135  10.112  65.041  1.00  0.00    -0.132 OA 
HETATM    7  C   UNL     1      -8.079   7.441  65.075  1.00  0.00    -0.122 A  
HETATM    8  O   UNL     1      -6.598   4.500  64.192  1.00  0.00    -0.040 OA 
HETATM    9  O   UNL     1      -5.183   9.448  64.261  1.00  0.00    -0.056 OA 
HETATM   10  C   UNL     1      -6.816   7.878  64.678  1.00  0.00    -0.062 A  
HETATM   11  N   UNL     1      -6.002   6.820  64.265  1.00  0.00    -0.035 NA 
HETATM   12  N   UNL     1      -6.337   9.243  64.656  1.00  0.00    -0.074 N  
ENDROOT
BRANCH   2  13
HETATM   13  C   UNL     1      -7.491   2.929  65.789  1.00  0.00    -0.072 C  
BRANCH  13  14
HETATM   14  O   UNL     1      -6.783   3.651  66.799  1.00  0.00    -0.044 OA 
BRANCH  14  15
HETATM   15  C   UNL     1      -7.599   4.349  67.646  1.00  0.00    -0.077 A  
HETATM   16  C   UNL     1      -9.333   5.582  69.553  1.00  0.00    -0.130 A  
HETATM   17  C   UNL     1      -7.276   5.569  68.223  1.00  0.00    -0.071 A  
HETATM   18  C   UNL     1      -8.831   3.784  67.941  1.00  0.00    -0.138 A  
HETATM   19  C   UNL     1      -8.126   6.163  69.154  1.00  0.00    -0.109 A  
HETATM   20  C   UNL     1      -9.682   4.399  68.874  1.00  0.00    -0.211 A  
BRANCH  16  21
HETATM   21  N   UNL     1     -10.138   6.179  70.509  1.00  0.00    -0.184 NA 
HETATM   22  C   UNL     1     -11.150   7.199  70.172  1.00  0.00    -0.272 C  
HETATM   23  C   UNL     1     -12.422   6.917  70.971  1.00  0.00    -0.364 C  
HETATM   24  C   UNL     1     -12.131   6.857  72.473  1.00  0.00     0.015 C  
HETATM   25  C   UNL     1      -9.759   6.221  71.924  1.00  0.00    -0.152 C  
HETATM   26  C   UNL     1     -10.993   5.864  72.738  1.00  0.00    -0.303 C  
BRANCH  24  27
HETATM   27  O   UNL     1     -11.781   8.187  72.894  1.00  0.00    -0.373 OA 
BRANCH  27  28
HETATM   28  C   UNL     1     -11.815   9.166  71.942  1.00  0.00    -0.369 A  
HETATM   29  C   UNL     1     -12.971   9.781  71.473  1.00  0.00    -0.504 A  
HETATM   30  C   UNL     1     -12.889  10.781  70.507  1.00  0.00    -0.335 A  
HETATM   31  C   UNL     1     -11.663  11.180  69.987  1.00  0.00    -0.356 A  
HETATM   32  C   UNL     1     -10.502  10.555  70.442  1.00  0.00     0.131 A  
HETATM   33  C   UNL     1     -10.578   9.568  71.436  1.00  0.00    -0.307 A  
BRANCH  31  34
HETATM   34  O   UNL     1     -11.755  12.098  68.996  1.00  0.00    -0.283 OA 
HETATM   35  C   UNL     1     -11.169  11.838  67.732  1.00  0.00    -0.266 C  
HETATM   36  F   UNL     1     -12.122  11.944  66.779  1.00  0.00    -0.328 F  
HETATM   37  F   UNL     1     -10.579  10.633  67.621  1.00  0.00    -0.217 F  
HETATM   38  F   UNL     1     -10.232  12.786  67.492  1.00  0.00    -0.209 F  
ENDBRANCH  31  34
ENDBRANCH  27  28
ENDBRANCH  24  27
ENDBRANCH  16  21
ENDBRANCH  14  15
ENDBRANCH  13  14
ENDBRANCH   2  13
TORSDOF 7
ENDMDL
MODEL      170
REMARK 921   NORMALIZED FREE ENERGY PREDICTED BY IDOCK:   -2.03 KCAL/MOL
REMARK 922        TOTAL FREE ENERGY PREDICTED BY IDOCK:   -4.35 KCAL/MOL
REMARK 923 INTER-LIGAND FREE ENERGY PREDICTED BY IDOCK:   -5.31 KCAL/MOL
REMARK 924 INTRA-LIGAND FREE ENERGY PREDICTED BY IDOCK:    0.96 KCAL/MOL
REMARK 927      BINDING AFFINITY PREDICTED BY RF-SCORE:    0.00 PKD
ROOT
HETATM    1  C   UNL     1      -5.699   6.363  70.215  1.00  0.00    -0.018 C  
HETATM    2  C   UNL     1      -6.193   6.848  68.854  1.00  0.00    -0.027 C  
HETATM    3  C   UNL     1      -7.230   5.546  67.372  1.00  0.00    -0.075 A  
HETATM    4  C   UNL     1      -7.700   7.223  68.879  1.00  0.00    -0.116 C  
HETATM    5  N   UNL     1      -8.205   6.331  67.870  1.00  0.00    -0.114 NA 
HETATM    6  O   UNL     1     -11.088   4.670  65.487  1.00  0.00    -0.200 OA 
HETATM    7  C   UNL     1      -9.373   6.044  67.274  1.00  0.00    -0.113 A  
HETATM    8  O   UNL     1      -6.034   5.744  67.896  1.00  0.00    -0.016 OA 
HETATM    9  O   UNL     1      -9.405   3.446  64.759  1.00  0.00    -0.136 OA 
HETATM   10  C   UNL     1      -9.016   5.032  66.383  1.00  0.00    -0.123 A  
HETATM   11  N   UNL     1      -7.655   4.728  66.453  1.00  0.00    -0.086 NA 
HETATM   12  N   UNL     1      -9.895   4.328  65.475  1.00  0.00    -0.200 N  
ENDROOT
BRANCH   2  13
HETATM   13  C   UNL     1      -5.347   8.012  68.343  1.00  0.00    -0.032 C  
BRANCH  13  14
HETATM   14  O   UNL     1      -5.264   9.051  69.321  1.00  0.00    -0.035 OA 
BRANCH  14  15
HETATM   15  C   UNL     1      -6.007  10.156  69.011  1.00  0.00    -0.037 A  
HETATM   16  C   UNL     1      -7.332  12.599  68.350  1.00  0.00    -0.118 A  
HETATM   17  C   UNL     1      -6.992  10.194  68.033  1.00  0.00    -0.082 A  
HETATM   18  C   UNL     1      -5.746  11.313  69.731  1.00  0.00    -0.077 A  
HETATM   19  C   UNL     1      -7.632  11.390  67.715  1.00  0.00    -0.105 A  
HETATM   20  C   UNL     1      -6.406  12.508  69.406  1.00  0.00    -0.114 A  
BRANCH  16  21
HETATM   21  N   UNL     1      -7.960  13.779  67.984  1.00  0.00    -0.141 NA 
HETATM   22  C   UNL     1      -7.248  15.070  67.915  1.00  0.00    -0.149 C  
HETATM   23  C   UNL     1      -7.696  15.815  66.659  1.00  0.00    -0.140 C  
HETATM   24  C   UNL     1      -9.218  15.985  66.628  1.00  0.00    -0.249 C  
HETATM   25  C   UNL     1      -9.411  13.952  68.098  1.00  0.00    -0.203 C  
HETATM   26  C   UNL     1      -9.892  14.621  66.820  1.00  0.00    -0.262 C  
BRANCH  24  27
HETATM   27  O   UNL     1      -9.567  16.900  67.680  1.00  0.00    -0.243 OA 
BRANCH  27  28
HETATM   28  C   UNL     1     -10.509  16.482  68.576  1.00  0.00    -0.302 A  
HETATM   29  C   UNL     1     -11.788  16.046  68.243  1.00  0.00     0.001 A  
HETATM   30  C   UNL     1     -12.666  15.627  69.239  1.00  0.00     0.436 A  
HETATM   31  C   UNL     1     -12.293  15.640  70.579  1.00  0.00    -0.403 A  
HETATM   32  C   UNL     1     -11.018  16.090  70.920  1.00  0.00    -0.169 A  
HETATM   33  C   UNL     1     -10.121  16.486  69.917  1.00  0.00     0.111 A  
BRANCH  31  34
HETATM   34  O   UNL     1     -13.285  15.287  71.431  1.00  0.00    -0.402 OA 
HETATM   35  C   UNL     1     -13.277  14.004  72.033  1.00  0.00    -0.412 C  
HETATM   36  F   UNL     1     -13.315  14.152  73.376  1.00  0.00    -0.508 F  
HETATM   37  F   UNL     1     -12.218  13.237  71.713  1.00  0.00    -0.237 F  
HETATM   38  F   UNL     1     -14.400  13.347  71.654  1.00  0.00    -0.217 F  
ENDBRANCH  31  34
ENDBRANCH  27  28
ENDBRANCH  24  27
ENDBRANCH  16  21
ENDBRANCH  14  15
ENDBRANCH  13  14
ENDBRANCH   2  13
TORSDOF 7
ENDMDL
MODEL      171
REMARK 921   NORMALIZED FREE ENERGY PREDICTED BY IDOCK:   -1.92 KCAL/MOL
REMARK 922        TOTAL FREE ENERGY PREDICTED BY IDOCK:   -4.19 KCAL/MOL
REMARK 923 INTER-LIGAND FREE ENERGY PREDICTED BY IDOCK:   -4.78 KCAL/MOL
REMARK 924 INTRA-LIGAND FREE ENERGY PREDICTED BY IDOCK:    0.59 KCAL/MOL
REMARK 927      BINDING AFFINITY PREDICTED BY RF-SCORE:    0.00 PKD
ROOT
HETATM    1  C   UNL     1     -11.861   5.325  66.090  1.00  0.00     2.291 C  
HETATM    2  C   UNL     1     -10.434   5.382  66.631  1.00  0.00    -0.298 C  
HETATM    3  C   UNL     1      -8.848   3.905  66.112  1.00  0.00    -0.124 A  
HETATM    4  C   UNL     1      -9.461   6.074  65.638  1.00  0.00     0.194 C  
HETATM    5  N   UNL     1      -8.506   5.017  65.433  1.00  0.00    -0.131 NA 
HETATM    6  O   UNL     1      -5.136   3.309  63.860  1.00  0.00    -0.007 OA 
HETATM    7  C   UNL     1      -7.367   4.808  64.756  1.00  0.00    -0.071 A  
HETATM    8  O   UNL     1      -9.964   4.001  66.812  1.00  0.00    -0.195 OA 
HETATM    9  O   UNL     1      -5.807   1.556  65.015  1.00  0.00    -0.012 OA 
HETATM   10  C   UNL     1      -7.056   3.489  65.087  1.00  0.00    -0.065 A  
HETATM   11  N   UNL     1      -8.002   2.930  65.949  1.00  0.00    -0.081 NA 
HETATM   12  N   UNL     1      -5.919   2.724  64.624  1.00  0.00    -0.018 N  
ENDROOT
BRANCH   2  13
HETATM   13  C   UNL     1     -10.389   6.056  68.000  1.00  0.00    -0.202 C  
BRANCH  13  14
HETATM   14  O   UNL     1      -9.164   6.770  68.178  1.00  0.00    -0.124 OA 
BRANCH  14  15
HETATM   15  C   UNL     1      -9.320   8.128  68.204  1.00  0.00    -0.133 A  
HETATM   16  C   UNL     1      -9.907  10.924  68.223  1.00  0.00    -0.170 A  
HETATM   17  C   UNL     1      -8.789   8.964  69.176  1.00  0.00    -0.136 A  
HETATM   18  C   UNL     1     -10.066   8.695  67.180  1.00  0.00    -0.329 A  
HETATM   19  C   UNL     1      -9.082  10.327  69.180  1.00  0.00    -0.199 A  
HETATM   20  C   UNL     1     -10.345  10.072  67.192  1.00  0.00    -0.300 A  
BRANCH  16  21
HETATM   21  N   UNL     1     -10.209  12.276  68.276  1.00  0.00    -0.216 NA 
HETATM   22  C   UNL     1      -9.434  13.293  67.541  1.00  0.00    -0.220 C  
HETATM   23  C   UNL     1     -10.402  14.300  66.921  1.00  0.00    -0.268 C  
HETATM   24  C   UNL     1     -11.316  14.916  67.983  1.00  0.00    -0.324 C  
HETATM   25  C   UNL     1     -10.973  12.855  69.384  1.00  0.00     0.012 C  
HETATM   26  C   UNL     1     -12.000  13.802  68.784  1.00  0.00    -0.400 C  
BRANCH  24  27
HETATM   27  O   UNL     1     -10.495  15.745  68.825  1.00  0.00    -0.215 OA 
BRANCH  27  28
HETATM   28  C   UNL     1      -9.927  16.844  68.245  1.00  0.00    -0.282 A  
HETATM   29  C   UNL     1      -9.416  16.888  66.953  1.00  0.00    -0.261 A  
HETATM   30  C   UNL     1      -8.870  18.070  66.456  1.00  0.00    -0.276 A  
HETATM   31  C   UNL     1      -8.818  19.221  67.235  1.00  0.00    -0.292 A  
HETATM   32  C   UNL     1      -9.316  19.178  68.537  1.00  0.00    -0.426 A  
HETATM   33  C   UNL     1      -9.892  17.998  69.030  1.00  0.00    -0.249 A  
BRANCH  31  34
HETATM   34  O   UNL     1      -8.181  20.260  66.643  1.00  0.00    -0.296 OA 
HETATM   35  C   UNL     1      -6.872  20.087  66.127  1.00  0.00    -0.239 C  
HETATM   36  F   UNL     1      -6.871  20.428  64.819  1.00  0.00    -0.322 F  
HETATM   37  F   UNL     1      -6.378  18.841  66.250  1.00  0.00    -0.180 F  
HETATM   38  F   UNL     1      -6.041  20.933  66.780  1.00  0.00    -0.216 F  
ENDBRANCH  31  34
ENDBRANCH  27  28
ENDBRANCH  24  27
ENDBRANCH  16  21
ENDBRANCH  14  15
ENDBRANCH  13  14
ENDBRANCH   2  13
TORSDOF 7
ENDMDL
MODEL      172
REMARK 921   NORMALIZED FREE ENERGY PREDICTED BY IDOCK:   -1.77 KCAL/MOL
REMARK 922        TOTAL FREE ENERGY PREDICTED BY IDOCK:   -3.98 KCAL/MOL
REMARK 923 INTER-LIGAND FREE ENERGY PREDICTED BY IDOCK:   -5.61 KCAL/MOL
REMARK 924 INTRA-LIGAND FREE ENERGY PREDICTED BY IDOCK:    1.63 KCAL/MOL
REMARK 927      BINDING AFFINITY PREDICTED BY RF-SCORE:    0.00 PKD
ROOT
HETATM    1  C   UNL     1      -8.130   7.440  68.916  1.00  0.00    -0.127 C  
HETATM    2  C   UNL     1      -7.403   6.999  67.648  1.00  0.00    -0.096 C  
HETATM    3  C   UNL     1      -7.577   4.962  66.760  1.00  0.00    -0.088 A  
HETATM    4  C   UNL     1      -8.303   7.116  66.388  1.00  0.00    -0.125 C  
HETATM    5  N   UNL     1      -8.288   5.752  65.932  1.00  0.00    -0.124 NA 
HETATM    6  O   UNL     1      -9.237   2.666  63.416  1.00  0.00    -0.095 OA 
HETATM    7  C   UNL     1      -8.782   5.025  64.918  1.00  0.00    -0.150 A  
HETATM    8  O   UNL     1      -7.048   5.581  67.800  1.00  0.00    -0.068 OA 
HETATM    9  O   UNL     1      -8.050   1.484  64.850  1.00  0.00    -0.071 OA 
HETATM   10  C   UNL     1      -8.306   3.746  65.204  1.00  0.00    -0.101 A  
HETATM   11  N   UNL     1      -7.542   3.721  66.373  1.00  0.00    -0.083 NA 
HETATM   12  N   UNL     1      -8.545   2.541  64.439  1.00  0.00    -0.090 N  
ENDROOT
BRANCH   2  13
HETATM   13  C   UNL     1      -6.098   7.771  67.463  1.00  0.00    -0.049 C  
BRANCH  13  14
HETATM   14  O   UNL     1      -5.699   8.400  68.683  1.00  0.00    -0.035 OA 
BRANCH  14  15
HETATM   15  C   UNL     1      -5.927   9.748  68.705  1.00  0.00    -0.042 A  
HETATM   16  C   UNL     1      -6.661  12.509  68.719  1.00  0.00    -0.089 A  
HETATM   17  C   UNL     1      -5.428  10.616  69.666  1.00  0.00    -0.039 A  
HETATM   18  C   UNL     1      -6.716  10.269  67.689  1.00  0.00    -0.074 A  
HETATM   19  C   UNL     1      -5.792  11.961  69.667  1.00  0.00    -0.100 A  
HETATM   20  C   UNL     1      -7.067  11.628  67.699  1.00  0.00    -0.095 A  
BRANCH  16  21
HETATM   21  N   UNL     1      -7.034  13.842  68.771  1.00  0.00    -0.103 NA 
HETATM   22  C   UNL     1      -8.429  14.286  68.582  1.00  0.00    -0.142 C  
HETATM   23  C   UNL     1      -8.745  15.372  69.608  1.00  0.00    -0.134 C  
HETATM   24  C   UNL     1      -7.747  16.530  69.516  1.00  0.00     0.119 C  
HETATM   25  C   UNL     1      -6.073  14.924  68.541  1.00  0.00    -0.093 C  
HETATM   26  C   UNL     1      -6.317  15.984  69.604  1.00  0.00    -0.186 C  
BRANCH  24  27
HETATM   27  O   UNL     1      -7.982  17.198  68.265  1.00  0.00    -0.217 OA 
BRANCH  27  28
HETATM   28  C   UNL     1      -8.949  16.672  67.455  1.00  0.00    -0.196 A  
HETATM   29  C   UNL     1     -10.307  16.639  67.754  1.00  0.00    -0.306 A  
HETATM   30  C   UNL     1     -11.210  16.090  66.847  1.00  0.00     0.065 A  
HETATM   31  C   UNL     1     -10.780  15.559  65.636  1.00  0.00    -0.366 A  
HETATM   32  C   UNL     1      -9.418  15.575  65.338  1.00  0.00    -0.033 A  
HETATM   33  C   UNL     1      -8.509  16.154  66.236  1.00  0.00    -0.357 A  
BRANCH  31  34
HETATM   34  O   UNL     1     -11.764  14.985  64.904  1.00  0.00    -0.377 OA 
HETATM   35  C   UNL     1     -11.969  13.584  64.967  1.00  0.00    -0.372 C  
HETATM   36  F   UNL     1     -13.249  13.347  65.331  1.00  0.00    -0.465 F  
HETATM   37  F   UNL     1     -11.151  12.933  65.815  1.00  0.00    -0.290 F  
HETATM   38  F   UNL     1     -11.785  13.068  63.728  1.00  0.00    -0.415 F  
ENDBRANCH  31  34
ENDBRANCH  27  28
ENDBRANCH  24  27
ENDBRANCH  16  21
ENDBRANCH  14  15
ENDBRANCH  13  14
ENDBRANCH   2  13
TORSDOF 7
ENDMDL
MODEL      173
REMARK 921   NORMALIZED FREE ENERGY PREDICTED BY IDOCK:   -1.55 KCAL/MOL
REMARK 922        TOTAL FREE ENERGY PREDICTED BY IDOCK:   -3.67 KCAL/MOL
REMARK 923 INTER-LIGAND FREE ENERGY PREDICTED BY IDOCK:   -7.33 KCAL/MOL
REMARK 924 INTRA-LIGAND FREE ENERGY PREDICTED BY IDOCK:    3.66 KCAL/MOL
REMARK 927      BINDING AFFINITY PREDICTED BY RF-SCORE:    0.00 PKD
ROOT
HETATM    1  C   UNL     1     -10.841   6.429  68.465  1.00  0.00    -0.382 C  
HETATM    2  C   UNL     1      -9.478   6.145  67.838  1.00  0.00    -0.115 C  
HETATM    3  C   UNL     1      -9.048   4.382  66.543  1.00  0.00    -0.123 A  
HETATM    4  C   UNL     1      -9.392   6.653  66.373  1.00  0.00    -0.139 C  
HETATM    5  N   UNL     1      -9.088   5.424  65.690  1.00  0.00    -0.158 NA 
HETATM    6  O   UNL     1      -8.239   3.096  62.433  1.00  0.00    -0.071 OA 
HETATM    7  C   UNL     1      -8.835   5.003  64.442  1.00  0.00    -0.084 A  
HETATM    8  O   UNL     1      -9.290   4.687  67.806  1.00  0.00    -0.127 OA 
HETATM    9  O   UNL     1      -8.205   1.479  63.930  1.00  0.00    -0.064 OA 
HETATM   10  C   UNL     1      -8.637   3.634  64.619  1.00  0.00    -0.104 A  
HETATM   11  N   UNL     1      -8.773   3.254  65.956  1.00  0.00    -0.121 NA 
HETATM   12  N   UNL     1      -8.338   2.661  63.591  1.00  0.00    -0.085 N  
ENDROOT
BRANCH   2  13
HETATM   13  C   UNL     1      -8.348   6.725  68.686  1.00  0.00    -0.120 C  
BRANCH  13  14
HETATM   14  O   UNL     1      -7.438   7.476  67.880  1.00  0.00    -0.099 OA 
BRANCH  14  15
HETATM   15  C   UNL     1      -7.682   8.822  67.888  1.00  0.00    -0.102 A  
HETATM   16  C   UNL     1      -8.115  11.633  68.159  1.00  0.00    -0.148 A  
HETATM   17  C   UNL     1      -7.209   9.714  66.936  1.00  0.00    -0.090 A  
HETATM   18  C   UNL     1      -8.456   9.315  68.929  1.00  0.00    -0.129 A  
HETATM   19  C   UNL     1      -7.422  11.084  67.076  1.00  0.00    -0.127 A  
HETATM   20  C   UNL     1      -8.671  10.697  69.052  1.00  0.00    -0.152 A  
BRANCH  16  21
HETATM   21  N   UNL     1      -8.278  13.003  68.289  1.00  0.00    -0.151 NA 
HETATM   22  C   UNL     1      -9.605  13.640  68.386  1.00  0.00    -0.203 C  
HETATM   23  C   UNL     1      -9.555  14.726  69.460  1.00  0.00     0.055 C  
HETATM   24  C   UNL     1      -8.441  15.737  69.174  1.00  0.00    -0.251 C  
HETATM   25  C   UNL     1      -7.238  13.949  67.876  1.00  0.00    -0.158 C  
HETATM   26  C   UNL     1      -7.114  14.997  68.970  1.00  0.00    -0.133 C  
BRANCH  24  27
HETATM   27  O   UNL     1      -8.823  16.472  67.998  1.00  0.00    -0.191 OA 
BRANCH  27  28
HETATM   28  C   UNL     1      -9.729  15.879  67.165  1.00  0.00    -0.224 A  
HETATM   29  C   UNL     1      -9.444  15.402  65.890  1.00  0.00    -0.369 A  
HETATM   30  C   UNL     1     -10.443  14.800  65.128  1.00  0.00    -0.443 A  
HETATM   31  C   UNL     1     -11.739  14.669  65.617  1.00  0.00    -0.304 A  
HETATM   32  C   UNL     1     -12.033  15.159  66.889  1.00  0.00     0.109 A  
HETATM   33  C   UNL     1     -11.022  15.740  67.669  1.00  0.00    -0.302 A  
BRANCH  31  34
HETATM   34  O   UNL     1     -12.614  14.143  64.727  1.00  0.00    -0.608 OA 
HETATM   35  C   UNL     1     -12.390  12.849  64.194  1.00  0.00    -0.376 C  
HETATM   36  F   UNL     1     -13.473  12.081  64.444  1.00  0.00    -0.368 F  
HETATM   37  F   UNL     1     -11.297  12.224  64.672  1.00  0.00    -0.327 F  
HETATM   38  F   UNL     1     -12.256  12.957  62.851  1.00  0.00    -0.547 F  
ENDBRANCH  31  34
ENDBRANCH  27  28
ENDBRANCH  24  27
ENDBRANCH  16  21
ENDBRANCH  14  15
ENDBRANCH  13  14
ENDBRANCH   2  13
TORSDOF 7
ENDMDL
MODEL      174
REMARK 921   NORMALIZED FREE ENERGY PREDICTED BY IDOCK:   -1.54 KCAL/MOL
REMARK 922        TOTAL FREE ENERGY PREDICTED BY IDOCK:   -3.65 KCAL/MOL
REMARK 923 INTER-LIGAND FREE ENERGY PREDICTED BY IDOCK:   -5.31 KCAL/MOL
REMARK 924 INTRA-LIGAND FREE ENERGY PREDICTED BY IDOCK:    1.66 KCAL/MOL
REMARK 927      BINDING AFFINITY PREDICTED BY RF-SCORE:    0.00 PKD
ROOT
HETATM    1  C   UNL     1      -9.901   7.919  66.349  1.00  0.00    -0.217 C  
HETATM    2  C   UNL     1      -8.754   6.961  66.661  1.00  0.00    -0.128 C  
HETATM    3  C   UNL     1      -8.674   5.666  68.474  1.00  0.00    -0.110 A  
HETATM    4  C   UNL     1      -9.066   5.509  66.210  1.00  0.00    -0.146 C  
HETATM    5  N   UNL     1      -8.948   4.816  67.465  1.00  0.00    -0.108 NA 
HETATM    6  O   UNL     1      -8.986   1.541  69.919  1.00  0.00    -0.060 OA 
HETATM    7  C   UNL     1      -9.035   3.562  67.935  1.00  0.00    -0.139 A  
HETATM    8  O   UNL     1      -8.571   6.935  68.120  1.00  0.00    -0.123 OA 
HETATM    9  O   UNL     1      -8.541   3.035  71.478  1.00  0.00    -0.066 OA 
HETATM   10  C   UNL     1      -8.788   3.732  69.297  1.00  0.00    -0.099 A  
HETATM   11  N   UNL     1      -8.558   5.070  69.625  1.00  0.00    -0.087 NA 
HETATM   12  N   UNL     1      -8.769   2.699  70.309  1.00  0.00    -0.065 N  
ENDROOT
BRANCH   2  13
HETATM   13  C   UNL     1      -7.442   7.454  66.054  1.00  0.00    -0.083 C  
BRANCH  13  14
HETATM   14  O   UNL     1      -6.584   7.995  67.061  1.00  0.00    -0.055 OA 
BRANCH  14  15
HETATM   15  C   UNL     1      -6.766   9.333  67.275  1.00  0.00    -0.069 A  
HETATM   16  C   UNL     1      -7.221  12.146  67.469  1.00  0.00    -0.133 A  
HETATM   17  C   UNL     1      -7.489   9.870  68.331  1.00  0.00    -0.082 A  
HETATM   18  C   UNL     1      -6.184  10.201  66.363  1.00  0.00    -0.072 A  
HETATM   19  C   UNL     1      -7.709  11.243  68.418  1.00  0.00    -0.125 A  
HETATM   20  C   UNL     1      -6.406  11.584  66.469  1.00  0.00    -0.054 A  
BRANCH  16  21
HETATM   21  N   UNL     1      -7.488  13.503  67.562  1.00  0.00    -0.174 NA 
HETATM   22  C   UNL     1      -6.549  14.458  68.182  1.00  0.00    -0.130 C  
HETATM   23  C   UNL     1      -6.493  15.722  67.326  1.00  0.00    -0.139 C  
HETATM   24  C   UNL     1      -7.888  16.320  67.128  1.00  0.00    -0.191 C  
HETATM   25  C   UNL     1      -8.855  14.028  67.506  1.00  0.00    -0.199 C  
HETATM   26  C   UNL     1      -8.839  15.244  66.592  1.00  0.00    -0.328 C  
BRANCH  24  27
HETATM   27  O   UNL     1      -8.323  16.822  68.404  1.00  0.00    -0.204 OA 
BRANCH  27  28
HETATM   28  C   UNL     1      -9.406  16.213  68.971  1.00  0.00    -0.248 A  
HETATM   29  C   UNL     1     -10.701  16.258  68.465  1.00  0.00    -0.307 A  
HETATM   30  C   UNL     1     -11.732  15.587  69.118  1.00  0.00    -0.380 A  
HETATM   31  C   UNL     1     -11.497  14.869  70.286  1.00  0.00    -0.271 A  
HETATM   32  C   UNL     1     -10.203  14.833  70.806  1.00  0.00     0.833 A  
HETATM   33  C   UNL     1      -9.157  15.484  70.135  1.00  0.00     0.498 A  
BRANCH  31  34
HETATM   34  O   UNL     1     -12.613  14.347  70.847  1.00  0.00    -0.310 OA 
HETATM   35  C   UNL     1     -13.028  14.780  72.131  1.00  0.00    -0.336 C  
HETATM   36  F   UNL     1     -14.297  15.239  72.047  1.00  0.00    -0.508 F  
HETATM   37  F   UNL     1     -12.258  15.738  72.680  1.00  0.00    -0.395 F  
HETATM   38  F   UNL     1     -13.025  13.712  72.964  1.00  0.00    -0.500 F  
ENDBRANCH  31  34
ENDBRANCH  27  28
ENDBRANCH  24  27
ENDBRANCH  16  21
ENDBRANCH  14  15
ENDBRANCH  13  14
ENDBRANCH   2  13
TORSDOF 7
ENDMDL
MODEL      175
REMARK 921   NORMALIZED FREE ENERGY PREDICTED BY IDOCK:   -1.47 KCAL/MOL
REMARK 922        TOTAL FREE ENERGY PREDICTED BY IDOCK:   -3.55 KCAL/MOL
REMARK 923 INTER-LIGAND FREE ENERGY PREDICTED BY IDOCK:   -6.03 KCAL/MOL
REMARK 924 INTRA-LIGAND FREE ENERGY PREDICTED BY IDOCK:    2.48 KCAL/MOL
REMARK 927      BINDING AFFINITY PREDICTED BY RF-SCORE:    0.00 PKD
ROOT
HETATM    1  C   UNL     1      -8.256   3.104  63.242  1.00  0.00    -0.085 C  
HETATM    2  C   UNL     1      -7.581   3.924  64.339  1.00  0.00    -0.079 C  
HETATM    3  C   UNL     1      -6.670   5.931  64.009  1.00  0.00    -0.037 A  
HETATM    4  C   UNL     1      -8.541   4.978  64.954  1.00  0.00    -0.150 C  
HETATM    5  N   UNL     1      -7.806   6.185  64.686  1.00  0.00    -0.108 NA 
HETATM    6  O   UNL     1      -7.132  10.221  64.774  1.00  0.00    -0.138 OA 
HETATM    7  C   UNL     1      -7.921   7.504  64.909  1.00  0.00    -0.132 A  
HETATM    8  O   UNL     1      -6.460   4.656  63.732  1.00  0.00    -0.029 OA 
HETATM    9  O   UNL     1      -5.306   9.672  63.668  1.00  0.00    -0.068 OA 
HETATM   10  C   UNL     1      -6.765   8.012  64.317  1.00  0.00    -0.065 A  
HETATM   11  N   UNL     1      -5.979   7.003  63.753  1.00  0.00    -0.039 NA 
HETATM   12  N   UNL     1      -6.366   9.400  64.245  1.00  0.00    -0.085 N  
ENDROOT
BRANCH   2  13
HETATM   13  C   UNL     1      -6.994   3.021  65.422  1.00  0.00    -0.053 C  
BRANCH  13  14
HETATM   14  O   UNL     1      -6.163   3.767  66.314  1.00  0.00    -0.030 OA 
BRANCH  14  15
HETATM   15  C   UNL     1      -6.798   4.149  67.463  1.00  0.00    -0.051 A  
HETATM   16  C   UNL     1      -8.046   4.716  69.969  1.00  0.00    -0.068 A  
HETATM   17  C   UNL     1      -6.630   5.379  68.084  1.00  0.00    -0.049 A  
HETATM   18  C   UNL     1      -7.665   3.231  68.038  1.00  0.00    -0.063 A  
HETATM   19  C   UNL     1      -7.240   5.647  69.308  1.00  0.00    -0.066 A  
HETATM   20  C   UNL     1      -8.281   3.519  69.266  1.00  0.00    -0.075 A  
BRANCH  16  21
HETATM   21  N   UNL     1      -8.609   4.999  71.204  1.00  0.00    -0.122 NA 
HETATM   22  C   UNL     1      -9.963   5.567  71.349  1.00  0.00    -0.186 C  
HETATM   23  C   UNL     1     -10.676   4.858  72.499  1.00  0.00    -0.258 C  
HETATM   24  C   UNL     1      -9.863   4.947  73.794  1.00  0.00    -0.152 C  
HETATM   25  C   UNL     1      -7.787   5.214  72.398  1.00  0.00    -0.101 C  
HETATM   26  C   UNL     1      -8.436   4.449  73.541  1.00  0.00    -0.097 C  
BRANCH  24  27
HETATM   27  O   UNL     1      -9.877   6.322  74.213  1.00  0.00    -0.218 OA 
BRANCH  27  28
HETATM   28  C   UNL     1     -10.306   7.243  73.299  1.00  0.00    -0.342 A  
HETATM   29  C   UNL     1     -11.627   7.415  72.902  1.00  0.00    -0.200 A  
HETATM   30  C   UNL     1     -11.956   8.397  71.970  1.00  0.00    -0.419 A  
HETATM   31  C   UNL     1     -10.980   9.217  71.415  1.00  0.00    -0.344 A  
HETATM   32  C   UNL     1      -9.651   9.038  71.798  1.00  0.00    -0.278 A  
HETATM   33  C   UNL     1      -9.320   8.070  72.758  1.00  0.00    -0.330 A  
BRANCH  31  34
HETATM   34  O   UNL     1     -11.444  10.061  70.463  1.00  0.00    -0.281 OA 
HETATM   35  C   UNL     1     -12.348  11.095  70.813  1.00  0.00    -0.406 C  
HETATM   36  F   UNL     1     -11.827  12.279  70.422  1.00  0.00    -0.394 F  
HETATM   37  F   UNL     1     -12.644  11.164  72.124  1.00  0.00    -0.360 F  
HETATM   38  F   UNL     1     -13.503  10.902  70.132  1.00  0.00    -0.073 F  
ENDBRANCH  31  34
ENDBRANCH  27  28
ENDBRANCH  24  27
ENDBRANCH  16  21
ENDBRANCH  14  15
ENDBRANCH  13  14
ENDBRANCH   2  13
TORSDOF 7
ENDMDL
MODEL      176
REMARK 921   NORMALIZED FREE ENERGY PREDICTED BY IDOCK:   -1.36 KCAL/MOL
REMARK 922        TOTAL FREE ENERGY PREDICTED BY IDOCK:   -3.40 KCAL/MOL
REMARK 923 INTER-LIGAND FREE ENERGY PREDICTED BY IDOCK:   -5.50 KCAL/MOL
REMARK 924 INTRA-LIGAND FREE ENERGY PREDICTED BY IDOCK:    2.10 KCAL/MOL
REMARK 927      BINDING AFFINITY PREDICTED BY RF-SCORE:    0.00 PKD
ROOT
HETATM    1  C   UNL     1     -13.506  11.594  62.981  1.00  0.00     1.327 C  
HETATM    2  C   UNL     1     -12.332  12.260  63.695  1.00  0.00    -0.562 C  
HETATM    3  C   UNL     1     -11.746  11.820  65.799  1.00  0.00    -0.018 A  
HETATM    4  C   UNL     1     -11.049  11.387  63.647  1.00  0.00    -0.325 C  
HETATM    5  N   UNL     1     -10.796  11.222  65.054  1.00  0.00    -0.256 NA 
HETATM    6  O   UNL     1      -8.736   9.880  68.325  1.00  0.00    -0.118 OA 
HETATM    7  C   UNL     1      -9.888  10.640  65.851  1.00  0.00    -0.243 A  
HETATM    8  O   UNL     1     -12.697  12.423  65.109  1.00  0.00    -0.630 OA 
HETATM    9  O   UNL     1     -10.352  10.895  69.429  1.00  0.00    -0.212 OA 
HETATM   10  C   UNL     1     -10.368  10.940  67.126  1.00  0.00    -0.220 A  
HETATM   11  N   UNL     1     -11.544  11.691  67.078  1.00  0.00    -0.547 NA 
HETATM   12  N   UNL     1      -9.781  10.546  68.388  1.00  0.00    -0.153 N  
ENDROOT
BRANCH   2  13
HETATM   13  C   UNL     1     -12.066  13.656  63.136  1.00  0.00     0.173 C  
BRANCH  13  14
HETATM   14  O   UNL     1     -12.398  14.662  64.096  1.00  0.00    -0.654 OA 
BRANCH  14  15
HETATM   15  C   UNL     1     -11.322  15.115  64.809  1.00  0.00    -0.395 A  
HETATM   16  C   UNL     1      -9.248  16.192  66.451  1.00  0.00    -0.300 A  
HETATM   17  C   UNL     1     -10.309  14.306  65.304  1.00  0.00    -0.417 A  
HETATM   18  C   UNL     1     -11.255  16.480  65.048  1.00  0.00    -0.091 A  
HETATM   19  C   UNL     1      -9.301  14.839  66.106  1.00  0.00    -0.292 A  
HETATM   20  C   UNL     1     -10.228  17.003  65.850  1.00  0.00    -0.311 A  
BRANCH  16  21
HETATM   21  N   UNL     1      -8.254  16.684  67.282  1.00  0.00    -0.168 NA 
HETATM   22  C   UNL     1      -7.181  17.574  66.798  1.00  0.00    -0.215 C  
HETATM   23  C   UNL     1      -6.959  18.684  67.824  1.00  0.00    -0.223 C  
HETATM   24  C   UNL     1      -6.658  18.107  69.209  1.00  0.00    -0.234 C  
HETATM   25  C   UNL     1      -7.899  16.023  68.541  1.00  0.00    -0.160 C  
HETATM   26  C   UNL     1      -7.752  17.105  69.599  1.00  0.00     0.614 C  
BRANCH  24  27
HETATM   27  O   UNL     1      -5.366  17.478  69.139  1.00  0.00    -0.165 OA 
BRANCH  27  28
HETATM   28  C   UNL     1      -5.307  16.149  69.448  1.00  0.00    -0.116 A  
HETATM   29  C   UNL     1      -5.196  15.119  68.520  1.00  0.00    -0.100 A  
HETATM   30  C   UNL     1      -5.130  13.795  68.947  1.00  0.00    -0.072 A  
HETATM   31  C   UNL     1      -5.182  13.473  70.299  1.00  0.00    -0.103 A  
HETATM   32  C   UNL     1      -5.309  14.500  71.234  1.00  0.00    -0.156 A  
HETATM   33  C   UNL     1      -5.346  15.836  70.808  1.00  0.00    -0.130 A  
BRANCH  31  34
HETATM   34  O   UNL     1      -5.194  12.142  70.549  1.00  0.00    -0.098 OA 
HETATM   35  C   UNL     1      -6.263  11.342  70.073  1.00  0.00    -0.148 C  
HETATM   36  F   UNL     1      -5.757  10.346  69.312  1.00  0.00    -0.038 F  
HETATM   37  F   UNL     1      -7.188  12.007  69.354  1.00  0.00    -0.083 F  
HETATM   38  F   UNL     1      -6.884  10.780  71.137  1.00  0.00     0.344 F  
ENDBRANCH  31  34
ENDBRANCH  27  28
ENDBRANCH  24  27
ENDBRANCH  16  21
ENDBRANCH  14  15
ENDBRANCH  13  14
ENDBRANCH   2  13
TORSDOF 7
ENDMDL
MODEL      177
REMARK 921   NORMALIZED FREE ENERGY PREDICTED BY IDOCK:   -1.34 KCAL/MOL
REMARK 922        TOTAL FREE ENERGY PREDICTED BY IDOCK:   -3.37 KCAL/MOL
REMARK 923 INTER-LIGAND FREE ENERGY PREDICTED BY IDOCK:   -2.27 KCAL/MOL
REMARK 924 INTRA-LIGAND FREE ENERGY PREDICTED BY IDOCK:   -1.10 KCAL/MOL
REMARK 927      BINDING AFFINITY PREDICTED BY RF-SCORE:    0.00 PKD
ROOT
HETATM    1  C   UNL     1     -11.559  18.406  65.719  1.00  0.00     2.317 C  
HETATM    2  C   UNL     1     -11.049  18.319  67.155  1.00  0.00     0.169 C  
HETATM    3  C   UNL     1      -8.901  18.486  67.724  1.00  0.00    -0.275 A  
HETATM    4  C   UNL     1     -10.843  19.722  67.787  1.00  0.00    -0.168 C  
HETATM    5  N   UNL     1      -9.444  19.655  68.116  1.00  0.00    -0.347 NA 
HETATM    6  O   UNL     1      -5.913  21.061  69.636  1.00  0.00    -0.324 OA 
HETATM    7  C   UNL     1      -8.509  20.421  68.700  1.00  0.00     0.468 A  
HETATM    8  O   UNL     1      -9.738  17.655  67.130  1.00  0.00    -0.274 OA 
HETATM    9  O   UNL     1      -5.147  19.113  68.944  1.00  0.00    -0.188 OA 
HETATM   10  C   UNL     1      -7.372  19.618  68.628  1.00  0.00    -0.340 A  
HETATM   11  N   UNL     1      -7.635  18.393  68.010  1.00  0.00    -0.252 NA 
HETATM   12  N   UNL     1      -6.046  19.948  69.102  1.00  0.00    -0.278 N  
ENDROOT
BRANCH   2  13
HETATM   13  C   UNL     1     -11.971  17.460  68.017  1.00  0.00     1.800 C  
BRANCH  13  14
HETATM   14  O   UNL     1     -11.228  16.757  69.015  1.00  0.00    -0.228 OA 
BRANCH  14  15
HETATM   15  C   UNL     1     -10.860  15.495  68.638  1.00  0.00    -0.267 A  
HETATM   16  C   UNL     1     -10.057  12.806  68.106  1.00  0.00    -0.239 A  
HETATM   17  C   UNL     1     -11.581  14.693  67.764  1.00  0.00    -0.382 A  
HETATM   18  C   UNL     1      -9.682  14.996  69.175  1.00  0.00    -0.212 A  
HETATM   19  C   UNL     1     -11.184  13.381  67.511  1.00  0.00    -0.309 A  
HETATM   20  C   UNL     1      -9.290  13.675  68.903  1.00  0.00     0.145 A  
BRANCH  16  21
HETATM   21  N   UNL     1      -9.710  11.486  67.863  1.00  0.00    -0.178 NA 
HETATM   22  C   UNL     1     -10.316  10.691  66.778  1.00  0.00    -0.245 C  
HETATM   23  C   UNL     1      -9.221   9.878  66.089  1.00  0.00    -0.211 C  
HETATM   24  C   UNL     1      -8.460   9.009  67.095  1.00  0.00    -0.113 C  
HETATM   25  C   UNL     1      -9.105  10.642  68.898  1.00  0.00    -0.176 C  
HETATM   26  C   UNL     1      -7.958   9.881  68.252  1.00  0.00    -0.100 C  
BRANCH  24  27
HETATM   27  O   UNL     1      -9.367   7.993  67.554  1.00  0.00    -0.143 OA 
BRANCH  27  28
HETATM   28  C   UNL     1      -9.360   6.806  66.877  1.00  0.00    -0.150 A  
HETATM   29  C   UNL     1      -8.240   6.236  66.281  1.00  0.00    -0.117 A  
HETATM   30  C   UNL     1      -8.342   5.011  65.625  1.00  0.00    -0.120 A  
HETATM   31  C   UNL     1      -9.557   4.339  65.544  1.00  0.00    -0.188 A  
HETATM   32  C   UNL     1     -10.686   4.914  66.126  1.00  0.00    -0.243 A  
HETATM   33  C   UNL     1     -10.580   6.133  66.812  1.00  0.00    -0.351 A  
BRANCH  31  34
HETATM   34  O   UNL     1      -9.512   3.207  64.801  1.00  0.00    -0.148 OA 
HETATM   35  C   UNL     1     -10.037   3.203  63.485  1.00  0.00    -0.169 C  
HETATM   36  F   UNL     1      -9.068   2.804  62.631  1.00  0.00    -0.087 F  
HETATM   37  F   UNL     1     -10.519   4.389  63.066  1.00  0.00    -0.128 F  
HETATM   38  F   UNL     1     -11.043   2.298  63.428  1.00  0.00    -0.220 F  
ENDBRANCH  31  34
ENDBRANCH  27  28
ENDBRANCH  24  27
ENDBRANCH  16  21
ENDBRANCH  14  15
ENDBRANCH  13  14
ENDBRANCH   2  13
TORSDOF 7
ENDMDL
MODEL      178
REMARK 921   NORMALIZED FREE ENERGY PREDICTED BY IDOCK:   -1.30 KCAL/MOL
REMARK 922        TOTAL FREE ENERGY PREDICTED BY IDOCK:   -3.31 KCAL/MOL
REMARK 923 INTER-LIGAND FREE ENERGY PREDICTED BY IDOCK:   -5.17 KCAL/MOL
REMARK 924 INTRA-LIGAND FREE ENERGY PREDICTED BY IDOCK:    1.85 KCAL/MOL
REMARK 927      BINDING AFFINITY PREDICTED BY RF-SCORE:    0.00 PKD
ROOT
HETATM    1  C   UNL     1     -11.140   5.914  68.737  1.00  0.00    -0.218 C  
HETATM    2  C   UNL     1     -10.833   6.026  70.229  1.00  0.00    -0.329 C  
HETATM    3  C   UNL     1      -9.034   5.139  71.199  1.00  0.00    -0.138 A  
HETATM    4  C   UNL     1      -9.850   7.188  70.537  1.00  0.00    -0.179 C  
HETATM    5  N   UNL     1      -8.782   6.463  71.171  1.00  0.00    -0.134 NA 
HETATM    6  O   UNL     1      -5.168   6.058  73.048  1.00  0.00    -0.025 OA 
HETATM    7  C   UNL     1      -7.596   6.715  71.745  1.00  0.00    -0.093 A  
HETATM    8  O   UNL     1     -10.181   4.779  70.652  1.00  0.00    -0.230 OA 
HETATM    9  O   UNL     1      -5.697   3.918  73.028  1.00  0.00    -0.003 OA 
HETATM   10  C   UNL     1      -7.164   5.443  72.119  1.00  0.00    -0.088 A  
HETATM   11  N   UNL     1      -8.086   4.453  71.769  1.00  0.00    -0.095 NA 
HETATM   12  N   UNL     1      -5.921   5.109  72.779  1.00  0.00    -0.025 N  
ENDROOT
BRANCH   2  13
HETATM   13  C   UNL     1     -12.116   6.162  71.047  1.00  0.00     0.209 C  
BRANCH  13  14
HETATM   14  O   UNL     1     -11.895   6.960  72.212  1.00  0.00    -0.279 OA 
BRANCH  14  15
HETATM   15  C   UNL     1     -12.075   8.299  72.002  1.00  0.00    -0.348 A  
HETATM   16  C   UNL     1     -12.260  11.081  71.380  1.00  0.00    -0.186 A  
HETATM   17  C   UNL     1     -13.306   8.904  71.788  1.00  0.00    -0.436 A  
HETATM   18  C   UNL     1     -10.939   9.095  72.004  1.00  0.00    -0.262 A  
HETATM   19  C   UNL     1     -13.388  10.261  71.483  1.00  0.00    -0.413 A  
HETATM   20  C   UNL     1     -11.038  10.463  71.704  1.00  0.00     1.185 A  
BRANCH  16  21
HETATM   21  N   UNL     1     -12.372  12.419  71.037  1.00  0.00    -0.305 NA 
HETATM   22  C   UNL     1     -11.460  13.073  70.079  1.00  0.00    -0.014 C  
HETATM   23  C   UNL     1     -12.277  13.980  69.160  1.00  0.00    -0.299 C  
HETATM   24  C   UNL     1     -13.099  14.990  69.966  1.00  0.00     0.129 C  
HETATM   25  C   UNL     1     -13.051  13.386  71.904  1.00  0.00    -0.383 C  
HETATM   26  C   UNL     1     -13.934  14.251  71.018  1.00  0.00    -0.008 C  
BRANCH  24  27
HETATM   27  O   UNL     1     -12.173  15.907  70.574  1.00  0.00    -0.380 OA 
BRANCH  27  28
HETATM   28  C   UNL     1     -11.120  16.321  69.808  1.00  0.00    -0.337 A  
HETATM   29  C   UNL     1      -9.839  15.781  69.857  1.00  0.00    -0.151 A  
HETATM   30  C   UNL     1      -8.840  16.272  69.019  1.00  0.00    -0.243 A  
HETATM   31  C   UNL     1      -9.095  17.308  68.127  1.00  0.00    -0.257 A  
HETATM   32  C   UNL     1     -10.374  17.863  68.085  1.00  0.00    -0.395 A  
HETATM   33  C   UNL     1     -11.389  17.352  68.907  1.00  0.00     0.745 A  
BRANCH  31  34
HETATM   34  O   UNL     1      -8.003  17.730  67.446  1.00  0.00    -0.207 OA 
HETATM   35  C   UNL     1      -7.992  19.018  66.855  1.00  0.00    -0.259 C  
HETATM   36  F   UNL     1      -6.928  19.705  67.327  1.00  0.00    -0.215 F  
HETATM   37  F   UNL     1      -9.105  19.745  67.067  1.00  0.00    -0.332 F  
HETATM   38  F   UNL     1      -7.835  18.874  65.517  1.00  0.00    -0.167 F  
ENDBRANCH  31  34
ENDBRANCH  27  28
ENDBRANCH  24  27
ENDBRANCH  16  21
ENDBRANCH  14  15
ENDBRANCH  13  14
ENDBRANCH   2  13
TORSDOF 7
ENDMDL
MODEL      179
REMARK 921   NORMALIZED FREE ENERGY PREDICTED BY IDOCK:   -1.27 KCAL/MOL
REMARK 922        TOTAL FREE ENERGY PREDICTED BY IDOCK:   -3.26 KCAL/MOL
REMARK 923 INTER-LIGAND FREE ENERGY PREDICTED BY IDOCK:   -2.39 KCAL/MOL
REMARK 924 INTRA-LIGAND FREE ENERGY PREDICTED BY IDOCK:   -0.87 KCAL/MOL
REMARK 927      BINDING AFFINITY PREDICTED BY RF-SCORE:    0.00 PKD
ROOT
HETATM    1  C   UNL     1     -11.725   5.473  67.680  1.00  0.00     2.692 C  
HETATM    2  C   UNL     1     -10.214   5.508  67.464  1.00  0.00    -0.199 C  
HETATM    3  C   UNL     1      -9.105   4.042  66.203  1.00  0.00    -0.141 A  
HETATM    4  C   UNL     1      -9.830   6.227  66.142  1.00  0.00     0.078 C  
HETATM    5  N   UNL     1      -9.113   5.175  65.473  1.00  0.00    -0.158 NA 
HETATM    6  O   UNL     1      -6.957   3.506  62.421  1.00  0.00    -0.030 OA 
HETATM    7  C   UNL     1      -8.448   4.983  64.324  1.00  0.00    -0.138 A  
HETATM    8  O   UNL     1      -9.740   4.120  67.358  1.00  0.00    -0.190 OA 
HETATM    9  O   UNL     1      -7.018   1.719  63.709  1.00  0.00    -0.030 OA 
HETATM   10  C   UNL     1      -8.040   3.654  64.428  1.00  0.00    -0.086 A  
HETATM   11  N   UNL     1      -8.461   3.070  65.626  1.00  0.00    -0.101 NA 
HETATM   12  N   UNL     1      -7.284   2.900  63.453  1.00  0.00    -0.048 N  
ENDROOT
BRANCH   2  13
HETATM   13  C   UNL     1      -9.500   6.137  68.658  1.00  0.00    -0.124 C  
BRANCH  13  14
HETATM   14  O   UNL     1      -8.131   6.410  68.348  1.00  0.00    -0.111 OA 
BRANCH  14  15
HETATM   15  C   UNL     1      -7.854   7.742  68.217  1.00  0.00    -0.121 A  
HETATM   16  C   UNL     1      -7.301  10.545  68.206  1.00  0.00    -0.088 A  
HETATM   17  C   UNL     1      -6.782   8.257  67.502  1.00  0.00    -0.063 A  
HETATM   18  C   UNL     1      -8.714   8.629  68.850  1.00  0.00    -0.131 A  
HETATM   19  C   UNL     1      -6.517   9.626  67.503  1.00  0.00    -0.069 A  
HETATM   20  C   UNL     1      -8.439  10.006  68.834  1.00  0.00    -0.132 A  
BRANCH  16  21
HETATM   21  N   UNL     1      -6.990  11.895  68.218  1.00  0.00    -0.071 NA 
HETATM   22  C   UNL     1      -7.912  12.929  67.710  1.00  0.00    -0.162 C  
HETATM   23  C   UNL     1      -7.901  14.117  68.670  1.00  0.00    -0.137 C  
HETATM   24  C   UNL     1      -6.481  14.651  68.874  1.00  0.00    -0.090 C  
HETATM   25  C   UNL     1      -5.604  12.370  68.277  1.00  0.00    -0.057 C  
HETATM   26  C   UNL     1      -5.553  13.503  69.290  1.00  0.00    -0.078 C  
BRANCH  24  27
HETATM   27  O   UNL     1      -6.065  15.245  67.632  1.00  0.00    -0.180 OA 
BRANCH  27  28
HETATM   28  C   UNL     1      -6.832  16.266  67.147  1.00  0.00    -0.207 A  
HETATM   29  C   UNL     1      -7.901  16.110  66.271  1.00  0.00    -0.053 A  
HETATM   30  C   UNL     1      -8.627  17.222  65.849  1.00  0.00     0.010 A  
HETATM   31  C   UNL     1      -8.299  18.502  66.282  1.00  0.00    -0.213 A  
HETATM   32  C   UNL     1      -7.218  18.665  67.149  1.00  0.00    -0.216 A  
HETATM   33  C   UNL     1      -6.504  17.544  67.598  1.00  0.00    -0.163 A  
BRANCH  31  34
HETATM   34  O   UNL     1      -9.041  19.484  65.716  1.00  0.00    -0.378 OA 
HETATM   35  C   UNL     1     -10.140  20.035  66.420  1.00  0.00    -0.487 C  
HETATM   36  F   UNL     1      -9.968  21.372  66.518  1.00  0.00     0.141 F  
HETATM   37  F   UNL     1     -10.329  19.533  67.655  1.00  0.00    -0.432 F  
HETATM   38  F   UNL     1     -11.265  19.811  65.701  1.00  0.00    -0.427 F  
ENDBRANCH  31  34
ENDBRANCH  27  28
ENDBRANCH  24  27
ENDBRANCH  16  21
ENDBRANCH  14  15
ENDBRANCH  13  14
ENDBRANCH   2  13
TORSDOF 7
ENDMDL
MODEL      180
REMARK 921   NORMALIZED FREE ENERGY PREDICTED BY IDOCK:   -1.23 KCAL/MOL
REMARK 922        TOTAL FREE ENERGY PREDICTED BY IDOCK:   -3.21 KCAL/MOL
REMARK 923 INTER-LIGAND FREE ENERGY PREDICTED BY IDOCK:   -7.39 KCAL/MOL
REMARK 924 INTRA-LIGAND FREE ENERGY PREDICTED BY IDOCK:    4.18 KCAL/MOL
REMARK 927      BINDING AFFINITY PREDICTED BY RF-SCORE:    0.00 PKD
ROOT
HETATM    1  C   UNL     1     -13.106   6.087  72.595  1.00  0.00     0.669 C  
HETATM    2  C   UNL     1     -11.659   6.497  72.329  1.00  0.00    -0.292 C  
HETATM    3  C   UNL     1      -9.906   5.164  72.671  1.00  0.00    -0.161 A  
HETATM    4  C   UNL     1     -11.162   6.016  70.939  1.00  0.00    -0.265 C  
HETATM    5  N   UNL     1     -10.038   5.209  71.331  1.00  0.00    -0.192 NA 
HETATM    6  O   UNL     1      -6.800   2.788  70.693  1.00  0.00    -0.032 OA 
HETATM    7  C   UNL     1      -9.074   4.476  70.752  1.00  0.00    -0.127 A  
HETATM    8  O   UNL     1     -10.813   5.851  73.343  1.00  0.00    -0.259 OA 
HETATM    9  O   UNL     1      -6.696   2.794  72.895  1.00  0.00    -0.024 OA 
HETATM   10  C   UNL     1      -8.359   3.997  71.849  1.00  0.00    -0.095 A  
HETATM   11  N   UNL     1      -8.895   4.443  73.059  1.00  0.00    -0.113 NA 
HETATM   12  N   UNL     1      -7.201   3.130  71.817  1.00  0.00    -0.038 N  
ENDROOT
BRANCH   2  13
HETATM   13  C   UNL     1     -11.475   8.005  72.485  1.00  0.00    -0.409 C  
BRANCH  13  14
HETATM   14  O   UNL     1     -12.588   8.714  71.937  1.00  0.00    -0.317 OA 
BRANCH  14  15
HETATM   15  C   UNL     1     -12.230   9.733  71.098  1.00  0.00    -0.362 A  
HETATM   16  C   UNL     1     -11.522  11.693  69.144  1.00  0.00    -0.300 A  
HETATM   17  C   UNL     1     -12.746  11.020  71.155  1.00  0.00    -0.521 A  
HETATM   18  C   UNL     1     -11.284   9.443  70.125  1.00  0.00    -0.253 A  
HETATM   19  C   UNL     1     -12.398  11.970  70.197  1.00  0.00    -0.230 A  
HETATM   20  C   UNL     1     -10.935  10.413  69.172  1.00  0.00    -0.285 A  
BRANCH  16  21
HETATM   21  N   UNL     1     -11.224  12.648  68.185  1.00  0.00    -0.250 NA 
HETATM   22  C   UNL     1     -11.805  12.620  66.828  1.00  0.00    -0.370 C  
HETATM   23  C   UNL     1     -12.202  14.041  66.431  1.00  0.00    -0.492 C  
HETATM   24  C   UNL     1     -11.012  14.999  66.538  1.00  0.00    -0.327 C  
HETATM   25  C   UNL     1     -10.003  13.454  68.248  1.00  0.00    -0.240 C  
HETATM   26  C   UNL     1     -10.388  14.892  67.934  1.00  0.00    -0.237 C  
BRANCH  24  27
HETATM   27  O   UNL     1     -10.075  14.634  65.510  1.00  0.00    -0.336 OA 
BRANCH  27  28
HETATM   28  C   UNL     1      -9.898  13.299  65.282  1.00  0.00    -0.075 A  
HETATM   29  C   UNL     1     -10.696  12.521  64.450  1.00  0.00    -0.379 A  
HETATM   30  C   UNL     1     -10.416  11.167  64.277  1.00  0.00    -0.427 A  
HETATM   31  C   UNL     1      -9.346  10.565  64.932  1.00  0.00    -0.232 A  
HETATM   32  C   UNL     1      -8.552  11.337  65.779  1.00  0.00    -0.067 A  
HETATM   33  C   UNL     1      -8.814  12.707  65.932  1.00  0.00     0.423 A  
BRANCH  31  34
HETATM   34  O   UNL     1      -9.258   9.229  64.730  1.00  0.00    -0.209 OA 
HETATM   35  C   UNL     1      -8.627   8.407  65.698  1.00  0.00    -0.174 C  
HETATM   36  F   UNL     1      -9.495   7.446  66.085  1.00  0.00    -0.210 F  
HETATM   37  F   UNL     1      -8.188   9.059  66.791  1.00  0.00    -0.109 F  
HETATM   38  F   UNL     1      -7.565   7.800  65.117  1.00  0.00    -0.074 F  
ENDBRANCH  31  34
ENDBRANCH  27  28
ENDBRANCH  24  27
ENDBRANCH  16  21
ENDBRANCH  14  15
ENDBRANCH  13  14
ENDBRANCH   2  13
TORSDOF 7
ENDMDL
MODEL      181
REMARK 921   NORMALIZED FREE ENERGY PREDICTED BY IDOCK:   -1.14 KCAL/MOL
REMARK 922        TOTAL FREE ENERGY PREDICTED BY IDOCK:   -3.09 KCAL/MOL
REMARK 923 INTER-LIGAND FREE ENERGY PREDICTED BY IDOCK:   -7.77 KCAL/MOL
REMARK 924 INTRA-LIGAND FREE ENERGY PREDICTED BY IDOCK:    4.68 KCAL/MOL
REMARK 927      BINDING AFFINITY PREDICTED BY RF-SCORE:    0.00 PKD
ROOT
HETATM    1  C   UNL     1     -10.571   4.919  73.777  1.00  0.00    -0.331 C  
HETATM    2  C   UNL     1     -10.524   5.982  72.682  1.00  0.00    -0.205 C  
HETATM    3  C   UNL     1      -8.915   7.515  72.505  1.00  0.00    -0.134 A  
HETATM    4  C   UNL     1      -9.608   5.562  71.500  1.00  0.00    -0.150 C  
HETATM    5  N   UNL     1      -8.663   6.647  71.506  1.00  0.00    -0.131 NA 
HETATM    6  O   UNL     1      -5.422   8.758  70.170  1.00  0.00    -0.027 OA 
HETATM    7  C   UNL     1      -7.592   7.053  70.807  1.00  0.00    -0.090 A  
HETATM    8  O   UNL     1      -9.952   7.205  73.263  1.00  0.00    -0.201 OA 
HETATM    9  O   UNL     1      -5.939  10.098  71.843  1.00  0.00    -0.295 OA 
HETATM   10  C   UNL     1      -7.230   8.228  71.464  1.00  0.00    -0.084 A  
HETATM   11  N   UNL     1      -8.079   8.511  72.537  1.00  0.00    -0.339 NA 
HETATM   12  N   UNL     1      -6.118   9.095  71.141  1.00  0.00    -0.061 N  
ENDROOT
BRANCH   2  13
HETATM   13  C   UNL     1     -11.927   6.332  72.190  1.00  0.00    -0.287 C  
BRANCH  13  14
HETATM   14  O   UNL     1     -12.171   7.735  72.299  1.00  0.00    -0.302 OA 
BRANCH  14  15
HETATM   15  C   UNL     1     -11.617   8.468  71.286  1.00  0.00    -0.283 A  
HETATM   16  C   UNL     1     -10.660   9.918  69.018  1.00  0.00    -0.220 A  
HETATM   17  C   UNL     1     -11.217   9.793  71.399  1.00  0.00    -0.368 A  
HETATM   18  C   UNL     1     -11.450   7.830  70.065  1.00  0.00     0.023 A  
HETATM   19  C   UNL     1     -10.753  10.494  70.288  1.00  0.00    -0.165 A  
HETATM   20  C   UNL     1     -10.973   8.547  68.956  1.00  0.00     0.082 A  
BRANCH  16  21
HETATM   21  N   UNL     1     -10.230  10.652  67.924  1.00  0.00    -0.171 NA 
HETATM   22  C   UNL     1      -9.247  11.747  68.038  1.00  0.00    -0.181 C  
HETATM   23  C   UNL     1      -8.259  11.647  66.877  1.00  0.00    -0.169 C  
HETATM   24  C   UNL     1      -8.984  11.651  65.529  1.00  0.00     0.037 C  
HETATM   25  C   UNL     1     -11.021  10.743  66.694  1.00  0.00    -0.106 C  
HETATM   26  C   UNL     1     -10.067  10.565  65.523  1.00  0.00    -0.349 C  
BRANCH  24  27
HETATM   27  O   UNL     1      -9.548  12.961  65.351  1.00  0.00    -0.088 OA 
BRANCH  27  28
HETATM   28  C   UNL     1     -10.164  13.522  66.434  1.00  0.00    -0.291 A  
HETATM   29  C   UNL     1      -9.506  14.095  67.517  1.00  0.00    -0.210 A  
HETATM   30  C   UNL     1     -10.235  14.651  68.565  1.00  0.00    -0.240 A  
HETATM   31  C   UNL     1     -11.626  14.641  68.558  1.00  0.00    -0.317 A  
HETATM   32  C   UNL     1     -12.291  14.054  67.482  1.00  0.00    -0.112 A  
HETATM   33  C   UNL     1     -11.560  13.518  66.411  1.00  0.00    -0.381 A  
BRANCH  31  34
HETATM   34  O   UNL     1     -12.187  15.141  69.685  1.00  0.00    -0.302 OA 
HETATM   35  C   UNL     1     -12.728  14.261  70.656  1.00  0.00    -0.343 C  
HETATM   36  F   UNL     1     -12.134  14.508  71.845  1.00  0.00    -0.370 F  
HETATM   37  F   UNL     1     -12.594  12.953  70.369  1.00  0.00    -0.337 F  
HETATM   38  F   UNL     1     -14.049  14.528  70.787  1.00  0.00    -0.275 F  
ENDBRANCH  31  34
ENDBRANCH  27  28
ENDBRANCH  24  27
ENDBRANCH  16  21
ENDBRANCH  14  15
ENDBRANCH  13  14
ENDBRANCH   2  13
TORSDOF 7
ENDMDL
MODEL      182
REMARK 921   NORMALIZED FREE ENERGY PREDICTED BY IDOCK:   -1.02 KCAL/MOL
REMARK 922        TOTAL FREE ENERGY PREDICTED BY IDOCK:   -2.92 KCAL/MOL
REMARK 923 INTER-LIGAND FREE ENERGY PREDICTED BY IDOCK:   -5.73 KCAL/MOL
REMARK 924 INTRA-LIGAND FREE ENERGY PREDICTED BY IDOCK:    2.81 KCAL/MOL
REMARK 927      BINDING AFFINITY PREDICTED BY RF-SCORE:    0.00 PKD
ROOT
HETATM    1  C   UNL     1      -5.492  19.202  64.232  1.00  0.00    -0.298 C  
HETATM    2  C   UNL     1      -6.324  19.061  65.503  1.00  0.00    -0.263 C  
HETATM    3  C   UNL     1      -6.489  17.175  66.680  1.00  0.00    -0.232 A  
HETATM    4  C   UNL     1      -5.466  19.236  66.786  1.00  0.00    -0.163 C  
HETATM    5  N   UNL     1      -5.701  17.971  67.429  1.00  0.00    -0.140 NA 
HETATM    6  O   UNL     1      -5.318  15.190  70.407  1.00  0.00    -0.119 OA 
HETATM    7  C   UNL     1      -5.360  17.340  68.563  1.00  0.00    -0.144 A  
HETATM    8  O   UNL     1      -6.880  17.700  65.532  1.00  0.00    -0.303 OA 
HETATM    9  O   UNL     1      -6.611  13.987  69.087  1.00  0.00    -0.102 OA 
HETATM   10  C   UNL     1      -6.008  16.112  68.433  1.00  0.00    -0.107 A  
HETATM   11  N   UNL     1      -6.722  16.022  67.235  1.00  0.00    -0.190 NA 
HETATM   12  N   UNL     1      -5.981  15.013  69.373  1.00  0.00    -0.102 N  
ENDROOT
BRANCH   2  13
HETATM   13  C   UNL     1      -7.507  20.028  65.499  1.00  0.00    -0.187 C  
BRANCH  13  14
HETATM   14  O   UNL     1      -8.004  20.231  66.824  1.00  0.00    -0.304 OA 
BRANCH  14  15
HETATM   15  C   UNL     1      -8.719  19.171  67.309  1.00  0.00    -0.286 A  
HETATM   16  C   UNL     1     -10.293  17.116  68.517  1.00  0.00    -0.364 A  
HETATM   17  C   UNL     1      -9.564  18.376  66.548  1.00  0.00    -0.327 A  
HETATM   18  C   UNL     1      -8.580  18.884  68.659  1.00  0.00    -0.376 A  
HETATM   19  C   UNL     1     -10.330  17.376  67.145  1.00  0.00    -0.325 A  
HETATM   20  C   UNL     1      -9.352  17.868  69.245  1.00  0.00     0.166 A  
BRANCH  16  21
HETATM   21  N   UNL     1     -11.096  16.141  69.087  1.00  0.00    -0.309 NA 
HETATM   22  C   UNL     1     -10.557  14.867  69.601  1.00  0.00    -0.197 C  
HETATM   23  C   UNL     1     -11.237  14.542  70.929  1.00  0.00     0.037 C  
HETATM   24  C   UNL     1     -12.761  14.513  70.780  1.00  0.00    -0.360 C  
HETATM   25  C   UNL     1     -12.533  16.063  68.810  1.00  0.00     0.776 C  
HETATM   26  C   UNL     1     -13.240  15.819  70.135  1.00  0.00     0.589 C  
BRANCH  24  27
HETATM   27  O   UNL     1     -13.089  13.371  69.969  1.00  0.00     0.277 OA 
BRANCH  27  28
HETATM   28  C   UNL     1     -12.122  12.417  69.825  1.00  0.00    -0.223 A  
HETATM   29  C   UNL     1     -12.010  11.273  70.608  1.00  0.00    -0.435 A  
HETATM   30  C   UNL     1     -10.990  10.355  70.365  1.00  0.00    -0.320 A  
HETATM   31  C   UNL     1     -10.064  10.562  69.349  1.00  0.00    -0.209 A  
HETATM   32  C   UNL     1     -10.162  11.716  68.571  1.00  0.00    -0.216 A  
HETATM   33  C   UNL     1     -11.205  12.627  68.794  1.00  0.00    -0.325 A  
BRANCH  31  34
HETATM   34  O   UNL     1      -9.085   9.628  69.295  1.00  0.00    -0.152 OA 
HETATM   35  C   UNL     1      -8.800   8.970  68.072  1.00  0.00    -0.129 C  
HETATM   36  F   UNL     1      -7.493   9.147  67.777  1.00  0.00    -0.081 F  
HETATM   37  F   UNL     1      -9.539   9.382  67.025  1.00  0.00    -0.161 F  
HETATM   38  F   UNL     1      -9.014   7.644  68.240  1.00  0.00    -0.128 F  
ENDBRANCH  31  34
ENDBRANCH  27  28
ENDBRANCH  24  27
ENDBRANCH  16  21
ENDBRANCH  14  15
ENDBRANCH  13  14
ENDBRANCH   2  13
TORSDOF 7
ENDMDL
MODEL      183
REMARK 921   NORMALIZED FREE ENERGY PREDICTED BY IDOCK:   -0.96 KCAL/MOL
REMARK 922        TOTAL FREE ENERGY PREDICTED BY IDOCK:   -2.83 KCAL/MOL
REMARK 923 INTER-LIGAND FREE ENERGY PREDICTED BY IDOCK:   -5.86 KCAL/MOL
REMARK 924 INTRA-LIGAND FREE ENERGY PREDICTED BY IDOCK:    3.03 KCAL/MOL
REMARK 927      BINDING AFFINITY PREDICTED BY RF-SCORE:    0.00 PKD
ROOT
HETATM    1  C   UNL     1      -6.242  14.817  68.004  1.00  0.00    -0.164 C  
HETATM    2  C   UNL     1      -7.712  15.125  67.731  1.00  0.00    -0.149 C  
HETATM    3  C   UNL     1      -8.676  17.085  68.174  1.00  0.00    -0.233 A  
HETATM    4  C   UNL     1      -7.914  15.861  66.379  1.00  0.00    -0.090 C  
HETATM    5  N   UNL     1      -8.557  17.065  66.833  1.00  0.00    -0.213 NA 
HETATM    6  O   UNL     1     -10.334  20.724  66.382  1.00  0.00     0.029 OA 
HETATM    7  C   UNL     1      -9.074  18.188  66.311  1.00  0.00    -0.182 A  
HETATM    8  O   UNL     1      -8.191  16.023  68.792  1.00  0.00    -0.183 OA 
HETATM    9  O   UNL     1     -10.466  20.635  68.581  1.00  0.00    -0.016 OA 
HETATM   10  C   UNL     1      -9.512  18.873  67.443  1.00  0.00    -0.297 A  
HETATM   11  N   UNL     1      -9.257  18.162  68.618  1.00  0.00    -0.303 NA 
HETATM   12  N   UNL     1     -10.151  20.171  67.478  1.00  0.00    -0.413 N  
ENDROOT
BRANCH   2  13
HETATM   13  C   UNL     1      -8.563  13.858  67.797  1.00  0.00    -0.182 C  
BRANCH  13  14
HETATM   14  O   UNL     1      -8.363  13.048  66.637  1.00  0.00    -0.014 OA 
BRANCH  14  15
HETATM   15  C   UNL     1      -8.736  11.743  66.809  1.00  0.00    -0.192 A  
HETATM   16  C   UNL     1      -9.266   8.952  67.103  1.00  0.00    -0.139 A  
HETATM   17  C   UNL     1      -9.406  11.256  67.922  1.00  0.00    -0.161 A  
HETATM   18  C   UNL     1      -8.413  10.857  65.791  1.00  0.00    -0.155 A  
HETATM   19  C   UNL     1      -9.659   9.892  68.060  1.00  0.00    -0.155 A  
HETATM   20  C   UNL     1      -8.683   9.487  65.939  1.00  0.00    -0.168 A  
BRANCH  16  21
HETATM   21  N   UNL     1      -9.500   7.598  67.286  1.00  0.00    -0.142 NA 
HETATM   22  C   UNL     1     -10.845   7.002  67.184  1.00  0.00    -0.357 C  
HETATM   23  C   UNL     1     -10.746   5.684  66.418  1.00  0.00    -0.229 C  
HETATM   24  C   UNL     1      -9.736   4.737  67.072  1.00  0.00    -0.186 C  
HETATM   25  C   UNL     1      -8.573   6.748  68.039  1.00  0.00    -0.122 C  
HETATM   26  C   UNL     1      -8.395   5.459  67.252  1.00  0.00    -0.107 C  
BRANCH  24  27
HETATM   27  O   UNL     1     -10.290   4.328  68.334  1.00  0.00     0.178 OA 
BRANCH  27  28
HETATM   28  C   UNL     1      -9.730   4.865  69.459  1.00  0.00    -0.195 A  
HETATM   29  C   UNL     1     -10.439   5.481  70.484  1.00  0.00    -0.347 A  
HETATM   30  C   UNL     1      -9.767   5.984  71.596  1.00  0.00    -0.180 A  
HETATM   31  C   UNL     1      -8.383   5.890  71.703  1.00  0.00    -0.127 A  
HETATM   32  C   UNL     1      -7.666   5.287  70.670  1.00  0.00    -0.084 A  
HETATM   33  C   UNL     1      -8.343   4.754  69.563  1.00  0.00    -0.086 A  
BRANCH  31  34
HETATM   34  O   UNL     1      -7.872   6.502  72.797  1.00  0.00    -0.101 OA 
HETATM   35  C   UNL     1      -7.222   7.755  72.670  1.00  0.00    -0.085 C  
HETATM   36  F   UNL     1      -7.827   8.645  73.488  1.00  0.00    -0.200 F  
HETATM   37  F   UNL     1      -7.206   8.257  71.421  1.00  0.00    -0.058 F  
HETATM   38  F   UNL     1      -5.939   7.615  73.082  1.00  0.00    -0.050 F  
ENDBRANCH  31  34
ENDBRANCH  27  28
ENDBRANCH  24  27
ENDBRANCH  16  21
ENDBRANCH  14  15
ENDBRANCH  13  14
ENDBRANCH   2  13
TORSDOF 7
ENDMDL
MODEL      184
REMARK 921   NORMALIZED FREE ENERGY PREDICTED BY IDOCK:   -0.92 KCAL/MOL
REMARK 922        TOTAL FREE ENERGY PREDICTED BY IDOCK:   -2.77 KCAL/MOL
REMARK 923 INTER-LIGAND FREE ENERGY PREDICTED BY IDOCK:   -6.50 KCAL/MOL
REMARK 924 INTRA-LIGAND FREE ENERGY PREDICTED BY IDOCK:    3.73 KCAL/MOL
REMARK 927      BINDING AFFINITY PREDICTED BY RF-SCORE:    0.00 PKD
ROOT
HETATM    1  C   UNL     1     -13.031  15.901  70.888  1.00  0.00    -0.064 C  
HETATM    2  C   UNL     1     -11.969  15.536  69.855  1.00  0.00    -0.362 C  
HETATM    3  C   UNL     1     -11.249  16.925  68.267  1.00  0.00    -0.105 A  
HETATM    4  C   UNL     1     -10.556  16.027  70.271  1.00  0.00    -0.197 C  
HETATM    5  N   UNL     1     -10.234  16.870  69.151  1.00  0.00    -0.296 NA 
HETATM    6  O   UNL     1      -7.870  19.388  66.955  1.00  0.00    -0.246 OA 
HETATM    7  C   UNL     1      -9.214  17.630  68.723  1.00  0.00    -0.215 A  
HETATM    8  O   UNL     1     -12.312  16.212  68.595  1.00  0.00     0.175 OA 
HETATM    9  O   UNL     1      -9.603  19.394  65.591  1.00  0.00    -0.328 OA 
HETATM   10  C   UNL     1      -9.698  18.136  67.518  1.00  0.00    -0.303 A  
HETATM   11  N   UNL     1     -10.988  17.678  67.239  1.00  0.00    -0.124 NA 
HETATM   12  N   UNL     1      -9.013  19.038  66.618  1.00  0.00    -0.314 N  
ENDROOT
BRANCH   2  13
HETATM   13  C   UNL     1     -11.966  14.035  69.572  1.00  0.00    -0.339 C  
BRANCH  13  14
HETATM   14  O   UNL     1     -10.845  13.669  68.766  1.00  0.00    -0.248 OA 
BRANCH  14  15
HETATM   15  C   UNL     1     -10.601  12.323  68.743  1.00  0.00    -0.194 A  
HETATM   16  C   UNL     1     -10.277   9.495  68.506  1.00  0.00    -0.199 A  
HETATM   17  C   UNL     1      -9.339  11.753  68.662  1.00  0.00    -0.096 A  
HETATM   18  C   UNL     1     -11.704  11.484  68.805  1.00  0.00    -0.397 A  
HETATM   19  C   UNL     1      -9.189  10.372  68.544  1.00  0.00    -0.145 A  
HETATM   20  C   UNL     1     -11.537  10.094  68.695  1.00  0.00    -0.009 A  
BRANCH  16  21
HETATM   21  N   UNL     1     -10.096   8.130  68.350  1.00  0.00    -0.195 NA 
HETATM   22  C   UNL     1     -10.148   7.187  69.483  1.00  0.00    -0.179 C  
HETATM   23  C   UNL     1     -10.930   5.945  69.056  1.00  0.00    -0.359 C  
HETATM   24  C   UNL     1     -10.326   5.314  67.799  1.00  0.00    -0.133 C  
HETATM   25  C   UNL     1      -9.389   7.570  67.194  1.00  0.00    -0.142 C  
HETATM   26  C   UNL     1     -10.194   6.378  66.702  1.00  0.00    -0.216 C  
BRANCH  24  27
HETATM   27  O   UNL     1      -9.046   4.771  68.165  1.00  0.00    -0.109 OA 
BRANCH  27  28
HETATM   28  C   UNL     1      -8.449   5.292  69.279  1.00  0.00    -0.101 A  
HETATM   29  C   UNL     1      -7.727   6.480  69.312  1.00  0.00    -0.101 A  
HETATM   30  C   UNL     1      -7.170   6.927  70.509  1.00  0.00    -0.072 A  
HETATM   31  C   UNL     1      -7.315   6.200  71.685  1.00  0.00    -0.089 A  
HETATM   32  C   UNL     1      -8.026   5.000  71.654  1.00  0.00    -0.113 A  
HETATM   33  C   UNL     1      -8.612   4.562  70.457  1.00  0.00    -0.111 A  
BRANCH  31  34
HETATM   34  O   UNL     1      -6.645   6.719  72.741  1.00  0.00    -0.065 OA 
HETATM   35  C   UNL     1      -6.980   8.007  73.229  1.00  0.00    -0.103 C  
HETATM   36  F   UNL     1      -7.287   7.910  74.541  1.00  0.00    -0.142 F  
HETATM   37  F   UNL     1      -8.003   8.604  72.588  1.00  0.00    -0.186 F  
HETATM   38  F   UNL     1      -5.892   8.805  73.113  1.00  0.00    -0.080 F  
ENDBRANCH  31  34
ENDBRANCH  27  28
ENDBRANCH  24  27
ENDBRANCH  16  21
ENDBRANCH  14  15
ENDBRANCH  13  14
ENDBRANCH   2  13
TORSDOF 7
ENDMDL
MODEL      185
REMARK 921   NORMALIZED FREE ENERGY PREDICTED BY IDOCK:   -0.89 KCAL/MOL
REMARK 922        TOTAL FREE ENERGY PREDICTED BY IDOCK:   -2.74 KCAL/MOL
REMARK 923 INTER-LIGAND FREE ENERGY PREDICTED BY IDOCK:   -6.21 KCAL/MOL
REMARK 924 INTRA-LIGAND FREE ENERGY PREDICTED BY IDOCK:    3.47 KCAL/MOL
REMARK 927      BINDING AFFINITY PREDICTED BY RF-SCORE:    0.00 PKD
ROOT
HETATM    1  C   UNL     1      -9.443   9.256  67.719  1.00  0.00    -0.160 C  
HETATM    2  C   UNL     1      -8.237   8.591  67.061  1.00  0.00    -0.107 C  
HETATM    3  C   UNL     1      -7.805   6.407  67.176  1.00  0.00    -0.108 A  
HETATM    4  C   UNL     1      -8.591   7.974  65.681  1.00  0.00    -0.145 C  
HETATM    5  N   UNL     1      -8.235   6.599  65.913  1.00  0.00    -0.125 NA 
HETATM    6  O   UNL     1      -7.758   2.663  64.900  1.00  0.00    -0.074 OA 
HETATM    7  C   UNL     1      -8.207   5.439  65.240  1.00  0.00    -0.133 A  
HETATM    8  O   UNL     1      -7.797   7.491  67.932  1.00  0.00    -0.113 OA 
HETATM    9  O   UNL     1      -7.078   2.482  66.989  1.00  0.00    -0.047 OA 
HETATM   10  C   UNL     1      -7.726   4.545  66.196  1.00  0.00    -0.094 A  
HETATM   11  N   UNL     1      -7.472   5.173  67.418  1.00  0.00    -0.082 NA 
HETATM   12  N   UNL     1      -7.502   3.127  66.022  1.00  0.00    -0.072 N  
ENDROOT
BRANCH   2  13
HETATM   13  C   UNL     1      -7.066   9.565  66.942  1.00  0.00    -0.086 C  
BRANCH  13  14
HETATM   14  O   UNL     1      -6.733  10.120  68.216  1.00  0.00    -0.054 OA 
BRANCH  14  15
HETATM   15  C   UNL     1      -6.735  11.488  68.234  1.00  0.00    -0.064 A  
HETATM   16  C   UNL     1      -6.539  14.335  68.100  1.00  0.00    -0.130 A  
HETATM   17  C   UNL     1      -7.866  12.276  68.073  1.00  0.00    -0.147 A  
HETATM   18  C   UNL     1      -5.513  12.117  68.427  1.00  0.00    -0.054 A  
HETATM   19  C   UNL     1      -7.762  13.664  68.006  1.00  0.00    -0.143 A  
HETATM   20  C   UNL     1      -5.425  13.517  68.367  1.00  0.00    -0.095 A  
BRANCH  16  21
HETATM   21  N   UNL     1      -6.465  15.714  67.991  1.00  0.00    -0.126 NA 
HETATM   22  C   UNL     1      -7.099  16.624  68.964  1.00  0.00    -0.216 C  
HETATM   23  C   UNL     1      -6.137  17.770  69.271  1.00  0.00    -0.233 C  
HETATM   24  C   UNL     1      -5.709  18.492  67.990  1.00  0.00    -0.173 C  
HETATM   25  C   UNL     1      -6.186  16.377  66.714  1.00  0.00     0.067 C  
HETATM   26  C   UNL     1      -5.167  17.473  66.981  1.00  0.00    -0.166 C  
BRANCH  24  27
HETATM   27  O   UNL     1      -6.865  19.178  67.480  1.00  0.00    -0.206 OA 
BRANCH  27  28
HETATM   28  C   UNL     1      -8.077  18.578  67.676  1.00  0.00    -0.250 A  
HETATM   29  C   UNL     1      -8.846  18.697  68.829  1.00  0.00    -0.287 A  
HETATM   30  C   UNL     1     -10.077  18.051  68.919  1.00  0.00    -0.352 A  
HETATM   31  C   UNL     1     -10.560  17.275  67.871  1.00  0.00    -0.384 A  
HETATM   32  C   UNL     1      -9.786  17.140  66.719  1.00  0.00    -0.277 A  
HETATM   33  C   UNL     1      -8.559  17.812  66.614  1.00  0.00    -0.280 A  
BRANCH  31  34
HETATM   34  O   UNL     1     -11.727  16.644  68.143  1.00  0.00     0.007 OA 
HETATM   35  C   UNL     1     -11.724  15.444  68.898  1.00  0.00    -0.359 C  
HETATM   36  F   UNL     1     -12.527  15.604  69.973  1.00  0.00    -0.376 F  
HETATM   37  F   UNL     1     -10.509  15.047  69.320  1.00  0.00    -0.217 F  
HETATM   38  F   UNL     1     -12.245  14.456  68.131  1.00  0.00    -0.346 F  
ENDBRANCH  31  34
ENDBRANCH  27  28
ENDBRANCH  24  27
ENDBRANCH  16  21
ENDBRANCH  14  15
ENDBRANCH  13  14
ENDBRANCH   2  13
TORSDOF 7
ENDMDL
MODEL      186
REMARK 921   NORMALIZED FREE ENERGY PREDICTED BY IDOCK:   -0.88 KCAL/MOL
REMARK 922        TOTAL FREE ENERGY PREDICTED BY IDOCK:   -2.71 KCAL/MOL
REMARK 923 INTER-LIGAND FREE ENERGY PREDICTED BY IDOCK:   -1.85 KCAL/MOL
REMARK 924 INTRA-LIGAND FREE ENERGY PREDICTED BY IDOCK:   -0.86 KCAL/MOL
REMARK 927      BINDING AFFINITY PREDICTED BY RF-SCORE:    0.00 PKD
ROOT
HETATM    1  C   UNL     1     -11.607  18.198  66.049  1.00  0.00     2.175 C  
HETATM    2  C   UNL     1     -11.078  18.017  67.469  1.00  0.00     0.096 C  
HETATM    3  C   UNL     1      -8.927  18.194  68.028  1.00  0.00    -0.283 A  
HETATM    4  C   UNL     1     -10.898  19.373  68.203  1.00  0.00     0.018 C  
HETATM    5  N   UNL     1      -9.493  19.316  68.512  1.00  0.00    -0.368 NA 
HETATM    6  O   UNL     1      -5.979  20.691  70.097  1.00  0.00    -0.462 OA 
HETATM    7  C   UNL     1      -8.571  20.059  69.142  1.00  0.00     0.299 A  
HETATM    8  O   UNL     1      -9.751  17.389  67.381  1.00  0.00    -0.259 OA 
HETATM    9  O   UNL     1      -5.175  18.820  69.253  1.00  0.00    -0.193 OA 
HETATM   10  C   UNL     1      -7.415  19.292  68.998  1.00  0.00    -0.336 A  
HETATM   11  N   UNL     1      -7.656  18.111  68.292  1.00  0.00    -0.265 NA 
HETATM   12  N   UNL     1      -6.092  19.619  69.482  1.00  0.00    -0.278 N  
ENDROOT
BRANCH   2  13
HETATM   13  C   UNL     1     -11.968  17.073  68.274  1.00  0.00     1.236 C  
BRANCH  13  14
HETATM   14  O   UNL     1     -11.199  16.326  69.219  1.00  0.00    -0.322 OA 
BRANCH  14  15
HETATM   15  C   UNL     1     -10.771  15.117  68.745  1.00  0.00    -0.239 A  
HETATM   16  C   UNL     1      -9.990  12.656  67.523  1.00  0.00    -0.205 A  
HETATM   17  C   UNL     1      -9.474  14.639  68.865  1.00  0.00    -0.173 A  
HETATM   18  C   UNL     1     -11.710  14.326  68.099  1.00  0.00    -0.385 A  
HETATM   19  C   UNL     1      -9.100  13.438  68.264  1.00  0.00    -0.181 A  
HETATM   20  C   UNL     1     -11.321  13.114  67.507  1.00  0.00    -0.336 A  
BRANCH  16  21
HETATM   21  N   UNL     1      -9.578  11.485  66.906  1.00  0.00    -0.185 NA 
HETATM   22  C   UNL     1      -8.155  11.161  66.686  1.00  0.00    -0.159 C  
HETATM   23  C   UNL     1      -7.929   9.685  67.011  1.00  0.00    -0.109 C  
HETATM   24  C   UNL     1      -8.865   8.788  66.197  1.00  0.00    -0.168 C  
HETATM   25  C   UNL     1     -10.464  10.724  66.021  1.00  0.00    -0.208 C  
HETATM   26  C   UNL     1     -10.314   9.254  66.382  1.00  0.00    -0.238 C  
BRANCH  24  27
HETATM   27  O   UNL     1      -8.453   8.876  64.822  1.00  0.00    -0.167 OA 
BRANCH  27  28
HETATM   28  C   UNL     1      -7.930   7.746  64.260  1.00  0.00    -0.120 A  
HETATM   29  C   UNL     1      -8.477   7.071  63.174  1.00  0.00     0.302 A  
HETATM   30  C   UNL     1      -7.852   5.932  62.671  1.00  0.00    -0.091 A  
HETATM   31  C   UNL     1      -6.682   5.443  63.241  1.00  0.00    -0.033 A  
HETATM   32  C   UNL     1      -6.138   6.107  64.340  1.00  0.00    -0.029 A  
HETATM   33  C   UNL     1      -6.749   7.271  64.831  1.00  0.00    -0.047 A  
BRANCH  31  34
HETATM   34  O   UNL     1      -6.246   4.282  62.696  1.00  0.00    -0.017 OA 
HETATM   35  C   UNL     1      -6.602   3.044  63.287  1.00  0.00    -0.027 C  
HETATM   36  F   UNL     1      -7.214   2.278  62.357  1.00  0.00    -0.030 F  
HETATM   37  F   UNL     1      -7.406   3.144  64.362  1.00  0.00    -0.060 F  
HETATM   38  F   UNL     1      -5.468   2.410  63.669  1.00  0.00    -0.007 F  
ENDBRANCH  31  34
ENDBRANCH  27  28
ENDBRANCH  24  27
ENDBRANCH  16  21
ENDBRANCH  14  15
ENDBRANCH  13  14
ENDBRANCH   2  13
TORSDOF 7
ENDMDL
MODEL      187
REMARK 921   NORMALIZED FREE ENERGY PREDICTED BY IDOCK:   -0.48 KCAL/MOL
REMARK 922        TOTAL FREE ENERGY PREDICTED BY IDOCK:   -2.16 KCAL/MOL
REMARK 923 INTER-LIGAND FREE ENERGY PREDICTED BY IDOCK:   -5.27 KCAL/MOL
REMARK 924 INTRA-LIGAND FREE ENERGY PREDICTED BY IDOCK:    3.11 KCAL/MOL
REMARK 927      BINDING AFFINITY PREDICTED BY RF-SCORE:    0.00 PKD
ROOT
HETATM    1  C   UNL     1     -11.860  14.348  68.481  1.00  0.00    -0.369 C  
HETATM    2  C   UNL     1     -10.425  14.083  68.030  1.00  0.00    -0.241 C  
HETATM    3  C   UNL     1      -9.250  15.472  66.743  1.00  0.00    -0.248 A  
HETATM    4  C   UNL     1      -9.387  14.795  68.940  1.00  0.00    -0.184 C  
HETATM    5  N   UNL     1      -8.710  15.613  67.969  1.00  0.00    -0.166 NA 
HETATM    6  O   UNL     1      -5.921  18.321  66.690  1.00  0.00    -0.142 OA 
HETATM    7  C   UNL     1      -7.693  16.487  67.923  1.00  0.00    -0.153 A  
HETATM    8  O   UNL     1     -10.268  14.633  66.676  1.00  0.00    -0.265 OA 
HETATM    9  O   UNL     1      -6.895  18.003  64.738  1.00  0.00     0.321 OA 
HETATM   10  C   UNL     1      -7.668  16.851  66.577  1.00  0.00    -0.291 A  
HETATM   11  N   UNL     1      -8.658  16.198  65.840  1.00  0.00    -0.290 NA 
HETATM   12  N   UNL     1      -6.765  17.792  65.951  1.00  0.00    -0.270 N  
ENDROOT
BRANCH   2  13
HETATM   13  C   UNL     1     -10.142  12.585  67.943  1.00  0.00    -0.214 C  
BRANCH  13  14
HETATM   14  O   UNL     1     -10.782  11.881  69.009  1.00  0.00    -0.214 OA 
BRANCH  14  15
HETATM   15  C   UNL     1     -10.356  10.589  69.146  1.00  0.00    -0.220 A  
HETATM   16  C   UNL     1      -9.694   7.841  69.559  1.00  0.00    -0.165 A  
HETATM   17  C   UNL     1      -9.859   9.810  68.111  1.00  0.00    -0.170 A  
HETATM   18  C   UNL     1     -10.435  10.032  70.414  1.00  0.00    -0.304 A  
HETATM   19  C   UNL     1      -9.540   8.469  68.320  1.00  0.00    -0.156 A  
HETATM   20  C   UNL     1     -10.101   8.682  70.611  1.00  0.00    -0.237 A  
BRANCH  16  21
HETATM   21  N   UNL     1      -9.404   6.496  69.725  1.00  0.00    -0.148 NA 
HETATM   22  C   UNL     1      -8.533   5.998  70.807  1.00  0.00    -0.130 C  
HETATM   23  C   UNL     1      -9.153   4.733  71.398  1.00  0.00    -0.174 C  
HETATM   24  C   UNL     1      -9.400   3.679  70.316  1.00  0.00    -0.171 C  
HETATM   25  C   UNL     1      -9.522   5.537  68.623  1.00  0.00    -0.129 C  
HETATM   26  C   UNL     1     -10.211   4.296  69.171  1.00  0.00     0.279 C  
BRANCH  24  27
HETATM   27  O   UNL     1      -8.113   3.220  69.865  1.00  0.00    -0.046 OA 
BRANCH  27  28
HETATM   28  C   UNL     1      -7.816   3.412  68.546  1.00  0.00    -0.058 A  
HETATM   29  C   UNL     1      -7.868   2.427  67.566  1.00  0.00    -0.064 A  
HETATM   30  C   UNL     1      -7.556   2.737  66.244  1.00  0.00    -0.076 A  
HETATM   31  C   UNL     1      -7.181   4.025  65.877  1.00  0.00    -0.068 A  
HETATM   32  C   UNL     1      -7.111   5.013  66.858  1.00  0.00    -0.072 A  
HETATM   33  C   UNL     1      -7.453   4.711  68.185  1.00  0.00    -0.066 A  
BRANCH  31  34
HETATM   34  O   UNL     1      -6.826   4.146  64.576  1.00  0.00    -0.044 OA 
HETATM   35  C   UNL     1      -7.823   4.305  63.581  1.00  0.00    -0.083 C  
HETATM   36  F   UNL     1      -7.570   5.437  62.888  1.00  0.00    -0.052 F  
HETATM   37  F   UNL     1      -9.084   4.358  64.051  1.00  0.00    -0.133 F  
HETATM   38  F   UNL     1      -7.740   3.262  62.721  1.00  0.00    -0.054 F  
ENDBRANCH  31  34
ENDBRANCH  27  28
ENDBRANCH  24  27
ENDBRANCH  16  21
ENDBRANCH  14  15
ENDBRANCH  13  14
ENDBRANCH   2  13
TORSDOF 7
ENDMDL
MODEL      188
REMARK 921   NORMALIZED FREE ENERGY PREDICTED BY IDOCK:   -0.34 KCAL/MOL
REMARK 922        TOTAL FREE ENERGY PREDICTED BY IDOCK:   -1.96 KCAL/MOL
REMARK 923 INTER-LIGAND FREE ENERGY PREDICTED BY IDOCK:   -5.65 KCAL/MOL
REMARK 924 INTRA-LIGAND FREE ENERGY PREDICTED BY IDOCK:    3.69 KCAL/MOL
REMARK 927      BINDING AFFINITY PREDICTED BY RF-SCORE:    0.00 PKD
ROOT
HETATM    1  C   UNL     1      -9.090   8.095  68.213  1.00  0.00    -0.135 C  
HETATM    2  C   UNL     1      -7.821   7.548  67.565  1.00  0.00    -0.116 C  
HETATM    3  C   UNL     1      -6.833   5.646  68.176  1.00  0.00    -0.060 A  
HETATM    4  C   UNL     1      -8.134   6.489  66.473  1.00  0.00    -0.111 C  
HETATM    5  N   UNL     1      -7.415   5.358  66.996  1.00  0.00    -0.086 NA 
HETATM    6  O   UNL     1      -6.039   1.503  66.988  1.00  0.00    -0.019 OA 
HETATM    7  C   UNL     1      -7.154   4.086  66.656  1.00  0.00    -0.060 A  
HETATM    8  O   UNL     1      -7.032   6.878  68.609  1.00  0.00    -0.070 OA 
HETATM    9  O   UNL     1      -5.140   2.101  68.910  1.00  0.00    -0.010 OA 
HETATM   10  C   UNL     1      -6.370   3.643  67.721  1.00  0.00    -0.037 A  
HETATM   11  N   UNL     1      -6.172   4.643  68.676  1.00  0.00    -0.031 NA 
HETATM   12  N   UNL     1      -5.806   2.322  67.891  1.00  0.00    -0.019 N  
ENDROOT
BRANCH   2  13
HETATM   13  C   UNL     1      -6.958   8.675  67.003  1.00  0.00    -0.074 C  
BRANCH  13  14
HETATM   14  O   UNL     1      -6.314   9.398  68.055  1.00  0.00    -0.056 OA 
BRANCH  14  15
HETATM   15  C   UNL     1      -6.673  10.716  68.113  1.00  0.00    -0.064 A  
HETATM   16  C   UNL     1      -7.343  13.490  67.984  1.00  0.00    -0.133 A  
HETATM   17  C   UNL     1      -7.895  11.180  68.579  1.00  0.00    -0.136 A  
HETATM   18  C   UNL     1      -5.740  11.643  67.671  1.00  0.00    -0.060 A  
HETATM   19  C   UNL     1      -8.216  12.534  68.511  1.00  0.00    -0.079 A  
HETATM   20  C   UNL     1      -6.073  13.006  67.617  1.00  0.00    -0.151 A  
BRANCH  16  21
HETATM   21  N   UNL     1      -7.705  14.825  67.895  1.00  0.00    -0.124 NA 
HETATM   22  C   UNL     1      -8.321  15.558  69.017  1.00  0.00    -0.227 C  
HETATM   23  C   UNL     1      -7.693  16.949  69.103  1.00  0.00    -0.138 C  
HETATM   24  C   UNL     1      -7.823  17.698  67.775  1.00  0.00    -0.210 C  
HETATM   25  C   UNL     1      -7.955  15.475  66.605  1.00  0.00    -0.099 C  
HETATM   26  C   UNL     1      -7.269  16.832  66.638  1.00  0.00    -0.289 C  
BRANCH  24  27
HETATM   27  O   UNL     1      -9.218  17.993  67.584  1.00  0.00    -0.255 OA 
BRANCH  27  28
HETATM   28  C   UNL     1     -10.106  17.305  68.361  1.00  0.00    -0.333 A  
HETATM   29  C   UNL     1     -10.367  17.574  69.701  1.00  0.00     0.189 A  
HETATM   30  C   UNL     1     -11.307  16.816  70.397  1.00  0.00     0.282 A  
HETATM   31  C   UNL     1     -11.994  15.778  69.778  1.00  0.00    -0.322 A  
HETATM   32  C   UNL     1     -11.724  15.493  68.439  1.00  0.00    -0.323 A  
HETATM   33  C   UNL     1     -10.800  16.273  67.728  1.00  0.00    -0.315 A  
BRANCH  31  34
HETATM   34  O   UNL     1     -12.807  15.082  70.608  1.00  0.00    -0.355 OA 
HETATM   35  C   UNL     1     -12.698  15.250  72.011  1.00  0.00    -0.352 C  
HETATM   36  F   UNL     1     -13.902  15.618  72.501  1.00  0.00    -0.513 F  
HETATM   37  F   UNL     1     -11.779  16.154  72.401  1.00  0.00    -0.488 F  
HETATM   38  F   UNL     1     -12.371  14.056  72.561  1.00  0.00    -0.271 F  
ENDBRANCH  31  34
ENDBRANCH  27  28
ENDBRANCH  24  27
ENDBRANCH  16  21
ENDBRANCH  14  15
ENDBRANCH  13  14
ENDBRANCH   2  13
TORSDOF 7
ENDMDL
MODEL      189
REMARK 921   NORMALIZED FREE ENERGY PREDICTED BY IDOCK:   -0.31 KCAL/MOL
REMARK 922        TOTAL FREE ENERGY PREDICTED BY IDOCK:   -1.91 KCAL/MOL
REMARK 923 INTER-LIGAND FREE ENERGY PREDICTED BY IDOCK:   -6.15 KCAL/MOL
REMARK 924 INTRA-LIGAND FREE ENERGY PREDICTED BY IDOCK:    4.24 KCAL/MOL
REMARK 927      BINDING AFFINITY PREDICTED BY RF-SCORE:    0.00 PKD
ROOT
HETATM    1  C   UNL     1     -10.034  19.188  68.306  1.00  0.00    -0.482 C  
HETATM    2  C   UNL     1      -9.620  18.721  66.913  1.00  0.00    -0.309 C  
HETATM    3  C   UNL     1     -10.077  16.699  66.093  1.00  0.00    -0.345 A  
HETATM    4  C   UNL     1     -10.765  18.887  65.878  1.00  0.00    -0.297 C  
HETATM    5  N   UNL     1     -10.914  17.526  65.435  1.00  0.00    -0.343 NA 
HETATM    6  O   UNL     1     -12.527  14.501  63.200  1.00  0.00    -0.324 OA 
HETATM    7  C   UNL     1     -11.648  16.828  64.555  1.00  0.00     0.536 A  
HETATM    8  O   UNL     1      -9.307  17.286  66.991  1.00  0.00    -0.240 OA 
HETATM    9  O   UNL     1     -11.114  13.257  64.347  1.00  0.00    -0.351 OA 
HETATM   10  C   UNL     1     -11.182  15.526  64.738  1.00  0.00    -0.390 A  
HETATM   11  N   UNL     1     -10.184  15.459  65.713  1.00  0.00    -0.325 NA 
HETATM   12  N   UNL     1     -11.636  14.338  64.048  1.00  0.00    -0.177 N  
ENDROOT
BRANCH   2  13
HETATM   13  C   UNL     1      -8.352  19.432  66.446  1.00  0.00    -0.331 C  
BRANCH  13  14
HETATM   14  O   UNL     1      -7.255  19.145  67.316  1.00  0.00    -0.215 OA 
BRANCH  14  15
HETATM   15  C   UNL     1      -7.248  17.859  67.783  1.00  0.00    -0.209 A  
HETATM   16  C   UNL     1      -7.011  15.138  68.620  1.00  0.00    -0.113 A  
HETATM   17  C   UNL     1      -7.401  17.505  69.116  1.00  0.00    -0.128 A  
HETATM   18  C   UNL     1      -7.074  16.851  66.847  1.00  0.00    -0.251 A  
HETATM   19  C   UNL     1      -7.281  16.176  69.517  1.00  0.00    -0.136 A  
HETATM   20  C   UNL     1      -6.965  15.514  67.265  1.00  0.00    -0.206 A  
BRANCH  16  21
HETATM   21  N   UNL     1      -6.860  13.831  69.055  1.00  0.00    -0.110 NA 
HETATM   22  C   UNL     1      -7.846  12.775  68.757  1.00  0.00     0.040 C  
HETATM   23  C   UNL     1      -7.102  11.496  68.379  1.00  0.00    -0.081 C  
HETATM   24  C   UNL     1      -6.118  11.082  69.476  1.00  0.00    -0.072 C  
HETATM   25  C   UNL     1      -6.012  13.490  70.200  1.00  0.00    -0.145 C  
HETATM   26  C   UNL     1      -5.200  12.263  69.816  1.00  0.00    -0.078 C  
BRANCH  24  27
HETATM   27  O   UNL     1      -6.895  10.671  70.614  1.00  0.00    -0.303 OA 
BRANCH  27  28
HETATM   28  C   UNL     1      -6.897   9.338  70.912  1.00  0.00    -0.103 A  
HETATM   29  C   UNL     1      -8.005   8.503  70.813  1.00  0.00    -0.111 A  
HETATM   30  C   UNL     1      -7.893   7.151  71.129  1.00  0.00    -0.098 A  
HETATM   31  C   UNL     1      -6.684   6.610  71.555  1.00  0.00    -0.061 A  
HETATM   32  C   UNL     1      -5.574   7.446  71.671  1.00  0.00    -0.036 A  
HETATM   33  C   UNL     1      -5.677   8.802  71.325  1.00  0.00    -0.042 A  
BRANCH  31  34
HETATM   34  O   UNL     1      -6.757   5.304  71.908  1.00  0.00    -0.052 OA 
HETATM   35  C   UNL     1      -7.617   4.427  71.200  1.00  0.00    -0.067 C  
HETATM   36  F   UNL     1      -6.887   3.393  70.724  1.00  0.00    -0.030 F  
HETATM   37  F   UNL     1      -8.281   4.994  70.175  1.00  0.00    -0.076 F  
HETATM   38  F   UNL     1      -8.530   3.930  72.067  1.00  0.00    -0.090 F  
ENDBRANCH  31  34
ENDBRANCH  27  28
ENDBRANCH  24  27
ENDBRANCH  16  21
ENDBRANCH  14  15
ENDBRANCH  13  14
ENDBRANCH   2  13
TORSDOF 7
ENDMDL
MODEL      190
REMARK 921   NORMALIZED FREE ENERGY PREDICTED BY IDOCK:   -0.30 KCAL/MOL
REMARK 922        TOTAL FREE ENERGY PREDICTED BY IDOCK:   -1.91 KCAL/MOL
REMARK 923 INTER-LIGAND FREE ENERGY PREDICTED BY IDOCK:   -3.66 KCAL/MOL
REMARK 924 INTRA-LIGAND FREE ENERGY PREDICTED BY IDOCK:    1.76 KCAL/MOL
REMARK 927      BINDING AFFINITY PREDICTED BY RF-SCORE:    0.00 PKD
ROOT
HETATM    1  C   UNL     1      -6.140  15.161  71.623  1.00  0.00     0.676 C  
HETATM    2  C   UNL     1      -6.279  15.233  70.104  1.00  0.00    -0.131 C  
HETATM    3  C   UNL     1      -7.284  16.904  69.025  1.00  0.00    -0.232 A  
HETATM    4  C   UNL     1      -5.168  16.104  69.457  1.00  0.00    -0.115 C  
HETATM    5  N   UNL     1      -5.971  17.096  68.793  1.00  0.00    -0.150 NA 
HETATM    6  O   UNL     1      -6.622  20.400  66.467  1.00  0.00    -0.215 OA 
HETATM    7  C   UNL     1      -5.798  18.169  68.006  1.00  0.00    -0.164 A  
HETATM    8  O   UNL     1      -7.567  15.870  69.797  1.00  0.00    -0.113 OA 
HETATM    9  O   UNL     1      -8.736  19.978  66.925  1.00  0.00    -0.318 OA 
HETATM   10  C   UNL     1      -7.107  18.597  67.786  1.00  0.00    -0.220 A  
HETATM   11  N   UNL     1      -8.039  17.785  68.435  1.00  0.00    -0.289 NA 
HETATM   12  N   UNL     1      -7.525  19.740  67.004  1.00  0.00    -0.231 N  
ENDROOT
BRANCH   2  13
HETATM   13  C   UNL     1      -6.310  13.837  69.485  1.00  0.00    -0.118 C  
BRANCH  13  14
HETATM   14  O   UNL     1      -5.739  12.873  70.372  1.00  0.00    -0.150 OA 
BRANCH  14  15
HETATM   15  C   UNL     1      -5.790  11.592  69.896  1.00  0.00    -0.121 A  
HETATM   16  C   UNL     1      -6.053   8.859  69.105  1.00  0.00    -0.042 A  
HETATM   17  C   UNL     1      -6.075  11.252  68.581  1.00  0.00    -0.043 A  
HETATM   18  C   UNL     1      -5.538  10.573  70.803  1.00  0.00    -0.099 A  
HETATM   19  C   UNL     1      -6.204   9.916  68.203  1.00  0.00    -0.054 A  
HETATM   20  C   UNL     1      -5.663   9.231  70.406  1.00  0.00    -0.036 A  
BRANCH  16  21
HETATM   21  N   UNL     1      -6.226   7.543  68.707  1.00  0.00    -0.031 NA 
HETATM   22  C   UNL     1      -5.146   6.541  68.786  1.00  0.00    -0.008 C  
HETATM   23  C   UNL     1      -5.727   5.228  69.309  1.00  0.00    -0.015 C  
HETATM   24  C   UNL     1      -6.898   4.757  68.443  1.00  0.00    -0.055 C  
HETATM   25  C   UNL     1      -7.279   7.151  67.767  1.00  0.00    -0.091 C  
HETATM   26  C   UNL     1      -7.927   5.887  68.310  1.00  0.00    -0.109 C  
BRANCH  24  27
HETATM   27  O   UNL     1      -6.360   4.378  67.165  1.00  0.00    -0.038 OA 
BRANCH  27  28
HETATM   28  C   UNL     1      -6.673   5.176  66.101  1.00  0.00    -0.054 A  
HETATM   29  C   UNL     1      -5.862   6.188  65.599  1.00  0.00    -0.025 A  
HETATM   30  C   UNL     1      -6.274   6.934  64.497  1.00  0.00    -0.036 A  
HETATM   31  C   UNL     1      -7.498   6.692  63.883  1.00  0.00    -0.094 A  
HETATM   32  C   UNL     1      -8.323   5.689  64.392  1.00  0.00    -0.093 A  
HETATM   33  C   UNL     1      -7.897   4.917  65.483  1.00  0.00    -0.095 A  
BRANCH  31  34
HETATM   34  O   UNL     1      -7.794   7.556  62.882  1.00  0.00    -0.123 OA 
HETATM   35  C   UNL     1      -8.038   8.921  63.174  1.00  0.00    -0.173 C  
HETATM   36  F   UNL     1      -7.186   9.681  62.450  1.00  0.00    -0.107 F  
HETATM   37  F   UNL     1      -7.913   9.251  64.473  1.00  0.00    -0.108 F  
HETATM   38  F   UNL     1      -9.300   9.223  62.786  1.00  0.00    -0.245 F  
ENDBRANCH  31  34
ENDBRANCH  27  28
ENDBRANCH  24  27
ENDBRANCH  16  21
ENDBRANCH  14  15
ENDBRANCH  13  14
ENDBRANCH   2  13
TORSDOF 7
ENDMDL
MODEL      191
REMARK 921   NORMALIZED FREE ENERGY PREDICTED BY IDOCK:   -0.27 KCAL/MOL
REMARK 922        TOTAL FREE ENERGY PREDICTED BY IDOCK:   -1.86 KCAL/MOL
REMARK 923 INTER-LIGAND FREE ENERGY PREDICTED BY IDOCK:   -6.75 KCAL/MOL
REMARK 924 INTRA-LIGAND FREE ENERGY PREDICTED BY IDOCK:    4.89 KCAL/MOL
REMARK 927      BINDING AFFINITY PREDICTED BY RF-SCORE:    0.00 PKD
ROOT
HETATM    1  C   UNL     1      -8.872  17.360  65.864  1.00  0.00     0.035 C  
HETATM    2  C   UNL     1      -9.197  18.208  67.091  1.00  0.00    -0.256 C  
HETATM    3  C   UNL     1      -7.806  18.495  68.808  1.00  0.00    -0.275 A  
HETATM    4  C   UNL     1      -8.612  19.642  66.981  1.00  0.00    -0.312 C  
HETATM    5  N   UNL     1      -7.778  19.672  68.153  1.00  0.00    -0.303 NA 
HETATM    6  O   UNL     1      -5.174  21.365  70.818  1.00  0.00    -0.554 OA 
HETATM    7  C   UNL     1      -6.968  20.531  68.790  1.00  0.00     0.010 A  
HETATM    8  O   UNL     1      -8.573  17.570  68.259  1.00  0.00    -0.250 OA 
HETATM    9  O   UNL     1      -5.305  19.393  71.793  1.00  0.00    -0.378 OA 
HETATM   10  C   UNL     1      -6.521  19.777  69.875  1.00  0.00    -0.327 A  
HETATM   11  N   UNL     1      -7.062  18.489  69.876  1.00  0.00     0.305 NA 
HETATM   12  N   UNL     1      -5.601  20.204  70.907  1.00  0.00    -0.287 N  
ENDROOT
BRANCH   2  13
HETATM   13  C   UNL     1     -10.701  18.248  67.351  1.00  0.00    -0.350 C  
BRANCH  13  14
HETATM   14  O   UNL     1     -11.132  17.073  68.040  1.00  0.00    -0.324 OA 
BRANCH  14  15
HETATM   15  C   UNL     1     -10.329  15.987  67.826  1.00  0.00    -0.279 A  
HETATM   16  C   UNL     1      -8.705  13.645  67.629  1.00  0.00    -0.182 A  
HETATM   17  C   UNL     1     -10.422  15.142  66.729  1.00  0.00    -0.283 A  
HETATM   18  C   UNL     1      -9.360  15.723  68.783  1.00  0.00    -0.218 A  
HETATM   19  C   UNL     1      -9.628  14.000  66.641  1.00  0.00    -0.299 A  
HETATM   20  C   UNL     1      -8.560  14.573  68.676  1.00  0.00    -0.168 A  
BRANCH  16  21
HETATM   21  N   UNL     1      -7.957  12.482  67.530  1.00  0.00    -0.164 NA 
HETATM   22  C   UNL     1      -8.563  11.139  67.599  1.00  0.00    -0.126 C  
HETATM   23  C   UNL     1      -7.918  10.250  66.536  1.00  0.00    -0.118 C  
HETATM   24  C   UNL     1      -6.396  10.213  66.694  1.00  0.00    -0.072 C  
HETATM   25  C   UNL     1      -6.521  12.459  67.823  1.00  0.00    -0.115 C  
HETATM   26  C   UNL     1      -5.846  11.645  66.730  1.00  0.00    -0.140 C  
BRANCH  24  27
HETATM   27  O   UNL     1      -6.109   9.506  67.913  1.00  0.00    -0.051 OA 
BRANCH  27  28
HETATM   28  C   UNL     1      -6.643   8.255  68.042  1.00  0.00    -0.057 A  
HETATM   29  C   UNL     1      -7.004   7.664  69.249  1.00  0.00    -0.060 A  
HETATM   30  C   UNL     1      -7.554   6.384  69.264  1.00  0.00    -0.099 A  
HETATM   31  C   UNL     1      -7.747   5.670  68.086  1.00  0.00    -0.089 A  
HETATM   32  C   UNL     1      -7.373   6.252  66.875  1.00  0.00    -0.083 A  
HETATM   33  C   UNL     1      -6.845   7.552  66.854  1.00  0.00    -0.070 A  
BRANCH  31  34
HETATM   34  O   UNL     1      -8.209   4.411  68.274  1.00  0.00    -0.088 OA 
HETATM   35  C   UNL     1      -9.591   4.135  68.128  1.00  0.00    -0.134 C  
HETATM   36  F   UNL     1      -9.745   3.157  67.207  1.00  0.00    -0.231 F  
HETATM   37  F   UNL     1     -10.342   5.191  67.766  1.00  0.00    -0.212 F  
HETATM   38  F   UNL     1     -10.062   3.672  69.311  1.00  0.00    -0.139 F  
ENDBRANCH  31  34
ENDBRANCH  27  28
ENDBRANCH  24  27
ENDBRANCH  16  21
ENDBRANCH  14  15
ENDBRANCH  13  14
ENDBRANCH   2  13
TORSDOF 7
ENDMDL
MODEL      192
REMARK 921   NORMALIZED FREE ENERGY PREDICTED BY IDOCK:   -0.23 KCAL/MOL
REMARK 922        TOTAL FREE ENERGY PREDICTED BY IDOCK:   -1.81 KCAL/MOL
REMARK 923 INTER-LIGAND FREE ENERGY PREDICTED BY IDOCK:   -0.73 KCAL/MOL
REMARK 924 INTRA-LIGAND FREE ENERGY PREDICTED BY IDOCK:   -1.08 KCAL/MOL
REMARK 927      BINDING AFFINITY PREDICTED BY RF-SCORE:    0.00 PKD
ROOT
HETATM    1  C   UNL     1     -11.559  18.406  65.719  1.00  0.00     2.317 C  
HETATM    2  C   UNL     1     -11.038  18.335  67.152  1.00  0.00     0.169 C  
HETATM    3  C   UNL     1      -8.887  18.519  67.704  1.00  0.00    -0.271 A  
HETATM    4  C   UNL     1     -10.836  19.745  67.770  1.00  0.00    -0.168 C  
HETATM    5  N   UNL     1      -9.434  19.689  68.090  1.00  0.00    -0.347 NA 
HETATM    6  O   UNL     1      -5.901  21.128  69.571  1.00  0.00    -0.305 OA 
HETATM    7  C   UNL     1      -8.500  20.465  68.660  1.00  0.00     0.468 A  
HETATM    8  O   UNL     1      -9.723  17.678  67.124  1.00  0.00    -0.274 OA 
HETATM    9  O   UNL     1      -5.128  19.178  68.892  1.00  0.00    -0.188 OA 
HETATM   10  C   UNL     1      -7.358  19.668  68.587  1.00  0.00    -0.340 A  
HETATM   11  N   UNL     1      -7.618  18.436  67.982  1.00  0.00    -0.252 NA 
HETATM   12  N   UNL     1      -6.031  20.010  69.048  1.00  0.00    -0.266 N  
ENDROOT
BRANCH   2  13
HETATM   13  C   UNL     1     -11.949  17.478  68.028  1.00  0.00     1.998 C  
BRANCH  13  14
HETATM   14  O   UNL     1     -11.195  16.788  69.028  1.00  0.00    -0.228 OA 
BRANCH  14  15
HETATM   15  C   UNL     1     -10.822  15.525  68.658  1.00  0.00    -0.267 A  
HETATM   16  C   UNL     1     -10.007  12.836  68.144  1.00  0.00    -0.229 A  
HETATM   17  C   UNL     1     -11.545  14.711  67.797  1.00  0.00    -0.382 A  
HETATM   18  C   UNL     1      -9.638  15.038  69.191  1.00  0.00    -0.202 A  
HETATM   19  C   UNL     1     -11.142  13.399  67.553  1.00  0.00    -0.294 A  
HETATM   20  C   UNL     1      -9.240  13.717  68.929  1.00  0.00     0.164 A  
BRANCH  16  21
HETATM   21  N   UNL     1      -9.654  11.516  67.911  1.00  0.00    -0.172 NA 
HETATM   22  C   UNL     1      -9.138  10.632  68.973  1.00  0.00    -0.166 C  
HETATM   23  C   UNL     1      -9.787   9.256  68.830  1.00  0.00    -0.174 C  
HETATM   24  C   UNL     1      -9.561   8.680  67.429  1.00  0.00    -0.159 C  
HETATM   25  C   UNL     1      -9.311  11.032  66.571  1.00  0.00    -0.180 C  
HETATM   26  C   UNL     1     -10.013   9.697  66.375  1.00  0.00    -0.323 C  
BRANCH  24  27
HETATM   27  O   UNL     1      -8.159   8.382  67.310  1.00  0.00    -0.104 OA 
BRANCH  27  28
HETATM   28  C   UNL     1      -7.766   7.116  67.641  1.00  0.00    -0.112 A  
HETATM   29  C   UNL     1      -8.532   5.971  67.454  1.00  0.00    -0.104 A  
HETATM   30  C   UNL     1      -8.026   4.724  67.816  1.00  0.00    -0.093 A  
HETATM   31  C   UNL     1      -6.758   4.596  68.374  1.00  0.00    -0.050 A  
HETATM   32  C   UNL     1      -5.992   5.744  68.577  1.00  0.00    -0.020 A  
HETATM   33  C   UNL     1      -6.487   6.998  68.188  1.00  0.00    -0.047 A  
BRANCH  31  34
HETATM   34  O   UNL     1      -6.445   3.334  68.751  1.00  0.00    -0.029 OA 
HETATM   35  C   UNL     1      -6.495   2.971  70.120  1.00  0.00    -0.032 C  
HETATM   36  F   UNL     1      -7.324   1.913  70.260  1.00  0.00    -0.033 F  
HETATM   37  F   UNL     1      -6.901   3.951  70.948  1.00  0.00    -0.029 F  
HETATM   38  F   UNL     1      -5.256   2.584  70.505  1.00  0.00    -0.003 F  
ENDBRANCH  31  34
ENDBRANCH  27  28
ENDBRANCH  24  27
ENDBRANCH  16  21
ENDBRANCH  14  15
ENDBRANCH  13  14
ENDBRANCH   2  13
TORSDOF 7
ENDMDL
MODEL      193
REMARK 921   NORMALIZED FREE ENERGY PREDICTED BY IDOCK:   -0.21 KCAL/MOL
REMARK 922        TOTAL FREE ENERGY PREDICTED BY IDOCK:   -1.78 KCAL/MOL
REMARK 923 INTER-LIGAND FREE ENERGY PREDICTED BY IDOCK:   -4.73 KCAL/MOL
REMARK 924 INTRA-LIGAND FREE ENERGY PREDICTED BY IDOCK:    2.95 KCAL/MOL
REMARK 927      BINDING AFFINITY PREDICTED BY RF-SCORE:    0.00 PKD
ROOT
HETATM    1  C   UNL     1      -9.910   8.343  66.480  1.00  0.00    -0.338 C  
HETATM    2  C   UNL     1      -8.540   7.674  66.408  1.00  0.00    -0.143 C  
HETATM    3  C   UNL     1      -7.895   6.011  67.744  1.00  0.00    -0.105 A  
HETATM    4  C   UNL     1      -8.572   6.366  65.572  1.00  0.00    -0.109 C  
HETATM    5  N   UNL     1      -8.111   5.420  66.553  1.00  0.00    -0.105 NA 
HETATM    6  O   UNL     1      -7.027   1.720  67.924  1.00  0.00    -0.035 OA 
HETATM    7  C   UNL     1      -7.836   4.110  66.636  1.00  0.00    -0.097 A  
HETATM    8  O   UNL     1      -8.142   7.309  67.775  1.00  0.00    -0.113 OA 
HETATM    9  O   UNL     1      -6.713   2.805  69.816  1.00  0.00    -0.033 OA 
HETATM   10  C   UNL     1      -7.435   3.968  67.964  1.00  0.00    -0.067 A  
HETATM   11  N   UNL     1      -7.475   5.182  68.655  1.00  0.00    -0.073 NA 
HETATM   12  N   UNL     1      -7.028   2.746  68.621  1.00  0.00    -0.047 N  
ENDROOT
BRANCH   2  13
HETATM   13  C   UNL     1      -7.482   8.639  65.875  1.00  0.00    -0.085 C  
BRANCH  13  14
HETATM   14  O   UNL     1      -6.787   9.277  66.948  1.00  0.00    -0.078 OA 
BRANCH  14  15
HETATM   15  C   UNL     1      -7.353  10.458  67.343  1.00  0.00    -0.093 A  
HETATM   16  C   UNL     1      -8.511  13.006  67.918  1.00  0.00    -0.185 A  
HETATM   17  C   UNL     1      -8.527  10.561  68.076  1.00  0.00    -0.120 A  
HETATM   18  C   UNL     1      -6.698  11.624  66.977  1.00  0.00    -0.145 A  
HETATM   19  C   UNL     1      -9.087  11.808  68.351  1.00  0.00    -0.176 A  
HETATM   20  C   UNL     1      -7.269  12.873  67.268  1.00  0.00    -0.075 A  
BRANCH  16  21
HETATM   21  N   UNL     1      -9.112  14.228  68.174  1.00  0.00    -0.187 NA 
HETATM   22  C   UNL     1      -8.425  15.315  68.897  1.00  0.00    -0.202 C  
HETATM   23  C   UNL     1      -8.725  16.640  68.198  1.00  0.00    -0.201 C  
HETATM   24  C   UNL     1     -10.233  16.877  68.082  1.00  0.00    -0.311 C  
HETATM   25  C   UNL     1     -10.569  14.385  68.189  1.00  0.00    -0.236 C  
HETATM   26  C   UNL     1     -10.897  15.660  67.427  1.00  0.00    -0.315 C  
BRANCH  24  27
HETATM   27  O   UNL     1     -10.734  17.101  69.412  1.00  0.00    -0.288 OA 
BRANCH  27  28
HETATM   28  C   UNL     1     -11.341  16.045  70.030  1.00  0.00    -0.352 A  
HETATM   29  C   UNL     1     -10.763  15.267  71.027  1.00  0.00    -0.058 A  
HETATM   30  C   UNL     1     -11.480  14.219  71.601  1.00  0.00     0.590 A  
HETATM   31  C   UNL     1     -12.775  13.923  71.189  1.00  0.00    -0.367 A  
HETATM   32  C   UNL     1     -13.353  14.690  70.178  1.00  0.00     0.383 A  
HETATM   33  C   UNL     1     -12.645  15.764  69.619  1.00  0.00     0.128 A  
BRANCH  31  34
HETATM   34  O   UNL     1     -13.304  12.824  71.778  1.00  0.00    -0.426 OA 
HETATM   35  C   UNL     1     -12.846  11.534  71.412  1.00  0.00    -0.384 C  
HETATM   36  F   UNL     1     -12.415  10.894  72.522  1.00  0.00     0.065 F  
HETATM   37  F   UNL     1     -11.858  11.525  70.497  1.00  0.00    -0.395 F  
HETATM   38  F   UNL     1     -13.891  10.836  70.907  1.00  0.00     0.054 F  
ENDBRANCH  31  34
ENDBRANCH  27  28
ENDBRANCH  24  27
ENDBRANCH  16  21
ENDBRANCH  14  15
ENDBRANCH  13  14
ENDBRANCH   2  13
TORSDOF 7
ENDMDL
MODEL      194
REMARK 921   NORMALIZED FREE ENERGY PREDICTED BY IDOCK:   -0.00 KCAL/MOL
REMARK 922        TOTAL FREE ENERGY PREDICTED BY IDOCK:   -1.49 KCAL/MOL
REMARK 923 INTER-LIGAND FREE ENERGY PREDICTED BY IDOCK:   -2.03 KCAL/MOL
REMARK 924 INTRA-LIGAND FREE ENERGY PREDICTED BY IDOCK:    0.54 KCAL/MOL
REMARK 927      BINDING AFFINITY PREDICTED BY RF-SCORE:    0.00 PKD
ROOT
HETATM    1  C   UNL     1      -8.016  19.067  66.606  1.00  0.00    -0.282 C  
HETATM    2  C   UNL     1      -9.211  18.138  66.807  1.00  0.00    -0.279 C  
HETATM    3  C   UNL     1      -9.531  16.900  68.632  1.00  0.00    -0.268 A  
HETATM    4  C   UNL     1     -10.341  18.811  67.633  1.00  0.00    -0.420 C  
HETATM    5  N   UNL     1     -10.438  17.891  68.735  1.00  0.00    -0.291 NA 
HETATM    6  O   UNL     1     -11.962  16.454  72.251  1.00  0.00    -0.524 OA 
HETATM    7  C   UNL     1     -11.169  17.728  69.849  1.00  0.00     2.016 A  
HETATM    8  O   UNL     1      -8.752  16.967  67.568  1.00  0.00    -0.206 OA 
HETATM    9  O   UNL     1     -10.433  14.891  71.967  1.00  0.00     0.907 OA 
HETATM   10  C   UNL     1     -10.630  16.564  70.396  1.00  0.00     0.171 A  
HETATM   11  N   UNL     1      -9.595  16.048  69.613  1.00  0.00    -0.197 NA 
HETATM   12  N   UNL     1     -11.033  15.918  71.626  1.00  0.00     0.073 N  
ENDROOT
BRANCH   2  13
HETATM   13  C   UNL     1      -9.742  17.625  65.470  1.00  0.00     0.525 C  
BRANCH  13  14
HETATM   14  O   UNL     1     -10.898  16.805  65.660  1.00  0.00    -0.248 OA 
BRANCH  14  15
HETATM   15  C   UNL     1     -10.603  15.515  66.006  1.00  0.00    -0.325 A  
HETATM   16  C   UNL     1     -10.207  12.748  66.595  1.00  0.00    -0.238 A  
HETATM   17  C   UNL     1      -9.362  14.918  65.835  1.00  0.00    -0.216 A  
HETATM   18  C   UNL     1     -11.628  14.764  66.563  1.00  0.00    -0.306 A  
HETATM   19  C   UNL     1      -9.177  13.567  66.123  1.00  0.00     0.006 A  
HETATM   20  C   UNL     1     -11.424  13.406  66.857  1.00  0.00    -0.376 A  
BRANCH  16  21
HETATM   21  N   UNL     1     -10.001  11.399  66.837  1.00  0.00    -0.203 NA 
HETATM   22  C   UNL     1      -9.523  10.888  68.135  1.00  0.00    -0.165 C  
HETATM   23  C   UNL     1     -10.313   9.630  68.493  1.00  0.00    -0.231 C  
HETATM   24  C   UNL     1     -10.219   8.581  67.381  1.00  0.00    -0.261 C  
HETATM   25  C   UNL     1      -9.778  10.444  65.748  1.00  0.00    -0.228 C  
HETATM   26  C   UNL     1     -10.620   9.212  66.043  1.00  0.00     0.534 C  
BRANCH  24  27
HETATM   27  O   UNL     1      -8.862   8.105  67.357  1.00  0.00    -0.126 OA 
BRANCH  27  28
HETATM   28  C   UNL     1      -8.677   6.778  67.091  1.00  0.00    -0.119 A  
HETATM   29  C   UNL     1      -9.176   5.735  67.864  1.00  0.00    -0.108 A  
HETATM   30  C   UNL     1      -8.939   4.413  67.492  1.00  0.00    -0.128 A  
HETATM   31  C   UNL     1      -8.198   4.108  66.356  1.00  0.00    -0.101 A  
HETATM   32  C   UNL     1      -7.682   5.150  65.586  1.00  0.00    -0.087 A  
HETATM   33  C   UNL     1      -7.944   6.482  65.941  1.00  0.00    -0.115 A  
BRANCH  31  34
HETATM   34  O   UNL     1      -7.981   2.783  66.178  1.00  0.00    -0.080 OA 
HETATM   35  C   UNL     1      -6.894   2.344  65.382  1.00  0.00    -0.043 C  
HETATM   36  F   UNL     1      -6.119   1.519  66.120  1.00  0.00    -0.017 F  
HETATM   37  F   UNL     1      -6.124   3.330  64.886  1.00  0.00    -0.020 F  
HETATM   38  F   UNL     1      -7.386   1.632  64.340  1.00  0.00    -0.047 F  
ENDBRANCH  31  34
ENDBRANCH  27  28
ENDBRANCH  24  27
ENDBRANCH  16  21
ENDBRANCH  14  15
ENDBRANCH  13  14
ENDBRANCH   2  13
TORSDOF 7
ENDMDL
MODEL      195
REMARK 921   NORMALIZED FREE ENERGY PREDICTED BY IDOCK:    0.04 KCAL/MOL
REMARK 922        TOTAL FREE ENERGY PREDICTED BY IDOCK:   -1.43 KCAL/MOL
REMARK 923 INTER-LIGAND FREE ENERGY PREDICTED BY IDOCK:   -3.98 KCAL/MOL
REMARK 924 INTRA-LIGAND FREE ENERGY PREDICTED BY IDOCK:    2.55 KCAL/MOL
REMARK 927      BINDING AFFINITY PREDICTED BY RF-SCORE:    0.00 PKD
ROOT
HETATM    1  C   UNL     1      -8.605   1.781  64.267  1.00  0.00    -0.085 C  
HETATM    2  C   UNL     1      -7.521   2.813  64.567  1.00  0.00    -0.074 C  
HETATM    3  C   UNL     1      -7.464   4.852  63.670  1.00  0.00    -0.056 A  
HETATM    4  C   UNL     1      -7.959   3.817  65.667  1.00  0.00    -0.093 C  
HETATM    5  N   UNL     1      -7.841   5.057  64.947  1.00  0.00    -0.087 NA 
HETATM    6  O   UNL     1      -8.023   9.120  64.493  1.00  0.00    -0.114 OA 
HETATM    7  C   UNL     1      -8.002   6.370  65.172  1.00  0.00    -0.116 A  
HETATM    8  O   UNL     1      -7.281   3.587  63.340  1.00  0.00    -0.048 OA 
HETATM    9  O   UNL     1      -7.405   8.651  62.429  1.00  0.00    -0.101 OA 
HETATM   10  C   UNL     1      -7.688   6.929  63.933  1.00  0.00    -0.115 A  
HETATM   11  N   UNL     1      -7.346   5.956  62.991  1.00  0.00    -0.053 NA 
HETATM   12  N   UNL     1      -7.705   8.334  63.587  1.00  0.00    -0.138 N  
ENDROOT
BRANCH   2  13
HETATM   13  C   UNL     1      -6.202   2.137  64.935  1.00  0.00    -0.019 C  
BRANCH  13  14
HETATM   14  O   UNL     1      -5.471   2.924  65.878  1.00  0.00    -0.015 OA 
BRANCH  14  15
HETATM   15  C   UNL     1      -6.040   2.958  67.122  1.00  0.00    -0.024 A  
HETATM   16  C   UNL     1      -7.038   2.861  69.797  1.00  0.00    -0.040 A  
HETATM   17  C   UNL     1      -6.377   4.119  67.802  1.00  0.00    -0.037 A  
HETATM   18  C   UNL     1      -6.289   1.737  67.733  1.00  0.00    -0.025 A  
HETATM   19  C   UNL     1      -6.861   4.064  69.108  1.00  0.00    -0.046 A  
HETATM   20  C   UNL     1      -6.786   1.697  69.045  1.00  0.00    -0.033 A  
BRANCH  16  21
HETATM   21  N   UNL     1      -7.486   2.841  71.108  1.00  0.00    -0.033 NA 
HETATM   22  C   UNL     1      -8.655   3.618  71.560  1.00  0.00    -0.084 C  
HETATM   23  C   UNL     1      -9.494   2.749  72.496  1.00  0.00    -0.168 C  
HETATM   24  C   UNL     1      -8.656   2.223  73.664  1.00  0.00    -0.063 C  
HETATM   25  C   UNL     1      -6.609   2.460  72.219  1.00  0.00    -0.015 C  
HETATM   26  C   UNL     1      -7.400   1.528  73.124  1.00  0.00    -0.028 C  
BRANCH  24  27
HETATM   27  O   UNL     1      -8.322   3.349  74.493  1.00  0.00    -0.079 OA 
BRANCH  27  28
HETATM   28  C   UNL     1      -9.020   4.504  74.277  1.00  0.00    -0.108 A  
HETATM   29  C   UNL     1     -10.397   4.640  74.419  1.00  0.00    -0.318 A  
HETATM   30  C   UNL     1     -11.006   5.871  74.186  1.00  0.00     0.374 A  
HETATM   31  C   UNL     1     -10.261   6.981  73.803  1.00  0.00    -0.363 A  
HETATM   32  C   UNL     1      -8.882   6.846  73.644  1.00  0.00    -0.168 A  
HETATM   33  C   UNL     1      -8.262   5.615  73.906  1.00  0.00    -0.110 A  
BRANCH  31  34
HETATM   34  O   UNL     1     -11.006   8.078  73.530  1.00  0.00    -0.102 OA 
HETATM   35  C   UNL     1     -11.563   8.254  72.239  1.00  0.00    -0.383 C  
HETATM   36  F   UNL     1     -12.901   8.404  72.358  1.00  0.00    -0.352 F  
HETATM   37  F   UNL     1     -11.316   7.249  71.377  1.00  0.00    -0.253 F  
HETATM   38  F   UNL     1     -11.061   9.393  71.707  1.00  0.00    -0.407 F  
ENDBRANCH  31  34
ENDBRANCH  27  28
ENDBRANCH  24  27
ENDBRANCH  16  21
ENDBRANCH  14  15
ENDBRANCH  13  14
ENDBRANCH   2  13
TORSDOF 7
ENDMDL
MODEL      196
REMARK 921   NORMALIZED FREE ENERGY PREDICTED BY IDOCK:    0.15 KCAL/MOL
REMARK 922        TOTAL FREE ENERGY PREDICTED BY IDOCK:   -1.26 KCAL/MOL
REMARK 923 INTER-LIGAND FREE ENERGY PREDICTED BY IDOCK:   -1.36 KCAL/MOL
REMARK 924 INTRA-LIGAND FREE ENERGY PREDICTED BY IDOCK:    0.10 KCAL/MOL
REMARK 927      BINDING AFFINITY PREDICTED BY RF-SCORE:    0.00 PKD
ROOT
HETATM    1  C   UNL     1     -11.245  18.206  66.396  1.00  0.00     0.792 C  
HETATM    2  C   UNL     1     -10.876  18.253  67.877  1.00  0.00    -0.206 C  
HETATM    3  C   UNL     1      -8.784  18.373  68.634  1.00  0.00    -0.283 A  
HETATM    4  C   UNL     1     -10.644  19.706  68.375  1.00  0.00    -0.124 C  
HETATM    5  N   UNL     1      -9.288  19.605  68.845  1.00  0.00    -0.331 NA 
HETATM    6  O   UNL     1      -5.833  20.989  70.547  1.00  0.00    -0.452 OA 
HETATM    7  C   UNL     1      -8.366  20.382  69.433  1.00  0.00     0.971 A  
HETATM    8  O   UNL     1      -9.612  17.525  68.052  1.00  0.00    -0.267 OA 
HETATM    9  O   UNL     1      -5.127  18.940  70.145  1.00  0.00    -0.184 OA 
HETATM   10  C   UNL     1      -7.278  19.519  69.559  1.00  0.00    -0.179 A  
HETATM   11  N   UNL     1      -7.557  18.248  69.051  1.00  0.00    -0.203 NA 
HETATM   12  N   UNL     1      -5.984  19.832  70.124  1.00  0.00    -0.287 N  
ENDROOT
BRANCH   2  13
HETATM   13  C   UNL     1     -11.925  17.543  68.731  1.00  0.00     2.669 C  
BRANCH  13  14
HETATM   14  O   UNL     1     -11.320  16.906  69.857  1.00  0.00     0.104 OA 
BRANCH  14  15
HETATM   15  C   UNL     1     -11.093  15.569  69.674  1.00  0.00    -0.279 A  
HETATM   16  C   UNL     1     -10.879  12.753  69.250  1.00  0.00     0.009 A  
HETATM   17  C   UNL     1     -10.117  15.044  68.838  1.00  0.00    -0.234 A  
HETATM   18  C   UNL     1     -11.904  14.691  70.378  1.00  0.00    -0.365 A  
HETATM   19  C   UNL     1     -10.020  13.669  68.635  1.00  0.00    -0.163 A  
HETATM   20  C   UNL     1     -11.788  13.307  70.170  1.00  0.00    -0.333 A  
BRANCH  16  21
HETATM   21  N   UNL     1     -10.781  11.394  68.997  1.00  0.00    -0.211 NA 
HETATM   22  C   UNL     1      -9.577  10.779  68.405  1.00  0.00    -0.176 C  
HETATM   23  C   UNL     1      -9.277   9.473  69.138  1.00  0.00    -0.163 C  
HETATM   24  C   UNL     1     -10.486   8.533  69.113  1.00  0.00    -0.205 C  
HETATM   25  C   UNL     1     -11.968  10.548  68.843  1.00  0.00     0.040 C  
HETATM   26  C   UNL     1     -11.724   9.271  69.633  1.00  0.00     0.358 C  
BRANCH  24  27
HETATM   27  O   UNL     1     -10.661   8.099  67.753  1.00  0.00    -0.222 OA 
BRANCH  27  28
HETATM   28  C   UNL     1     -10.234   6.838  67.446  1.00  0.00    -0.197 A  
HETATM   29  C   UNL     1     -10.862   5.981  66.548  1.00  0.00    -0.193 A  
HETATM   30  C   UNL     1     -10.332   4.717  66.299  1.00  0.00    -0.329 A  
HETATM   31  C   UNL     1      -9.178   4.282  66.941  1.00  0.00    -0.148 A  
HETATM   32  C   UNL     1      -8.553   5.132  67.854  1.00  0.00    -0.103 A  
HETATM   33  C   UNL     1      -9.068   6.416  68.085  1.00  0.00    -0.113 A  
BRANCH  31  34
HETATM   34  O   UNL     1      -8.839   3.002  66.659  1.00  0.00    -0.129 OA 
HETATM   35  C   UNL     1      -7.644   2.726  65.948  1.00  0.00    -0.073 C  
HETATM   36  F   UNL     1      -6.885   1.883  66.683  1.00  0.00    -0.035 F  
HETATM   37  F   UNL     1      -6.909   3.810  65.638  1.00  0.00    -0.050 F  
HETATM   38  F   UNL     1      -7.969   2.096  64.794  1.00  0.00    -0.070 F  
ENDBRANCH  31  34
ENDBRANCH  27  28
ENDBRANCH  24  27
ENDBRANCH  16  21
ENDBRANCH  14  15
ENDBRANCH  13  14
ENDBRANCH   2  13
TORSDOF 7
ENDMDL
MODEL      197
REMARK 921   NORMALIZED FREE ENERGY PREDICTED BY IDOCK:    0.17 KCAL/MOL
REMARK 922        TOTAL FREE ENERGY PREDICTED BY IDOCK:   -1.24 KCAL/MOL
REMARK 923 INTER-LIGAND FREE ENERGY PREDICTED BY IDOCK:   -4.36 KCAL/MOL
REMARK 924 INTRA-LIGAND FREE ENERGY PREDICTED BY IDOCK:    3.12 KCAL/MOL
REMARK 927      BINDING AFFINITY PREDICTED BY RF-SCORE:    0.00 PKD
ROOT
HETATM    1  C   UNL     1     -13.628  12.612  64.037  1.00  0.00     1.311 C  
HETATM    2  C   UNL     1     -12.197  12.649  64.568  1.00  0.00    -0.443 C  
HETATM    3  C   UNL     1     -10.756  10.960  64.378  1.00  0.00    -0.180 A  
HETATM    4  C   UNL     1     -11.175  13.032  63.465  1.00  0.00    -0.198 C  
HETATM    5  N   UNL     1     -10.321  11.874  63.489  1.00  0.00    -0.423 NA 
HETATM    6  O   UNL     1      -7.134   9.583  62.331  1.00  0.00    -0.100 OA 
HETATM    7  C   UNL     1      -9.211  11.429  62.880  1.00  0.00    -0.281 A  
HETATM    8  O   UNL     1     -11.852  11.298  65.033  1.00  0.00     0.152 OA 
HETATM    9  O   UNL     1      -7.950   8.171  63.813  1.00  0.00    -0.142 OA 
HETATM   10  C   UNL     1      -9.019  10.183  63.477  1.00  0.00    -0.245 A  
HETATM   11  N   UNL     1     -10.003   9.899  64.426  1.00  0.00    -0.044 NA 
HETATM   12  N   UNL     1      -7.960   9.240  63.191  1.00  0.00    -0.139 N  
ENDROOT
BRANCH   2  13
HETATM   13  C   UNL     1     -12.079  13.581  65.772  1.00  0.00    -0.433 C  
BRANCH  13  14
HETATM   14  O   UNL     1     -12.635  12.977  66.942  1.00  0.00    -0.194 OA 
BRANCH  14  15
HETATM   15  C   UNL     1     -11.769  12.138  67.589  1.00  0.00    -0.316 A  
HETATM   16  C   UNL     1     -10.161  10.210  68.953  1.00  0.00    -0.199 A  
HETATM   17  C   UNL     1     -10.492  11.828  67.143  1.00  0.00    -0.250 A  
HETATM   18  C   UNL     1     -12.215  11.563  68.770  1.00  0.00    -0.071 A  
HETATM   19  C   UNL     1      -9.714  10.885  67.813  1.00  0.00    -0.183 A  
HETATM   20  C   UNL     1     -11.417  10.621  69.439  1.00  0.00    -0.356 A  
BRANCH  16  21
HETATM   21  N   UNL     1      -9.379   9.250  69.574  1.00  0.00    -0.165 NA 
HETATM   22  C   UNL     1      -8.144   9.585  70.309  1.00  0.00    -0.181 C  
HETATM   23  C   UNL     1      -8.100   8.769  71.600  1.00  0.00    -0.153 C  
HETATM   24  C   UNL     1      -8.221   7.270  71.312  1.00  0.00    -0.106 C  
HETATM   25  C   UNL     1      -9.423   7.840  69.177  1.00  0.00    -0.151 C  
HETATM   26  C   UNL     1      -9.462   7.009  70.450  1.00  0.00    -0.162 C  
BRANCH  24  27
HETATM   27  O   UNL     1      -7.015   6.865  70.642  1.00  0.00    -0.060 OA 
BRANCH  27  28
HETATM   28  C   UNL     1      -7.139   6.444  69.348  1.00  0.00    -0.073 A  
HETATM   29  C   UNL     1      -6.901   7.234  68.228  1.00  0.00    -0.070 A  
HETATM   30  C   UNL     1      -7.045   6.698  66.950  1.00  0.00    -0.069 A  
HETATM   31  C   UNL     1      -7.433   5.375  66.764  1.00  0.00    -0.088 A  
HETATM   32  C   UNL     1      -7.688   4.583  67.884  1.00  0.00    -0.081 A  
HETATM   33  C   UNL     1      -7.516   5.112  69.172  1.00  0.00    -0.065 A  
BRANCH  31  34
HETATM   34  O   UNL     1      -7.613   5.029  65.468  1.00  0.00    -0.083 OA 
HETATM   35  C   UNL     1      -6.560   4.411  64.747  1.00  0.00    -0.044 C  
HETATM   36  F   UNL     1      -7.003   3.235  64.251  1.00  0.00    -0.043 F  
HETATM   37  F   UNL     1      -5.443   4.185  65.464  1.00  0.00    -0.008 F  
HETATM   38  F   UNL     1      -6.232   5.208  63.702  1.00  0.00    -0.020 F  
ENDBRANCH  31  34
ENDBRANCH  27  28
ENDBRANCH  24  27
ENDBRANCH  16  21
ENDBRANCH  14  15
ENDBRANCH  13  14
ENDBRANCH   2  13
TORSDOF 7
ENDMDL
MODEL      198
REMARK 921   NORMALIZED FREE ENERGY PREDICTED BY IDOCK:    0.38 KCAL/MOL
REMARK 922        TOTAL FREE ENERGY PREDICTED BY IDOCK:   -0.94 KCAL/MOL
REMARK 923 INTER-LIGAND FREE ENERGY PREDICTED BY IDOCK:   -3.57 KCAL/MOL
REMARK 924 INTRA-LIGAND FREE ENERGY PREDICTED BY IDOCK:    2.63 KCAL/MOL
REMARK 927      BINDING AFFINITY PREDICTED BY RF-SCORE:    0.00 PKD
ROOT
HETATM    1  C   UNL     1      -9.201  19.781  65.802  1.00  0.00    -0.043 C  
HETATM    2  C   UNL     1      -9.307  19.414  67.280  1.00  0.00    -0.314 C  
HETATM    3  C   UNL     1      -8.357  17.612  68.185  1.00  0.00    -0.259 A  
HETATM    4  C   UNL     1      -8.074  19.896  68.092  1.00  0.00    -0.252 C  
HETATM    5  N   UNL     1      -7.605  18.642  68.620  1.00  0.00    -0.309 NA 
HETATM    6  O   UNL     1      -5.132  16.226  70.809  1.00  0.00    -0.182 OA 
HETATM    7  C   UNL     1      -6.629  18.190  69.422  1.00  0.00    -0.200 A  
HETATM    8  O   UNL     1      -9.349  17.948  67.380  1.00  0.00    -0.253 OA 
HETATM    9  O   UNL     1      -6.436  14.630  70.026  1.00  0.00    -0.153 OA 
HETATM   10  C   UNL     1      -6.860  16.815  69.434  1.00  0.00    -0.202 A  
HETATM   11  N   UNL     1      -7.960  16.462  68.648  1.00  0.00    -0.207 NA 
HETATM   12  N   UNL     1      -6.091  15.813  70.138  1.00  0.00    -0.143 N  
ENDROOT
BRANCH   2  13
HETATM   13  C   UNL     1     -10.604  19.942  67.889  1.00  0.00    -0.284 C  
BRANCH  13  14
HETATM   14  O   UNL     1     -11.722  19.154  67.473  1.00  0.00     0.614 OA 
BRANCH  14  15
HETATM   15  C   UNL     1     -11.530  17.808  67.622  1.00  0.00     0.814 A  
HETATM   16  C   UNL     1     -11.349  14.995  68.082  1.00  0.00    -0.330 A  
HETATM   17  C   UNL     1     -11.282  16.928  66.579  1.00  0.00     0.538 A  
HETATM   18  C   UNL     1     -11.592  17.304  68.913  1.00  0.00     1.082 A  
HETATM   19  C   UNL     1     -11.197  15.556  66.811  1.00  0.00    -0.139 A  
HETATM   20  C   UNL     1     -11.495  15.920  69.133  1.00  0.00    -0.377 A  
BRANCH  16  21
HETATM   21  N   UNL     1     -11.297  13.623  68.274  1.00  0.00    -0.271 NA 
HETATM   22  C   UNL     1     -11.043  13.015  69.594  1.00  0.00     0.091 C  
HETATM   23  C   UNL     1     -11.982  11.824  69.778  1.00  0.00    -0.392 C  
HETATM   24  C   UNL     1     -11.834  10.818  68.633  1.00  0.00    -0.138 C  
HETATM   25  C   UNL     1     -11.016  12.698  67.174  1.00  0.00    -0.261 C  
HETATM   26  C   UNL     1     -11.995  11.540  67.290  1.00  0.00     0.151 C  
BRANCH  24  27
HETATM   27  O   UNL     1     -10.533  10.218  68.758  1.00  0.00    -0.182 OA 
BRANCH  27  28
HETATM   28  C   UNL     1     -10.467   8.857  68.647  1.00  0.00    -0.193 A  
HETATM   29  C   UNL     1     -10.694   8.142  67.476  1.00  0.00    -0.227 A  
HETATM   30  C   UNL     1     -10.586   6.753  67.472  1.00  0.00    -0.348 A  
HETATM   31  C   UNL     1     -10.261   6.054  68.629  1.00  0.00    -0.188 A  
HETATM   32  C   UNL     1     -10.048   6.765  69.810  1.00  0.00    -0.198 A  
HETATM   33  C   UNL     1     -10.127   8.166  69.810  1.00  0.00    -0.197 A  
BRANCH  31  34
HETATM   34  O   UNL     1     -10.281   4.708  68.484  1.00  0.00    -0.067 OA 
HETATM   35  C   UNL     1      -9.164   4.039  67.922  1.00  0.00    -0.158 C  
HETATM   36  F   UNL     1      -8.735   3.100  68.794  1.00  0.00    -0.094 F  
HETATM   37  F   UNL     1      -8.129   4.840  67.605  1.00  0.00    -0.095 F  
HETATM   38  F   UNL     1      -9.566   3.408  66.794  1.00  0.00    -0.205 F  
ENDBRANCH  31  34
ENDBRANCH  27  28
ENDBRANCH  24  27
ENDBRANCH  16  21
ENDBRANCH  14  15
ENDBRANCH  13  14
ENDBRANCH   2  13
TORSDOF 7
ENDMDL
MODEL      199
REMARK 921   NORMALIZED FREE ENERGY PREDICTED BY IDOCK:    0.74 KCAL/MOL
REMARK 922        TOTAL FREE ENERGY PREDICTED BY IDOCK:   -0.44 KCAL/MOL
REMARK 923 INTER-LIGAND FREE ENERGY PREDICTED BY IDOCK:   -3.99 KCAL/MOL
REMARK 924 INTRA-LIGAND FREE ENERGY PREDICTED BY IDOCK:    3.54 KCAL/MOL
REMARK 927      BINDING AFFINITY PREDICTED BY RF-SCORE:    0.00 PKD
ROOT
HETATM    1  C   UNL     1      -8.467   2.232  64.237  1.00  0.00    -0.083 C  
HETATM    2  C   UNL     1      -7.603   3.288  64.922  1.00  0.00    -0.077 C  
HETATM    3  C   UNL     1      -7.172   5.296  64.056  1.00  0.00    -0.050 A  
HETATM    4  C   UNL     1      -8.457   4.325  65.702  1.00  0.00    -0.114 C  
HETATM    5  N   UNL     1      -8.047   5.541  65.051  1.00  0.00    -0.113 NA 
HETATM    6  O   UNL     1      -8.011   9.583  64.411  1.00  0.00    -0.121 OA 
HETATM    7  C   UNL     1      -8.283   6.858  65.138  1.00  0.00    -0.115 A  
HETATM    8  O   UNL     1      -6.872   4.022  63.879  1.00  0.00    -0.042 OA 
HETATM    9  O   UNL     1      -6.591   9.049  62.812  1.00  0.00    -0.095 OA 
HETATM   10  C   UNL     1      -7.480   7.378  64.124  1.00  0.00    -0.099 A  
HETATM   11  N   UNL     1      -6.778   6.377  63.447  1.00  0.00    -0.040 NA 
HETATM   12  N   UNL     1      -7.347   8.769  63.750  1.00  0.00    -0.097 N  
ENDROOT
BRANCH   2  13
HETATM   13  C   UNL     1      -6.560   2.643  65.832  1.00  0.00    -0.032 C  
BRANCH  13  14
HETATM   14  O   UNL     1      -5.625   3.615  66.307  1.00  0.00    -0.016 OA 
BRANCH  14  15
HETATM   15  C   UNL     1      -5.945   4.130  67.533  1.00  0.00    -0.024 A  
HETATM   16  C   UNL     1      -6.464   5.014  70.199  1.00  0.00    -0.034 A  
HETATM   17  C   UNL     1      -5.840   5.471  67.875  1.00  0.00    -0.017 A  
HETATM   18  C   UNL     1      -6.402   3.237  68.491  1.00  0.00    -0.032 A  
HETATM   19  C   UNL     1      -6.093   5.894  69.178  1.00  0.00    -0.031 A  
HETATM   20  C   UNL     1      -6.662   3.679  69.798  1.00  0.00    -0.034 A  
BRANCH  16  21
HETATM   21  N   UNL     1      -6.671   5.460  71.494  1.00  0.00    -0.053 NA 
HETATM   22  C   UNL     1      -7.872   5.106  72.275  1.00  0.00    -0.101 C  
HETATM   23  C   UNL     1      -7.453   4.776  73.706  1.00  0.00    -0.090 C  
HETATM   24  C   UNL     1      -6.668   5.931  74.334  1.00  0.00    -0.076 C  
HETATM   25  C   UNL     1      -6.003   6.655  72.018  1.00  0.00    -0.038 C  
HETATM   26  C   UNL     1      -5.504   6.322  73.416  1.00  0.00    -0.037 C  
BRANCH  24  27
HETATM   27  O   UNL     1      -7.587   7.022  74.518  1.00  0.00    -0.111 OA 
BRANCH  27  28
HETATM   28  C   UNL     1      -8.488   7.247  73.515  1.00  0.00    -0.138 A  
HETATM   29  C   UNL     1      -9.694   6.572  73.363  1.00  0.00    -0.186 A  
HETATM   30  C   UNL     1     -10.547   6.892  72.309  1.00  0.00    -0.244 A  
HETATM   31  C   UNL     1     -10.212   7.879  71.388  1.00  0.00    -0.190 A  
HETATM   32  C   UNL     1      -8.996   8.548  71.527  1.00  0.00    -0.276 A  
HETATM   33  C   UNL     1      -8.149   8.248  72.604  1.00  0.00    -0.211 A  
BRANCH  31  34
HETATM   34  O   UNL     1     -11.101   8.013  70.375  1.00  0.00    -0.250 OA 
HETATM   35  C   UNL     1     -10.845   7.399  69.123  1.00  0.00    -0.111 C  
HETATM   36  F   UNL     1     -11.884   6.592  68.813  1.00  0.00    -0.221 F  
HETATM   37  F   UNL     1      -9.708   6.680  69.069  1.00  0.00    -0.140 F  
HETATM   38  F   UNL     1     -10.773   8.367  68.179  1.00  0.00    -0.248 F  
ENDBRANCH  31  34
ENDBRANCH  27  28
ENDBRANCH  24  27
ENDBRANCH  16  21
ENDBRANCH  14  15
ENDBRANCH  13  14
ENDBRANCH   2  13
TORSDOF 7
ENDMDL
MODEL      200
REMARK 921   NORMALIZED FREE ENERGY PREDICTED BY IDOCK:    1.17 KCAL/MOL
REMARK 922        TOTAL FREE ENERGY PREDICTED BY IDOCK:    0.17 KCAL/MOL
REMARK 923 INTER-LIGAND FREE ENERGY PREDICTED BY IDOCK:   -4.44 KCAL/MOL
REMARK 924 INTRA-LIGAND FREE ENERGY PREDICTED BY IDOCK:    4.60 KCAL/MOL
REMARK 927      BINDING AFFINITY PREDICTED BY RF-SCORE:    0.00 PKD
ROOT
HETATM    1  C   UNL     1     -11.095   6.476  72.988  1.00  0.00    -0.230 C  
HETATM    2  C   UNL     1     -10.175   7.277  72.070  1.00  0.00    -0.190 C  
HETATM    3  C   UNL     1     -10.880   8.418  70.291  1.00  0.00    -0.239 A  
HETATM    4  C   UNL     1     -10.146   8.784  72.443  1.00  0.00    -0.152 C  
HETATM    5  N   UNL     1     -10.592   9.365  71.205  1.00  0.00    -0.320 NA 
HETATM    6  O   UNL     1     -11.582  12.436  68.686  1.00  0.00    -0.273 OA 
HETATM    7  C   UNL     1     -10.813  10.583  70.687  1.00  0.00     0.136 A  
HETATM    8  O   UNL     1     -10.701   7.176  70.702  1.00  0.00    -0.226 OA 
HETATM    9  O   UNL     1     -12.020  10.792  67.284  1.00  0.00    -0.086 OA 
HETATM   10  C   UNL     1     -11.250  10.288  69.396  1.00  0.00    -0.239 A  
HETATM   11  N   UNL     1     -11.285   8.912  69.157  1.00  0.00     0.143 NA 
HETATM   12  N   UNL     1     -11.647  11.235  68.378  1.00  0.00    -0.301 N  
ENDROOT
BRANCH   2  13
HETATM   13  C   UNL     1      -8.765   6.690  72.053  1.00  0.00    -0.127 C  
BRANCH  13  14
HETATM   14  O   UNL     1      -8.723   5.484  71.288  1.00  0.00    -0.128 OA 
BRANCH  14  15
HETATM   15  C   UNL     1      -8.227   5.653  70.024  1.00  0.00    -0.110 A  
HETATM   16  C   UNL     1      -7.436   5.956  67.296  1.00  0.00    -0.081 A  
HETATM   17  C   UNL     1      -7.463   6.738  69.617  1.00  0.00    -0.096 A  
HETATM   18  C   UNL     1      -8.519   4.664  69.096  1.00  0.00    -0.089 A  
HETATM   19  C   UNL     1      -7.082   6.880  68.284  1.00  0.00    -0.086 A  
HETATM   20  C   UNL     1      -8.120   4.817  67.758  1.00  0.00    -0.093 A  
BRANCH  16  21
HETATM   21  N   UNL     1      -7.074   6.145  65.972  1.00  0.00    -0.065 NA 
HETATM   22  C   UNL     1      -5.685   6.422  65.559  1.00  0.00    -0.022 C  
HETATM   23  C   UNL     1      -5.370   5.607  64.305  1.00  0.00    -0.013 C  
HETATM   24  C   UNL     1      -6.379   5.894  63.190  1.00  0.00    -0.025 C  
HETATM   25  C   UNL     1      -8.047   6.554  64.955  1.00  0.00    -0.119 C  
HETATM   26  C   UNL     1      -7.804   5.698  63.722  1.00  0.00    -0.108 C  
BRANCH  24  27
HETATM   27  O   UNL     1      -6.159   7.245  62.752  1.00  0.00    -0.048 OA 
BRANCH  27  28
HETATM   28  C   UNL     1      -6.249   8.225  63.700  1.00  0.00    -0.072 A  
HETATM   29  C   UNL     1      -5.164   8.822  64.333  1.00  0.00    -0.050 A  
HETATM   30  C   UNL     1      -5.370   9.825  65.278  1.00  0.00    -0.051 A  
HETATM   31  C   UNL     1      -6.653  10.244  65.613  1.00  0.00    -0.122 A  
HETATM   32  C   UNL     1      -7.745   9.638  64.992  1.00  0.00    -0.119 A  
HETATM   33  C   UNL     1      -7.540   8.648  64.019  1.00  0.00    -0.126 A  
BRANCH  31  34
HETATM   34  O   UNL     1      -6.692  11.163  66.608  1.00  0.00    -0.122 OA 
HETATM   35  C   UNL     1      -7.936  11.563  67.154  1.00  0.00    -0.160 C  
HETATM   36  F   UNL     1      -7.915  11.349  68.489  1.00  0.00    -0.114 F  
HETATM   37  F   UNL     1      -9.008  10.937  66.633  1.00  0.00    -0.151 F  
HETATM   38  F   UNL     1      -8.086  12.893  66.948  1.00  0.00    -0.164 F  
ENDBRANCH  31  34
ENDBRANCH  27  28
ENDBRANCH  24  27
ENDBRANCH  16  21
ENDBRANCH  14  15
ENDBRANCH  13  14
ENDBRANCH   2  13
TORSDOF 7
ENDMDL
MODEL      201
REMARK 921   NORMALIZED FREE ENERGY PREDICTED BY IDOCK:    1.18 KCAL/MOL
REMARK 922        TOTAL FREE ENERGY PREDICTED BY IDOCK:    0.19 KCAL/MOL
REMARK 923 INTER-LIGAND FREE ENERGY PREDICTED BY IDOCK:   -3.97 KCAL/MOL
REMARK 924 INTRA-LIGAND FREE ENERGY PREDICTED BY IDOCK:    4.16 KCAL/MOL
REMARK 927      BINDING AFFINITY PREDICTED BY RF-SCORE:    0.00 PKD
ROOT
HETATM    1  C   UNL     1     -13.219  14.807  67.978  1.00  0.00     3.352 C  
HETATM    2  C   UNL     1     -11.710  15.022  68.065  1.00  0.00    -0.298 C  
HETATM    3  C   UNL     1     -10.636  16.710  67.083  1.00  0.00    -0.264 A  
HETATM    4  C   UNL     1     -11.328  16.039  69.175  1.00  0.00    -0.352 C  
HETATM    5  N   UNL     1     -10.634  17.027  68.393  1.00  0.00    -0.361 NA 
HETATM    6  O   UNL     1      -8.535  20.489  67.796  1.00  0.00    -0.218 OA 
HETATM    7  C   UNL     1      -9.983  18.185  68.582  1.00  0.00    -0.395 A  
HETATM    8  O   UNL     1     -11.259  15.585  66.784  1.00  0.00    -0.265 OA 
HETATM    9  O   UNL     1      -8.611  19.859  65.685  1.00  0.00    -0.316 OA 
HETATM   10  C   UNL     1      -9.596  18.529  67.287  1.00  0.00    -0.294 A  
HETATM   11  N   UNL     1     -10.013  17.584  66.347  1.00  0.00    -0.314 NA 
HETATM   12  N   UNL     1      -8.860  19.709  66.888  1.00  0.00    -0.315 N  
ENDROOT
BRANCH   2  13
HETATM   13  C   UNL     1     -10.974  13.698  68.258  1.00  0.00    -0.254 C  
BRANCH  13  14
HETATM   14  O   UNL     1     -11.722  12.613  67.705  1.00  0.00    -0.330 OA 
BRANCH  14  15
HETATM   15  C   UNL     1     -11.324  11.386  68.160  1.00  0.00    -0.304 A  
HETATM   16  C   UNL     1     -10.644   8.867  69.323  1.00  0.00    -0.207 A  
HETATM   17  C   UNL     1     -11.363  10.218  67.411  1.00  0.00     0.043 A  
HETATM   18  C   UNL     1     -10.854  11.320  69.463  1.00  0.00    -0.207 A  
HETATM   19  C   UNL     1     -11.032   8.992  67.986  1.00  0.00     0.002 A  
HETATM   20  C   UNL     1     -10.515  10.079  70.027  1.00  0.00    -0.337 A  
BRANCH  16  21
HETATM   21  N   UNL     1     -10.358   7.629  69.876  1.00  0.00    -0.219 NA 
HETATM   22  C   UNL     1     -10.529   7.341  71.313  1.00  0.00    -0.201 C  
HETATM   23  C   UNL     1     -11.156   5.957  71.469  1.00  0.00    -0.314 C  
HETATM   24  C   UNL     1     -10.326   4.888  70.754  1.00  0.00    -0.158 C  
HETATM   25  C   UNL     1      -9.447   6.683  69.226  1.00  0.00    -0.141 C  
HETATM   26  C   UNL     1     -10.090   5.307  69.298  1.00  0.00    -0.300 C  
BRANCH  24  27
HETATM   27  O   UNL     1      -9.088   4.756  71.474  1.00  0.00    -0.130 OA 
BRANCH  27  28
HETATM   28  C   UNL     1      -8.169   5.755  71.312  1.00  0.00    -0.122 A  
HETATM   29  C   UNL     1      -7.182   5.777  70.333  1.00  0.00    -0.071 A  
HETATM   30  C   UNL     1      -6.303   6.855  70.250  1.00  0.00    -0.039 A  
HETATM   31  C   UNL     1      -6.387   7.921  71.139  1.00  0.00    -0.034 A  
HETATM   32  C   UNL     1      -7.365   7.896  72.132  1.00  0.00    -0.092 A  
HETATM   33  C   UNL     1      -8.270   6.826  72.201  1.00  0.00    -0.104 A  
BRANCH  31  34
HETATM   34  O   UNL     1      -5.410   8.847  70.984  1.00  0.00    -0.028 OA 
HETATM   35  C   UNL     1      -5.747  10.179  70.637  1.00  0.00    -0.089 C  
HETATM   36  F   UNL     1      -5.234  11.014  71.567  1.00  0.00    -0.102 F  
HETATM   37  F   UNL     1      -7.067  10.416  70.525  1.00  0.00    -0.153 F  
HETATM   38  F   UNL     1      -5.167  10.472  69.448  1.00  0.00    -0.039 F  
ENDBRANCH  31  34
ENDBRANCH  27  28
ENDBRANCH  24  27
ENDBRANCH  16  21
ENDBRANCH  14  15
ENDBRANCH  13  14
ENDBRANCH   2  13
TORSDOF 7
ENDMDL
MODEL      202
REMARK 921   NORMALIZED FREE ENERGY PREDICTED BY IDOCK:    1.34 KCAL/MOL
REMARK 922        TOTAL FREE ENERGY PREDICTED BY IDOCK:    0.41 KCAL/MOL
REMARK 923 INTER-LIGAND FREE ENERGY PREDICTED BY IDOCK:   -3.28 KCAL/MOL
REMARK 924 INTRA-LIGAND FREE ENERGY PREDICTED BY IDOCK:    3.69 KCAL/MOL
REMARK 927      BINDING AFFINITY PREDICTED BY RF-SCORE:    0.00 PKD
ROOT
HETATM    1  C   UNL     1     -10.589   5.319  73.435  1.00  0.00    -0.300 C  
HETATM    2  C   UNL     1     -10.445   6.390  72.356  1.00  0.00    -0.198 C  
HETATM    3  C   UNL     1      -8.800   7.892  72.307  1.00  0.00    -0.148 A  
HETATM    4  C   UNL     1      -9.457   5.962  71.237  1.00  0.00    -0.160 C  
HETATM    5  N   UNL     1      -8.495   7.029  71.319  1.00  0.00    -0.118 NA 
HETATM    6  O   UNL     1      -5.129   9.088  70.233  1.00  0.00    -0.027 OA 
HETATM    7  C   UNL     1      -7.371   7.420  70.700  1.00  0.00    -0.070 A  
HETATM    8  O   UNL     1      -9.893   7.597  72.988  1.00  0.00    -0.210 OA 
HETATM    9  O   UNL     1      -5.736  10.423  71.879  1.00  0.00    -0.309 OA 
HETATM   10  C   UNL     1      -7.033   8.582  71.393  1.00  0.00    -0.079 A  
HETATM   11  N   UNL     1      -7.949   8.872  72.407  1.00  0.00    -0.355 NA 
HETATM   12  N   UNL     1      -5.885   9.429  71.155  1.00  0.00    -0.063 N  
ENDROOT
BRANCH   2  13
HETATM   13  C   UNL     1     -11.804   6.771  71.771  1.00  0.00    -0.330 C  
BRANCH  13  14
HETATM   14  O   UNL     1     -11.809   8.133  71.339  1.00  0.00    -0.283 OA 
BRANCH  14  15
HETATM   15  C   UNL     1     -11.169   8.332  70.147  1.00  0.00    -0.132 A  
HETATM   16  C   UNL     1      -9.614   8.806  67.797  1.00  0.00    -0.148 A  
HETATM   17  C   UNL     1     -11.188   7.439  69.084  1.00  0.00     0.133 A  
HETATM   18  C   UNL     1     -10.453   9.512  70.006  1.00  0.00    -0.283 A  
HETATM   19  C   UNL     1     -10.425   7.676  67.942  1.00  0.00    -0.270 A  
HETATM   20  C   UNL     1      -9.697   9.741  68.846  1.00  0.00    -0.172 A  
BRANCH  16  21
HETATM   21  N   UNL     1      -8.838   8.994  66.665  1.00  0.00    -0.129 NA 
HETATM   22  C   UNL     1      -9.274   8.567  65.322  1.00  0.00     0.105 C  
HETATM   23  C   UNL     1      -8.920   9.661  64.316  1.00  0.00    -0.269 C  
HETATM   24  C   UNL     1      -7.428   9.998  64.365  1.00  0.00    -0.141 C  
HETATM   25  C   UNL     1      -7.386   9.178  66.744  1.00  0.00    -0.086 C  
HETATM   26  C   UNL     1      -7.020  10.320  65.808  1.00  0.00    -0.128 C  
BRANCH  24  27
HETATM   27  O   UNL     1      -6.715   8.858  63.856  1.00  0.00    -0.087 OA 
BRANCH  27  28
HETATM   28  C   UNL     1      -7.351   7.651  63.923  1.00  0.00    -0.092 A  
HETATM   29  C   UNL     1      -8.487   7.308  63.198  1.00  0.00     0.284 A  
HETATM   30  C   UNL     1      -9.048   6.040  63.333  1.00  0.00     0.888 A  
HETATM   31  C   UNL     1      -8.495   5.097  64.194  1.00  0.00    -0.127 A  
HETATM   32  C   UNL     1      -7.365   5.441  64.935  1.00  0.00    -0.068 A  
HETATM   33  C   UNL     1      -6.781   6.707  64.779  1.00  0.00    -0.046 A  
BRANCH  31  34
HETATM   34  O   UNL     1      -9.203   3.946  64.279  1.00  0.00    -0.131 OA 
HETATM   35  C   UNL     1      -9.820   3.584  65.503  1.00  0.00    -0.012 C  
HETATM   36  F   UNL     1     -11.141   3.399  65.286  1.00  0.00     0.567 F  
HETATM   37  F   UNL     1      -9.666   4.477  66.498  1.00  0.00    -0.145 F  
HETATM   38  F   UNL     1      -9.296   2.405  65.914  1.00  0.00    -0.140 F  
ENDBRANCH  31  34
ENDBRANCH  27  28
ENDBRANCH  24  27
ENDBRANCH  16  21
ENDBRANCH  14  15
ENDBRANCH  13  14
ENDBRANCH   2  13
TORSDOF 7
ENDMDL
MODEL      203
REMARK 921   NORMALIZED FREE ENERGY PREDICTED BY IDOCK:    1.38 KCAL/MOL
REMARK 922        TOTAL FREE ENERGY PREDICTED BY IDOCK:    0.46 KCAL/MOL
REMARK 923 INTER-LIGAND FREE ENERGY PREDICTED BY IDOCK:   -2.71 KCAL/MOL
REMARK 924 INTRA-LIGAND FREE ENERGY PREDICTED BY IDOCK:    3.17 KCAL/MOL
REMARK 927      BINDING AFFINITY PREDICTED BY RF-SCORE:    0.00 PKD
ROOT
HETATM    1  C   UNL     1      -8.018  19.351  66.632  1.00  0.00    -0.300 C  
HETATM    2  C   UNL     1      -9.376  18.708  66.902  1.00  0.00    -0.304 C  
HETATM    3  C   UNL     1      -9.783  17.330  68.606  1.00  0.00    -0.301 A  
HETATM    4  C   UNL     1     -10.199  19.499  67.954  1.00  0.00    -0.431 C  
HETATM    5  N   UNL     1     -10.395  18.480  68.950  1.00  0.00    -0.232 NA 
HETATM    6  O   UNL     1     -11.814  16.950  72.471  1.00  0.00    -0.286 OA 
HETATM    7  C   UNL     1     -11.010  18.334  70.134  1.00  0.00     2.400 A  
HETATM    8  O   UNL     1      -9.139  17.366  67.453  1.00  0.00    -0.232 OA 
HETATM    9  O   UNL     1     -10.767  15.131  71.795  1.00  0.00     0.003 OA 
HETATM   10  C   UNL     1     -10.720  17.011  70.465  1.00  0.00     0.648 A  
HETATM   11  N   UNL     1      -9.944  16.385  69.486  1.00  0.00    -0.207 NA 
HETATM   12  N   UNL     1     -11.127  16.308  71.661  1.00  0.00     0.142 N  
ENDROOT
BRANCH   2  13
HETATM   13  C   UNL     1     -10.169  18.528  65.609  1.00  0.00     0.073 C  
BRANCH  13  14
HETATM   14  O   UNL     1     -11.232  17.590  65.788  1.00  0.00     0.280 OA 
BRANCH  14  15
HETATM   15  C   UNL     1     -10.803  16.323  66.073  1.00  0.00    -0.123 A  
HETATM   16  C   UNL     1     -10.144  13.591  66.587  1.00  0.00    -0.277 A  
HETATM   17  C   UNL     1      -9.599  15.784  65.640  1.00  0.00    -0.299 A  
HETATM   18  C   UNL     1     -11.641  15.534  66.847  1.00  0.00     0.099 A  
HETATM   19  C   UNL     1      -9.286  14.449  65.894  1.00  0.00     0.031 A  
HETATM   20  C   UNL     1     -11.307  14.194  67.102  1.00  0.00    -0.348 A  
BRANCH  16  21
HETATM   21  N   UNL     1      -9.820  12.259  66.790  1.00  0.00    -0.205 NA 
HETATM   22  C   UNL     1     -10.746  11.158  66.465  1.00  0.00    -0.260 C  
HETATM   23  C   UNL     1      -9.960  10.031  65.797  1.00  0.00    -0.346 C  
HETATM   24  C   UNL     1      -8.793   9.573  66.676  1.00  0.00    -0.135 C  
HETATM   25  C   UNL     1      -8.786  11.851  67.745  1.00  0.00    -0.166 C  
HETATM   26  C   UNL     1      -7.939  10.783  67.070  1.00  0.00    -0.124 C  
BRANCH  24  27
HETATM   27  O   UNL     1      -9.356   8.925  67.830  1.00  0.00    -0.139 OA 
BRANCH  27  28
HETATM   28  C   UNL     1      -9.421   7.560  67.802  1.00  0.00    -0.141 A  
HETATM   29  C   UNL     1     -10.294   6.821  67.011  1.00  0.00    -0.338 A  
HETATM   30  C   UNL     1     -10.266   5.429  67.051  1.00  0.00    -0.274 A  
HETATM   31  C   UNL     1      -9.379   4.750  67.880  1.00  0.00    -0.133 A  
HETATM   32  C   UNL     1      -8.513   5.487  68.687  1.00  0.00    -0.104 A  
HETATM   33  C   UNL     1      -8.518   6.889  68.628  1.00  0.00    -0.121 A  
BRANCH  31  34
HETATM   34  O   UNL     1      -9.534   3.405  67.871  1.00  0.00    -0.193 OA 
HETATM   35  C   UNL     1      -8.756   2.597  68.736  1.00  0.00    -0.086 C  
HETATM   36  F   UNL     1      -9.585   1.847  69.496  1.00  0.00    -0.176 F  
HETATM   37  F   UNL     1      -7.924   3.278  69.547  1.00  0.00    -0.050 F  
HETATM   38  F   UNL     1      -8.009   1.757  67.981  1.00  0.00    -0.056 F  
ENDBRANCH  31  34
ENDBRANCH  27  28
ENDBRANCH  24  27
ENDBRANCH  16  21
ENDBRANCH  14  15
ENDBRANCH  13  14
ENDBRANCH   2  13
TORSDOF 7
ENDMDL
MODEL      204
REMARK 921   NORMALIZED FREE ENERGY PREDICTED BY IDOCK:    1.56 KCAL/MOL
REMARK 922        TOTAL FREE ENERGY PREDICTED BY IDOCK:    0.72 KCAL/MOL
REMARK 923 INTER-LIGAND FREE ENERGY PREDICTED BY IDOCK:   -2.76 KCAL/MOL
REMARK 924 INTRA-LIGAND FREE ENERGY PREDICTED BY IDOCK:    3.48 KCAL/MOL
REMARK 927      BINDING AFFINITY PREDICTED BY RF-SCORE:    0.00 PKD
ROOT
HETATM    1  C   UNL     1      -8.623  15.496  66.127  1.00  0.00    -0.078 C  
HETATM    2  C   UNL     1      -9.026  14.077  66.520  1.00  0.00    -0.092 C  
HETATM    3  C   UNL     1      -7.744  12.284  66.188  1.00  0.00     0.907 A  
HETATM    4  C   UNL     1      -8.438  13.663  67.897  1.00  0.00    -0.177 C  
HETATM    5  N   UNL     1      -7.678  12.503  67.516  1.00  0.00    -0.154 NA 
HETATM    6  O   UNL     1      -5.248   9.275  68.168  1.00  0.00    -0.034 OA 
HETATM    7  C   UNL     1      -6.911  11.567  68.096  1.00  0.00    -0.068 A  
HETATM    8  O   UNL     1      -8.474  13.155  65.516  1.00  0.00     1.498 OA 
HETATM    9  O   UNL     1      -5.435   9.028  65.986  1.00  0.00    -0.040 OA 
HETATM   10  C   UNL     1      -6.531  10.774  67.014  1.00  0.00    -0.083 A  
HETATM   11  N   UNL     1      -7.068  11.238  65.811  1.00  0.00     0.198 NA 
HETATM   12  N   UNL     1      -5.677   9.607  67.052  1.00  0.00    -0.050 N  
ENDROOT
BRANCH   2  13
HETATM   13  C   UNL     1     -10.543  13.907  66.499  1.00  0.00    -0.279 C  
BRANCH  13  14
HETATM   14  O   UNL     1     -10.904  12.585  66.093  1.00  0.00    -0.262 OA 
BRANCH  14  15
HETATM   15  C   UNL     1     -10.837  11.665  67.103  1.00  0.00    -0.261 A  
HETATM   16  C   UNL     1     -10.955   9.788  69.254  1.00  0.00    -0.193 A  
HETATM   17  C   UNL     1     -10.288  10.396  66.977  1.00  0.00    -0.295 A  
HETATM   18  C   UNL     1     -11.360  12.039  68.332  1.00  0.00    -0.332 A  
HETATM   19  C   UNL     1     -10.351   9.486  68.030  1.00  0.00    -0.260 A  
HETATM   20  C   UNL     1     -11.409  11.114  69.387  1.00  0.00    -0.352 A  
BRANCH  16  21
HETATM   21  N   UNL     1     -11.035   8.848  70.269  1.00  0.00    -0.241 NA 
HETATM   22  C   UNL     1     -10.180   8.900  71.470  1.00  0.00    -0.328 C  
HETATM   23  C   UNL     1     -11.031   8.574  72.697  1.00  0.00    -0.210 C  
HETATM   24  C   UNL     1     -11.736   7.224  72.540  1.00  0.00    -0.204 C  
HETATM   25  C   UNL     1     -11.595   7.513  70.044  1.00  0.00     0.051 C  
HETATM   26  C   UNL     1     -12.511   7.199  71.217  1.00  0.00    -0.425 C  
BRANCH  24  27
HETATM   27  O   UNL     1     -10.722   6.205  72.578  1.00  0.00    -0.205 OA 
BRANCH  27  28
HETATM   28  C   UNL     1     -10.154   5.853  71.387  1.00  0.00    -0.197 A  
HETATM   29  C   UNL     1      -8.950   6.351  70.900  1.00  0.00    -0.144 A  
HETATM   30  C   UNL     1      -8.455   5.911  69.675  1.00  0.00    -0.117 A  
HETATM   31  C   UNL     1      -9.148   4.977  68.912  1.00  0.00    -0.109 A  
HETATM   32  C   UNL     1     -10.363   4.486  69.388  1.00  0.00     0.218 A  
HETATM   33  C   UNL     1     -10.850   4.905  70.635  1.00  0.00     0.273 A  
BRANCH  31  34
HETATM   34  O   UNL     1      -8.582   4.717  67.710  1.00  0.00    -0.103 OA 
HETATM   35  C   UNL     1      -9.271   5.047  66.516  1.00  0.00    -0.135 C  
HETATM   36  F   UNL     1      -8.488   5.857  65.770  1.00  0.00    -0.123 F  
HETATM   37  F   UNL     1     -10.462   5.648  66.701  1.00  0.00    -0.217 F  
HETATM   38  F   UNL     1      -9.482   3.908  65.814  1.00  0.00    -0.143 F  
ENDBRANCH  31  34
ENDBRANCH  27  28
ENDBRANCH  24  27
ENDBRANCH  16  21
ENDBRANCH  14  15
ENDBRANCH  13  14
ENDBRANCH   2  13
TORSDOF 7
ENDMDL
MODEL      205
REMARK 921   NORMALIZED FREE ENERGY PREDICTED BY IDOCK:    1.73 KCAL/MOL
REMARK 922        TOTAL FREE ENERGY PREDICTED BY IDOCK:    0.96 KCAL/MOL
REMARK 923 INTER-LIGAND FREE ENERGY PREDICTED BY IDOCK:   -4.23 KCAL/MOL
REMARK 924 INTRA-LIGAND FREE ENERGY PREDICTED BY IDOCK:    5.19 KCAL/MOL
REMARK 927      BINDING AFFINITY PREDICTED BY RF-SCORE:    0.00 PKD
ROOT
HETATM    1  C   UNL     1     -11.078  10.801  64.709  1.00  0.00     0.275 C  
HETATM    2  C   UNL     1     -10.030  11.752  65.282  1.00  0.00    -0.253 C  
HETATM    3  C   UNL     1     -10.159  13.973  65.147  1.00  0.00    -0.314 A  
HETATM    4  C   UNL     1     -10.427  12.281  66.687  1.00  0.00    -0.222 C  
HETATM    5  N   UNL     1     -10.438  13.698  66.436  1.00  0.00    -0.284 NA 
HETATM    6  O   UNL     1     -10.877  17.643  67.431  1.00  0.00    -0.301 OA 
HETATM    7  C   UNL     1     -10.651  14.838  67.111  1.00  0.00    -0.285 A  
HETATM    8  O   UNL     1      -9.937  12.915  64.388  1.00  0.00    -0.261 OA 
HETATM    9  O   UNL     1     -10.411  17.958  65.300  1.00  0.00    -0.585 OA 
HETATM   10  C   UNL     1     -10.473  15.810  66.127  1.00  0.00    -0.317 A  
HETATM   11  N   UNL     1     -10.159  15.248  64.888  1.00  0.00    -0.253 NA 
HETATM   12  N   UNL     1     -10.594  17.242  66.292  1.00  0.00    -0.244 N  
ENDROOT
BRANCH   2  13
HETATM   13  C   UNL     1      -8.650  11.098  65.313  1.00  0.00     0.028 C  
BRANCH  13  14
HETATM   14  O   UNL     1      -8.761   9.676  65.402  1.00  0.00    -0.141 OA 
BRANCH  14  15
HETATM   15  C   UNL     1      -9.367   9.244  66.549  1.00  0.00    -0.178 A  
HETATM   16  C   UNL     1     -10.642   8.100  68.836  1.00  0.00    -0.140 A  
HETATM   17  C   UNL     1      -8.902   9.501  67.831  1.00  0.00    -0.119 A  
HETATM   18  C   UNL     1     -10.527   8.496  66.405  1.00  0.00     0.072 A  
HETATM   19  C   UNL     1      -9.528   8.938  68.942  1.00  0.00    -0.152 A  
HETATM   20  C   UNL     1     -11.152   7.943  67.533  1.00  0.00     0.212 A  
BRANCH  16  21
HETATM   21  N   UNL     1     -11.219   7.525  69.957  1.00  0.00    -0.208 NA 
HETATM   22  C   UNL     1     -10.494   7.366  71.232  1.00  0.00    -0.208 C  
HETATM   23  C   UNL     1     -11.430   7.731  72.382  1.00  0.00    -0.418 C  
HETATM   24  C   UNL     1     -12.716   6.902  72.335  1.00  0.00     0.187 C  
HETATM   25  C   UNL     1     -12.371   6.624  69.858  1.00  0.00     0.634 C  
HETATM   26  C   UNL     1     -13.356   7.022  70.946  1.00  0.00     0.062 C  
BRANCH  24  27
HETATM   27  O   UNL     1     -12.359   5.542  72.637  1.00  0.00    -0.085 OA 
BRANCH  27  28
HETATM   28  C   UNL     1     -11.056   5.186  72.437  1.00  0.00    -0.148 A  
HETATM   29  C   UNL     1     -10.607   4.342  71.427  1.00  0.00     0.159 A  
HETATM   30  C   UNL     1      -9.249   4.056  71.305  1.00  0.00    -0.197 A  
HETATM   31  C   UNL     1      -8.319   4.595  72.187  1.00  0.00    -0.117 A  
HETATM   32  C   UNL     1      -8.765   5.429  73.212  1.00  0.00    -0.116 A  
HETATM   33  C   UNL     1     -10.129   5.743  73.319  1.00  0.00    -0.202 A  
BRANCH  31  34
HETATM   34  O   UNL     1      -7.054   4.154  71.992  1.00  0.00    -0.047 OA 
HETATM   35  C   UNL     1      -6.258   3.771  73.101  1.00  0.00    -0.012 C  
HETATM   36  F   UNL     1      -5.837   2.500  72.918  1.00  0.00    -0.006 F  
HETATM   37  F   UNL     1      -6.877   3.853  74.294  1.00  0.00    -0.046 F  
HETATM   38  F   UNL     1      -5.166   4.571  73.141  1.00  0.00    -0.006 F  
ENDBRANCH  31  34
ENDBRANCH  27  28
ENDBRANCH  24  27
ENDBRANCH  16  21
ENDBRANCH  14  15
ENDBRANCH  13  14
ENDBRANCH   2  13
TORSDOF 7
ENDMDL
MODEL      206
REMARK 921   NORMALIZED FREE ENERGY PREDICTED BY IDOCK:    1.75 KCAL/MOL
REMARK 922        TOTAL FREE ENERGY PREDICTED BY IDOCK:    0.99 KCAL/MOL
REMARK 923 INTER-LIGAND FREE ENERGY PREDICTED BY IDOCK:   -2.72 KCAL/MOL
REMARK 924 INTRA-LIGAND FREE ENERGY PREDICTED BY IDOCK:    3.71 KCAL/MOL
REMARK 927      BINDING AFFINITY PREDICTED BY RF-SCORE:    0.00 PKD
ROOT
HETATM    1  C   UNL     1      -9.417   5.961  66.042  1.00  0.00    -0.087 C  
HETATM    2  C   UNL     1      -9.815   6.547  67.394  1.00  0.00    -0.133 C  
HETATM    3  C   UNL     1      -9.658   5.442  69.323  1.00  0.00    -0.145 A  
HETATM    4  C   UNL     1      -8.594   7.123  68.162  1.00  0.00    -0.129 C  
HETATM    5  N   UNL     1      -8.653   6.338  69.367  1.00  0.00    -0.124 NA 
HETATM    6  O   UNL     1      -7.439   5.153  73.092  1.00  0.00    -0.089 OA 
HETATM    7  C   UNL     1      -7.993   6.229  70.530  1.00  0.00    -0.112 A  
HETATM    8  O   UNL     1     -10.372   5.461  68.212  1.00  0.00    -0.180 OA 
HETATM    9  O   UNL     1      -9.115   3.734  72.895  1.00  0.00    -0.099 OA 
HETATM   10  C   UNL     1      -8.685   5.205  71.175  1.00  0.00    -0.130 A  
HETATM   11  N   UNL     1      -9.740   4.717  70.401  1.00  0.00    -0.203 NA 
HETATM   12  N   UNL     1      -8.397   4.653  72.481  1.00  0.00    -0.113 N  
ENDROOT
BRANCH   2  13
HETATM   13  C   UNL     1     -10.910   7.600  67.239  1.00  0.00    -0.193 C  
BRANCH  13  14
HETATM   14  O   UNL     1     -10.444   8.713  66.472  1.00  0.00    -0.249 OA 
BRANCH  14  15
HETATM   15  C   UNL     1      -9.704   9.606  67.197  1.00  0.00    -0.174 A  
HETATM   16  C   UNL     1      -8.231  11.656  68.534  1.00  0.00    -0.144 A  
HETATM   17  C   UNL     1      -9.789   9.766  68.573  1.00  0.00    -0.169 A  
HETATM   18  C   UNL     1      -8.812  10.401  66.492  1.00  0.00    -0.150 A  
HETATM   19  C   UNL     1      -9.069  10.770  69.218  1.00  0.00    -0.056 A  
HETATM   20  C   UNL     1      -8.086  11.402  67.157  1.00  0.00    -0.155 A  
BRANCH  16  21
HETATM   21  N   UNL     1      -7.558  12.668  69.199  1.00  0.00     0.156 NA 
HETATM   22  C   UNL     1      -8.031  14.066  69.208  1.00  0.00     0.248 C  
HETATM   23  C   UNL     1      -7.870  14.634  70.617  1.00  0.00     1.587 C  
HETATM   24  C   UNL     1      -6.426  14.503  71.106  1.00  0.00     0.345 C  
HETATM   25  C   UNL     1      -6.134  12.563  69.531  1.00  0.00    -0.120 C  
HETATM   26  C   UNL     1      -5.962  13.048  70.962  1.00  0.00     0.203 C  
BRANCH  24  27
HETATM   27  O   UNL     1      -5.623  15.395  70.313  1.00  0.00    -0.133 OA 
BRANCH  27  28
HETATM   28  C   UNL     1      -6.240  16.009  69.259  1.00  0.00    -0.151 A  
HETATM   29  C   UNL     1      -7.081  17.112  69.362  1.00  0.00    -0.094 A  
HETATM   30  C   UNL     1      -7.647  17.669  68.218  1.00  0.00    -0.257 A  
HETATM   31  C   UNL     1      -7.393  17.137  66.958  1.00  0.00    -0.181 A  
HETATM   32  C   UNL     1      -6.563  16.022  66.851  1.00  0.00     0.026 A  
HETATM   33  C   UNL     1      -5.968  15.476  67.999  1.00  0.00    -0.151 A  
BRANCH  31  34
HETATM   34  O   UNL     1      -8.084  17.734  65.957  1.00  0.00    -0.484 OA 
HETATM   35  C   UNL     1      -9.424  18.144  66.169  1.00  0.00    -0.153 C  
HETATM   36  F   UNL     1      -9.524  19.464  65.896  1.00  0.00    -0.358 F  
HETATM   37  F   UNL     1      -9.892  17.922  67.411  1.00  0.00    -0.276 F  
HETATM   38  F   UNL     1     -10.218  17.477  65.297  1.00  0.00    -0.096 F  
ENDBRANCH  31  34
ENDBRANCH  27  28
ENDBRANCH  24  27
ENDBRANCH  16  21
ENDBRANCH  14  15
ENDBRANCH  13  14
ENDBRANCH   2  13
TORSDOF 7
ENDMDL
MODEL      207
REMARK 921   NORMALIZED FREE ENERGY PREDICTED BY IDOCK:    1.77 KCAL/MOL
REMARK 922        TOTAL FREE ENERGY PREDICTED BY IDOCK:    1.01 KCAL/MOL
REMARK 923 INTER-LIGAND FREE ENERGY PREDICTED BY IDOCK:   -0.65 KCAL/MOL
REMARK 924 INTRA-LIGAND FREE ENERGY PREDICTED BY IDOCK:    1.67 KCAL/MOL
REMARK 927      BINDING AFFINITY PREDICTED BY RF-SCORE:    0.00 PKD
ROOT
HETATM    1  C   UNL     1     -11.542   2.665  64.425  1.00  0.00     2.586 C  
HETATM    2  C   UNL     1     -10.340   3.282  65.136  1.00  0.00     0.416 C  
HETATM    3  C   UNL     1      -8.478   3.930  64.096  1.00  0.00    -0.093 A  
HETATM    4  C   UNL     1     -10.358   4.834  65.073  1.00  0.00     0.144 C  
HETATM    5  N   UNL     1      -9.103   5.081  64.414  1.00  0.00    -0.046 NA 
HETATM    6  O   UNL     1      -6.141   7.409  62.816  1.00  0.00    -0.052 OA 
HETATM    7  C   UNL     1      -8.365   6.128  64.013  1.00  0.00     0.059 A  
HETATM    8  O   UNL     1      -9.124   2.832  64.443  1.00  0.00    -0.111 OA 
HETATM    9  O   UNL     1      -5.224   5.459  62.350  1.00  0.00    -0.012 OA 
HETATM   10  C   UNL     1      -7.254   5.512  63.438  1.00  0.00    -0.049 A  
HETATM   11  N   UNL     1      -7.337   4.119  63.500  1.00  0.00    -0.050 NA 
HETATM   12  N   UNL     1      -6.122   6.169  62.822  1.00  0.00    -0.026 N  
ENDROOT
BRANCH   2  13
HETATM   13  C   UNL     1     -10.242   2.794  66.579  1.00  0.00     1.720 C  
BRANCH  13  14
HETATM   14  O   UNL     1      -9.153   3.424  67.258  1.00  0.00    -0.145 OA 
BRANCH  14  15
HETATM   15  C   UNL     1      -9.371   4.746  67.534  1.00  0.00    -0.138 A  
HETATM   16  C   UNL     1      -9.738   7.559  67.865  1.00  0.00    -0.146 A  
HETATM   17  C   UNL     1     -10.546   5.256  68.068  1.00  0.00    -0.088 A  
HETATM   18  C   UNL     1      -8.336   5.626  67.252  1.00  0.00    -0.100 A  
HETATM   19  C   UNL     1     -10.719   6.630  68.225  1.00  0.00    -0.317 A  
HETATM   20  C   UNL     1      -8.521   7.007  67.424  1.00  0.00    -0.122 A  
BRANCH  16  21
HETATM   21  N   UNL     1      -9.955   8.921  67.997  1.00  0.00    -0.169 NA 
HETATM   22  C   UNL     1      -9.155   9.928  67.273  1.00  0.00    -0.135 C  
HETATM   23  C   UNL     1     -10.088  11.019  66.751  1.00  0.00    -0.260 C  
HETATM   24  C   UNL     1     -10.911  11.634  67.886  1.00  0.00    -0.225 C  
HETATM   25  C   UNL     1     -10.630   9.488  69.169  1.00  0.00    -0.222 C  
HETATM   26  C   UNL     1     -11.624  10.523  68.666  1.00  0.00    -0.241 C  
BRANCH  24  27
HETATM   27  O   UNL     1     -10.003  12.369  68.724  1.00  0.00    -0.152 OA 
BRANCH  27  28
HETATM   28  C   UNL     1     -10.523  13.418  69.429  1.00  0.00     0.295 A  
HETATM   29  C   UNL     1      -9.807  14.542  69.827  1.00  0.00     0.364 A  
HETATM   30  C   UNL     1     -10.441  15.562  70.533  1.00  0.00    -0.147 A  
HETATM   31  C   UNL     1     -11.791  15.479  70.859  1.00  0.00    -0.371 A  
HETATM   32  C   UNL     1     -12.509  14.347  70.475  1.00  0.00    -0.416 A  
HETATM   33  C   UNL     1     -11.880  13.332  69.740  1.00  0.00    -0.394 A  
BRANCH  31  34
HETATM   34  O   UNL     1     -12.238  16.506  71.619  1.00  0.00    -0.178 OA 
HETATM   35  C   UNL     1     -12.412  16.331  73.015  1.00  0.00    -0.439 C  
HETATM   36  F   UNL     1     -11.685  17.266  73.665  1.00  0.00    -0.406 F  
HETATM   37  F   UNL     1     -12.066  15.115  73.478  1.00  0.00    -0.471 F  
HETATM   38  F   UNL     1     -13.718  16.536  73.313  1.00  0.00    -0.519 F  
ENDBRANCH  31  34
ENDBRANCH  27  28
ENDBRANCH  24  27
ENDBRANCH  16  21
ENDBRANCH  14  15
ENDBRANCH  13  14
ENDBRANCH   2  13
TORSDOF 7
ENDMDL
MODEL      208
REMARK 921   NORMALIZED FREE ENERGY PREDICTED BY IDOCK:    1.93 KCAL/MOL
REMARK 922        TOTAL FREE ENERGY PREDICTED BY IDOCK:    1.24 KCAL/MOL
REMARK 923 INTER-LIGAND FREE ENERGY PREDICTED BY IDOCK:   -4.47 KCAL/MOL
REMARK 924 INTRA-LIGAND FREE ENERGY PREDICTED BY IDOCK:    5.71 KCAL/MOL
REMARK 927      BINDING AFFINITY PREDICTED BY RF-SCORE:    0.00 PKD
ROOT
HETATM    1  C   UNL     1     -12.763  15.770  71.079  1.00  0.00    -0.453 C  
HETATM    2  C   UNL     1     -11.758  15.441  69.978  1.00  0.00    -0.326 C  
HETATM    3  C   UNL     1     -11.185  16.856  68.354  1.00  0.00    -0.109 A  
HETATM    4  C   UNL     1     -10.337  15.975  70.305  1.00  0.00     0.001 C  
HETATM    5  N   UNL     1     -10.114  16.831  69.171  1.00  0.00    -0.285 NA 
HETATM    6  O   UNL     1      -7.976  19.429  66.841  1.00  0.00    -0.251 OA 
HETATM    7  C   UNL     1      -9.148  17.624  68.683  1.00  0.00    -0.261 A  
HETATM    8  O   UNL     1     -12.202  16.109  68.746  1.00  0.00    -0.056 OA 
HETATM    9  O   UNL     1      -9.792  19.385  65.591  1.00  0.00    -0.380 OA 
HETATM   10  C   UNL     1      -9.724  18.118  67.513  1.00  0.00    -0.303 A  
HETATM   11  N   UNL     1     -11.015  17.621  67.315  1.00  0.00    -0.124 NA 
HETATM   12  N   UNL     1      -9.126  19.044  66.577  1.00  0.00    -0.326 N  
ENDROOT
BRANCH   2  13
HETATM   13  C   UNL     1     -11.727  13.942  69.689  1.00  0.00    -0.311 C  
BRANCH  13  14
HETATM   14  O   UNL     1     -10.650  13.614  68.807  1.00  0.00    -0.249 OA 
BRANCH  14  15
HETATM   15  C   UNL     1     -10.478  12.269  68.628  1.00  0.00    -0.208 A  
HETATM   16  C   UNL     1     -10.307   9.473  68.068  1.00  0.00    -0.214 A  
HETATM   17  C   UNL     1      -9.250  11.650  68.446  1.00  0.00    -0.182 A  
HETATM   18  C   UNL     1     -11.621  11.483  68.629  1.00  0.00    -0.375 A  
HETATM   19  C   UNL     1      -9.175  10.286  68.171  1.00  0.00    -0.137 A  
HETATM   20  C   UNL     1     -11.529  10.108  68.360  1.00  0.00    -0.086 A  
BRANCH  16  21
HETATM   21  N   UNL     1     -10.202   8.127  67.756  1.00  0.00    -0.214 NA 
HETATM   22  C   UNL     1      -8.902   7.444  67.612  1.00  0.00    -0.127 C  
HETATM   23  C   UNL     1      -8.984   6.077  68.290  1.00  0.00    -0.113 C  
HETATM   24  C   UNL     1     -10.144   5.249  67.729  1.00  0.00    -0.157 C  
HETATM   25  C   UNL     1     -11.287   7.399  67.093  1.00  0.00     0.577 C  
HETATM   26  C   UNL     1     -11.441   6.064  67.805  1.00  0.00     0.605 C  
BRANCH  24  27
HETATM   27  O   UNL     1      -9.811   4.910  66.372  1.00  0.00    -0.165 OA 
BRANCH  27  28
HETATM   28  C   UNL     1      -9.035   5.800  65.685  1.00  0.00    -0.112 A  
HETATM   29  C   UNL     1      -9.410   7.100  65.363  1.00  0.00     0.562 A  
HETATM   30  C   UNL     1      -8.533   7.931  64.669  1.00  0.00     0.029 A  
HETATM   31  C   UNL     1      -7.275   7.482  64.278  1.00  0.00    -0.079 A  
HETATM   32  C   UNL     1      -6.901   6.174  64.585  1.00  0.00    -0.047 A  
HETATM   33  C   UNL     1      -7.770   5.345  65.309  1.00  0.00    -0.089 A  
BRANCH  31  34
HETATM   34  O   UNL     1      -6.576   8.375  63.538  1.00  0.00    -0.083 OA 
HETATM   35  C   UNL     1      -6.466   9.720  63.970  1.00  0.00    -0.119 C  
HETATM   36  F   UNL     1      -5.157  10.041  64.067  1.00  0.00    -0.058 F  
HETATM   37  F   UNL     1      -7.065   9.986  65.146  1.00  0.00    -0.108 F  
HETATM   38  F   UNL     1      -7.022  10.519  63.028  1.00  0.00    -0.139 F  
ENDBRANCH  31  34
ENDBRANCH  27  28
ENDBRANCH  24  27
ENDBRANCH  16  21
ENDBRANCH  14  15
ENDBRANCH  13  14
ENDBRANCH   2  13
TORSDOF 7
ENDMDL
MODEL      209
REMARK 921   NORMALIZED FREE ENERGY PREDICTED BY IDOCK:    2.13 KCAL/MOL
REMARK 922        TOTAL FREE ENERGY PREDICTED BY IDOCK:    1.53 KCAL/MOL
REMARK 923 INTER-LIGAND FREE ENERGY PREDICTED BY IDOCK:   -4.84 KCAL/MOL
REMARK 924 INTRA-LIGAND FREE ENERGY PREDICTED BY IDOCK:    6.37 KCAL/MOL
REMARK 927      BINDING AFFINITY PREDICTED BY RF-SCORE:    0.00 PKD
ROOT
HETATM    1  C   UNL     1      -8.958  19.951  65.492  1.00  0.00     0.426 C  
HETATM    2  C   UNL     1      -9.070  19.841  67.011  1.00  0.00    -0.340 C  
HETATM    3  C   UNL     1      -8.265  18.134  68.197  1.00  0.00    -0.276 A  
HETATM    4  C   UNL     1      -7.787  20.338  67.729  1.00  0.00    -0.245 C  
HETATM    5  N   UNL     1      -7.420  19.151  68.455  1.00  0.00    -0.294 NA 
HETATM    6  O   UNL     1      -5.128  16.915  71.004  1.00  0.00    -0.233 OA 
HETATM    7  C   UNL     1      -6.473  18.751  69.317  1.00  0.00    -0.279 A  
HETATM    8  O   UNL     1      -9.238  18.420  67.350  1.00  0.00    -0.268 OA 
HETATM    9  O   UNL     1      -6.579  15.334  70.496  1.00  0.00     0.007 OA 
HETATM   10  C   UNL     1      -6.822  17.422  69.555  1.00  0.00    -0.075 A  
HETATM   11  N   UNL     1      -7.962  17.045  68.840  1.00  0.00    -0.244 NA 
HETATM   12  N   UNL     1      -6.131  16.484  70.412  1.00  0.00     0.016 N  
ENDROOT
BRANCH   2  13
HETATM   13  C   UNL     1     -10.306  20.574  67.528  1.00  0.00    -0.080 C  
BRANCH  13  14
HETATM   14  O   UNL     1     -11.496  19.835  67.242  1.00  0.00     0.044 OA 
BRANCH  14  15
HETATM   15  C   UNL     1     -11.260  18.541  66.867  1.00  0.00     0.493 A  
HETATM   16  C   UNL     1     -10.995  15.775  66.205  1.00  0.00    -0.169 A  
HETATM   17  C   UNL     1     -10.930  18.142  65.579  1.00  0.00     0.324 A  
HETATM   18  C   UNL     1     -11.364  17.571  67.853  1.00  0.00     0.404 A  
HETATM   19  C   UNL     1     -10.804  16.791  65.263  1.00  0.00    -0.148 A  
HETATM   20  C   UNL     1     -11.225  16.214  67.522  1.00  0.00    -0.094 A  
BRANCH  16  21
HETATM   21  N   UNL     1     -10.900  14.439  65.851  1.00  0.00    -0.297 NA 
HETATM   22  C   UNL     1     -10.086  13.471  66.610  1.00  0.00    -0.277 C  
HETATM   23  C   UNL     1     -10.869  12.167  66.749  1.00  0.00    -0.289 C  
HETATM   24  C   UNL     1     -11.292  11.626  65.380  1.00  0.00    -0.153 C  
HETATM   25  C   UNL     1     -11.183  13.977  64.489  1.00  0.00    -0.350 C  
HETATM   26  C   UNL     1     -12.032  12.720  64.601  1.00  0.00    -0.453 C  
BRANCH  24  27
HETATM   27  O   UNL     1     -10.098  11.207  64.698  1.00  0.00    -0.256 OA 
BRANCH  27  28
HETATM   28  C   UNL     1      -9.634   9.953  64.979  1.00  0.00    -0.297 A  
HETATM   29  C   UNL     1      -9.966   9.216  66.111  1.00  0.00    -0.338 A  
HETATM   30  C   UNL     1      -9.444   7.937  66.292  1.00  0.00    -0.220 A  
HETATM   31  C   UNL     1      -8.580   7.374  65.358  1.00  0.00    -0.041 A  
HETATM   32  C   UNL     1      -8.231   8.115  64.230  1.00  0.00    -0.095 A  
HETATM   33  C   UNL     1      -8.778   9.392  64.030  1.00  0.00    -0.225 A  
BRANCH  31  34
HETATM   34  O   UNL     1      -8.091   6.164  65.718  1.00  0.00    -0.112 OA 
HETATM   35  C   UNL     1      -8.298   5.039  64.881  1.00  0.00    -0.142 C  
HETATM   36  F   UNL     1      -7.097   4.500  64.573  1.00  0.00    -0.047 F  
HETATM   37  F   UNL     1      -8.960   5.301  63.738  1.00  0.00    -0.106 F  
HETATM   38  F   UNL     1      -9.006   4.115  65.573  1.00  0.00    -0.118 F  
ENDBRANCH  31  34
ENDBRANCH  27  28
ENDBRANCH  24  27
ENDBRANCH  16  21
ENDBRANCH  14  15
ENDBRANCH  13  14
ENDBRANCH   2  13
TORSDOF 7
ENDMDL
MODEL      210
REMARK 921   NORMALIZED FREE ENERGY PREDICTED BY IDOCK:    2.26 KCAL/MOL
REMARK 922        TOTAL FREE ENERGY PREDICTED BY IDOCK:    1.70 KCAL/MOL
REMARK 923 INTER-LIGAND FREE ENERGY PREDICTED BY IDOCK:   -4.84 KCAL/MOL
REMARK 924 INTRA-LIGAND FREE ENERGY PREDICTED BY IDOCK:    6.54 KCAL/MOL
REMARK 927      BINDING AFFINITY PREDICTED BY RF-SCORE:    0.00 PKD
ROOT
HETATM    1  C   UNL     1      -7.611  11.406  69.472  1.00  0.00     0.200 C  
HETATM    2  C   UNL     1      -6.524  10.339  69.369  1.00  0.00    -0.053 C  
HETATM    3  C   UNL     1      -6.813   8.209  69.960  1.00  0.00    -0.040 A  
HETATM    4  C   UNL     1      -6.646   9.506  68.064  1.00  0.00    -0.062 C  
HETATM    5  N   UNL     1      -6.795   8.185  68.613  1.00  0.00    -0.065 NA 
HETATM    6  O   UNL     1      -7.251   4.121  68.444  1.00  0.00    -0.055 OA 
HETATM    7  C   UNL     1      -6.928   6.923  68.177  1.00  0.00    -0.080 A  
HETATM    8  O   UNL     1      -6.693   9.411  70.496  1.00  0.00    -0.065 OA 
HETATM    9  O   UNL     1      -7.267   4.298  70.641  1.00  0.00    -0.043 OA 
HETATM   10  C   UNL     1      -7.022   6.200  69.366  1.00  0.00    -0.067 A  
HETATM   11  N   UNL     1      -6.944   7.028  70.489  1.00  0.00    -0.061 NA 
HETATM   12  N   UNL     1      -7.192   4.770  69.500  1.00  0.00    -0.054 N  
ENDROOT
BRANCH   2  13
HETATM   13  C   UNL     1      -5.132  10.954  69.499  1.00  0.00    -0.038 C  
BRANCH  13  14
HETATM   14  O   UNL     1      -5.129  12.011  70.460  1.00  0.00    -0.089 OA 
BRANCH  14  15
HETATM   15  C   UNL     1      -5.638  13.187  69.984  1.00  0.00    -0.120 A  
HETATM   16  C   UNL     1      -6.491  15.764  69.095  1.00  0.00    -0.143 A  
HETATM   17  C   UNL     1      -6.067  13.388  68.679  1.00  0.00    -0.086 A  
HETATM   18  C   UNL     1      -5.724  14.244  70.878  1.00  0.00    -0.199 A  
HETATM   19  C   UNL     1      -6.480  14.649  68.252  1.00  0.00    -0.121 A  
HETATM   20  C   UNL     1      -6.151  15.507  70.436  1.00  0.00    -0.026 A  
BRANCH  16  21
HETATM   21  N   UNL     1      -6.872  17.014  68.630  1.00  0.00    -0.177 NA 
HETATM   22  C   UNL     1      -7.909  17.827  69.294  1.00  0.00     0.151 C  
HETATM   23  C   UNL     1      -7.444  19.281  69.337  1.00  0.00    -0.169 C  
HETATM   24  C   UNL     1      -7.105  19.797  67.936  1.00  0.00    -0.274 C  
HETATM   25  C   UNL     1      -6.652  17.422  67.240  1.00  0.00    -0.154 C  
HETATM   26  C   UNL     1      -6.111  18.843  67.263  1.00  0.00    -0.168 C  
BRANCH  24  27
HETATM   27  O   UNL     1      -8.338  19.882  67.202  1.00  0.00    -0.297 OA 
BRANCH  27  28
HETATM   28  C   UNL     1      -8.934  18.702  66.855  1.00  0.00    -0.294 A  
HETATM   29  C   UNL     1      -8.474  17.839  65.866  1.00  0.00     0.068 A  
HETATM   30  C   UNL     1      -9.153  16.651  65.603  1.00  0.00     0.214 A  
HETATM   31  C   UNL     1     -10.299  16.306  66.311  1.00  0.00    -0.326 A  
HETATM   32  C   UNL     1     -10.773  17.175  67.294  1.00  0.00    -0.208 A  
HETATM   33  C   UNL     1     -10.075  18.358  67.581  1.00  0.00    -0.378 A  
BRANCH  31  34
HETATM   34  O   UNL     1     -10.891  15.166  65.881  1.00  0.00    -0.322 OA 
HETATM   35  C   UNL     1     -11.146  14.112  66.794  1.00  0.00    -0.310 C  
HETATM   36  F   UNL     1     -12.465  13.818  66.763  1.00  0.00    -0.433 F  
HETATM   37  F   UNL     1     -10.791  14.370  68.066  1.00  0.00    -0.233 F  
HETATM   38  F   UNL     1     -10.464  13.017  66.383  1.00  0.00    -0.263 F  
ENDBRANCH  31  34
ENDBRANCH  27  28
ENDBRANCH  24  27
ENDBRANCH  16  21
ENDBRANCH  14  15
ENDBRANCH  13  14
ENDBRANCH   2  13
TORSDOF 7
ENDMDL
MODEL      211
REMARK 921   NORMALIZED FREE ENERGY PREDICTED BY IDOCK:    2.68 KCAL/MOL
REMARK 922        TOTAL FREE ENERGY PREDICTED BY IDOCK:    2.30 KCAL/MOL
REMARK 923 INTER-LIGAND FREE ENERGY PREDICTED BY IDOCK:   -1.50 KCAL/MOL
REMARK 924 INTRA-LIGAND FREE ENERGY PREDICTED BY IDOCK:    3.80 KCAL/MOL
REMARK 927      BINDING AFFINITY PREDICTED BY RF-SCORE:    0.00 PKD
ROOT
HETATM    1  C   UNL     1     -11.860  16.340  71.718  1.00  0.00    -0.510 C  
HETATM    2  C   UNL     1     -11.217  15.878  70.413  1.00  0.00    -0.378 C  
HETATM    3  C   UNL     1      -9.083  16.238  69.882  1.00  0.00     0.636 A  
HETATM    4  C   UNL     1     -10.463  14.531  70.578  1.00  0.00     0.669 C  
HETATM    5  N   UNL     1      -9.138  14.925  70.178  1.00  0.00     0.474 NA 
HETATM    6  O   UNL     1      -5.167  14.333  69.384  1.00  0.00    -0.086 OA 
HETATM    7  C   UNL     1      -7.929  14.367  70.015  1.00  0.00     0.760 A  
HETATM    8  O   UNL     1     -10.225  16.887  70.015  1.00  0.00     0.061 OA 
HETATM    9  O   UNL     1      -5.209  16.491  68.932  1.00  0.00    -0.118 OA 
HETATM   10  C   UNL     1      -7.152  15.447  69.596  1.00  0.00    -0.180 A  
HETATM   11  N   UNL     1      -7.897  16.626  69.513  1.00  0.00     0.060 NA 
HETATM   12  N   UNL     1      -5.741  15.429  69.280  1.00  0.00    -0.097 N  
ENDROOT
BRANCH   2  13
HETATM   13  C   UNL     1     -12.248  15.795  69.289  1.00  0.00    -0.098 C  
BRANCH  13  14
HETATM   14  O   UNL     1     -11.655  16.111  68.028  1.00  0.00    -0.236 OA 
BRANCH  14  15
HETATM   15  C   UNL     1     -11.213  15.015  67.340  1.00  0.00    -0.335 A  
HETATM   16  C   UNL     1     -10.362  12.849  65.682  1.00  0.00    -0.282 A  
HETATM   17  C   UNL     1      -9.971  14.421  67.519  1.00  0.00    -0.224 A  
HETATM   18  C   UNL     1     -12.076  14.471  66.400  1.00  0.00    -0.320 A  
HETATM   19  C   UNL     1      -9.562  13.366  66.705  1.00  0.00    -0.262 A  
HETATM   20  C   UNL     1     -11.654  13.402  65.593  1.00  0.00    -0.350 A  
BRANCH  16  21
HETATM   21  N   UNL     1      -9.912  11.825  64.865  1.00  0.00    -0.249 NA 
HETATM   22  C   UNL     1     -10.829  10.933  64.129  1.00  0.00    -0.027 C  
HETATM   23  C   UNL     1     -10.284  10.717  62.719  1.00  0.00     0.079 C  
HETATM   24  C   UNL     1      -8.851  10.180  62.754  1.00  0.00    -0.230 C  
HETATM   25  C   UNL     1      -8.577  11.241  65.019  1.00  0.00     0.214 C  
HETATM   26  C   UNL     1      -7.981  11.091  63.628  1.00  0.00     0.441 C  
BRANCH  24  27
HETATM   27  O   UNL     1      -8.909   8.842  63.279  1.00  0.00    -0.112 OA 
BRANCH  27  28
HETATM   28  C   UNL     1      -8.202   8.595  64.421  1.00  0.00    -0.162 A  
HETATM   29  C   UNL     1      -8.735   8.051  65.585  1.00  0.00    -0.156 A  
HETATM   30  C   UNL     1      -7.918   7.828  66.691  1.00  0.00    -0.107 A  
HETATM   31  C   UNL     1      -6.565   8.146  66.662  1.00  0.00    -0.056 A  
HETATM   32  C   UNL     1      -6.029   8.707  65.503  1.00  0.00    -0.048 A  
HETATM   33  C   UNL     1      -6.842   8.906  64.377  1.00  0.00    -0.081 A  
BRANCH  31  34
HETATM   34  O   UNL     1      -5.926   7.952  67.840  1.00  0.00    -0.039 OA 
HETATM   35  C   UNL     1      -6.322   6.891  68.693  1.00  0.00    -0.032 C  
HETATM   36  F   UNL     1      -5.248   6.108  68.940  1.00  0.00    -0.003 F  
HETATM   37  F   UNL     1      -7.316   6.121  68.212  1.00  0.00    -0.076 F  
HETATM   38  F   UNL     1      -6.733   7.419  69.870  1.00  0.00    -0.042 F  
ENDBRANCH  31  34
ENDBRANCH  27  28
ENDBRANCH  24  27
ENDBRANCH  16  21
ENDBRANCH  14  15
ENDBRANCH  13  14
ENDBRANCH   2  13
TORSDOF 7
ENDMDL
MODEL      212
REMARK 921   NORMALIZED FREE ENERGY PREDICTED BY IDOCK:    2.75 KCAL/MOL
REMARK 922        TOTAL FREE ENERGY PREDICTED BY IDOCK:    2.40 KCAL/MOL
REMARK 923 INTER-LIGAND FREE ENERGY PREDICTED BY IDOCK:   -2.27 KCAL/MOL
REMARK 924 INTRA-LIGAND FREE ENERGY PREDICTED BY IDOCK:    4.67 KCAL/MOL
REMARK 927      BINDING AFFINITY PREDICTED BY RF-SCORE:    0.00 PKD
ROOT
HETATM    1  C   UNL     1      -8.887  19.460  68.720  1.00  0.00    -0.385 C  
HETATM    2  C   UNL     1      -8.891  17.955  68.972  1.00  0.00     0.001 C  
HETATM    3  C   UNL     1     -10.449  16.898  70.166  1.00  0.00     0.266 A  
HETATM    4  C   UNL     1      -9.808  17.197  67.974  1.00  0.00    -0.283 C  
HETATM    5  N   UNL     1     -10.719  16.562  68.889  1.00  0.00    -0.316 NA 
HETATM    6  O   UNL     1     -13.880  14.182  69.932  1.00  0.00     1.523 OA 
HETATM    7  C   UNL     1     -11.770  15.729  68.848  1.00  0.00    -0.394 A  
HETATM    8  O   UNL     1      -9.430  17.724  70.321  1.00  0.00     1.707 OA 
HETATM    9  O   UNL     1     -13.338  14.811  71.974  1.00  0.00    -0.318 OA 
HETATM   10  C   UNL     1     -12.102  15.593  70.195  1.00  0.00    -0.377 A  
HETATM   11  N   UNL     1     -11.255  16.337  71.020  1.00  0.00    -0.286 NA 
HETATM   12  N   UNL     1     -13.183  14.807  70.746  1.00  0.00    -0.347 N  
ENDROOT
BRANCH   2  13
HETATM   13  C   UNL     1      -7.473  17.387  68.952  1.00  0.00    -0.235 C  
BRANCH  13  14
HETATM   14  O   UNL     1      -7.208  16.721  67.716  1.00  0.00    -0.132 OA 
BRANCH  14  15
HETATM   15  C   UNL     1      -7.123  15.361  67.834  1.00  0.00    -0.140 A  
HETATM   16  C   UNL     1      -6.704  12.557  68.184  1.00  0.00    -0.078 A  
HETATM   17  C   UNL     1      -8.101  14.557  68.402  1.00  0.00    -0.143 A  
HETATM   18  C   UNL     1      -5.971  14.758  67.348  1.00  0.00     0.220 A  
HETATM   19  C   UNL     1      -7.888  13.190  68.572  1.00  0.00    -0.105 A  
HETATM   20  C   UNL     1      -5.775  13.378  67.518  1.00  0.00     0.000 A  
BRANCH  16  21
HETATM   21  N   UNL     1      -6.508  11.202  68.401  1.00  0.00    -0.056 NA 
HETATM   22  C   UNL     1      -6.505  10.214  67.305  1.00  0.00    -0.068 C  
HETATM   23  C   UNL     1      -5.368   9.220  67.538  1.00  0.00    -0.037 C  
HETATM   24  C   UNL     1      -5.480   8.563  68.917  1.00  0.00    -0.039 C  
HETATM   25  C   UNL     1      -6.758  10.583  69.705  1.00  0.00    -0.126 C  
HETATM   26  C   UNL     1      -5.595   9.647  69.996  1.00  0.00    -0.040 C  
BRANCH  24  27
HETATM   27  O   UNL     1      -6.642   7.716  68.893  1.00  0.00    -0.046 OA 
BRANCH  27  28
HETATM   28  C   UNL     1      -7.853   8.321  69.075  1.00  0.00    -0.103 A  
HETATM   29  C   UNL     1      -8.775   8.574  68.065  1.00  0.00    -0.142 A  
HETATM   30  C   UNL     1      -9.990   9.187  68.365  1.00  0.00    -0.202 A  
HETATM   31  C   UNL     1     -10.304   9.563  69.667  1.00  0.00    -0.221 A  
HETATM   32  C   UNL     1      -9.376   9.325  70.680  1.00  0.00    -0.329 A  
HETATM   33  C   UNL     1      -8.164   8.682  70.386  1.00  0.00    -0.122 A  
BRANCH  31  34
HETATM   34  O   UNL     1     -11.481  10.223  69.782  1.00  0.00    -0.249 OA 
HETATM   35  C   UNL     1     -11.922  10.667  71.053  1.00  0.00    -0.339 C  
HETATM   36  F   UNL     1     -12.139  12.000  70.998  1.00  0.00    -0.426 F  
HETATM   37  F   UNL     1     -11.073  10.410  72.066  1.00  0.00     0.481 F  
HETATM   38  F   UNL     1     -13.102  10.064  71.332  1.00  0.00    -0.385 F  
ENDBRANCH  31  34
ENDBRANCH  27  28
ENDBRANCH  24  27
ENDBRANCH  16  21
ENDBRANCH  14  15
ENDBRANCH  13  14
ENDBRANCH   2  13
TORSDOF 7
ENDMDL
MODEL      213
REMARK 921   NORMALIZED FREE ENERGY PREDICTED BY IDOCK:    2.97 KCAL/MOL
REMARK 922        TOTAL FREE ENERGY PREDICTED BY IDOCK:    2.70 KCAL/MOL
REMARK 923 INTER-LIGAND FREE ENERGY PREDICTED BY IDOCK:   -2.67 KCAL/MOL
REMARK 924 INTRA-LIGAND FREE ENERGY PREDICTED BY IDOCK:    5.37 KCAL/MOL
REMARK 927      BINDING AFFINITY PREDICTED BY RF-SCORE:    0.00 PKD
ROOT
HETATM    1  C   UNL     1      -8.834  19.447  68.824  1.00  0.00    -0.385 C  
HETATM    2  C   UNL     1      -8.891  17.927  68.956  1.00  0.00     0.001 C  
HETATM    3  C   UNL     1     -10.406  16.841  70.179  1.00  0.00     0.318 A  
HETATM    4  C   UNL     1      -9.914  17.294  67.975  1.00  0.00    -0.304 C  
HETATM    5  N   UNL     1     -10.784  16.623  68.904  1.00  0.00    -0.323 NA 
HETATM    6  O   UNL     1     -13.970  14.298  69.995  1.00  0.00     1.405 OA 
HETATM    7  C   UNL     1     -11.874  15.841  68.877  1.00  0.00    -0.341 A  
HETATM    8  O   UNL     1      -9.340  17.608  70.319  1.00  0.00     1.825 OA 
HETATM    9  O   UNL     1     -13.250  14.733  72.033  1.00  0.00    -0.313 OA 
HETATM   10  C   UNL     1     -12.112  15.608  70.232  1.00  0.00    -0.385 A  
HETATM   11  N   UNL     1     -11.172  16.245  71.045  1.00  0.00    -0.286 NA 
HETATM   12  N   UNL     1     -13.186  14.824  70.800  1.00  0.00    -0.347 N  
ENDROOT
BRANCH   2  13
HETATM   13  C   UNL     1      -7.507  17.305  68.782  1.00  0.00    -0.260 C  
BRANCH  13  14
HETATM   14  O   UNL     1      -7.456  16.494  67.606  1.00  0.00    -0.135 OA 
BRANCH  14  15
HETATM   15  C   UNL     1      -7.458  15.151  67.866  1.00  0.00    -0.137 A  
HETATM   16  C   UNL     1      -7.538  12.407  68.656  1.00  0.00    -0.082 A  
HETATM   17  C   UNL     1      -8.081  14.197  67.074  1.00  0.00    -0.044 A  
HETATM   18  C   UNL     1      -6.788  14.730  69.006  1.00  0.00    -0.113 A  
HETATM   19  C   UNL     1      -8.118  12.860  67.467  1.00  0.00    -0.181 A  
HETATM   20  C   UNL     1      -6.826  13.378  69.384  1.00  0.00     0.005 A  
BRANCH  16  21
HETATM   21  N   UNL     1      -7.625  11.078  69.038  1.00  0.00    -0.132 NA 
HETATM   22  C   UNL     1      -6.477  10.154  68.964  1.00  0.00    -0.044 C  
HETATM   23  C   UNL     1      -6.451   9.296  70.229  1.00  0.00    -0.058 C  
HETATM   24  C   UNL     1      -7.780   8.563  70.429  1.00  0.00    -0.080 C  
HETATM   25  C   UNL     1      -8.906  10.368  69.085  1.00  0.00    -0.172 C  
HETATM   26  C   UNL     1      -8.936   9.569  70.379  1.00  0.00    -0.291 C  
BRANCH  24  27
HETATM   27  O   UNL     1      -7.888   7.581  69.383  1.00  0.00    -0.115 OA 
BRANCH  27  28
HETATM   28  C   UNL     1      -8.362   8.012  68.177  1.00  0.00    -0.127 A  
HETATM   29  C   UNL     1      -9.661   7.819  67.717  1.00  0.00    -0.172 A  
HETATM   30  C   UNL     1     -10.043   8.314  66.473  1.00  0.00    -0.303 A  
HETATM   31  C   UNL     1      -9.143   8.999  65.664  1.00  0.00    -0.223 A  
HETATM   32  C   UNL     1      -7.836   9.181  66.113  1.00  0.00    -0.103 A  
HETATM   33  C   UNL     1      -7.455   8.710  67.378  1.00  0.00    -0.089 A  
BRANCH  31  34
HETATM   34  O   UNL     1      -9.640   9.340  64.451  1.00  0.00     0.126 OA 
HETATM   35  C   UNL     1      -8.800   9.955  63.489  1.00  0.00    -0.234 C  
HETATM   36  F   UNL     1      -8.819   9.215  62.358  1.00  0.00    -0.203 F  
HETATM   37  F   UNL     1      -7.522  10.117  63.878  1.00  0.00    -0.134 F  
HETATM   38  F   UNL     1      -9.307  11.177  63.197  1.00  0.00    -0.229 F  
ENDBRANCH  31  34
ENDBRANCH  27  28
ENDBRANCH  24  27
ENDBRANCH  16  21
ENDBRANCH  14  15
ENDBRANCH  13  14
ENDBRANCH   2  13
TORSDOF 7
ENDMDL
MODEL      214
REMARK 921   NORMALIZED FREE ENERGY PREDICTED BY IDOCK:    3.12 KCAL/MOL
REMARK 922        TOTAL FREE ENERGY PREDICTED BY IDOCK:    2.91 KCAL/MOL
REMARK 923 INTER-LIGAND FREE ENERGY PREDICTED BY IDOCK:   -1.74 KCAL/MOL
REMARK 924 INTRA-LIGAND FREE ENERGY PREDICTED BY IDOCK:    4.65 KCAL/MOL
REMARK 927      BINDING AFFINITY PREDICTED BY RF-SCORE:    0.00 PKD
ROOT
HETATM    1  C   UNL     1     -11.692   2.706  62.976  1.00  0.00     0.922 C  
HETATM    2  C   UNL     1     -10.630   3.165  63.972  1.00  0.00    -0.126 C  
HETATM    3  C   UNL     1      -8.622   3.931  63.384  1.00  0.00    -0.096 A  
HETATM    4  C   UNL     1     -10.643   4.705  64.172  1.00  0.00     0.504 C  
HETATM    5  N   UNL     1      -9.296   5.027  63.784  1.00  0.00     0.179 NA 
HETATM    6  O   UNL     1      -6.115   7.516  63.123  1.00  0.00    -0.053 OA 
HETATM    7  C   UNL     1      -8.505   6.107  63.696  1.00  0.00     0.185 A  
HETATM    8  O   UNL     1      -9.313   2.806  63.426  1.00  0.00    -0.095 OA 
HETATM    9  O   UNL     1      -5.125   5.649  62.493  1.00  0.00    -0.012 OA 
HETATM   10  C   UNL     1      -7.310   5.570  63.219  1.00  0.00    -0.052 A  
HETATM   11  N   UNL     1      -7.397   4.189  63.028  1.00  0.00    -0.048 NA 
HETATM   12  N   UNL     1      -6.092   6.292  62.922  1.00  0.00    -0.026 N  
ENDROOT
BRANCH   2  13
HETATM   13  C   UNL     1     -10.776   2.438  65.307  1.00  0.00     2.167 C  
BRANCH  13  14
HETATM   14  O   UNL     1      -9.755   2.842  66.222  1.00  0.00     0.070 OA 
BRANCH  14  15
HETATM   15  C   UNL     1      -9.732   4.189  66.458  1.00  0.00    -0.209 A  
HETATM   16  C   UNL     1      -9.879   6.963  67.125  1.00  0.00    -0.165 A  
HETATM   17  C   UNL     1      -8.585   4.922  66.726  1.00  0.00    -0.108 A  
HETATM   18  C   UNL     1     -10.949   4.854  66.425  1.00  0.00     0.212 A  
HETATM   19  C   UNL     1      -8.665   6.275  67.053  1.00  0.00    -0.108 A  
HETATM   20  C   UNL     1     -11.013   6.220  66.747  1.00  0.00    -0.328 A  
BRANCH  16  21
HETATM   21  N   UNL     1      -9.929   8.299  67.489  1.00  0.00    -0.177 NA 
HETATM   22  C   UNL     1     -10.333   8.740  68.838  1.00  0.00    -0.212 C  
HETATM   23  C   UNL     1      -9.402   9.864  69.290  1.00  0.00    -0.215 C  
HETATM   24  C   UNL     1      -9.389  11.014  68.279  1.00  0.00    -0.172 C  
HETATM   25  C   UNL     1     -10.055   9.368  66.495  1.00  0.00    -0.262 C  
HETATM   26  C   UNL     1      -9.076  10.467  66.881  1.00  0.00    -0.159 C  
BRANCH  24  27
HETATM   27  O   UNL     1     -10.683  11.638  68.325  1.00  0.00    -0.194 OA 
BRANCH  27  28
HETATM   28  C   UNL     1     -10.709  13.002  68.408  1.00  0.00    -0.256 A  
HETATM   29  C   UNL     1     -11.865  13.776  68.430  1.00  0.00    -0.411 A  
HETATM   30  C   UNL     1     -11.776  15.162  68.532  1.00  0.00    -0.347 A  
HETATM   31  C   UNL     1     -10.543  15.801  68.605  1.00  0.00    -0.250 A  
HETATM   32  C   UNL     1      -9.381  15.030  68.568  1.00  0.00    -0.196 A  
HETATM   33  C   UNL     1      -9.467  13.632  68.495  1.00  0.00    -0.143 A  
BRANCH  31  34
HETATM   34  O   UNL     1     -10.621  17.153  68.612  1.00  0.00    -0.346 OA 
HETATM   35  C   UNL     1     -10.236  17.890  67.465  1.00  0.00    -0.363 C  
HETATM   36  F   UNL     1     -11.272  18.668  67.079  1.00  0.00    -0.328 F  
HETATM   37  F   UNL     1      -9.845  17.140  66.417  1.00  0.00    -0.251 F  
HETATM   38  F   UNL     1      -9.207  18.703  67.804  1.00  0.00    -0.277 F  
ENDBRANCH  31  34
ENDBRANCH  27  28
ENDBRANCH  24  27
ENDBRANCH  16  21
ENDBRANCH  14  15
ENDBRANCH  13  14
ENDBRANCH   2  13
TORSDOF 7
ENDMDL
MODEL      215
REMARK 921   NORMALIZED FREE ENERGY PREDICTED BY IDOCK:    3.75 KCAL/MOL
REMARK 922        TOTAL FREE ENERGY PREDICTED BY IDOCK:    3.80 KCAL/MOL
REMARK 923 INTER-LIGAND FREE ENERGY PREDICTED BY IDOCK:   -0.74 KCAL/MOL
REMARK 924 INTRA-LIGAND FREE ENERGY PREDICTED BY IDOCK:    4.54 KCAL/MOL
REMARK 927      BINDING AFFINITY PREDICTED BY RF-SCORE:    0.00 PKD
ROOT
HETATM    1  C   UNL     1     -11.187   6.008  68.847  1.00  0.00    -0.246 C  
HETATM    2  C   UNL     1     -10.879   6.430  70.282  1.00  0.00    -0.293 C  
HETATM    3  C   UNL     1      -8.990   5.923  71.349  1.00  0.00    -0.140 A  
HETATM    4  C   UNL     1     -10.016   7.719  70.338  1.00  0.00    -0.188 C  
HETATM    5  N   UNL     1      -8.874   7.235  71.067  1.00  0.00    -0.143 NA 
HETATM    6  O   UNL     1      -5.219   7.547  72.881  1.00  0.00    -0.037 OA 
HETATM    7  C   UNL     1      -7.713   7.706  71.549  1.00  0.00    -0.085 A  
HETATM    8  O   UNL     1     -10.100   5.355  70.913  1.00  0.00    -0.195 OA 
HETATM    9  O   UNL     1      -5.529   5.401  73.278  1.00  0.00    -0.021 OA 
HETATM   10  C   UNL     1      -7.152   6.576  72.142  1.00  0.00    -0.081 A  
HETATM   11  N   UNL     1      -7.972   5.453  72.011  1.00  0.00    -0.112 NA 
HETATM   12  N   UNL     1      -5.875   6.496  72.818  1.00  0.00    -0.038 N  
ENDROOT
BRANCH   2  13
HETATM   13  C   UNL     1     -12.161   6.593  71.097  1.00  0.00    -0.335 C  
BRANCH  13  14
HETATM   14  O   UNL     1     -11.959   7.490  72.190  1.00  0.00    -0.290 OA 
BRANCH  14  15
HETATM   15  C   UNL     1     -12.120   8.807  71.856  1.00  0.00    -0.363 A  
HETATM   16  C   UNL     1     -12.285  11.514  70.960  1.00  0.00    -0.263 A  
HETATM   17  C   UNL     1     -13.348   9.434  71.696  1.00  0.00    -0.477 A  
HETATM   18  C   UNL     1     -10.967   9.553  71.665  1.00  0.00    -0.285 A  
HETATM   19  C   UNL     1     -13.420  10.755  71.256  1.00  0.00    -0.012 A  
HETATM   20  C   UNL     1     -11.055  10.886  71.231  1.00  0.00     1.424 A  
BRANCH  16  21
HETATM   21  N   UNL     1     -12.391  12.813  70.488  1.00  0.00    -0.318 NA 
HETATM   22  C   UNL     1     -11.714  13.270  69.259  1.00  0.00    -0.326 C  
HETATM   23  C   UNL     1     -12.676  14.150  68.463  1.00  0.00     0.845 C  
HETATM   24  C   UNL     1     -13.195  15.314  69.312  1.00  0.00     1.342 C  
HETATM   25  C   UNL     1     -12.759  13.928  71.366  1.00  0.00    -0.365 C  
HETATM   26  C   UNL     1     -13.780  14.775  70.623  1.00  0.00     0.063 C  
BRANCH  24  27
HETATM   27  O   UNL     1     -12.085  16.196  69.551  1.00  0.00    -0.205 OA 
BRANCH  27  28
HETATM   28  C   UNL     1     -10.841  15.726  69.236  1.00  0.00    -0.255 A  
HETATM   29  C   UNL     1      -9.958  15.145  70.139  1.00  0.00     0.025 A  
HETATM   30  C   UNL     1      -8.716  14.685  69.705  1.00  0.00     0.447 A  
HETATM   31  C   UNL     1      -8.331  14.801  68.374  1.00  0.00    -0.154 A  
HETATM   32  C   UNL     1      -9.207  15.397  67.468  1.00  0.00    -0.201 A  
HETATM   33  C   UNL     1     -10.470  15.835  67.895  1.00  0.00    -0.270 A  
BRANCH  31  34
HETATM   34  O   UNL     1      -7.064  14.388  68.128  1.00  0.00    -0.099 OA 
HETATM   35  C   UNL     1      -6.836  13.133  67.510  1.00  0.00    -0.149 C  
HETATM   36  F   UNL     1      -6.099  13.325  66.394  1.00  0.00     1.267 F  
HETATM   37  F   UNL     1      -7.952  12.456  67.180  1.00  0.00    -0.157 F  
HETATM   38  F   UNL     1      -6.115  12.363  68.360  1.00  0.00    -0.052 F  
ENDBRANCH  31  34
ENDBRANCH  27  28
ENDBRANCH  24  27
ENDBRANCH  16  21
ENDBRANCH  14  15
ENDBRANCH  13  14
ENDBRANCH   2  13
TORSDOF 7
ENDMDL
MODEL      216
REMARK 921   NORMALIZED FREE ENERGY PREDICTED BY IDOCK:    4.26 KCAL/MOL
REMARK 922        TOTAL FREE ENERGY PREDICTED BY IDOCK:    4.52 KCAL/MOL
REMARK 923 INTER-LIGAND FREE ENERGY PREDICTED BY IDOCK:   -6.59 KCAL/MOL
REMARK 924 INTRA-LIGAND FREE ENERGY PREDICTED BY IDOCK:   11.11 KCAL/MOL
REMARK 927      BINDING AFFINITY PREDICTED BY RF-SCORE:    0.00 PKD
ROOT
HETATM    1  C   UNL     1      -8.798  17.797  65.738  1.00  0.00     0.318 C  
HETATM    2  C   UNL     1      -9.119  18.758  66.880  1.00  0.00    -0.300 C  
HETATM    3  C   UNL     1      -7.971  18.849  68.789  1.00  0.00    -0.317 A  
HETATM    4  C   UNL     1      -8.237  20.036  66.833  1.00  0.00    -0.324 C  
HETATM    5  N   UNL     1      -7.600  19.959  68.121  1.00  0.00    -0.295 NA 
HETATM    6  O   UNL     1      -5.130  21.231  71.125  1.00  0.00    -0.543 OA 
HETATM    7  C   UNL     1      -6.734  20.669  68.859  1.00  0.00     0.015 A  
HETATM    8  O   UNL     1      -8.824  18.071  68.146  1.00  0.00    -0.259 OA 
HETATM    9  O   UNL     1      -5.814  19.381  72.111  1.00  0.00    -0.273 OA 
HETATM   10  C   UNL     1      -6.622  19.900  70.017  1.00  0.00    -0.266 A  
HETATM   11  N   UNL     1      -7.414  18.751  69.960  1.00  0.00     0.682 NA 
HETATM   12  N   UNL     1      -5.798  20.186  71.171  1.00  0.00    -0.322 N  
ENDROOT
BRANCH   2  13
HETATM   13  C   UNL     1     -10.603  19.117  66.899  1.00  0.00    -0.448 C  
BRANCH  13  14
HETATM   14  O   UNL     1     -11.358  18.129  67.603  1.00  0.00     0.089 OA 
BRANCH  14  15
HETATM   15  C   UNL     1     -10.757  16.901  67.638  1.00  0.00    -0.290 A  
HETATM   16  C   UNL     1      -9.721  14.239  67.599  1.00  0.00    -0.220 A  
HETATM   17  C   UNL     1      -9.474  16.639  67.177  1.00  0.00    -0.236 A  
HETATM   18  C   UNL     1     -11.494  15.854  68.171  1.00  0.00    -0.281 A  
HETATM   19  C   UNL     1      -8.976  15.338  67.159  1.00  0.00    -0.227 A  
HETATM   20  C   UNL     1     -10.976  14.549  68.155  1.00  0.00    -0.261 A  
BRANCH  16  21
HETATM   21  N   UNL     1      -9.211  12.952  67.533  1.00  0.00    -0.184 NA 
HETATM   22  C   UNL     1      -9.691  11.862  68.404  1.00  0.00    -0.201 C  
HETATM   23  C   UNL     1      -9.834  10.589  67.571  1.00  0.00    -0.196 C  
HETATM   24  C   UNL     1      -8.522  10.239  66.865  1.00  0.00    -0.126 C  
HETATM   25  C   UNL     1      -7.887  12.671  66.971  1.00  0.00    -0.038 C  
HETATM   26  C   UNL     1      -8.023  11.452  66.071  1.00  0.00     0.095 C  
BRANCH  24  27
HETATM   27  O   UNL     1      -7.581   9.847  67.880  1.00  0.00    -0.089 OA 
BRANCH  27  28
HETATM   28  C   UNL     1      -8.083   9.191  68.968  1.00  0.00    -0.102 A  
HETATM   29  C   UNL     1      -7.870   9.563  70.290  1.00  0.00    -0.180 A  
HETATM   30  C   UNL     1      -8.443   8.828  71.326  1.00  0.00    -0.238 A  
HETATM   31  C   UNL     1      -9.228   7.710  71.065  1.00  0.00    -0.148 A  
HETATM   32  C   UNL     1      -9.431   7.323  69.741  1.00  0.00    -0.149 A  
HETATM   33  C   UNL     1      -8.880   8.078  68.695  1.00  0.00    -0.134 A  
BRANCH  31  34
HETATM   34  O   UNL     1      -9.639   7.053  72.175  1.00  0.00    -0.148 OA 
HETATM   35  C   UNL     1     -10.740   6.163  72.105  1.00  0.00    -0.236 C  
HETATM   36  F   UNL     1     -10.347   4.948  72.549  1.00  0.00    -0.215 F  
HETATM   37  F   UNL     1     -11.273   6.022  70.876  1.00  0.00    -0.331 F  
HETATM   38  F   UNL     1     -11.711   6.616  72.933  1.00  0.00    -0.217 F  
ENDBRANCH  31  34
ENDBRANCH  27  28
ENDBRANCH  24  27
ENDBRANCH  16  21
ENDBRANCH  14  15
ENDBRANCH  13  14
ENDBRANCH   2  13
TORSDOF 7
ENDMDL
MODEL      217
REMARK 921   NORMALIZED FREE ENERGY PREDICTED BY IDOCK:    4.61 KCAL/MOL
REMARK 922        TOTAL FREE ENERGY PREDICTED BY IDOCK:    5.02 KCAL/MOL
REMARK 923 INTER-LIGAND FREE ENERGY PREDICTED BY IDOCK:   -0.25 KCAL/MOL
REMARK 924 INTRA-LIGAND FREE ENERGY PREDICTED BY IDOCK:    5.27 KCAL/MOL
REMARK 927      BINDING AFFINITY PREDICTED BY RF-SCORE:    0.00 PKD
ROOT
HETATM    1  C   UNL     1     -11.382  19.186  68.683  1.00  0.00     1.798 C  
HETATM    2  C   UNL     1     -10.060  18.789  68.030  1.00  0.00    -0.369 C  
HETATM    3  C   UNL     1      -8.283  18.063  69.162  1.00  0.00     0.105 A  
HETATM    4  C   UNL     1      -9.959  17.256  67.804  1.00  0.00    -0.301 C  
HETATM    5  N   UNL     1      -8.772  16.960  68.561  1.00  0.00    -0.243 NA 
HETATM    6  O   UNL     1      -5.832  14.545  70.069  1.00  0.00    -0.111 OA 
HETATM    7  C   UNL     1      -8.002  15.901  68.853  1.00  0.00    -0.204 A  
HETATM    8  O   UNL     1      -8.972  19.168  68.943  1.00  0.00    -0.350 OA 
HETATM    9  O   UNL     1      -5.136  16.419  70.997  1.00  0.00    -0.199 OA 
HETATM   10  C   UNL     1      -7.017  16.458  69.669  1.00  0.00    -0.064 A  
HETATM   11  N   UNL     1      -7.205  17.830  69.854  1.00  0.00     0.574 NA 
HETATM   12  N   UNL     1      -5.913  15.762  70.293  1.00  0.00    -0.138 N  
ENDROOT
BRANCH   2  13
HETATM   13  C   UNL     1      -9.838  19.551  66.726  1.00  0.00    -0.382 C  
BRANCH  13  14
HETATM   14  O   UNL     1     -10.609  18.982  65.665  1.00  0.00    -0.554 OA 
BRANCH  14  15
HETATM   15  C   UNL     1     -10.679  17.617  65.709  1.00  0.00    -0.110 A  
HETATM   16  C   UNL     1     -10.584  14.769  65.908  1.00  0.00    -0.314 A  
HETATM   17  C   UNL     1     -11.746  16.900  66.233  1.00  0.00     1.781 A  
HETATM   18  C   UNL     1      -9.601  16.914  65.192  1.00  0.00     1.247 A  
HETATM   19  C   UNL     1     -11.692  15.511  66.329  1.00  0.00     0.334 A  
HETATM   20  C   UNL     1      -9.564  15.513  65.287  1.00  0.00    -0.002 A  
BRANCH  16  21
HETATM   21  N   UNL     1     -10.545  13.391  66.052  1.00  0.00    -0.283 NA 
HETATM   22  C   UNL     1     -10.095  12.734  67.294  1.00  0.00    -0.226 C  
HETATM   23  C   UNL     1     -11.028  11.563  67.600  1.00  0.00    -0.296 C  
HETATM   24  C   UNL     1     -11.103  10.591  66.419  1.00  0.00     0.169 C  
HETATM   25  C   UNL     1     -10.480  12.494  64.895  1.00  0.00    -0.303 C  
HETATM   26  C   UNL     1     -11.462  11.360  65.141  1.00  0.00     0.006 C  
BRANCH  24  27
HETATM   27  O   UNL     1      -9.820   9.952  66.308  1.00  0.00    -0.212 OA 
BRANCH  27  28
HETATM   28  C   UNL     1      -9.435   9.154  67.349  1.00  0.00    -0.143 A  
HETATM   29  C   UNL     1      -8.749   9.593  68.477  1.00  0.00    -0.120 A  
HETATM   30  C   UNL     1      -8.417   8.693  69.487  1.00  0.00    -0.129 A  
HETATM   31  C   UNL     1      -8.753   7.347  69.391  1.00  0.00    -0.137 A  
HETATM   32  C   UNL     1      -9.426   6.899  68.254  1.00  0.00    -0.126 A  
HETATM   33  C   UNL     1      -9.788   7.808  67.248  1.00  0.00    -0.249 A  
BRANCH  31  34
HETATM   34  O   UNL     1      -8.285   6.587  70.409  1.00  0.00    -0.121 OA 
HETATM   35  C   UNL     1      -8.976   6.559  71.647  1.00  0.00    -0.143 C  
HETATM   36  F   UNL     1      -9.288   5.278  71.943  1.00  0.00    -0.146 F  
HETATM   37  F   UNL     1     -10.102   7.296  71.680  1.00  0.00    -0.183 F  
HETATM   38  F   UNL     1      -8.145   7.020  72.612  1.00  0.00    -0.104 F  
ENDBRANCH  31  34
ENDBRANCH  27  28
ENDBRANCH  24  27
ENDBRANCH  16  21
ENDBRANCH  14  15
ENDBRANCH  13  14
ENDBRANCH   2  13
TORSDOF 7
ENDMDL
MODEL      218
REMARK 921   NORMALIZED FREE ENERGY PREDICTED BY IDOCK:    4.67 KCAL/MOL
REMARK 922        TOTAL FREE ENERGY PREDICTED BY IDOCK:    5.10 KCAL/MOL
REMARK 923 INTER-LIGAND FREE ENERGY PREDICTED BY IDOCK:   -1.78 KCAL/MOL
REMARK 924 INTRA-LIGAND FREE ENERGY PREDICTED BY IDOCK:    6.88 KCAL/MOL
REMARK 927      BINDING AFFINITY PREDICTED BY RF-SCORE:    0.00 PKD
ROOT
HETATM    1  C   UNL     1      -8.369  19.320  65.484  1.00  0.00     0.607 C  
HETATM    2  C   UNL     1      -8.429  19.402  67.008  1.00  0.00    -0.287 C  
HETATM    3  C   UNL     1      -8.008  17.684  68.363  1.00  0.00    -0.270 A  
HETATM    4  C   UNL     1      -7.028  19.637  67.635  1.00  0.00    -0.240 C  
HETATM    5  N   UNL     1      -6.928  18.479  68.484  1.00  0.00    -0.259 NA 
HETATM    6  O   UNL     1      -5.130  16.024  71.221  1.00  0.00    -0.187 OA 
HETATM    7  C   UNL     1      -6.066  17.949  69.365  1.00  0.00    -0.243 A  
HETATM    8  O   UNL     1      -8.922  18.112  67.511  1.00  0.00    -0.254 OA 
HETATM    9  O   UNL     1      -6.947  14.811  70.931  1.00  0.00     0.341 OA 
HETATM   10  C   UNL     1      -6.718  16.782  69.761  1.00  0.00     0.029 A  
HETATM   11  N   UNL     1      -7.950  16.627  69.121  1.00  0.00    -0.204 NA 
HETATM   12  N   UNL     1      -6.236  15.798  70.705  1.00  0.00     0.277 N  
ENDROOT
BRANCH   2  13
HETATM   13  C   UNL     1      -9.420  20.471  67.465  1.00  0.00    -0.380 C  
BRANCH  13  14
HETATM   14  O   UNL     1     -10.767  20.024  67.296  1.00  0.00    -0.362 OA 
BRANCH  14  15
HETATM   15  C   UNL     1     -10.865  18.763  66.774  1.00  0.00    -0.180 A  
HETATM   16  C   UNL     1     -11.304  16.112  65.804  1.00  0.00     0.299 A  
HETATM   17  C   UNL     1     -10.653  18.445  65.440  1.00  0.00     0.224 A  
HETATM   18  C   UNL     1     -11.202  17.743  67.652  1.00  0.00     0.273 A  
HETATM   19  C   UNL     1     -10.872  17.150  64.974  1.00  0.00     0.063 A  
HETATM   20  C   UNL     1     -11.409  16.441  67.169  1.00  0.00     0.280 A  
BRANCH  16  21
HETATM   21  N   UNL     1     -11.549  14.844  65.303  1.00  0.00    -0.330 NA 
HETATM   22  C   UNL     1     -10.623  13.714  65.512  1.00  0.00    -0.296 C  
HETATM   23  C   UNL     1     -11.436  12.463  65.843  1.00  0.00    -0.422 C  
HETATM   24  C   UNL     1     -12.475  12.174  64.756  1.00  0.00    -0.178 C  
HETATM   25  C   UNL     1     -12.449  14.620  64.169  1.00  0.00    -0.147 C  
HETATM   26  C   UNL     1     -13.325  13.426  64.510  1.00  0.00     0.904 C  
BRANCH  24  27
HETATM   27  O   UNL     1     -11.757  11.781  63.573  1.00  0.00    -0.450 OA 
BRANCH  27  28
HETATM   28  C   UNL     1     -10.672  10.970  63.749  1.00  0.00    -0.224 A  
HETATM   29  C   UNL     1     -10.573   9.969  64.708  1.00  0.00     0.806 A  
HETATM   30  C   UNL     1      -9.422   9.189  64.791  1.00  0.00     0.152 A  
HETATM   31  C   UNL     1      -8.349   9.397  63.930  1.00  0.00    -0.175 A  
HETATM   32  C   UNL     1      -8.437  10.411  62.976  1.00  0.00    -0.180 A  
HETATM   33  C   UNL     1      -9.607  11.178  62.871  1.00  0.00    -0.373 A  
BRANCH  31  34
HETATM   34  O   UNL     1      -7.272   8.619  64.192  1.00  0.00    -0.088 OA 
HETATM   35  C   UNL     1      -5.977   9.193  64.229  1.00  0.00    -0.071 C  
HETATM   36  F   UNL     1      -5.415   8.924  65.428  1.00  0.00    -0.037 F  
HETATM   37  F   UNL     1      -5.944  10.524  64.025  1.00  0.00    -0.136 F  
HETATM   38  F   UNL     1      -5.221   8.604  63.272  1.00  0.00    -0.059 F  
ENDBRANCH  31  34
ENDBRANCH  27  28
ENDBRANCH  24  27
ENDBRANCH  16  21
ENDBRANCH  14  15
ENDBRANCH  13  14
ENDBRANCH   2  13
TORSDOF 7
ENDMDL
MODEL      219
REMARK 921   NORMALIZED FREE ENERGY PREDICTED BY IDOCK:    4.71 KCAL/MOL
REMARK 922        TOTAL FREE ENERGY PREDICTED BY IDOCK:    5.16 KCAL/MOL
REMARK 923 INTER-LIGAND FREE ENERGY PREDICTED BY IDOCK:   -0.52 KCAL/MOL
REMARK 924 INTRA-LIGAND FREE ENERGY PREDICTED BY IDOCK:    5.68 KCAL/MOL
REMARK 927      BINDING AFFINITY PREDICTED BY RF-SCORE:    0.00 PKD
ROOT
HETATM    1  C   UNL     1      -9.905   8.085  71.375  1.00  0.00    -0.213 C  
HETATM    2  C   UNL     1      -9.456   8.611  70.014  1.00  0.00    -0.166 C  
HETATM    3  C   UNL     1      -8.407   7.372  68.487  1.00  0.00    -0.126 A  
HETATM    4  C   UNL     1     -10.482   8.285  68.895  1.00  0.00    -0.191 C  
HETATM    5  N   UNL     1      -9.653   7.523  67.998  1.00  0.00    -0.142 NA 
HETATM    6  O   UNL     1      -8.838   5.386  64.605  1.00  0.00    -0.105 OA 
HETATM    7  C   UNL     1      -9.756   6.909  66.810  1.00  0.00    -0.177 A  
HETATM    8  O   UNL     1      -8.197   7.938  69.662  1.00  0.00    -0.119 OA 
HETATM    9  O   UNL     1      -6.838   5.209  65.515  1.00  0.00    -0.057 OA 
HETATM   10  C   UNL     1      -8.476   6.385  66.629  1.00  0.00    -0.115 A  
HETATM   11  N   UNL     1      -7.630   6.689  67.698  1.00  0.00    -0.104 NA 
HETATM   12  N   UNL     1      -8.011   5.603  65.504  1.00  0.00    -0.107 N  
ENDROOT
BRANCH   2  13
HETATM   13  C   UNL     1      -9.164  10.109  70.070  1.00  0.00     0.005 C  
BRANCH  13  14
HETATM   14  O   UNL     1      -8.227  10.484  69.059  1.00  0.00    -0.127 OA 
BRANCH  14  15
HETATM   15  C   UNL     1      -8.072  11.837  68.930  1.00  0.00     0.030 A  
HETATM   16  C   UNL     1      -7.837  14.637  68.411  1.00  0.00    -0.131 A  
HETATM   17  C   UNL     1      -8.558  12.775  69.830  1.00  0.00     2.375 A  
HETATM   18  C   UNL     1      -7.380  12.288  67.815  1.00  0.00    -0.118 A  
HETATM   19  C   UNL     1      -8.442  14.139  69.569  1.00  0.00     0.599 A  
HETATM   20  C   UNL     1      -7.262  13.665  67.570  1.00  0.00    -0.169 A  
BRANCH  16  21
HETATM   21  N   UNL     1      -7.770  15.998  68.163  1.00  0.00    -0.131 NA 
HETATM   22  C   UNL     1      -8.947  16.882  68.256  1.00  0.00    -0.235 C  
HETATM   23  C   UNL     1      -8.538  18.179  68.953  1.00  0.00    -0.128 C  
HETATM   24  C   UNL     1      -7.362  18.847  68.235  1.00  0.00    -0.278 C  
HETATM   25  C   UNL     1      -6.699  16.585  67.353  1.00  0.00    -0.164 C  
HETATM   26  C   UNL     1      -6.219  17.838  68.071  1.00  0.00    -0.167 C  
BRANCH  24  27
HETATM   27  O   UNL     1      -7.846  19.310  66.962  1.00  0.00    -0.240 OA 
BRANCH  27  28
HETATM   28  C   UNL     1      -8.921  18.654  66.433  1.00  0.00    -0.279 A  
HETATM   29  C   UNL     1     -10.212  19.167  66.366  1.00  0.00    -0.515 A  
HETATM   30  C   UNL     1     -11.235  18.415  65.791  1.00  0.00     0.814 A  
HETATM   31  C   UNL     1     -10.993  17.144  65.282  1.00  0.00     0.034 A  
HETATM   32  C   UNL     1      -9.703  16.619  65.360  1.00  0.00     0.284 A  
HETATM   33  C   UNL     1      -8.666  17.385  65.913  1.00  0.00     0.039 A  
BRANCH  31  34
HETATM   34  O   UNL     1     -12.103  16.508  64.837  1.00  0.00     0.529 OA 
HETATM   35  C   UNL     1     -12.173  15.093  64.880  1.00  0.00    -0.053 C  
HETATM   36  F   UNL     1     -13.268  14.732  65.586  1.00  0.00    -0.178 F  
HETATM   37  F   UNL     1     -11.095  14.491  65.416  1.00  0.00    -0.300 F  
HETATM   38  F   UNL     1     -12.323  14.633  63.614  1.00  0.00    -0.396 F  
ENDBRANCH  31  34
ENDBRANCH  27  28
ENDBRANCH  24  27
ENDBRANCH  16  21
ENDBRANCH  14  15
ENDBRANCH  13  14
ENDBRANCH   2  13
TORSDOF 7
ENDMDL
MODEL      220
REMARK 921   NORMALIZED FREE ENERGY PREDICTED BY IDOCK:    4.83 KCAL/MOL
REMARK 922        TOTAL FREE ENERGY PREDICTED BY IDOCK:    5.33 KCAL/MOL
REMARK 923 INTER-LIGAND FREE ENERGY PREDICTED BY IDOCK:    1.52 KCAL/MOL
REMARK 924 INTRA-LIGAND FREE ENERGY PREDICTED BY IDOCK:    3.81 KCAL/MOL
REMARK 927      BINDING AFFINITY PREDICTED BY RF-SCORE:    0.00 PKD
ROOT
HETATM    1  C   UNL     1     -12.271   2.688  62.683  1.00  0.00     2.340 C  
HETATM    2  C   UNL     1     -11.298   3.568  63.462  1.00  0.00     0.505 C  
HETATM    3  C   UNL     1      -9.112   3.165  63.624  1.00  0.00    -0.096 A  
HETATM    4  C   UNL     1     -10.568   4.586  62.545  1.00  0.00     0.174 C  
HETATM    5  N   UNL     1      -9.198   4.215  62.784  1.00  0.00    -0.120 NA 
HETATM    6  O   UNL     1      -5.140   4.503  62.343  1.00  0.00    -0.005 OA 
HETATM    7  C   UNL     1      -7.970   4.604  62.410  1.00  0.00    -0.068 A  
HETATM    8  O   UNL     1     -10.271   2.697  64.051  1.00  0.00    -0.145 OA 
HETATM    9  O   UNL     1      -5.135   2.784  63.723  1.00  0.00    -0.007 OA 
HETATM   10  C   UNL     1      -7.148   3.710  63.095  1.00  0.00    -0.048 A  
HETATM   11  N   UNL     1      -7.884   2.805  63.863  1.00  0.00    -0.076 NA 
HETATM   12  N   UNL     1      -5.703   3.657  63.055  1.00  0.00    -0.013 N  
ENDROOT
BRANCH   2  13
HETATM   13  C   UNL     1     -12.000   4.278  64.618  1.00  0.00     2.530 C  
BRANCH  13  14
HETATM   14  O   UNL     1     -11.159   5.286  65.184  1.00  0.00     0.585 OA 
BRANCH  14  15
HETATM   15  C   UNL     1     -10.742   5.002  66.455  1.00  0.00    -0.178 A  
HETATM   16  C   UNL     1      -9.623   4.413  69.016  1.00  0.00    -0.174 A  
HETATM   17  C   UNL     1     -11.157   5.683  67.591  1.00  0.00     0.209 A  
HETATM   18  C   UNL     1      -9.840   3.959  66.603  1.00  0.00    -0.118 A  
HETATM   19  C   UNL     1     -10.605   5.392  68.837  1.00  0.00    -0.197 A  
HETATM   20  C   UNL     1      -9.299   3.670  67.866  1.00  0.00    -0.241 A  
BRANCH  16  21
HETATM   21  N   UNL     1      -9.066   4.173  70.262  1.00  0.00    -0.094 NA 
HETATM   22  C   UNL     1      -9.407   2.987  71.070  1.00  0.00    -0.144 C  
HETATM   23  C   UNL     1      -8.128   2.426  71.691  1.00  0.00    -0.053 C  
HETATM   24  C   UNL     1      -7.392   3.495  72.504  1.00  0.00    -0.050 C  
HETATM   25  C   UNL     1      -8.491   5.250  71.074  1.00  0.00    -0.122 C  
HETATM   26  C   UNL     1      -7.173   4.741  71.638  1.00  0.00    -0.065 C  
BRANCH  24  27
HETATM   27  O   UNL     1      -8.201   3.787  73.656  1.00  0.00    -0.085 OA 
BRANCH  27  28
HETATM   28  C   UNL     1      -9.127   4.782  73.526  1.00  0.00    -0.113 A  
HETATM   29  C   UNL     1     -10.497   4.582  73.395  1.00  0.00    -0.264 A  
HETATM   30  C   UNL     1     -11.357   5.673  73.282  1.00  0.00    -0.156 A  
HETATM   31  C   UNL     1     -10.869   6.976  73.289  1.00  0.00    -0.311 A  
HETATM   32  C   UNL     1      -9.495   7.181  73.403  1.00  0.00    -0.234 A  
HETATM   33  C   UNL     1      -8.630   6.086  73.547  1.00  0.00    -0.119 A  
BRANCH  31  34
HETATM   34  O   UNL     1     -11.817   7.921  73.082  1.00  0.00    -0.216 OA 
HETATM   35  C   UNL     1     -12.283   8.182  71.770  1.00  0.00    -0.319 C  
HETATM   36  F   UNL     1     -13.625   8.025  71.745  1.00  0.00    -0.334 F  
HETATM   37  F   UNL     1     -11.740   7.405  70.814  1.00  0.00    -0.298 F  
HETATM   38  F   UNL     1     -12.008   9.473  71.467  1.00  0.00    -0.366 F  
ENDBRANCH  31  34
ENDBRANCH  27  28
ENDBRANCH  24  27
ENDBRANCH  16  21
ENDBRANCH  14  15
ENDBRANCH  13  14
ENDBRANCH   2  13
TORSDOF 7
ENDMDL
MODEL      221
REMARK 921   NORMALIZED FREE ENERGY PREDICTED BY IDOCK:    5.12 KCAL/MOL
REMARK 922        TOTAL FREE ENERGY PREDICTED BY IDOCK:    5.74 KCAL/MOL
REMARK 923 INTER-LIGAND FREE ENERGY PREDICTED BY IDOCK:   -2.49 KCAL/MOL
REMARK 924 INTRA-LIGAND FREE ENERGY PREDICTED BY IDOCK:    8.23 KCAL/MOL
REMARK 927      BINDING AFFINITY PREDICTED BY RF-SCORE:    0.00 PKD
ROOT
HETATM    1  C   UNL     1      -8.123   4.227  64.057  1.00  0.00    -0.093 C  
HETATM    2  C   UNL     1      -8.651   3.797  65.423  1.00  0.00    -0.114 C  
HETATM    3  C   UNL     1      -7.348   3.150  67.112  1.00  0.00    -0.062 A  
HETATM    4  C   UNL     1      -8.615   4.957  66.454  1.00  0.00    -0.110 C  
HETATM    5  N   UNL     1      -7.775   4.377  67.469  1.00  0.00    -0.084 NA 
HETATM    6  O   UNL     1      -5.779   4.297  71.040  1.00  0.00    -0.011 OA 
HETATM    7  C   UNL     1      -7.283   4.701  68.674  1.00  0.00    -0.057 A  
HETATM    8  O   UNL     1      -7.773   2.733  65.933  1.00  0.00    -0.078 OA 
HETATM    9  O   UNL     1      -5.148   2.304  70.340  1.00  0.00    -0.003 OA 
HETATM   10  C   UNL     1      -6.535   3.573  69.008  1.00  0.00    -0.033 A  
HETATM   11  N   UNL     1      -6.587   2.596  68.011  1.00  0.00    -0.035 NA 
HETATM   12  N   UNL     1      -5.763   3.371  70.215  1.00  0.00    -0.016 N  
ENDROOT
BRANCH   2  13
HETATM   13  C   UNL     1     -10.054   3.206  65.312  1.00  0.00     0.311 C  
BRANCH  13  14
HETATM   14  O   UNL     1     -10.992   3.971  66.072  1.00  0.00     0.717 OA 
BRANCH  14  15
HETATM   15  C   UNL     1     -10.589   5.257  66.305  1.00  0.00    -0.248 A  
HETATM   16  C   UNL     1      -9.897   8.014  66.585  1.00  0.00    -0.252 A  
HETATM   17  C   UNL     1     -10.630   5.883  67.543  1.00  0.00    -0.347 A  
HETATM   18  C   UNL     1     -10.111   5.973  65.218  1.00  0.00     1.226 A  
HETATM   19  C   UNL     1     -10.293   7.229  67.671  1.00  0.00    -0.290 A  
HETATM   20  C   UNL     1      -9.766   7.326  65.364  1.00  0.00     1.187 A  
BRANCH  16  21
HETATM   21  N   UNL     1      -9.605   9.360  66.738  1.00  0.00    -0.167 NA 
HETATM   22  C   UNL     1     -10.456  10.274  67.524  1.00  0.00    -0.244 C  
HETATM   23  C   UNL     1      -9.560  11.188  68.358  1.00  0.00    -0.192 C  
HETATM   24  C   UNL     1      -8.557  11.937  67.477  1.00  0.00    -0.160 C  
HETATM   25  C   UNL     1      -8.746  10.078  65.792  1.00  0.00    -0.145 C  
HETATM   26  C   UNL     1      -7.789  10.936  66.606  1.00  0.00    -0.145 C  
BRANCH  24  27
HETATM   27  O   UNL     1      -9.304  12.871  66.678  1.00  0.00    -0.240 OA 
BRANCH  27  28
HETATM   28  C   UNL     1      -8.853  14.160  66.650  1.00  0.00    -0.114 A  
HETATM   29  C   UNL     1      -7.619  14.582  67.134  1.00  0.00    -0.045 A  
HETATM   30  C   UNL     1      -7.253  15.923  67.042  1.00  0.00    -0.232 A  
HETATM   31  C   UNL     1      -8.107  16.865  66.477  1.00  0.00    -0.291 A  
HETATM   32  C   UNL     1      -9.351  16.449  66.004  1.00  0.00    -0.335 A  
HETATM   33  C   UNL     1      -9.711  15.094  66.069  1.00  0.00    -0.361 A  
BRANCH  31  34
HETATM   34  O   UNL     1      -7.645  18.136  66.540  1.00  0.00    -0.216 OA 
HETATM   35  C   UNL     1      -8.306  19.090  67.353  1.00  0.00    -0.276 C  
HETATM   36  F   UNL     1      -7.415  19.612  68.225  1.00  0.00    -0.311 F  
HETATM   37  F   UNL     1      -9.357  18.610  68.045  1.00  0.00    -0.292 F  
HETATM   38  F   UNL     1      -8.751  20.094  66.560  1.00  0.00    -0.336 F  
ENDBRANCH  31  34
ENDBRANCH  27  28
ENDBRANCH  24  27
ENDBRANCH  16  21
ENDBRANCH  14  15
ENDBRANCH  13  14
ENDBRANCH   2  13
TORSDOF 7
ENDMDL
MODEL      222
REMARK 921   NORMALIZED FREE ENERGY PREDICTED BY IDOCK:    5.46 KCAL/MOL
REMARK 922        TOTAL FREE ENERGY PREDICTED BY IDOCK:    6.21 KCAL/MOL
REMARK 923 INTER-LIGAND FREE ENERGY PREDICTED BY IDOCK:    0.37 KCAL/MOL
REMARK 924 INTRA-LIGAND FREE ENERGY PREDICTED BY IDOCK:    5.84 KCAL/MOL
REMARK 927      BINDING AFFINITY PREDICTED BY RF-SCORE:    0.00 PKD
ROOT
HETATM    1  C   UNL     1     -11.832   6.884  68.506  1.00  0.00     1.057 C  
HETATM    2  C   UNL     1     -11.264   8.047  69.315  1.00  0.00     0.277 C  
HETATM    3  C   UNL     1      -9.562   7.856  70.741  1.00  0.00    -0.165 A  
HETATM    4  C   UNL     1     -10.016   8.676  68.638  1.00  0.00    -0.183 C  
HETATM    5  N   UNL     1      -9.039   8.499  69.679  1.00  0.00    -0.148 NA 
HETATM    6  O   UNL     1      -5.336   8.817  71.392  1.00  0.00    -0.033 OA 
HETATM    7  C   UNL     1      -7.748   8.783  69.906  1.00  0.00    -0.081 A  
HETATM    8  O   UNL     1     -10.834   7.523  70.620  1.00  0.00    -0.231 OA 
HETATM    9  O   UNL     1      -6.310   7.758  73.062  1.00  0.00    -0.059 OA 
HETATM   10  C   UNL     1      -7.544   8.264  71.184  1.00  0.00    -0.082 A  
HETATM   11  N   UNL     1      -8.703   7.682  71.704  1.00  0.00    -0.114 NA 
HETATM   12  N   UNL     1      -6.310   8.278  71.939  1.00  0.00    -0.053 N  
ENDROOT
BRANCH   2  13
HETATM   13  C   UNL     1     -12.332   9.105  69.586  1.00  0.00     1.382 C  
BRANCH  13  14
HETATM   14  O   UNL     1     -11.919   9.992  70.628  1.00  0.00    -0.285 OA 
BRANCH  14  15
HETATM   15  C   UNL     1     -11.628  11.255  70.190  1.00  0.00    -0.305 A  
HETATM   16  C   UNL     1     -10.857  13.780  69.100  1.00  0.00    -0.170 A  
HETATM   17  C   UNL     1     -12.577  12.213  69.864  1.00  0.00     0.152 A  
HETATM   18  C   UNL     1     -10.286  11.585  70.067  1.00  0.00     1.025 A  
HETATM   19  C   UNL     1     -12.193  13.442  69.330  1.00  0.00    -0.246 A  
HETATM   20  C   UNL     1      -9.914  12.830  69.537  1.00  0.00     1.056 A  
BRANCH  16  21
HETATM   21  N   UNL     1     -10.509  14.996  68.533  1.00  0.00    -0.227 NA 
HETATM   22  C   UNL     1     -10.228  15.150  67.093  1.00  0.00    -0.247 C  
HETATM   23  C   UNL     1     -10.882  16.437  66.596  1.00  0.00    -0.086 C  
HETATM   24  C   UNL     1     -10.419  17.646  67.414  1.00  0.00    -0.356 C  
HETATM   25  C   UNL     1      -9.939  16.086  69.329  1.00  0.00    -0.252 C  
HETATM   26  C   UNL     1     -10.635  17.371  68.907  1.00  0.00    -0.243 C  
BRANCH  24  27
HETATM   27  O   UNL     1      -9.030  17.861  67.111  1.00  0.00    -0.243 OA 
BRANCH  27  28
HETATM   28  C   UNL     1      -8.163  16.859  67.446  1.00  0.00    -0.182 A  
HETATM   29  C   UNL     1      -7.226  16.928  68.471  1.00  0.00    -0.199 A  
HETATM   30  C   UNL     1      -6.398  15.839  68.736  1.00  0.00    -0.109 A  
HETATM   31  C   UNL     1      -6.481  14.672  67.984  1.00  0.00    -0.152 A  
HETATM   32  C   UNL     1      -7.408  14.605  66.944  1.00  0.00     0.486 A  
HETATM   33  C   UNL     1      -8.263  15.688  66.694  1.00  0.00    -0.284 A  
BRANCH  31  34
HETATM   34  O   UNL     1      -5.552  13.741  68.307  1.00  0.00    -0.091 OA 
HETATM   35  C   UNL     1      -5.934  12.385  68.462  1.00  0.00    -0.055 C  
HETATM   36  F   UNL     1      -5.191  11.625  67.628  1.00  0.00    -0.043 F  
HETATM   37  F   UNL     1      -7.236  12.136  68.229  1.00  0.00    -0.072 F  
HETATM   38  F   UNL     1      -5.656  12.005  69.732  1.00  0.00    -0.068 F  
ENDBRANCH  31  34
ENDBRANCH  27  28
ENDBRANCH  24  27
ENDBRANCH  16  21
ENDBRANCH  14  15
ENDBRANCH  13  14
ENDBRANCH   2  13
TORSDOF 7
ENDMDL
MODEL      223
REMARK 921   NORMALIZED FREE ENERGY PREDICTED BY IDOCK:    5.48 KCAL/MOL
REMARK 922        TOTAL FREE ENERGY PREDICTED BY IDOCK:    6.24 KCAL/MOL
REMARK 923 INTER-LIGAND FREE ENERGY PREDICTED BY IDOCK:   -3.83 KCAL/MOL
REMARK 924 INTRA-LIGAND FREE ENERGY PREDICTED BY IDOCK:   10.07 KCAL/MOL
REMARK 927      BINDING AFFINITY PREDICTED BY RF-SCORE:    0.00 PKD
ROOT
HETATM    1  C   UNL     1     -11.958  15.576  67.298  1.00  0.00     0.403 C  
HETATM    2  C   UNL     1     -10.508  15.637  66.827  1.00  0.00    -0.297 C  
HETATM    3  C   UNL     1      -8.923  16.841  67.831  1.00  0.00    -0.219 A  
HETATM    4  C   UNL     1      -9.598  14.650  67.609  1.00  0.00    -0.212 C  
HETATM    5  N   UNL     1      -8.636  15.566  68.161  1.00  0.00    -0.151 NA 
HETATM    6  O   UNL     1      -5.320  16.620  70.315  1.00  0.00    -0.179 OA 
HETATM    7  C   UNL     1      -7.529  15.528  68.918  1.00  0.00    -0.158 A  
HETATM    8  O   UNL     1     -10.004  16.993  67.087  1.00  0.00    -0.265 OA 
HETATM    9  O   UNL     1      -5.900  18.658  69.709  1.00  0.00    -0.237 OA 
HETATM   10  C   UNL     1      -7.178  16.875  69.009  1.00  0.00    -0.232 A  
HETATM   11  N   UNL     1      -8.069  17.696  68.313  1.00  0.00    -0.268 NA 
HETATM   12  N   UNL     1      -6.053  17.430  69.728  1.00  0.00    -0.248 N  
ENDROOT
BRANCH   2  13
HETATM   13  C   UNL     1     -10.405  15.400  65.322  1.00  0.00    -0.390 C  
BRANCH  13  14
HETATM   14  O   UNL     1      -9.396  14.433  65.025  1.00  0.00     0.430 OA 
BRANCH  14  15
HETATM   15  C   UNL     1      -9.488  13.295  65.778  1.00  0.00     0.053 A  
HETATM   16  C   UNL     1      -9.624  10.783  67.132  1.00  0.00    -0.161 A  
HETATM   17  C   UNL     1      -8.850  13.103  66.996  1.00  0.00    -0.212 A  
HETATM   18  C   UNL     1     -10.277  12.270  65.277  1.00  0.00    -0.305 A  
HETATM   19  C   UNL     1      -8.919  11.874  67.649  1.00  0.00    -0.169 A  
HETATM   20  C   UNL     1     -10.345  11.040  65.951  1.00  0.00    -0.315 A  
BRANCH  16  21
HETATM   21  N   UNL     1      -9.642   9.562  67.788  1.00  0.00    -0.132 NA 
HETATM   22  C   UNL     1     -10.895   8.871  68.147  1.00  0.00    -0.002 C  
HETATM   23  C   UNL     1     -10.742   7.381  67.847  1.00  0.00    -0.217 C  
HETATM   24  C   UNL     1      -9.524   6.793  68.565  1.00  0.00    -0.131 C  
HETATM   25  C   UNL     1      -8.503   9.093  68.581  1.00  0.00    -0.127 C  
HETATM   26  C   UNL     1      -8.280   7.628  68.238  1.00  0.00    -0.125 C  
BRANCH  24  27
HETATM   27  O   UNL     1      -9.813   6.804  69.974  1.00  0.00    -0.169 OA 
BRANCH  27  28
HETATM   28  C   UNL     1     -10.775   7.675  70.401  1.00  0.00    -0.236 A  
HETATM   29  C   UNL     1     -12.145   7.458  70.305  1.00  0.00     0.102 A  
HETATM   30  C   UNL     1     -13.040   8.411  70.787  1.00  0.00     0.386 A  
HETATM   31  C   UNL     1     -12.590   9.593  71.364  1.00  0.00    -0.371 A  
HETATM   32  C   UNL     1     -11.217   9.822  71.449  1.00  0.00    -0.368 A  
HETATM   33  C   UNL     1     -10.313   8.852  70.991  1.00  0.00    -0.321 A  
BRANCH  31  34
HETATM   34  O   UNL     1     -13.579  10.453  71.704  1.00  0.00    -0.250 OA 
HETATM   35  C   UNL     1     -13.400  11.847  71.521  1.00  0.00    -0.033 C  
HETATM   36  F   UNL     1     -14.400  12.317  70.743  1.00  0.00     2.197 F  
HETATM   37  F   UNL     1     -12.223  12.196  70.969  1.00  0.00    -0.441 F  
HETATM   38  F   UNL     1     -13.492  12.453  72.729  1.00  0.00    -0.460 F  
ENDBRANCH  31  34
ENDBRANCH  27  28
ENDBRANCH  24  27
ENDBRANCH  16  21
ENDBRANCH  14  15
ENDBRANCH  13  14
ENDBRANCH   2  13
TORSDOF 7
ENDMDL
MODEL      224
REMARK 921   NORMALIZED FREE ENERGY PREDICTED BY IDOCK:    5.49 KCAL/MOL
REMARK 922        TOTAL FREE ENERGY PREDICTED BY IDOCK:    6.26 KCAL/MOL
REMARK 923 INTER-LIGAND FREE ENERGY PREDICTED BY IDOCK:    4.11 KCAL/MOL
REMARK 924 INTRA-LIGAND FREE ENERGY PREDICTED BY IDOCK:    2.15 KCAL/MOL
REMARK 927      BINDING AFFINITY PREDICTED BY RF-SCORE:    0.00 PKD
ROOT
HETATM    1  C   UNL     1      -8.001  18.643  71.262  1.00  0.00     6.091 C  
HETATM    2  C   UNL     1      -7.825  18.174  69.820  1.00  0.00     0.994 C  
HETATM    3  C   UNL     1      -9.175  18.765  68.147  1.00  0.00    -0.314 A  
HETATM    4  C   UNL     1      -7.066  19.218  68.956  1.00  0.00    -0.356 C  
HETATM    5  N   UNL     1      -8.044  19.465  67.930  1.00  0.00    -0.290 NA 
HETATM    6  O   UNL     1      -9.489  21.196  64.515  1.00  0.00     1.723 OA 
HETATM    7  C   UNL     1      -8.167  20.197  66.812  1.00  0.00    -0.304 A  
HETATM    8  O   UNL     1      -9.162  18.010  69.231  1.00  0.00     0.001 OA 
HETATM    9  O   UNL     1     -11.281  20.001  64.984  1.00  0.00    -0.206 OA 
HETATM   10  C   UNL     1      -9.454  19.876  66.380  1.00  0.00    -0.412 A  
HETATM   11  N   UNL     1     -10.080  18.964  67.234  1.00  0.00    -0.337 NA 
HETATM   12  N   UNL     1     -10.129  20.391  65.209  1.00  0.00     0.178 N  
ENDROOT
BRANCH   2  13
HETATM   13  C   UNL     1      -7.138  16.812  69.762  1.00  0.00     0.293 C  
BRANCH  13  14
HETATM   14  O   UNL     1      -7.245  16.242  68.455  1.00  0.00    -0.145 OA 
BRANCH  14  15
HETATM   15  C   UNL     1      -7.705  14.954  68.455  1.00  0.00    -0.123 A  
HETATM   16  C   UNL     1      -8.566  12.241  68.700  1.00  0.00     0.020 A  
HETATM   17  C   UNL     1      -8.994  14.578  68.105  1.00  0.00    -0.182 A  
HETATM   18  C   UNL     1      -6.809  13.965  68.836  1.00  0.00    -0.109 A  
HETATM   19  C   UNL     1      -9.408  13.253  68.229  1.00  0.00    -0.205 A  
HETATM   20  C   UNL     1      -7.237  12.633  68.948  1.00  0.00    -0.045 A  
BRANCH  16  21
HETATM   21  N   UNL     1      -9.019  10.940  68.847  1.00  0.00    -0.163 NA 
HETATM   22  C   UNL     1      -8.815  10.163  70.085  1.00  0.00     0.148 C  
HETATM   23  C   UNL     1     -10.099   9.401  70.408  1.00  0.00    -0.310 C  
HETATM   24  C   UNL     1     -10.534   8.522  69.232  1.00  0.00    -0.215 C  
HETATM   25  C   UNL     1      -9.295  10.080  67.693  1.00  0.00    -0.144 C  
HETATM   26  C   UNL     1     -10.614   9.371  67.958  1.00  0.00    -0.278 C  
BRANCH  24  27
HETATM   27  O   UNL     1      -9.564   7.468  69.106  1.00  0.00    -0.157 OA 
BRANCH  27  28
HETATM   28  C   UNL     1      -8.828   7.439  67.955  1.00  0.00    -0.126 A  
HETATM   29  C   UNL     1      -7.443   7.320  67.900  1.00  0.00    -0.102 A  
HETATM   30  C   UNL     1      -6.793   7.287  66.668  1.00  0.00    -0.065 A  
HETATM   31  C   UNL     1      -7.504   7.381  65.476  1.00  0.00    -0.088 A  
HETATM   32  C   UNL     1      -8.891   7.517  65.528  1.00  0.00    -0.012 A  
HETATM   33  C   UNL     1      -9.552   7.520  66.765  1.00  0.00    -0.265 A  
BRANCH  31  34
HETATM   34  O   UNL     1      -6.724   7.422  64.370  1.00  0.00    -0.046 OA 
HETATM   35  C   UNL     1      -6.590   8.631  63.643  1.00  0.00    -0.088 C  
HETATM   36  F   UNL     1      -5.278   8.945  63.559  1.00  0.00    -0.058 F  
HETATM   37  F   UNL     1      -7.253   9.680  64.166  1.00  0.00    -0.103 F  
HETATM   38  F   UNL     1      -7.052   8.429  62.386  1.00  0.00    -0.095 F  
ENDBRANCH  31  34
ENDBRANCH  27  28
ENDBRANCH  24  27
ENDBRANCH  16  21
ENDBRANCH  14  15
ENDBRANCH  13  14
ENDBRANCH   2  13
TORSDOF 7
ENDMDL
MODEL      225
REMARK 921   NORMALIZED FREE ENERGY PREDICTED BY IDOCK:    5.54 KCAL/MOL
REMARK 922        TOTAL FREE ENERGY PREDICTED BY IDOCK:    6.33 KCAL/MOL
REMARK 923 INTER-LIGAND FREE ENERGY PREDICTED BY IDOCK:   -3.39 KCAL/MOL
REMARK 924 INTRA-LIGAND FREE ENERGY PREDICTED BY IDOCK:    9.72 KCAL/MOL
REMARK 927      BINDING AFFINITY PREDICTED BY RF-SCORE:    0.00 PKD
ROOT
HETATM    1  C   UNL     1      -7.577  19.160  65.746  1.00  0.00    -0.156 C  
HETATM    2  C   UNL     1      -7.708  19.361  67.254  1.00  0.00    -0.247 C  
HETATM    3  C   UNL     1      -7.601  17.707  68.744  1.00  0.00    -0.253 A  
HETATM    4  C   UNL     1      -6.324  19.453  67.953  1.00  0.00    -0.214 C  
HETATM    5  N   UNL     1      -6.429  18.358  68.880  1.00  0.00    -0.231 NA 
HETATM    6  O   UNL     1      -5.137  15.895  71.882  1.00  0.00    -0.207 OA 
HETATM    7  C   UNL     1      -5.698  17.785  69.848  1.00  0.00    -0.249 A  
HETATM    8  O   UNL     1      -8.400  18.190  67.809  1.00  0.00    -0.243 OA 
HETATM    9  O   UNL     1      -7.086  14.917  71.558  1.00  0.00     1.239 OA 
HETATM   10  C   UNL     1      -6.524  16.748  70.278  1.00  0.00     0.483 A  
HETATM   11  N   UNL     1      -7.729  16.712  69.572  1.00  0.00     0.022 NA 
HETATM   12  N   UNL     1      -6.234  15.780  71.314  1.00  0.00     0.834 N  
ENDROOT
BRANCH   2  13
HETATM   13  C   UNL     1      -8.565  20.584  67.575  1.00  0.00    -0.231 C  
BRANCH  13  14
HETATM   14  O   UNL     1      -9.944  20.326  67.302  1.00  0.00    -0.415 OA 
BRANCH  14  15
HETATM   15  C   UNL     1     -10.177  19.082  66.784  1.00  0.00    -0.396 A  
HETATM   16  C   UNL     1     -10.858  16.460  65.878  1.00  0.00    -0.114 A  
HETATM   17  C   UNL     1     -10.319  18.807  65.431  1.00  0.00     0.395 A  
HETATM   18  C   UNL     1     -10.277  18.033  67.686  1.00  0.00    -0.376 A  
HETATM   19  C   UNL     1     -10.653  17.525  64.997  1.00  0.00     0.500 A  
HETATM   20  C   UNL     1     -10.606  16.745  67.233  1.00  0.00    -0.275 A  
BRANCH  16  21
HETATM   21  N   UNL     1     -11.227  15.206  65.418  1.00  0.00    -0.350 NA 
HETATM   22  C   UNL     1     -11.155  13.997  66.260  1.00  0.00    -0.307 C  
HETATM   23  C   UNL     1     -12.412  13.159  66.031  1.00  0.00    -0.330 C  
HETATM   24  C   UNL     1     -12.595  12.827  64.548  1.00  0.00    -0.389 C  
HETATM   25  C   UNL     1     -11.259  14.884  63.988  1.00  0.00     0.435 C  
HETATM   26  C   UNL     1     -12.545  14.117  63.722  1.00  0.00     0.169 C  
BRANCH  24  27
HETATM   27  O   UNL     1     -11.540  11.922  64.179  1.00  0.00    -0.358 OA 
BRANCH  27  28
HETATM   28  C   UNL     1     -10.974  11.189  65.185  1.00  0.00    -0.086 A  
HETATM   29  C   UNL     1     -11.359  11.241  66.520  1.00  0.00    -0.122 A  
HETATM   30  C   UNL     1     -10.721  10.438  67.463  1.00  0.00    -0.339 A  
HETATM   31  C   UNL     1      -9.688   9.581  67.098  1.00  0.00    -0.171 A  
HETATM   32  C   UNL     1      -9.288   9.537  65.762  1.00  0.00    -0.293 A  
HETATM   33  C   UNL     1      -9.948  10.322  64.805  1.00  0.00    -0.392 A  
BRANCH  31  34
HETATM   34  O   UNL     1      -9.113   8.934  68.139  1.00  0.00    -0.139 OA 
HETATM   35  C   UNL     1      -9.310   7.540  68.303  1.00  0.00    -0.141 C  
HETATM   36  F   UNL     1      -8.104   6.932  68.344  1.00  0.00    -0.113 F  
HETATM   37  F   UNL     1     -10.055   6.959  67.344  1.00  0.00    -0.166 F  
HETATM   38  F   UNL     1      -9.922   7.332  69.493  1.00  0.00    -0.163 F  
ENDBRANCH  31  34
ENDBRANCH  27  28
ENDBRANCH  24  27
ENDBRANCH  16  21
ENDBRANCH  14  15
ENDBRANCH  13  14
ENDBRANCH   2  13
TORSDOF 7
ENDMDL
MODEL      226
REMARK 921   NORMALIZED FREE ENERGY PREDICTED BY IDOCK:    5.72 KCAL/MOL
REMARK 922        TOTAL FREE ENERGY PREDICTED BY IDOCK:    6.58 KCAL/MOL
REMARK 923 INTER-LIGAND FREE ENERGY PREDICTED BY IDOCK:    1.84 KCAL/MOL
REMARK 924 INTRA-LIGAND FREE ENERGY PREDICTED BY IDOCK:    4.75 KCAL/MOL
REMARK 927      BINDING AFFINITY PREDICTED BY RF-SCORE:    0.00 PKD
ROOT
HETATM    1  C   UNL     1      -9.887   6.281  67.264  1.00  0.00    -0.165 C  
HETATM    2  C   UNL     1      -8.860   7.000  68.135  1.00  0.00    -0.129 C  
HETATM    3  C   UNL     1      -8.680   6.715  70.338  1.00  0.00    -0.151 A  
HETATM    4  C   UNL     1      -7.600   6.130  68.390  1.00  0.00    -0.092 C  
HETATM    5  N   UNL     1      -7.614   6.068  69.828  1.00  0.00    -0.080 NA 
HETATM    6  O   UNL     1      -6.213   4.972  73.513  1.00  0.00    -0.046 OA 
HETATM    7  C   UNL     1      -6.877   5.547  70.820  1.00  0.00    -0.052 A  
HETATM    8  O   UNL     1      -9.480   7.264  69.442  1.00  0.00    -0.155 OA 
HETATM    9  O   UNL     1      -7.995   6.059  74.221  1.00  0.00    -0.103 OA 
HETATM   10  C   UNL     1      -7.582   5.937  71.958  1.00  0.00    -0.097 A  
HETATM   11  N   UNL     1      -8.721   6.680  71.638  1.00  0.00    -0.131 NA 
HETATM   12  N   UNL     1      -7.244   5.638  73.332  1.00  0.00    -0.086 N  
ENDROOT
BRANCH   2  13
HETATM   13  C   UNL     1      -8.480   8.353  67.538  1.00  0.00    -0.129 C  
BRANCH  13  14
HETATM   14  O   UNL     1      -7.907   9.207  68.530  1.00  0.00    -0.098 OA 
BRANCH  14  15
HETATM   15  C   UNL     1      -8.579  10.387  68.692  1.00  0.00    -0.133 A  
HETATM   16  C   UNL     1     -10.033  12.845  68.770  1.00  0.00     0.002 A  
HETATM   17  C   UNL     1      -9.547  10.616  69.660  1.00  0.00     0.024 A  
HETATM   18  C   UNL     1      -8.262  11.417  67.818  1.00  0.00    -0.125 A  
HETATM   19  C   UNL     1     -10.253  11.817  69.691  1.00  0.00     0.671 A  
HETATM   20  C   UNL     1      -8.976  12.625  67.867  1.00  0.00    -0.189 A  
BRANCH  16  21
HETATM   21  N   UNL     1     -10.778  14.013  68.803  1.00  0.00    -0.256 NA 
HETATM   22  C   UNL     1     -10.931  14.892  67.628  1.00  0.00    -0.300 C  
HETATM   23  C   UNL     1     -12.385  15.354  67.541  1.00  0.00     0.859 C  
HETATM   24  C   UNL     1     -12.829  16.032  68.840  1.00  0.00     1.610 C  
HETATM   25  C   UNL     1     -11.069  14.711  70.059  1.00  0.00    -0.164 C  
HETATM   26  C   UNL     1     -12.536  15.110  70.029  1.00  0.00    -0.263 C  
BRANCH  24  27
HETATM   27  O   UNL     1     -12.110  17.273  68.942  1.00  0.00     1.293 OA 
BRANCH  27  28
HETATM   28  C   UNL     1     -10.873  17.320  68.362  1.00  0.00    -0.273 A  
HETATM   29  C   UNL     1      -9.711  16.801  68.922  1.00  0.00    -0.257 A  
HETATM   30  C   UNL     1      -8.502  16.892  68.236  1.00  0.00    -0.229 A  
HETATM   31  C   UNL     1      -8.427  17.505  66.989  1.00  0.00    -0.234 A  
HETATM   32  C   UNL     1      -9.587  18.041  66.430  1.00  0.00    -0.301 A  
HETATM   33  C   UNL     1     -10.811  17.925  67.106  1.00  0.00    -0.149 A  
BRANCH  31  34
HETATM   34  O   UNL     1      -7.171  17.592  66.492  1.00  0.00    -0.209 OA 
HETATM   35  C   UNL     1      -6.222  16.581  66.785  1.00  0.00    -0.024 C  
HETATM   36  F   UNL     1      -5.748  16.077  65.624  1.00  0.00     2.252 F  
HETATM   37  F   UNL     1      -6.692  15.567  67.536  1.00  0.00    -0.150 F  
HETATM   38  F   UNL     1      -5.185  17.147  67.448  1.00  0.00    -0.105 F  
ENDBRANCH  31  34
ENDBRANCH  27  28
ENDBRANCH  24  27
ENDBRANCH  16  21
ENDBRANCH  14  15
ENDBRANCH  13  14
ENDBRANCH   2  13
TORSDOF 7
ENDMDL
MODEL      227
REMARK 921   NORMALIZED FREE ENERGY PREDICTED BY IDOCK:    6.98 KCAL/MOL
REMARK 922        TOTAL FREE ENERGY PREDICTED BY IDOCK:    8.35 KCAL/MOL
REMARK 923 INTER-LIGAND FREE ENERGY PREDICTED BY IDOCK:    3.33 KCAL/MOL
REMARK 924 INTRA-LIGAND FREE ENERGY PREDICTED BY IDOCK:    5.03 KCAL/MOL
REMARK 927      BINDING AFFINITY PREDICTED BY RF-SCORE:    0.00 PKD
ROOT
HETATM    1  C   UNL     1      -6.211   8.867  73.561  1.00  0.00    -0.000 C  
HETATM    2  C   UNL     1      -7.288   8.642  72.502  1.00  0.00     0.045 C  
HETATM    3  C   UNL     1      -8.213   6.660  72.071  1.00  0.00    -0.106 A  
HETATM    4  C   UNL     1      -8.717   8.652  73.111  1.00  0.00     0.144 C  
HETATM    5  N   UNL     1      -9.172   7.343  72.727  1.00  0.00    -0.141 NA 
HETATM    6  O   UNL     1     -11.865   4.272  72.473  1.00  0.00     0.530 OA 
HETATM    7  C   UNL     1     -10.277   6.590  72.833  1.00  0.00    -0.193 A  
HETATM    8  O   UNL     1      -7.074   7.311  71.915  1.00  0.00    -0.063 OA 
HETATM    9  O   UNL     1     -10.214   3.263  71.417  1.00  0.00    -0.018 OA 
HETATM   10  C   UNL     1      -9.904   5.412  72.188  1.00  0.00    -0.169 A  
HETATM   11  N   UNL     1      -8.594   5.470  71.707  1.00  0.00    -0.134 NA 
HETATM   12  N   UNL     1     -10.715   4.227  72.010  1.00  0.00     0.058 N  
ENDROOT
BRANCH   2  13
HETATM   13  C   UNL     1      -7.169   9.657  71.368  1.00  0.00     0.463 C  
BRANCH  13  14
HETATM   14  O   UNL     1      -7.096   9.001  70.100  1.00  0.00    -0.043 OA 
BRANCH  14  15
HETATM   15  C   UNL     1      -7.838   9.608  69.125  1.00  0.00    -0.090 A  
HETATM   16  C   UNL     1      -9.603  10.811  67.228  1.00  0.00    -0.160 A  
HETATM   17  C   UNL     1      -7.595  10.881  68.629  1.00  0.00    -0.114 A  
HETATM   18  C   UNL     1      -8.906   8.890  68.608  1.00  0.00    -0.137 A  
HETATM   19  C   UNL     1      -8.462  11.462  67.705  1.00  0.00    -0.130 A  
HETATM   20  C   UNL     1      -9.765   9.485  67.670  1.00  0.00    -0.188 A  
BRANCH  16  21
HETATM   21  N   UNL     1     -10.466  11.430  66.338  1.00  0.00    -0.245 NA 
HETATM   22  C   UNL     1      -9.997  12.353  65.287  1.00  0.00    -0.215 C  
HETATM   23  C   UNL     1     -10.753  12.056  63.994  1.00  0.00    -0.426 C  
HETATM   24  C   UNL     1     -12.267  12.135  64.207  1.00  0.00    -0.377 C  
HETATM   25  C   UNL     1     -11.889  11.610  66.638  1.00  0.00     0.176 C  
HETATM   26  C   UNL     1     -12.669  11.240  65.386  1.00  0.00     3.433 C  
BRANCH  24  27
HETATM   27  O   UNL     1     -12.593  13.513  64.453  1.00  0.00    -0.618 OA 
BRANCH  27  28
HETATM   28  C   UNL     1     -12.232  14.027  65.667  1.00  0.00    -0.442 A  
HETATM   29  C   UNL     1     -10.922  14.184  66.107  1.00  0.00    -0.309 A  
HETATM   30  C   UNL     1     -10.666  14.732  67.362  1.00  0.00    -0.281 A  
HETATM   31  C   UNL     1     -11.704  15.125  68.200  1.00  0.00    -0.302 A  
HETATM   32  C   UNL     1     -13.020  14.955  67.770  1.00  0.00     2.189 A  
HETATM   33  C   UNL     1     -13.280  14.430  66.495  1.00  0.00     1.705 A  
BRANCH  31  34
HETATM   34  O   UNL     1     -11.297  15.557  69.417  1.00  0.00    -0.271 OA 
HETATM   35  C   UNL     1     -11.427  14.713  70.548  1.00  0.00    -0.220 C  
HETATM   36  F   UNL     1     -10.212  14.565  71.122  1.00  0.00     0.625 F  
HETATM   37  F   UNL     1     -11.932  13.493  70.286  1.00  0.00    -0.357 F  
HETATM   38  F   UNL     1     -12.241  15.320  71.444  1.00  0.00    -0.295 F  
ENDBRANCH  31  34
ENDBRANCH  27  28
ENDBRANCH  24  27
ENDBRANCH  16  21
ENDBRANCH  14  15
ENDBRANCH  13  14
ENDBRANCH   2  13
TORSDOF 7
ENDMDL
MODEL      228
REMARK 921   NORMALIZED FREE ENERGY PREDICTED BY IDOCK:    7.41 KCAL/MOL
REMARK 922        TOTAL FREE ENERGY PREDICTED BY IDOCK:    8.96 KCAL/MOL
REMARK 923 INTER-LIGAND FREE ENERGY PREDICTED BY IDOCK:    6.28 KCAL/MOL
REMARK 924 INTRA-LIGAND FREE ENERGY PREDICTED BY IDOCK:    2.68 KCAL/MOL
REMARK 927      BINDING AFFINITY PREDICTED BY RF-SCORE:    0.00 PKD
ROOT
HETATM    1  C   UNL     1     -12.276   2.508  62.893  1.00  0.00     2.661 C  
HETATM    2  C   UNL     1     -11.291   3.368  63.681  1.00  0.00     0.553 C  
HETATM    3  C   UNL     1      -9.104   2.958  63.806  1.00  0.00    -0.098 A  
HETATM    4  C   UNL     1     -10.570   4.406  62.778  1.00  0.00     0.143 C  
HETATM    5  N   UNL     1      -9.199   4.027  62.991  1.00  0.00    -0.114 NA 
HETATM    6  O   UNL     1      -5.145   4.318  62.508  1.00  0.00    -0.005 OA 
HETATM    7  C   UNL     1      -7.974   4.423  62.612  1.00  0.00    -0.068 A  
HETATM    8  O   UNL     1     -10.259   2.482  64.236  1.00  0.00    -0.061 OA 
HETATM    9  O   UNL     1      -5.127   2.567  63.848  1.00  0.00    -0.007 OA 
HETATM   10  C   UNL     1      -7.146   3.511  63.266  1.00  0.00    -0.049 A  
HETATM   11  N   UNL     1      -7.875   2.590  64.022  1.00  0.00    -0.075 NA 
HETATM   12  N   UNL     1      -5.701   3.456  63.207  1.00  0.00    -0.013 N  
ENDROOT
BRANCH   2  13
HETATM   13  C   UNL     1     -11.977   4.053  64.861  1.00  0.00     3.158 C  
BRANCH  13  14
HETATM   14  O   UNL     1     -11.339   5.293  65.174  1.00  0.00     0.759 OA 
BRANCH  14  15
HETATM   15  C   UNL     1     -10.732   5.302  66.399  1.00  0.00    -0.223 A  
HETATM   16  C   UNL     1      -9.330   5.107  68.880  1.00  0.00    -0.125 A  
HETATM   17  C   UNL     1     -10.134   6.416  66.973  1.00  0.00    -0.227 A  
HETATM   18  C   UNL     1     -10.718   4.108  67.104  1.00  0.00     1.366 A  
HETATM   19  C   UNL     1      -9.450   6.312  68.183  1.00  0.00    -0.113 A  
HETATM   20  C   UNL     1     -10.033   4.021  68.327  1.00  0.00     0.056 A  
BRANCH  16  21
HETATM   21  N   UNL     1      -8.611   5.029  70.062  1.00  0.00    -0.097 NA 
HETATM   22  C   UNL     1      -8.678   6.071  71.105  1.00  0.00    -0.132 C  
HETATM   23  C   UNL     1      -8.749   5.397  72.474  1.00  0.00    -0.124 C  
HETATM   24  C   UNL     1      -7.575   4.438  72.682  1.00  0.00    -0.080 C  
HETATM   25  C   UNL     1      -7.407   4.201  70.183  1.00  0.00    -0.045 C  
HETATM   26  C   UNL     1      -7.496   3.457  71.506  1.00  0.00    -0.047 C  
BRANCH  24  27
HETATM   27  O   UNL     1      -6.383   5.237  72.785  1.00  0.00    -0.044 OA 
BRANCH  27  28
HETATM   28  C   UNL     1      -6.400   6.454  72.164  1.00  0.00    -0.050 A  
HETATM   29  C   UNL     1      -7.146   7.550  72.582  1.00  0.00    -0.074 A  
HETATM   30  C   UNL     1      -7.077   8.752  71.880  1.00  0.00    -0.057 A  
HETATM   31  C   UNL     1      -6.274   8.881  70.752  1.00  0.00    -0.043 A  
HETATM   32  C   UNL     1      -5.536   7.780  70.320  1.00  0.00    -0.023 A  
HETATM   33  C   UNL     1      -5.581   6.577  71.041  1.00  0.00    -0.026 A  
BRANCH  31  34
HETATM   34  O   UNL     1      -6.382  10.080  70.132  1.00  0.00    -0.067 OA 
HETATM   35  C   UNL     1      -7.340  10.262  69.103  1.00  0.00    -0.096 C  
HETATM   36  F   UNL     1      -8.139  11.302  69.431  1.00  0.00    -0.083 F  
HETATM   37  F   UNL     1      -8.110   9.186  68.854  1.00  0.00    -0.094 F  
HETATM   38  F   UNL     1      -6.685  10.583  67.962  1.00  0.00    -0.062 F  
ENDBRANCH  31  34
ENDBRANCH  27  28
ENDBRANCH  24  27
ENDBRANCH  16  21
ENDBRANCH  14  15
ENDBRANCH  13  14
ENDBRANCH   2  13
TORSDOF 7
ENDMDL
MODEL      229
REMARK 921   NORMALIZED FREE ENERGY PREDICTED BY IDOCK:    7.90 KCAL/MOL
REMARK 922        TOTAL FREE ENERGY PREDICTED BY IDOCK:    9.66 KCAL/MOL
REMARK 923 INTER-LIGAND FREE ENERGY PREDICTED BY IDOCK:   -3.73 KCAL/MOL
REMARK 924 INTRA-LIGAND FREE ENERGY PREDICTED BY IDOCK:   13.38 KCAL/MOL
REMARK 927      BINDING AFFINITY PREDICTED BY RF-SCORE:    0.00 PKD
ROOT
HETATM    1  C   UNL     1      -7.955  17.288  65.680  1.00  0.00     0.529 C  
HETATM    2  C   UNL     1      -8.479  17.977  66.937  1.00  0.00    -0.249 C  
HETATM    3  C   UNL     1      -7.483  17.859  68.928  1.00  0.00    -0.230 A  
HETATM    4  C   UNL     1      -7.780  19.341  67.190  1.00  0.00    -0.246 C  
HETATM    5  N   UNL     1      -7.225  19.109  68.497  1.00  0.00    -0.292 NA 
HETATM    6  O   UNL     1      -5.155  20.106  71.883  1.00  0.00    -0.362 OA 
HETATM    7  C   UNL     1      -6.514  19.774  69.420  1.00  0.00    -0.346 A  
HETATM    8  O   UNL     1      -8.177  17.113  68.087  1.00  0.00    -0.209 OA 
HETATM    9  O   UNL     1      -5.642  18.038  72.470  1.00  0.00     0.227 OA 
HETATM   10  C   UNL     1      -6.374  18.826  70.434  1.00  0.00     0.209 A  
HETATM   11  N   UNL     1      -6.995  17.618  70.110  1.00  0.00     0.801 NA 
HETATM   12  N   UNL     1      -5.675  18.996  71.689  1.00  0.00    -0.096 N  
ENDROOT
BRANCH   2  13
HETATM   13  C   UNL     1      -9.997  18.141  66.886  1.00  0.00    -0.342 C  
BRANCH  13  14
HETATM   14  O   UNL     1     -10.654  16.978  67.395  1.00  0.00    -0.328 OA 
BRANCH  14  15
HETATM   15  C   UNL     1      -9.841  15.881  67.476  1.00  0.00    -0.230 A  
HETATM   16  C   UNL     1      -8.309  13.470  67.475  1.00  0.00    -0.184 A  
HETATM   17  C   UNL     1      -8.462  15.910  67.325  1.00  0.00    -0.207 A  
HETATM   18  C   UNL     1     -10.454  14.661  67.724  1.00  0.00    -0.246 A  
HETATM   19  C   UNL     1      -7.721  14.729  67.323  1.00  0.00    -0.214 A  
HETATM   20  C   UNL     1      -9.693  13.481  67.729  1.00  0.00    -0.226 A  
BRANCH  16  21
HETATM   21  N   UNL     1      -7.550  12.312  67.431  1.00  0.00    -0.150 NA 
HETATM   22  C   UNL     1      -7.970  11.060  68.090  1.00  0.00    -0.119 C  
HETATM   23  C   UNL     1      -7.681   9.887  67.156  1.00  0.00    -0.092 C  
HETATM   24  C   UNL     1      -6.208   9.861  66.738  1.00  0.00    -0.064 C  
HETATM   25  C   UNL     1      -6.110  12.340  67.161  1.00  0.00    -0.119 C  
HETATM   26  C   UNL     1      -5.810  11.228  66.167  1.00  0.00    -0.071 C  
BRANCH  24  27
HETATM   27  O   UNL     1      -5.438   9.531  67.906  1.00  0.00    -0.040 OA 
BRANCH  27  28
HETATM   28  C   UNL     1      -6.105   8.934  68.938  1.00  0.00    -0.044 A  
HETATM   29  C   UNL     1      -6.092   9.377  70.256  1.00  0.00    -0.049 A  
HETATM   30  C   UNL     1      -6.822   8.698  71.230  1.00  0.00    -0.075 A  
HETATM   31  C   UNL     1      -7.567   7.568  70.912  1.00  0.00    -0.081 A  
HETATM   32  C   UNL     1      -7.570   7.110  69.595  1.00  0.00    -0.104 A  
HETATM   33  C   UNL     1      -6.860   7.809  68.607  1.00  0.00    -0.062 A  
BRANCH  31  34
HETATM   34  O   UNL     1      -8.148   6.972  71.980  1.00  0.00    -0.098 OA 
HETATM   35  C   UNL     1      -7.468   5.937  72.671  1.00  0.00    -0.096 C  
HETATM   36  F   UNL     1      -7.366   6.279  73.975  1.00  0.00    -0.086 F  
HETATM   37  F   UNL     1      -6.238   5.658  72.199  1.00  0.00    -0.037 F  
HETATM   38  F   UNL     1      -8.213   4.809  72.592  1.00  0.00    -0.103 F  
ENDBRANCH  31  34
ENDBRANCH  27  28
ENDBRANCH  24  27
ENDBRANCH  16  21
ENDBRANCH  14  15
ENDBRANCH  13  14
ENDBRANCH   2  13
TORSDOF 7
ENDMDL
MODEL      230
REMARK 921   NORMALIZED FREE ENERGY PREDICTED BY IDOCK:    8.31 KCAL/MOL
REMARK 922        TOTAL FREE ENERGY PREDICTED BY IDOCK:   10.23 KCAL/MOL
REMARK 923 INTER-LIGAND FREE ENERGY PREDICTED BY IDOCK:    5.96 KCAL/MOL
REMARK 924 INTRA-LIGAND FREE ENERGY PREDICTED BY IDOCK:    4.27 KCAL/MOL
REMARK 927      BINDING AFFINITY PREDICTED BY RF-SCORE:    0.00 PKD
ROOT
HETATM    1  C   UNL     1     -11.910   1.924  62.737  1.00  0.00     0.424 C  
HETATM    2  C   UNL     1     -11.244   3.115  63.421  1.00  0.00     0.199 C  
HETATM    3  C   UNL     1      -9.055   3.261  63.814  1.00  0.00    -0.097 A  
HETATM    4  C   UNL     1     -10.654   4.122  62.397  1.00  0.00    -0.138 C  
HETATM    5  N   UNL     1      -9.272   4.120  62.799  1.00  0.00    -0.120 NA 
HETATM    6  O   UNL     1      -5.350   5.273  62.620  1.00  0.00    -0.013 OA 
HETATM    7  C   UNL     1      -8.124   4.723  62.456  1.00  0.00    -0.076 A  
HETATM    8  O   UNL     1     -10.126   2.607  64.228  1.00  0.00    -0.115 OA 
HETATM    9  O   UNL     1      -5.127   3.835  64.276  1.00  0.00    -0.008 OA 
HETATM   10  C   UNL     1      -7.210   4.160  63.346  1.00  0.00    -0.050 A  
HETATM   11  N   UNL     1      -7.814   3.238  64.203  1.00  0.00    -0.080 NA 
HETATM   12  N   UNL     1      -5.792   4.439  63.425  1.00  0.00    -0.017 N  
ENDROOT
BRANCH   2  13
HETATM   13  C   UNL     1     -12.209   3.811  64.379  1.00  0.00     4.473 C  
BRANCH  13  14
HETATM   14  O   UNL     1     -11.754   5.129  64.695  1.00  0.00     1.343 OA 
BRANCH  14  15
HETATM   15  C   UNL     1     -11.397   5.286  66.006  1.00  0.00     0.672 A  
HETATM   16  C   UNL     1     -10.401   5.611  68.663  1.00  0.00    -0.208 A  
HETATM   17  C   UNL     1     -11.926   6.247  66.855  1.00  0.00     2.243 A  
HETATM   18  C   UNL     1     -10.438   4.418  66.506  1.00  0.00     0.089 A  
HETATM   19  C   UNL     1     -11.434   6.401  68.150  1.00  0.00     0.154 A  
HETATM   20  C   UNL     1      -9.958   4.579  67.815  1.00  0.00    -0.126 A  
BRANCH  16  21
HETATM   21  N   UNL     1      -9.907   5.814  69.942  1.00  0.00    -0.169 NA 
HETATM   22  C   UNL     1     -10.666   6.533  70.983  1.00  0.00    -0.243 C  
HETATM   23  C   UNL     1     -10.514   5.790  72.309  1.00  0.00    -0.253 C  
HETATM   24  C   UNL     1      -9.039   5.613  72.679  1.00  0.00    -0.131 C  
HETATM   25  C   UNL     1      -8.471   5.771  70.233  1.00  0.00    -0.128 C  
HETATM   26  C   UNL     1      -8.289   4.965  71.509  1.00  0.00    -0.113 C  
BRANCH  24  27
HETATM   27  O   UNL     1      -8.516   6.917  72.986  1.00  0.00    -0.114 OA 
BRANCH  27  28
HETATM   28  C   UNL     1      -8.894   7.943  72.167  1.00  0.00    -0.146 A  
HETATM   29  C   UNL     1     -10.042   8.711  72.332  1.00  0.00    -0.321 A  
HETATM   30  C   UNL     1     -10.326   9.746  71.444  1.00  0.00     0.184 A  
HETATM   31  C   UNL     1      -9.480  10.029  70.377  1.00  0.00     0.124 A  
HETATM   32  C   UNL     1      -8.336   9.252  70.198  1.00  0.00    -0.189 A  
HETATM   33  C   UNL     1      -8.033   8.228  71.107  1.00  0.00    -0.112 A  
BRANCH  31  34
HETATM   34  O   UNL     1      -9.936  11.004  69.555  1.00  0.00    -0.076 OA 
HETATM   35  C   UNL     1     -10.427  10.673  68.267  1.00  0.00    -0.187 C  
HETATM   36  F   UNL     1     -11.689  11.141  68.148  1.00  0.00    -0.337 F  
HETATM   37  F   UNL     1     -10.425   9.357  67.985  1.00  0.00    -0.215 F  
HETATM   38  F   UNL     1      -9.661  11.300  67.343  1.00  0.00    -0.165 F  
ENDBRANCH  31  34
ENDBRANCH  27  28
ENDBRANCH  24  27
ENDBRANCH  16  21
ENDBRANCH  14  15
ENDBRANCH  13  14
ENDBRANCH   2  13
TORSDOF 7
ENDMDL
MODEL      231
REMARK 921   NORMALIZED FREE ENERGY PREDICTED BY IDOCK:    8.53 KCAL/MOL
REMARK 922        TOTAL FREE ENERGY PREDICTED BY IDOCK:   10.54 KCAL/MOL
REMARK 923 INTER-LIGAND FREE ENERGY PREDICTED BY IDOCK:    5.40 KCAL/MOL
REMARK 924 INTRA-LIGAND FREE ENERGY PREDICTED BY IDOCK:    5.14 KCAL/MOL
REMARK 927      BINDING AFFINITY PREDICTED BY RF-SCORE:    0.00 PKD
ROOT
HETATM    1  C   UNL     1     -11.382  19.186  68.683  1.00  0.00     1.798 C  
HETATM    2  C   UNL     1     -10.060  18.789  68.030  1.00  0.00    -0.369 C  
HETATM    3  C   UNL     1      -8.283  18.063  69.162  1.00  0.00     0.105 A  
HETATM    4  C   UNL     1      -9.959  17.256  67.804  1.00  0.00    -0.301 C  
HETATM    5  N   UNL     1      -8.772  16.960  68.561  1.00  0.00    -0.243 NA 
HETATM    6  O   UNL     1      -5.832  14.545  70.069  1.00  0.00    -0.111 OA 
HETATM    7  C   UNL     1      -8.002  15.901  68.853  1.00  0.00    -0.204 A  
HETATM    8  O   UNL     1      -8.972  19.168  68.943  1.00  0.00    -0.350 OA 
HETATM    9  O   UNL     1      -5.136  16.419  70.997  1.00  0.00    -0.199 OA 
HETATM   10  C   UNL     1      -7.017  16.458  69.669  1.00  0.00    -0.064 A  
HETATM   11  N   UNL     1      -7.205  17.830  69.854  1.00  0.00     0.574 NA 
HETATM   12  N   UNL     1      -5.913  15.762  70.293  1.00  0.00    -0.138 N  
ENDROOT
BRANCH   2  13
HETATM   13  C   UNL     1      -9.838  19.551  66.726  1.00  0.00    -0.382 C  
BRANCH  13  14
HETATM   14  O   UNL     1     -10.609  18.982  65.665  1.00  0.00    -0.554 OA 
BRANCH  14  15
HETATM   15  C   UNL     1     -10.679  17.617  65.709  1.00  0.00    -0.110 A  
HETATM   16  C   UNL     1     -10.584  14.769  65.908  1.00  0.00    -0.314 A  
HETATM   17  C   UNL     1     -11.746  16.900  66.233  1.00  0.00     1.781 A  
HETATM   18  C   UNL     1      -9.601  16.914  65.192  1.00  0.00     1.247 A  
HETATM   19  C   UNL     1     -11.692  15.511  66.329  1.00  0.00     0.334 A  
HETATM   20  C   UNL     1      -9.564  15.513  65.287  1.00  0.00    -0.002 A  
BRANCH  16  21
HETATM   21  N   UNL     1     -10.545  13.391  66.052  1.00  0.00    -0.283 NA 
HETATM   22  C   UNL     1     -10.095  12.734  67.294  1.00  0.00    -0.226 C  
HETATM   23  C   UNL     1     -11.028  11.563  67.600  1.00  0.00    -0.296 C  
HETATM   24  C   UNL     1     -11.103  10.591  66.419  1.00  0.00     0.169 C  
HETATM   25  C   UNL     1     -10.480  12.494  64.895  1.00  0.00    -0.303 C  
HETATM   26  C   UNL     1     -11.462  11.360  65.141  1.00  0.00     0.006 C  
BRANCH  24  27
HETATM   27  O   UNL     1      -9.820   9.952  66.308  1.00  0.00    -0.212 OA 
BRANCH  27  28
HETATM   28  C   UNL     1      -9.815   8.591  66.185  1.00  0.00    -0.157 A  
HETATM   29  C   UNL     1      -9.799   7.696  67.250  1.00  0.00    -0.245 A  
HETATM   30  C   UNL     1      -9.810   6.324  67.010  1.00  0.00    -0.185 A  
HETATM   31  C   UNL     1      -9.829   5.820  65.714  1.00  0.00     0.198 A  
HETATM   32  C   UNL     1      -9.829   6.714  64.643  1.00  0.00     2.864 A  
HETATM   33  C   UNL     1      -9.848   8.096  64.881  1.00  0.00     2.113 A  
BRANCH  31  34
HETATM   34  O   UNL     1      -9.749   4.470  65.645  1.00  0.00    -0.171 OA 
HETATM   35  C   UNL     1      -8.621   3.857  65.045  1.00  0.00    -0.114 C  
HETATM   36  F   UNL     1      -8.061   3.008  65.935  1.00  0.00    -0.083 F  
HETATM   37  F   UNL     1      -7.677   4.715  64.613  1.00  0.00    -0.072 F  
HETATM   38  F   UNL     1      -9.043   3.130  63.983  1.00  0.00    -0.098 F  
ENDBRANCH  31  34
ENDBRANCH  27  28
ENDBRANCH  24  27
ENDBRANCH  16  21
ENDBRANCH  14  15
ENDBRANCH  13  14
ENDBRANCH   2  13
TORSDOF 7
ENDMDL
MODEL      232
REMARK 921   NORMALIZED FREE ENERGY PREDICTED BY IDOCK:    9.85 KCAL/MOL
REMARK 922        TOTAL FREE ENERGY PREDICTED BY IDOCK:   12.39 KCAL/MOL
REMARK 923 INTER-LIGAND FREE ENERGY PREDICTED BY IDOCK:    5.24 KCAL/MOL
REMARK 924 INTRA-LIGAND FREE ENERGY PREDICTED BY IDOCK:    7.16 KCAL/MOL
REMARK 927      BINDING AFFINITY PREDICTED BY RF-SCORE:    0.00 PKD
ROOT
HETATM    1  C   UNL     1      -8.359  15.384  65.322  1.00  0.00     3.452 C  
HETATM    2  C   UNL     1      -9.126  14.120  65.703  1.00  0.00     0.633 C  
HETATM    3  C   UNL     1      -9.290  12.323  64.395  1.00  0.00     0.423 A  
HETATM    4  C   UNL     1      -8.194  13.028  66.294  1.00  0.00     0.869 C  
HETATM    5  N   UNL     1      -8.436  11.953  65.369  1.00  0.00     0.553 NA 
HETATM    6  O   UNL     1      -7.988   8.172  63.867  1.00  0.00    -0.141 OA 
HETATM    7  C   UNL     1      -8.057  10.679  65.185  1.00  0.00    -0.065 A  
HETATM    8  O   UNL     1      -9.724  13.568  64.479  1.00  0.00    -0.028 OA 
HETATM    9  O   UNL     1      -9.390   8.903  62.331  1.00  0.00     0.142 OA 
HETATM   10  C   UNL     1      -8.752  10.321  64.030  1.00  0.00    -0.202 A  
HETATM   11  N   UNL     1      -9.532  11.371  63.542  1.00  0.00    -0.254 NA 
HETATM   12  N   UNL     1      -8.711   9.041  63.356  1.00  0.00    -0.143 N  
ENDROOT
BRANCH   2  13
HETATM   13  C   UNL     1     -10.273  14.438  66.660  1.00  0.00    -0.277 C  
BRANCH  13  14
HETATM   14  O   UNL     1     -10.978  13.250  67.024  1.00  0.00    -0.269 OA 
BRANCH  14  15
HETATM   15  C   UNL     1     -10.262  12.414  67.836  1.00  0.00    -0.213 A  
HETATM   16  C   UNL     1      -8.588  10.650  69.335  1.00  0.00    -0.030 A  
HETATM   17  C   UNL     1      -9.932  12.690  69.155  1.00  0.00     0.375 A  
HETATM   18  C   UNL     1      -9.841  11.212  67.286  1.00  0.00    -0.198 A  
HETATM   19  C   UNL     1      -9.113  11.826  69.879  1.00  0.00     2.259 A  
HETATM   20  C   UNL     1      -9.024  10.346  68.031  1.00  0.00    -0.129 A  
BRANCH  16  21
HETATM   21  N   UNL     1      -7.746   9.831  70.069  1.00  0.00    -0.156 NA 
HETATM   22  C   UNL     1      -6.460   9.335  69.541  1.00  0.00    -0.043 C  
HETATM   23  C   UNL     1      -5.405   9.429  70.641  1.00  0.00    -0.036 C  
HETATM   24  C   UNL     1      -5.847   8.678  71.900  1.00  0.00    -0.056 C  
HETATM   25  C   UNL     1      -8.236   9.019  71.186  1.00  0.00    -0.149 C  
HETATM   26  C   UNL     1      -7.239   9.162  72.325  1.00  0.00     0.389 C  
BRANCH  24  27
HETATM   27  O   UNL     1      -5.849   7.275  71.583  1.00  0.00    -0.036 OA 
BRANCH  27  28
HETATM   28  C   UNL     1      -7.021   6.599  71.774  1.00  0.00    -0.071 A  
HETATM   29  C   UNL     1      -7.621   6.381  73.010  1.00  0.00    -0.095 A  
HETATM   30  C   UNL     1      -8.827   5.688  73.090  1.00  0.00    -0.122 A  
HETATM   31  C   UNL     1      -9.451   5.197  71.948  1.00  0.00    -0.147 A  
HETATM   32  C   UNL     1      -8.846   5.401  70.708  1.00  0.00    -0.145 A  
HETATM   33  C   UNL     1      -7.646   6.123  70.621  1.00  0.00    -0.093 A  
BRANCH  31  34
HETATM   34  O   UNL     1     -10.568   4.473  72.197  1.00  0.00    -0.164 OA 
HETATM   35  C   UNL     1     -10.594   3.563  73.283  1.00  0.00    -0.187 C  
HETATM   36  F   UNL     1     -11.629   3.879  74.092  1.00  0.00    -0.077 F  
HETATM   37  F   UNL     1      -9.466   3.530  74.018  1.00  0.00    -0.095 F  
HETATM   38  F   UNL     1     -10.811   2.319  72.794  1.00  0.00    -0.234 F  
ENDBRANCH  31  34
ENDBRANCH  27  28
ENDBRANCH  24  27
ENDBRANCH  16  21
ENDBRANCH  14  15
ENDBRANCH  13  14
ENDBRANCH   2  13
TORSDOF 7
ENDMDL
MODEL      233
REMARK 921   NORMALIZED FREE ENERGY PREDICTED BY IDOCK:   10.12 KCAL/MOL
REMARK 922        TOTAL FREE ENERGY PREDICTED BY IDOCK:   12.78 KCAL/MOL
REMARK 923 INTER-LIGAND FREE ENERGY PREDICTED BY IDOCK:    6.08 KCAL/MOL
REMARK 924 INTRA-LIGAND FREE ENERGY PREDICTED BY IDOCK:    6.70 KCAL/MOL
REMARK 927      BINDING AFFINITY PREDICTED BY RF-SCORE:    0.00 PKD
ROOT
HETATM    1  C   UNL     1      -8.359  15.384  65.322  1.00  0.00     3.452 C  
HETATM    2  C   UNL     1      -9.126  14.120  65.703  1.00  0.00     0.633 C  
HETATM    3  C   UNL     1      -9.290  12.323  64.395  1.00  0.00     0.423 A  
HETATM    4  C   UNL     1      -8.194  13.028  66.294  1.00  0.00     0.869 C  
HETATM    5  N   UNL     1      -8.436  11.953  65.369  1.00  0.00     0.553 NA 
HETATM    6  O   UNL     1      -7.988   8.172  63.867  1.00  0.00    -0.141 OA 
HETATM    7  C   UNL     1      -8.057  10.679  65.185  1.00  0.00    -0.065 A  
HETATM    8  O   UNL     1      -9.724  13.568  64.479  1.00  0.00    -0.028 OA 
HETATM    9  O   UNL     1      -9.390   8.903  62.331  1.00  0.00     0.142 OA 
HETATM   10  C   UNL     1      -8.752  10.321  64.030  1.00  0.00    -0.202 A  
HETATM   11  N   UNL     1      -9.532  11.371  63.542  1.00  0.00    -0.254 NA 
HETATM   12  N   UNL     1      -8.711   9.041  63.356  1.00  0.00    -0.143 N  
ENDROOT
BRANCH   2  13
HETATM   13  C   UNL     1     -10.273  14.438  66.660  1.00  0.00    -0.277 C  
BRANCH  13  14
HETATM   14  O   UNL     1     -10.986  13.251  67.015  1.00  0.00    -0.269 OA 
BRANCH  14  15
HETATM   15  C   UNL     1     -10.275  12.407  67.822  1.00  0.00    -0.211 A  
HETATM   16  C   UNL     1      -8.613  10.624  69.313  1.00  0.00    -0.085 A  
HETATM   17  C   UNL     1      -9.946  12.672  69.144  1.00  0.00     0.375 A  
HETATM   18  C   UNL     1      -9.859  11.206  67.266  1.00  0.00    -0.198 A  
HETATM   19  C   UNL     1      -9.133  11.799  69.865  1.00  0.00     2.259 A  
HETATM   20  C   UNL     1      -9.049  10.331  68.007  1.00  0.00    -0.132 A  
BRANCH  16  21
HETATM   21  N   UNL     1      -7.777   9.795  70.043  1.00  0.00    -0.156 NA 
HETATM   22  C   UNL     1      -6.413  10.193  70.442  1.00  0.00    -0.131 C  
HETATM   23  C   UNL     1      -6.172   9.754  71.885  1.00  0.00     0.341 C  
HETATM   24  C   UNL     1      -6.415   8.252  72.056  1.00  0.00    -0.067 C  
HETATM   25  C   UNL     1      -7.961   8.341  70.072  1.00  0.00    -0.104 C  
HETATM   26  C   UNL     1      -7.804   7.891  71.516  1.00  0.00    -0.100 C  
BRANCH  24  27
HETATM   27  O   UNL     1      -5.374   7.566  71.338  1.00  0.00    -0.030 OA 
BRANCH  27  28
HETATM   28  C   UNL     1      -5.767   6.677  70.379  1.00  0.00    -0.023 A  
HETATM   29  C   UNL     1      -5.656   6.884  69.008  1.00  0.00    -0.018 A  
HETATM   30  C   UNL     1      -6.077   5.902  68.115  1.00  0.00    -0.017 A  
HETATM   31  C   UNL     1      -6.620   4.704  68.567  1.00  0.00    -0.046 A  
HETATM   32  C   UNL     1      -6.749   4.498  69.941  1.00  0.00    -0.033 A  
HETATM   33  C   UNL     1      -6.299   5.473  70.843  1.00  0.00    -0.034 A  
BRANCH  31  34
HETATM   34  O   UNL     1      -7.061   3.890  67.579  1.00  0.00    -0.054 OA 
HETATM   35  C   UNL     1      -6.879   2.488  67.683  1.00  0.00    -0.040 C  
HETATM   36  F   UNL     1      -8.082   1.883  67.575  1.00  0.00    -0.062 F  
HETATM   37  F   UNL     1      -6.290   2.079  68.822  1.00  0.00    -0.026 F  
HETATM   38  F   UNL     1      -6.111   2.078  66.644  1.00  0.00    -0.020 F  
ENDBRANCH  31  34
ENDBRANCH  27  28
ENDBRANCH  24  27
ENDBRANCH  16  21
ENDBRANCH  14  15
ENDBRANCH  13  14
ENDBRANCH   2  13
TORSDOF 7
ENDMDL
MODEL      234
REMARK 921   NORMALIZED FREE ENERGY PREDICTED BY IDOCK:   10.70 KCAL/MOL
REMARK 922        TOTAL FREE ENERGY PREDICTED BY IDOCK:   13.60 KCAL/MOL
REMARK 923 INTER-LIGAND FREE ENERGY PREDICTED BY IDOCK:    3.03 KCAL/MOL
REMARK 924 INTRA-LIGAND FREE ENERGY PREDICTED BY IDOCK:   10.57 KCAL/MOL
REMARK 927      BINDING AFFINITY PREDICTED BY RF-SCORE:    0.00 PKD
ROOT
HETATM    1  C   UNL     1     -11.102  10.738  64.741  1.00  0.00     0.275 C  
HETATM    2  C   UNL     1     -10.095  11.671  65.409  1.00  0.00    -0.259 C  
HETATM    3  C   UNL     1     -10.259  13.893  65.394  1.00  0.00    -0.337 A  
HETATM    4  C   UNL     1     -10.559  12.113  66.823  1.00  0.00    -0.226 C  
HETATM    5  N   UNL     1     -10.585  13.541  66.653  1.00  0.00    -0.278 NA 
HETATM    6  O   UNL     1     -11.136  17.416  67.849  1.00  0.00    -0.256 OA 
HETATM    7  C   UNL     1     -10.846  14.637  67.381  1.00  0.00    -0.298 A  
HETATM    8  O   UNL     1      -9.987  12.884  64.586  1.00  0.00    -0.235 OA 
HETATM    9  O   UNL     1     -10.589  17.859  65.759  1.00  0.00    -0.521 OA 
HETATM   10  C   UNL     1     -10.645  15.666  66.462  1.00  0.00    -0.307 A  
HETATM   11  N   UNL     1     -10.271  15.181  65.206  1.00  0.00    -0.370 NA 
HETATM   12  N   UNL     1     -10.799  17.085  66.701  1.00  0.00    -0.062 N  
ENDROOT
BRANCH   2  13
HETATM   13  C   UNL     1      -8.706  11.038  65.461  1.00  0.00    -0.138 C  
BRANCH  13  14
HETATM   14  O   UNL     1      -8.792   9.613  65.402  1.00  0.00    -0.149 OA 
BRANCH  14  15
HETATM   15  C   UNL     1      -9.373   9.053  66.507  1.00  0.00    -0.191 A  
HETATM   16  C   UNL     1     -10.612   7.661  68.672  1.00  0.00    -0.130 A  
HETATM   17  C   UNL     1      -8.841   9.103  67.787  1.00  0.00    -0.125 A  
HETATM   18  C   UNL     1     -10.577   8.391  66.316  1.00  0.00     0.586 A  
HETATM   19  C   UNL     1      -9.450   8.420  68.838  1.00  0.00    -0.147 A  
HETATM   20  C   UNL     1     -11.185   7.715  67.387  1.00  0.00     0.338 A  
BRANCH  16  21
HETATM   21  N   UNL     1     -11.173   6.962  69.729  1.00  0.00    -0.281 NA 
HETATM   22  C   UNL     1     -10.392   6.544  70.908  1.00  0.00    -0.207 C  
HETATM   23  C   UNL     1     -11.223   6.794  72.166  1.00  0.00    -0.294 C  
HETATM   24  C   UNL     1     -12.580   6.089  72.083  1.00  0.00     0.234 C  
HETATM   25  C   UNL     1     -12.406   6.184  69.575  1.00  0.00     2.402 C  
HETATM   26  C   UNL     1     -13.285   6.481  70.779  1.00  0.00     0.903 C  
BRANCH  24  27
HETATM   27  O   UNL     1     -12.331   4.674  72.146  1.00  0.00     1.454 OA 
BRANCH  27  28
HETATM   28  C   UNL     1     -11.164   4.227  71.593  1.00  0.00     1.251 A  
HETATM   29  C   UNL     1     -10.243   3.405  72.235  1.00  0.00    -0.177 A  
HETATM   30  C   UNL     1      -9.089   2.996  71.572  1.00  0.00    -0.169 A  
HETATM   31  C   UNL     1      -8.827   3.401  70.267  1.00  0.00    -0.080 A  
HETATM   32  C   UNL     1      -9.740   4.237  69.625  1.00  0.00    -0.284 A  
HETATM   33  C   UNL     1     -10.917   4.627  70.280  1.00  0.00     1.330 A  
BRANCH  31  34
HETATM   34  O   UNL     1      -7.626   2.992  69.793  1.00  0.00    -0.044 OA 
HETATM   35  C   UNL     1      -6.960   3.754  68.801  1.00  0.00    -0.047 C  
HETATM   36  F   UNL     1      -5.730   4.080  69.254  1.00  0.00    -0.014 F  
HETATM   37  F   UNL     1      -7.598   4.882  68.433  1.00  0.00    -0.073 F  
HETATM   38  F   UNL     1      -6.808   2.981  67.699  1.00  0.00    -0.045 F  
ENDBRANCH  31  34
ENDBRANCH  27  28
ENDBRANCH  24  27
ENDBRANCH  16  21
ENDBRANCH  14  15
ENDBRANCH  13  14
ENDBRANCH   2  13
TORSDOF 7
ENDMDL
MODEL      235
REMARK 921   NORMALIZED FREE ENERGY PREDICTED BY IDOCK:   10.85 KCAL/MOL
REMARK 922        TOTAL FREE ENERGY PREDICTED BY IDOCK:   13.80 KCAL/MOL
REMARK 923 INTER-LIGAND FREE ENERGY PREDICTED BY IDOCK:   -3.61 KCAL/MOL
REMARK 924 INTRA-LIGAND FREE ENERGY PREDICTED BY IDOCK:   17.42 KCAL/MOL
REMARK 927      BINDING AFFINITY PREDICTED BY RF-SCORE:    0.00 PKD
ROOT
HETATM    1  C   UNL     1     -11.659  14.658  67.289  1.00  0.00    -0.404 C  
HETATM    2  C   UNL     1     -10.187  14.423  66.961  1.00  0.00    -0.263 C  
HETATM    3  C   UNL     1      -8.513  14.881  68.359  1.00  0.00    -0.153 A  
HETATM    4  C   UNL     1      -9.670  13.073  67.526  1.00  0.00    -0.206 C  
HETATM    5  N   UNL     1      -8.599  13.537  68.368  1.00  0.00    -0.166 NA 
HETATM    6  O   UNL     1      -5.466  13.113  70.966  1.00  0.00    -0.174 OA 
HETATM    7  C   UNL     1      -7.655  13.023  69.170  1.00  0.00     0.254 A  
HETATM    8  O   UNL     1      -9.405  15.492  67.600  1.00  0.00    -0.201 OA 
HETATM    9  O   UNL     1      -5.432  15.315  70.867  1.00  0.00    -0.140 OA 
HETATM   10  C   UNL     1      -6.999  14.162  69.634  1.00  0.00    -0.011 A  
HETATM   11  N   UNL     1      -7.551  15.334  69.110  1.00  0.00    -0.175 NA 
HETATM   12  N   UNL     1      -5.885  14.206  70.555  1.00  0.00    -0.160 N  
ENDROOT
BRANCH   2  13
HETATM   13  C   UNL     1      -9.934  14.521  65.458  1.00  0.00    -0.342 C  
BRANCH  13  14
HETATM   14  O   UNL     1      -9.108  13.444  65.008  1.00  0.00     0.848 OA 
BRANCH  14  15
HETATM   15  C   UNL     1      -9.372  12.255  65.630  1.00  0.00     0.010 A  
HETATM   16  C   UNL     1      -9.865   9.651  66.698  1.00  0.00    -0.224 A  
HETATM   17  C   UNL     1      -8.849  11.875  66.858  1.00  0.00    -0.197 A  
HETATM   18  C   UNL     1     -10.222  11.377  64.973  1.00  0.00    -0.333 A  
HETATM   19  C   UNL     1      -9.092  10.602  67.372  1.00  0.00    -0.146 A  
HETATM   20  C   UNL     1     -10.466  10.101  65.508  1.00  0.00    -0.076 A  
BRANCH  16  21
HETATM   21  N   UNL     1     -10.056   8.381  67.218  1.00  0.00    -0.227 NA 
HETATM   22  C   UNL     1     -10.819   8.136  68.457  1.00  0.00     0.093 C  
HETATM   23  C   UNL     1     -11.712   6.912  68.254  1.00  0.00     0.836 C  
HETATM   24  C   UNL     1     -10.892   5.694  67.822  1.00  0.00    -0.083 C  
HETATM   25  C   UNL     1      -9.165   7.266  66.886  1.00  0.00    -0.152 C  
HETATM   26  C   UNL     1     -10.038   6.054  66.600  1.00  0.00    -0.226 C  
BRANCH  24  27
HETATM   27  O   UNL     1     -10.077   5.308  68.942  1.00  0.00    -0.171 OA 
BRANCH  27  28
HETATM   28  C   UNL     1      -9.423   6.308  69.605  1.00  0.00    -0.146 A  
HETATM   29  C   UNL     1     -10.035   7.254  70.420  1.00  0.00    -0.192 A  
HETATM   30  C   UNL     1      -9.269   8.225  71.062  1.00  0.00    -0.191 A  
HETATM   31  C   UNL     1      -7.889   8.277  70.898  1.00  0.00    -0.091 A  
HETATM   32  C   UNL     1      -7.273   7.340  70.068  1.00  0.00    -0.078 A  
HETATM   33  C   UNL     1      -8.038   6.343  69.444  1.00  0.00    -0.118 A  
BRANCH  31  34
HETATM   34  O   UNL     1      -7.299   9.328  71.515  1.00  0.00    -0.323 OA 
HETATM   35  C   UNL     1      -6.053   9.815  71.047  1.00  0.00    -0.069 C  
HETATM   36  F   UNL     1      -6.179  11.129  70.759  1.00  0.00    -0.133 F  
HETATM   37  F   UNL     1      -5.570   9.180  69.962  1.00  0.00    -0.028 F  
HETATM   38  F   UNL     1      -5.143   9.692  72.043  1.00  0.00    -0.056 F  
ENDBRANCH  31  34
ENDBRANCH  27  28
ENDBRANCH  24  27
ENDBRANCH  16  21
ENDBRANCH  14  15
ENDBRANCH  13  14
ENDBRANCH   2  13
TORSDOF 7
ENDMDL
MODEL      236
REMARK 921   NORMALIZED FREE ENERGY PREDICTED BY IDOCK:   11.31 KCAL/MOL
REMARK 922        TOTAL FREE ENERGY PREDICTED BY IDOCK:   14.46 KCAL/MOL
REMARK 923 INTER-LIGAND FREE ENERGY PREDICTED BY IDOCK:   15.32 KCAL/MOL
REMARK 924 INTRA-LIGAND FREE ENERGY PREDICTED BY IDOCK:   -0.86 KCAL/MOL
REMARK 927      BINDING AFFINITY PREDICTED BY RF-SCORE:    0.00 PKD
ROOT
HETATM    1  C   UNL     1     -12.650  13.587  71.207  1.00  0.00    -0.427 C  
HETATM    2  C   UNL     1     -11.743  13.861  70.010  1.00  0.00    -0.268 C  
HETATM    3  C   UNL     1     -12.204  13.216  67.927  1.00  0.00    -0.057 A  
HETATM    4  C   UNL     1     -12.184  15.122  69.219  1.00  0.00    -0.177 C  
HETATM    5  N   UNL     1     -12.411  14.547  67.920  1.00  0.00    -0.088 NA 
HETATM    6  O   UNL     1     -13.410  14.612  63.952  1.00  0.00     0.525 OA 
HETATM    7  C   UNL     1     -12.776  14.947  66.693  1.00  0.00     0.968 A  
HETATM    8  O   UNL     1     -11.843  12.715  69.095  1.00  0.00    -0.298 OA 
HETATM    9  O   UNL     1     -13.042  12.443  64.097  1.00  0.00    -0.762 OA 
HETATM   10  C   UNL     1     -12.766  13.754  65.971  1.00  0.00    -0.354 A  
HETATM   11  N   UNL     1     -12.398  12.665  66.765  1.00  0.00    -0.365 NA 
HETATM   12  N   UNL     1     -13.095  13.584  64.572  1.00  0.00     0.231 N  
ENDROOT
BRANCH   2  13
HETATM   13  C   UNL     1     -10.280  13.967  70.438  1.00  0.00     1.982 C  
BRANCH  13  14
HETATM   14  O   UNL     1      -9.867  12.792  71.139  1.00  0.00     7.484 OA 
BRANCH  14  15
HETATM   15  C   UNL     1      -9.155  11.915  70.368  1.00  0.00     5.006 A  
HETATM   16  C   UNL     1      -7.900   9.996  68.664  1.00  0.00    -0.091 A  
HETATM   17  C   UNL     1      -8.086  12.269  69.557  1.00  0.00     1.108 A  
HETATM   18  C   UNL     1      -9.543  10.584  70.407  1.00  0.00     0.857 A  
HETATM   19  C   UNL     1      -7.480  11.327  68.727  1.00  0.00    -0.123 A  
HETATM   20  C   UNL     1      -8.917   9.644  69.572  1.00  0.00    -0.203 A  
BRANCH  16  21
HETATM   21  N   UNL     1      -7.302   9.092  67.801  1.00  0.00    -0.084 NA 
HETATM   22  C   UNL     1      -6.027   9.373  67.114  1.00  0.00    -0.049 C  
HETATM   23  C   UNL     1      -5.156   8.119  67.154  1.00  0.00    -0.028 C  
HETATM   24  C   UNL     1      -5.889   6.916  66.555  1.00  0.00    -0.029 C  
HETATM   25  C   UNL     1      -8.067   8.033  67.137  1.00  0.00    -0.117 C  
HETATM   26  C   UNL     1      -7.253   6.752  67.236  1.00  0.00    -0.085 C  
BRANCH  24  27
HETATM   27  O   UNL     1      -6.028   7.159  65.144  1.00  0.00    -0.036 OA 
BRANCH  27  28
HETATM   28  C   UNL     1      -6.968   6.423  64.480  1.00  0.00    -0.048 A  
HETATM   29  C   UNL     1      -7.015   5.033  64.449  1.00  0.00    -0.049 A  
HETATM   30  C   UNL     1      -8.029   4.383  63.749  1.00  0.00    -0.091 A  
HETATM   31  C   UNL     1      -9.004   5.100  63.064  1.00  0.00     0.065 A  
HETATM   32  C   UNL     1      -8.951   6.494  63.078  1.00  0.00     0.908 A  
HETATM   33  C   UNL     1      -7.949   7.151  63.806  1.00  0.00    -0.072 A  
BRANCH  31  34
HETATM   34  O   UNL     1      -9.867   4.327  62.363  1.00  0.00    -0.143 OA 
HETATM   35  C   UNL     1     -10.767   3.471  63.046  1.00  0.00    -0.200 C  
HETATM   36  F   UNL     1     -12.027   3.767  62.659  1.00  0.00     0.735 F  
HETATM   37  F   UNL     1     -10.699   3.538  64.388  1.00  0.00    -0.207 F  
HETATM   38  F   UNL     1     -10.506   2.194  62.676  1.00  0.00    -0.094 F  
ENDBRANCH  31  34
ENDBRANCH  27  28
ENDBRANCH  24  27
ENDBRANCH  16  21
ENDBRANCH  14  15
ENDBRANCH  13  14
ENDBRANCH   2  13
TORSDOF 7
ENDMDL
MODEL      237
REMARK 921   NORMALIZED FREE ENERGY PREDICTED BY IDOCK:   11.65 KCAL/MOL
REMARK 922        TOTAL FREE ENERGY PREDICTED BY IDOCK:   14.94 KCAL/MOL
REMARK 923 INTER-LIGAND FREE ENERGY PREDICTED BY IDOCK:    6.00 KCAL/MOL
REMARK 924 INTRA-LIGAND FREE ENERGY PREDICTED BY IDOCK:    8.94 KCAL/MOL
REMARK 927      BINDING AFFINITY PREDICTED BY RF-SCORE:    0.00 PKD
ROOT
HETATM    1  C   UNL     1      -8.741   5.768  65.213  1.00  0.00    -0.100 C  
HETATM    2  C   UNL     1      -9.564   6.118  66.451  1.00  0.00    -0.127 C  
HETATM    3  C   UNL     1      -9.597   4.888  68.310  1.00  0.00    -0.145 A  
HETATM    4  C   UNL     1      -8.722   6.866  67.520  1.00  0.00    -0.120 C  
HETATM    5  N   UNL     1      -8.868   5.973  68.638  1.00  0.00    -0.110 NA 
HETATM    6  O   UNL     1      -8.297   4.719  72.491  1.00  0.00    -0.112 OA 
HETATM    7  C   UNL     1      -8.486   5.896  69.921  1.00  0.00    -0.129 A  
HETATM    8  O   UNL     1     -10.022   4.860  67.059  1.00  0.00    -0.178 OA 
HETATM    9  O   UNL     1      -9.500   2.995  71.828  1.00  0.00    -0.115 OA 
HETATM   10  C   UNL     1      -9.047   4.687  70.332  1.00  0.00    -0.113 A  
HETATM   11  N   UNL     1      -9.751   4.059  69.301  1.00  0.00    -0.172 NA 
HETATM   12  N   UNL     1      -8.944   4.085  71.643  1.00  0.00    -0.114 N  
ENDROOT
BRANCH   2  13
HETATM   13  C   UNL     1     -10.811   6.916  66.078  1.00  0.00     1.637 C  
BRANCH  13  14
HETATM   14  O   UNL     1     -10.457   8.166  65.482  1.00  0.00     1.653 OA 
BRANCH  14  15
HETATM   15  C   UNL     1      -9.657   8.944  66.274  1.00  0.00    -0.260 A  
HETATM   16  C   UNL     1      -8.108  10.778  67.821  1.00  0.00    -0.111 A  
HETATM   17  C   UNL     1      -9.477   8.756  67.637  1.00  0.00    -0.168 A  
HETATM   18  C   UNL     1      -8.987   9.990  65.657  1.00  0.00    -0.203 A  
HETATM   19  C   UNL     1      -8.721   9.656  68.386  1.00  0.00    -0.120 A  
HETATM   20  C   UNL     1      -8.222  10.884  66.423  1.00  0.00    -0.163 A  
BRANCH  16  21
HETATM   21  N   UNL     1      -7.394  11.675  68.599  1.00  0.00    -0.105 NA 
HETATM   22  C   UNL     1      -8.000  12.405  69.730  1.00  0.00     1.712 C  
HETATM   23  C   UNL     1      -7.015  12.414  70.898  1.00  0.00     3.111 C  
HETATM   24  C   UNL     1      -5.665  13.003  70.479  1.00  0.00    -0.173 C  
HETATM   25  C   UNL     1      -6.175  12.325  68.110  1.00  0.00    -0.058 C  
HETATM   26  C   UNL     1      -5.150  12.274  69.232  1.00  0.00    -0.067 C  
BRANCH  24  27
HETATM   27  O   UNL     1      -5.869  14.404  70.227  1.00  0.00    -0.121 OA 
BRANCH  27  28
HETATM   28  C   UNL     1      -7.131  14.791  69.871  1.00  0.00    -0.086 A  
HETATM   29  C   UNL     1      -8.183  14.984  70.759  1.00  0.00     1.953 A  
HETATM   30  C   UNL     1      -9.429  15.394  70.289  1.00  0.00     0.452 A  
HETATM   31  C   UNL     1      -9.650  15.610  68.933  1.00  0.00    -0.224 A  
HETATM   32  C   UNL     1      -8.602  15.402  68.037  1.00  0.00    -0.151 A  
HETATM   33  C   UNL     1      -7.339  15.017  68.510  1.00  0.00    -0.117 A  
BRANCH  31  34
HETATM   34  O   UNL     1     -10.932  15.919  68.625  1.00  0.00    -0.282 OA 
HETATM   35  C   UNL     1     -11.998  15.279  69.305  1.00  0.00    -0.299 C  
HETATM   36  F   UNL     1     -12.786  16.222  69.866  1.00  0.00     0.035 F  
HETATM   37  F   UNL     1     -11.616  14.410  70.260  1.00  0.00    -0.294 F  
HETATM   38  F   UNL     1     -12.740  14.602  68.396  1.00  0.00    -0.016 F  
ENDBRANCH  31  34
ENDBRANCH  27  28
ENDBRANCH  24  27
ENDBRANCH  16  21
ENDBRANCH  14  15
ENDBRANCH  13  14
ENDBRANCH   2  13
TORSDOF 7
ENDMDL
MODEL      238
REMARK 921   NORMALIZED FREE ENERGY PREDICTED BY IDOCK:   11.73 KCAL/MOL
REMARK 922        TOTAL FREE ENERGY PREDICTED BY IDOCK:   15.05 KCAL/MOL
REMARK 923 INTER-LIGAND FREE ENERGY PREDICTED BY IDOCK:    1.53 KCAL/MOL
REMARK 924 INTRA-LIGAND FREE ENERGY PREDICTED BY IDOCK:   13.52 KCAL/MOL
REMARK 927      BINDING AFFINITY PREDICTED BY RF-SCORE:    0.00 PKD
ROOT
HETATM    1  C   UNL     1     -10.941  19.776  68.572  1.00  0.00     0.593 C  
HETATM    2  C   UNL     1     -10.305  19.359  67.249  1.00  0.00    -0.442 C  
HETATM    3  C   UNL     1     -10.538  17.337  66.340  1.00  0.00    -0.179 A  
HETATM    4  C   UNL     1     -11.293  19.494  66.058  1.00  0.00     0.578 C  
HETATM    5  N   UNL     1     -11.308  18.138  65.578  1.00  0.00     0.566 NA 
HETATM    6  O   UNL     1     -12.427  15.091  63.085  1.00  0.00     0.279 OA 
HETATM    7  C   UNL     1     -11.871  17.426  64.590  1.00  0.00     2.760 A  
HETATM    8  O   UNL     1      -9.938  17.939  67.351  1.00  0.00    -0.301 OA 
HETATM    9  O   UNL     1     -11.139  13.889  64.410  1.00  0.00    -0.376 OA 
HETATM   10  C   UNL     1     -11.374  16.144  64.820  1.00  0.00    -0.249 A  
HETATM   11  N   UNL     1     -10.528  16.102  65.931  1.00  0.00    -0.346 NA 
HETATM   12  N   UNL     1     -11.663  14.952  64.053  1.00  0.00    -0.088 N  
ENDROOT
BRANCH   2  13
HETATM   13  C   UNL     1      -9.019  20.138  66.984  1.00  0.00    -0.350 C  
BRANCH  13  14
HETATM   14  O   UNL     1      -7.870  19.335  67.263  1.00  0.00    -0.249 OA 
BRANCH  14  15
HETATM   15  C   UNL     1      -8.173  18.053  67.630  1.00  0.00    -0.241 A  
HETATM   16  C   UNL     1      -8.583  15.300  68.273  1.00  0.00    -0.159 A  
HETATM   17  C   UNL     1      -8.515  17.662  68.917  1.00  0.00    -0.127 A  
HETATM   18  C   UNL     1      -8.128  17.086  66.636  1.00  0.00    -0.297 A  
HETATM   19  C   UNL     1      -8.712  16.317  69.224  1.00  0.00    -0.151 A  
HETATM   20  C   UNL     1      -8.338  15.736  66.958  1.00  0.00    -0.259 A  
BRANCH  16  21
HETATM   21  N   UNL     1      -8.748  13.968  68.618  1.00  0.00    -0.145 NA 
HETATM   22  C   UNL     1      -9.707  13.082  67.931  1.00  0.00    -0.218 C  
HETATM   23  C   UNL     1      -9.047  11.724  67.699  1.00  0.00    -0.177 C  
HETATM   24  C   UNL     1      -8.534  11.124  69.011  1.00  0.00    -0.037 C  
HETATM   25  C   UNL     1      -8.369  13.458  69.939  1.00  0.00     2.230 C  
HETATM   26  C   UNL     1      -7.637  12.142  69.726  1.00  0.00     1.071 C  
BRANCH  24  27
HETATM   27  O   UNL     1      -9.685  10.785  69.804  1.00  0.00     0.004 OA 
BRANCH  27  28
HETATM   28  C   UNL     1      -9.900   9.457  70.043  1.00  0.00    -0.221 A  
HETATM   29  C   UNL     1     -10.775   8.650  69.323  1.00  0.00    -0.151 A  
HETATM   30  C   UNL     1     -10.908   7.301  69.644  1.00  0.00    -0.238 A  
HETATM   31  C   UNL     1     -10.182   6.735  70.687  1.00  0.00    -0.195 A  
HETATM   32  C   UNL     1      -9.316   7.544  71.423  1.00  0.00    -0.151 A  
HETATM   33  C   UNL     1      -9.158   8.896  71.083  1.00  0.00    -0.315 A  
BRANCH  31  34
HETATM   34  O   UNL     1     -10.486   5.438  70.931  1.00  0.00    -0.239 OA 
HETATM   35  C   UNL     1     -10.333   4.908  72.236  1.00  0.00    -0.206 C  
HETATM   36  F   UNL     1     -11.514   4.389  72.637  1.00  0.00    -0.138 F  
HETATM   37  F   UNL     1      -9.914   5.794  73.159  1.00  0.00    -0.165 F  
HETATM   38  F   UNL     1      -9.430   3.899  72.185  1.00  0.00    -0.145 F  
ENDBRANCH  31  34
ENDBRANCH  27  28
ENDBRANCH  24  27
ENDBRANCH  16  21
ENDBRANCH  14  15
ENDBRANCH  13  14
ENDBRANCH   2  13
TORSDOF 7
ENDMDL
MODEL      239
REMARK 921   NORMALIZED FREE ENERGY PREDICTED BY IDOCK:   11.92 KCAL/MOL
REMARK 922        TOTAL FREE ENERGY PREDICTED BY IDOCK:   15.31 KCAL/MOL
REMARK 923 INTER-LIGAND FREE ENERGY PREDICTED BY IDOCK:    7.17 KCAL/MOL
REMARK 924 INTRA-LIGAND FREE ENERGY PREDICTED BY IDOCK:    8.15 KCAL/MOL
REMARK 927      BINDING AFFINITY PREDICTED BY RF-SCORE:    0.00 PKD
ROOT
HETATM    1  C   UNL     1      -6.240   9.184  73.661  1.00  0.00     0.156 C  
HETATM    2  C   UNL     1      -6.931   9.324  72.307  1.00  0.00     0.513 C  
HETATM    3  C   UNL     1      -8.181   7.729  71.378  1.00  0.00    -0.100 A  
HETATM    4  C   UNL     1      -8.417   9.754  72.451  1.00  0.00     3.503 C  
HETATM    5  N   UNL     1      -9.069   8.655  71.791  1.00  0.00    -0.230 NA 
HETATM    6  O   UNL     1     -12.280   6.557  70.361  1.00  0.00    -0.306 OA 
HETATM    7  C   UNL     1     -10.313   8.272  71.465  1.00  0.00    -0.214 A  
HETATM    8  O   UNL     1      -6.920   8.006  71.655  1.00  0.00    -0.057 OA 
HETATM    9  O   UNL     1     -10.728   5.121  69.740  1.00  0.00    -0.225 OA 
HETATM   10  C   UNL     1     -10.097   7.053  70.824  1.00  0.00    -0.194 A  
HETATM   11  N   UNL     1      -8.740   6.722  70.773  1.00  0.00    -0.145 NA 
HETATM   12  N   UNL     1     -11.103   6.176  70.266  1.00  0.00    -0.347 N  
ENDROOT
BRANCH   2  13
HETATM   13  C   UNL     1      -6.170  10.283  71.395  1.00  0.00     0.352 C  
BRANCH  13  14
HETATM   14  O   UNL     1      -5.509   9.573  70.345  1.00  0.00    -0.030 OA 
BRANCH  14  15
HETATM   15  C   UNL     1      -6.234   9.509  69.186  1.00  0.00    -0.041 A  
HETATM   16  C   UNL     1      -7.517   9.342  66.640  1.00  0.00    -0.093 A  
HETATM   17  C   UNL     1      -7.347   8.702  68.998  1.00  0.00    -0.077 A  
HETATM   18  C   UNL     1      -5.812  10.310  68.135  1.00  0.00    -0.041 A  
HETATM   19  C   UNL     1      -7.967   8.624  67.752  1.00  0.00    -0.107 A  
HETATM   20  C   UNL     1      -6.452  10.228  66.888  1.00  0.00    -0.071 A  
BRANCH  16  21
HETATM   21  N   UNL     1      -8.131   9.214  65.404  1.00  0.00    -0.119 NA 
HETATM   22  C   UNL     1      -9.574   8.942  65.258  1.00  0.00     0.186 C  
HETATM   23  C   UNL     1     -10.130   9.814  64.133  1.00  0.00     0.766 C  
HETATM   24  C   UNL     1      -9.360   9.594  62.829  1.00  0.00    -0.018 C  
HETATM   25  C   UNL     1      -7.377   8.866  64.197  1.00  0.00    -0.104 C  
HETATM   26  C   UNL     1      -7.858   9.779  63.080  1.00  0.00    -0.133 C  
BRANCH  24  27
HETATM   27  O   UNL     1      -9.660   8.262  62.375  1.00  0.00     1.330 OA 
BRANCH  27  28
HETATM   28  C   UNL     1      -9.150   7.229  63.110  1.00  0.00     1.580 A  
HETATM   29  C   UNL     1      -9.361   7.041  64.471  1.00  0.00     1.782 A  
HETATM   30  C   UNL     1      -8.804   5.942  65.121  1.00  0.00     0.017 A  
HETATM   31  C   UNL     1      -8.025   5.018  64.431  1.00  0.00    -0.104 A  
HETATM   32  C   UNL     1      -7.798   5.210  63.069  1.00  0.00    -0.080 A  
HETATM   33  C   UNL     1      -8.382   6.301  62.406  1.00  0.00    -0.040 A  
BRANCH  31  34
HETATM   34  O   UNL     1      -7.485   4.057  65.217  1.00  0.00    -0.078 OA 
HETATM   35  C   UNL     1      -6.105   4.097  65.538  1.00  0.00    -0.024 C  
HETATM   36  F   UNL     1      -5.970   4.097  66.883  1.00  0.00    -0.021 F  
HETATM   37  F   UNL     1      -5.440   5.156  65.038  1.00  0.00    -0.012 F  
HETATM   38  F   UNL     1      -5.521   2.972  65.060  1.00  0.00    -0.008 F  
ENDBRANCH  31  34
ENDBRANCH  27  28
ENDBRANCH  24  27
ENDBRANCH  16  21
ENDBRANCH  14  15
ENDBRANCH  13  14
ENDBRANCH   2  13
TORSDOF 7
ENDMDL
MODEL      240
REMARK 921   NORMALIZED FREE ENERGY PREDICTED BY IDOCK:   12.48 KCAL/MOL
REMARK 922        TOTAL FREE ENERGY PREDICTED BY IDOCK:   16.11 KCAL/MOL
REMARK 923 INTER-LIGAND FREE ENERGY PREDICTED BY IDOCK:    4.95 KCAL/MOL
REMARK 924 INTRA-LIGAND FREE ENERGY PREDICTED BY IDOCK:   11.16 KCAL/MOL
REMARK 927      BINDING AFFINITY PREDICTED BY RF-SCORE:    0.00 PKD
ROOT
HETATM    1  C   UNL     1     -10.689   9.992  70.995  1.00  0.00    -0.101 C  
HETATM    2  C   UNL     1     -10.881   8.489  71.178  1.00  0.00    -0.243 C  
HETATM    3  C   UNL     1      -9.736   6.943  70.051  1.00  0.00    -0.167 A  
HETATM    4  C   UNL     1      -9.836   7.881  72.152  1.00  0.00    -0.205 C  
HETATM    5  N   UNL     1      -9.218   6.905  71.294  1.00  0.00    -0.157 NA 
HETATM    6  O   UNL     1      -6.606   3.893  70.370  1.00  0.00    -0.031 OA 
HETATM    7  C   UNL     1      -8.265   5.963  71.364  1.00  0.00    -0.123 A  
HETATM    8  O   UNL     1     -10.684   7.845  69.871  1.00  0.00    -0.244 OA 
HETATM    9  O   UNL     1      -7.535   4.058  68.378  1.00  0.00    -0.058 OA 
HETATM   10  C   UNL     1      -8.261   5.442  70.070  1.00  0.00    -0.095 A  
HETATM   11  N   UNL     1      -9.200   6.070  69.249  1.00  0.00    -0.127 NA 
HETATM   12  N   UNL     1      -7.409   4.388  69.564  1.00  0.00    -0.051 N  
ENDROOT
BRANCH   2  13
HETATM   13  C   UNL     1     -12.303   8.164  71.628  1.00  0.00    -0.314 C  
BRANCH  13  14
HETATM   14  O   UNL     1     -13.259   8.610  70.664  1.00  0.00     0.318 OA 
BRANCH  14  15
HETATM   15  C   UNL     1     -13.067   9.903  70.260  1.00  0.00     0.262 A  
HETATM   16  C   UNL     1     -12.418  12.582  69.510  1.00  0.00     0.247 A  
HETATM   17  C   UNL     1     -13.381  10.389  68.998  1.00  0.00     3.536 A  
HETATM   18  C   UNL     1     -12.517  10.777  71.187  1.00  0.00    -0.519 A  
HETATM   19  C   UNL     1     -13.059  11.696  68.639  1.00  0.00     3.111 A  
HETATM   20  C   UNL     1     -12.207  12.094  70.814  1.00  0.00    -0.367 A  
BRANCH  16  21
HETATM   21  N   UNL     1     -12.078  13.864  69.110  1.00  0.00    -0.356 NA 
HETATM   22  C   UNL     1     -11.454  14.151  67.804  1.00  0.00    -0.325 C  
HETATM   23  C   UNL     1     -12.101  15.401  67.210  1.00  0.00     0.481 C  
HETATM   24  C   UNL     1     -12.007  16.586  68.175  1.00  0.00     0.688 C  
HETATM   25  C   UNL     1     -11.861  14.945  70.077  1.00  0.00    -0.307 C  
HETATM   26  C   UNL     1     -12.567  16.182  69.544  1.00  0.00     0.766 C  
BRANCH  24  27
HETATM   27  O   UNL     1     -10.620  16.958  68.260  1.00  0.00    -0.329 OA 
BRANCH  27  28
HETATM   28  C   UNL     1      -9.730  15.963  68.550  1.00  0.00    -0.211 A  
HETATM   29  C   UNL     1      -9.212  15.702  69.814  1.00  0.00    -0.076 A  
HETATM   30  C   UNL     1      -8.317  14.650  70.000  1.00  0.00     0.688 A  
HETATM   31  C   UNL     1      -7.918  13.849  68.936  1.00  0.00     0.006 A  
HETATM   32  C   UNL     1      -8.422  14.117  67.663  1.00  0.00    -0.189 A  
HETATM   33  C   UNL     1      -9.346  15.157  67.478  1.00  0.00    -0.198 A  
BRANCH  31  34
HETATM   34  O   UNL     1      -6.981  12.927  69.260  1.00  0.00    -0.066 OA 
HETATM   35  C   UNL     1      -6.492  12.036  68.272  1.00  0.00    -0.053 C  
HETATM   36  F   UNL     1      -5.147  12.155  68.206  1.00  0.00    -0.049 F  
HETATM   37  F   UNL     1      -7.004  12.223  67.041  1.00  0.00    -0.138 F  
HETATM   38  F   UNL     1      -6.781  10.770  68.657  1.00  0.00    -0.053 F  
ENDBRANCH  31  34
ENDBRANCH  27  28
ENDBRANCH  24  27
ENDBRANCH  16  21
ENDBRANCH  14  15
ENDBRANCH  13  14
ENDBRANCH   2  13
TORSDOF 7
ENDMDL
MODEL      241
REMARK 921   NORMALIZED FREE ENERGY PREDICTED BY IDOCK:   15.44 KCAL/MOL
REMARK 922        TOTAL FREE ENERGY PREDICTED BY IDOCK:   20.28 KCAL/MOL
REMARK 923 INTER-LIGAND FREE ENERGY PREDICTED BY IDOCK:   19.80 KCAL/MOL
REMARK 924 INTRA-LIGAND FREE ENERGY PREDICTED BY IDOCK:    0.49 KCAL/MOL
REMARK 927      BINDING AFFINITY PREDICTED BY RF-SCORE:    0.00 PKD
ROOT
HETATM    1  C   UNL     1     -11.991   5.297  67.698  1.00  0.00     5.198 C  
HETATM    2  C   UNL     1     -10.470   5.289  67.576  1.00  0.00    -0.126 C  
HETATM    3  C   UNL     1      -9.343   3.981  66.165  1.00  0.00    -0.171 A  
HETATM    4  C   UNL     1      -9.973   6.183  66.408  1.00  0.00    -0.075 C  
HETATM    5  N   UNL     1      -9.258   5.212  65.623  1.00  0.00    -0.157 NA 
HETATM    6  O   UNL     1      -6.981   3.929  62.474  1.00  0.00    -0.034 OA 
HETATM    7  C   UNL     1      -8.529   5.167  64.498  1.00  0.00    -0.141 A  
HETATM    8  O   UNL     1     -10.047   3.912  67.280  1.00  0.00    -0.023 OA 
HETATM    9  O   UNL     1      -7.198   1.969  63.460  1.00  0.00    -0.041 OA 
HETATM   10  C   UNL     1      -8.184   3.818  64.415  1.00  0.00    -0.090 A  
HETATM   11  N   UNL     1      -8.704   3.079  65.480  1.00  0.00    -0.118 NA 
HETATM   12  N   UNL     1      -7.398   3.187  63.378  1.00  0.00    -0.053 N  
ENDROOT
BRANCH   2  13
HETATM   13  C   UNL     1      -9.808   5.689  68.892  1.00  0.00    -0.147 C  
BRANCH  13  14
HETATM   14  O   UNL     1      -8.407   5.912  68.713  1.00  0.00    -0.105 OA 
BRANCH  14  15
HETATM   15  C   UNL     1      -7.972   7.102  69.227  1.00  0.00    -0.119 A  
HETATM   16  C   UNL     1      -7.145   9.502  70.536  1.00  0.00    -0.127 A  
HETATM   17  C   UNL     1      -6.717   7.647  68.995  1.00  0.00    -0.049 A  
HETATM   18  C   UNL     1      -8.857   7.800  70.035  1.00  0.00    -0.142 A  
HETATM   19  C   UNL     1      -6.320   8.818  69.639  1.00  0.00    -0.039 A  
HETATM   20  C   UNL     1      -8.446   8.983  70.670  1.00  0.00    -0.229 A  
BRANCH  16  21
HETATM   21  N   UNL     1      -6.707  10.643  71.190  1.00  0.00     0.199 NA 
HETATM   22  C   UNL     1      -7.045  12.003  70.728  1.00  0.00     3.041 C  
HETATM   23  C   UNL     1      -7.397  12.864  71.940  1.00  0.00     8.292 C  
HETATM   24  C   UNL     1      -6.264  12.861  72.971  1.00  0.00     3.034 C  
HETATM   25  C   UNL     1      -5.532  10.631  72.065  1.00  0.00     0.328 C  
HETATM   26  C   UNL     1      -5.888  11.416  73.318  1.00  0.00     2.194 C  
BRANCH  24  27
HETATM   27  O   UNL     1      -5.157  13.571  72.390  1.00  0.00    -0.194 OA 
BRANCH  27  28
HETATM   28  C   UNL     1      -5.449  14.480  71.412  1.00  0.00    -0.148 A  
HETATM   29  C   UNL     1      -5.822  15.801  71.639  1.00  0.00     0.811 A  
HETATM   30  C   UNL     1      -6.085  16.648  70.565  1.00  0.00     0.330 A  
HETATM   31  C   UNL     1      -5.990  16.196  69.253  1.00  0.00    -0.135 A  
HETATM   32  C   UNL     1      -5.632  14.868  69.021  1.00  0.00    -0.096 A  
HETATM   33  C   UNL     1      -5.338  14.021  70.099  1.00  0.00    -0.098 A  
BRANCH  31  34
HETATM   34  O   UNL     1      -6.360  17.111  68.326  1.00  0.00    -0.143 OA 
HETATM   35  C   UNL     1      -7.710  17.180  67.898  1.00  0.00    -0.184 C  
HETATM   36  F   UNL     1      -8.168  18.435  68.102  1.00  0.00    -0.257 F  
HETATM   37  F   UNL     1      -8.539  16.313  68.508  1.00  0.00    -0.177 F  
HETATM   38  F   UNL     1      -7.750  16.932  66.567  1.00  0.00    -0.214 F  
ENDBRANCH  31  34
ENDBRANCH  27  28
ENDBRANCH  24  27
ENDBRANCH  16  21
ENDBRANCH  14  15
ENDBRANCH  13  14
ENDBRANCH   2  13
TORSDOF 7
ENDMDL
MODEL      242
REMARK 921   NORMALIZED FREE ENERGY PREDICTED BY IDOCK:   15.64 KCAL/MOL
REMARK 922        TOTAL FREE ENERGY PREDICTED BY IDOCK:   20.55 KCAL/MOL
REMARK 923 INTER-LIGAND FREE ENERGY PREDICTED BY IDOCK:   10.17 KCAL/MOL
REMARK 924 INTRA-LIGAND FREE ENERGY PREDICTED BY IDOCK:   10.38 KCAL/MOL
REMARK 927      BINDING AFFINITY PREDICTED BY RF-SCORE:    0.00 PKD
ROOT
HETATM    1  C   UNL     1      -8.810  15.079  66.562  1.00  0.00    -0.286 C  
HETATM    2  C   UNL     1      -9.606  13.848  66.137  1.00  0.00    -0.229 C  
HETATM    3  C   UNL     1      -8.677  11.952  65.421  1.00  0.00     0.466 A  
HETATM    4  C   UNL     1      -9.729  12.807  67.283  1.00  0.00    -0.206 C  
HETATM    5  N   UNL     1      -9.121  11.662  66.659  1.00  0.00    -0.189 NA 
HETATM    6  O   UNL     1      -7.854   7.776  66.460  1.00  0.00    -0.097 OA 
HETATM    7  C   UNL     1      -8.859  10.379  66.950  1.00  0.00    -0.133 A  
HETATM    8  O   UNL     1      -8.882  13.199  65.034  1.00  0.00     1.349 OA 
HETATM    9  O   UNL     1      -7.171   8.379  64.453  1.00  0.00    -0.082 OA 
HETATM   10  C   UNL     1      -8.230   9.928  65.789  1.00  0.00    -0.125 A  
HETATM   11  N   UNL     1      -8.124  10.935  64.827  1.00  0.00     0.102 NA 
HETATM   12  N   UNL     1      -7.712   8.600  65.544  1.00  0.00    -0.090 N  
ENDROOT
BRANCH   2  13
HETATM   13  C   UNL     1     -10.982  14.238  65.601  1.00  0.00    -0.309 C  
BRANCH  13  14
HETATM   14  O   UNL     1     -11.822  13.089  65.468  1.00  0.00    -0.351 OA 
BRANCH  14  15
HETATM   15  C   UNL     1     -11.940  12.360  66.619  1.00  0.00    -0.229 A  
HETATM   16  C   UNL     1     -12.371  11.010  69.100  1.00  0.00    -0.009 A  
HETATM   17  C   UNL     1     -12.101  10.982  66.666  1.00  0.00     1.794 A  
HETATM   18  C   UNL     1     -11.896  13.061  67.816  1.00  0.00    -0.395 A  
HETATM   19  C   UNL     1     -12.313  10.331  67.879  1.00  0.00     2.922 A  
HETATM   20  C   UNL     1     -12.101  12.390  69.032  1.00  0.00    -0.185 A  
BRANCH  16  21
HETATM   21  N   UNL     1     -12.621  10.339  70.286  1.00  0.00    -0.204 NA 
HETATM   22  C   UNL     1     -11.693  10.377  71.432  1.00  0.00    -0.143 C  
HETATM   23  C   UNL     1     -12.502  10.538  72.718  1.00  0.00     2.270 C  
HETATM   24  C   UNL     1     -13.552   9.432  72.854  1.00  0.00     0.099 C  
HETATM   25  C   UNL     1     -13.533   9.193  70.349  1.00  0.00     0.938 C  
HETATM   26  C   UNL     1     -14.406   9.374  71.582  1.00  0.00     0.028 C  
BRANCH  24  27
HETATM   27  O   UNL     1     -12.848   8.198  73.076  1.00  0.00     0.035 OA 
BRANCH  27  28
HETATM   28  C   UNL     1     -12.266   7.614  71.986  1.00  0.00    -0.293 A  
HETATM   29  C   UNL     1     -10.898   7.575  71.740  1.00  0.00    -0.261 A  
HETATM   30  C   UNL     1     -10.409   6.939  70.601  1.00  0.00    -0.220 A  
HETATM   31  C   UNL     1     -11.270   6.340  69.687  1.00  0.00    -0.437 A  
HETATM   32  C   UNL     1     -12.644   6.390  69.922  1.00  0.00     1.728 A  
HETATM   33  C   UNL     1     -13.137   7.004  71.083  1.00  0.00    -0.260 A  
BRANCH  31  34
HETATM   34  O   UNL     1     -10.651   5.841  68.591  1.00  0.00    -0.223 OA 
HETATM   35  C   UNL     1     -11.311   5.856  67.337  1.00  0.00     0.505 C  
HETATM   36  F   UNL     1     -10.536   6.513  66.445  1.00  0.00    -0.234 F  
HETATM   37  F   UNL     1     -12.532   6.423  67.349  1.00  0.00     1.999 F  
HETATM   38  F   UNL     1     -11.447   4.578  66.910  1.00  0.00     1.128 F  
ENDBRANCH  31  34
ENDBRANCH  27  28
ENDBRANCH  24  27
ENDBRANCH  16  21
ENDBRANCH  14  15
ENDBRANCH  13  14
ENDBRANCH   2  13
TORSDOF 7
ENDMDL
MODEL      243
REMARK 921   NORMALIZED FREE ENERGY PREDICTED BY IDOCK:   17.06 KCAL/MOL
REMARK 922        TOTAL FREE ENERGY PREDICTED BY IDOCK:   22.56 KCAL/MOL
REMARK 923 INTER-LIGAND FREE ENERGY PREDICTED BY IDOCK:    6.12 KCAL/MOL
REMARK 924 INTRA-LIGAND FREE ENERGY PREDICTED BY IDOCK:   16.44 KCAL/MOL
REMARK 927      BINDING AFFINITY PREDICTED BY RF-SCORE:    0.00 PKD
ROOT
HETATM    1  C   UNL     1      -8.816  15.100  66.486  1.00  0.00    -0.312 C  
HETATM    2  C   UNL     1      -9.469  13.901  65.803  1.00  0.00     0.016 C  
HETATM    3  C   UNL     1      -8.330  12.220  64.883  1.00  0.00     2.203 A  
HETATM    4  C   UNL     1      -9.591  12.681  66.755  1.00  0.00    -0.241 C  
HETATM    5  N   UNL     1      -8.842  11.700  66.016  1.00  0.00    -0.155 NA 
HETATM    6  O   UNL     1      -7.236   7.999  65.322  1.00  0.00    -0.062 OA 
HETATM    7  C   UNL     1      -8.494  10.408  66.123  1.00  0.00    -0.147 A  
HETATM    8  O   UNL     1      -8.610  13.496  64.681  1.00  0.00     3.123 OA 
HETATM    9  O   UNL     1      -6.456   8.972  63.504  1.00  0.00    -0.089 OA 
HETATM   10  C   UNL     1      -7.742  10.201  64.968  1.00  0.00    -0.141 A  
HETATM   11  N   UNL     1      -7.648  11.357  64.189  1.00  0.00     1.286 NA 
HETATM   12  N   UNL     1      -7.096   8.971  64.563  1.00  0.00    -0.088 N  
ENDROOT
BRANCH   2  13
HETATM   13  C   UNL     1     -10.828  14.274  65.214  1.00  0.00    -0.355 C  
BRANCH  13  14
HETATM   14  O   UNL     1     -11.644  13.114  65.038  1.00  0.00    -0.309 OA 
BRANCH  14  15
HETATM   15  C   UNL     1     -11.556  12.220  66.069  1.00  0.00    -0.393 A  
HETATM   16  C   UNL     1     -11.151  10.263  68.110  1.00  0.00    -0.264 A  
HETATM   17  C   UNL     1     -11.659  12.555  67.412  1.00  0.00    -0.434 A  
HETATM   18  C   UNL     1     -11.347  10.890  65.733  1.00  0.00     0.353 A  
HETATM   19  C   UNL     1     -11.458  11.594  68.402  1.00  0.00    -0.360 A  
HETATM   20  C   UNL     1     -11.156   9.932  66.742  1.00  0.00     0.172 A  
BRANCH  16  21
HETATM   21  N   UNL     1     -10.919   9.340  69.117  1.00  0.00    -0.125 NA 
HETATM   22  C   UNL     1     -11.703   8.097  69.254  1.00  0.00     1.113 C  
HETATM   23  C   UNL     1     -10.755   6.948  69.591  1.00  0.00    -0.276 C  
HETATM   24  C   UNL     1      -9.930   7.258  70.843  1.00  0.00    -0.185 C  
HETATM   25  C   UNL     1     -10.244   9.709  70.365  1.00  0.00    -0.288 C  
HETATM   26  C   UNL     1      -9.235   8.615  70.678  1.00  0.00    -0.206 C  
BRANCH  24  27
HETATM   27  O   UNL     1     -10.835   7.260  71.961  1.00  0.00    -0.225 OA 
BRANCH  27  28
HETATM   28  C   UNL     1     -11.673   8.332  72.076  1.00  0.00    -0.346 A  
HETATM   29  C   UNL     1     -13.054   8.284  71.914  1.00  0.00    -0.367 A  
HETATM   30  C   UNL     1     -13.817   9.439  72.069  1.00  0.00    -0.409 A  
HETATM   31  C   UNL     1     -13.222  10.658  72.379  1.00  0.00     0.127 A  
HETATM   32  C   UNL     1     -11.837  10.714  72.527  1.00  0.00     2.940 A  
HETATM   33  C   UNL     1     -11.069   9.547  72.401  1.00  0.00     1.037 A  
BRANCH  31  34
HETATM   34  O   UNL     1     -14.086  11.701  72.410  1.00  0.00     0.304 OA 
HETATM   35  C   UNL     1     -13.619  13.014  72.154  1.00  0.00    -0.526 C  
HETATM   36  F   UNL     1     -14.330  13.539  71.132  1.00  0.00     0.114 F  
HETATM   37  F   UNL     1     -12.308  13.099  71.857  1.00  0.00    -0.221 F  
HETATM   38  F   UNL     1     -13.848  13.771  73.254  1.00  0.00    -0.144 F  
ENDBRANCH  31  34
ENDBRANCH  27  28
ENDBRANCH  24  27
ENDBRANCH  16  21
ENDBRANCH  14  15
ENDBRANCH  13  14
ENDBRANCH   2  13
TORSDOF 7
ENDMDL
MODEL      244
REMARK 921   NORMALIZED FREE ENERGY PREDICTED BY IDOCK:   18.07 KCAL/MOL
REMARK 922        TOTAL FREE ENERGY PREDICTED BY IDOCK:   23.98 KCAL/MOL
REMARK 923 INTER-LIGAND FREE ENERGY PREDICTED BY IDOCK:    7.23 KCAL/MOL
REMARK 924 INTRA-LIGAND FREE ENERGY PREDICTED BY IDOCK:   16.74 KCAL/MOL
REMARK 927      BINDING AFFINITY PREDICTED BY RF-SCORE:    0.00 PKD
ROOT
HETATM    1  C   UNL     1      -7.427  18.368  71.388  1.00  0.00     5.761 C  
HETATM    2  C   UNL     1      -7.253  18.362  69.871  1.00  0.00     0.625 C  
HETATM    3  C   UNL     1      -8.936  18.135  68.427  1.00  0.00    -0.293 A  
HETATM    4  C   UNL     1      -7.522  19.758  69.246  1.00  0.00    -0.171 C  
HETATM    5  N   UNL     1      -8.591  19.434  68.339  1.00  0.00    -0.351 NA 
HETATM    6  O   UNL     1     -11.397  20.232  65.469  1.00  0.00     0.215 OA 
HETATM    7  C   UNL     1      -9.357  20.050  67.426  1.00  0.00    -0.371 A  
HETATM    8  O   UNL     1      -8.243  17.433  69.306  1.00  0.00    -0.032 OA 
HETATM    9  O   UNL     1     -11.866  18.092  65.710  1.00  0.00     2.116 OA 
HETATM   10  C   UNL     1     -10.180  19.018  66.976  1.00  0.00    -0.386 A  
HETATM   11  N   UNL     1      -9.900  17.809  67.616  1.00  0.00    -0.289 NA 
HETATM   12  N   UNL     1     -11.224  19.115  65.980  1.00  0.00     0.252 N  
ENDROOT
BRANCH   2  13
HETATM   13  C   UNL     1      -5.873  17.841  69.476  1.00  0.00    -0.238 C  
BRANCH  13  14
HETATM   14  O   UNL     1      -5.976  16.838  68.463  1.00  0.00    -0.127 OA 
BRANCH  14  15
HETATM   15  C   UNL     1      -6.811  15.807  68.796  1.00  0.00    -0.122 A  
HETATM   16  C   UNL     1      -8.657  13.675  69.248  1.00  0.00     0.649 A  
HETATM   17  C   UNL     1      -6.397  14.612  69.367  1.00  0.00    -0.125 A  
HETATM   18  C   UNL     1      -8.163  15.984  68.538  1.00  0.00    -0.181 A  
HETATM   19  C   UNL     1      -7.304  13.575  69.582  1.00  0.00     0.479 A  
HETATM   20  C   UNL     1      -9.066  14.934  68.769  1.00  0.00    -0.189 A  
BRANCH  16  21
HETATM   21  N   UNL     1      -9.526  12.612  69.440  1.00  0.00     0.928 NA 
HETATM   22  C   UNL     1      -9.070  11.210  69.481  1.00  0.00     0.508 C  
HETATM   23  C   UNL     1      -9.800  10.485  70.611  1.00  0.00     1.181 C  
HETATM   24  C   UNL     1     -11.318  10.601  70.455  1.00  0.00    -0.304 C  
HETATM   25  C   UNL     1     -10.958  12.721  69.147  1.00  0.00    -0.133 C  
HETATM   26  C   UNL     1     -11.709  12.076  70.302  1.00  0.00    -0.267 C  
BRANCH  24  27
HETATM   27  O   UNL     1     -11.688   9.833  69.297  1.00  0.00     0.061 OA 
BRANCH  27  28
HETATM   28  C   UNL     1     -10.846   9.889  68.222  1.00  0.00    -0.230 A  
HETATM   29  C   UNL     1     -10.182   8.797  67.673  1.00  0.00    -0.298 A  
HETATM   30  C   UNL     1      -9.355   8.966  66.565  1.00  0.00    -0.252 A  
HETATM   31  C   UNL     1      -9.167  10.219  65.991  1.00  0.00    -0.164 A  
HETATM   32  C   UNL     1      -9.818  11.320  66.548  1.00  0.00    -0.239 A  
HETATM   33  C   UNL     1     -10.675  11.149  67.646  1.00  0.00    -0.273 A  
BRANCH  31  34
HETATM   34  O   UNL     1      -8.269  10.234  64.979  1.00  0.00    -0.148 OA 
HETATM   35  C   UNL     1      -6.924   9.857  65.220  1.00  0.00    -0.122 C  
HETATM   36  F   UNL     1      -6.597   8.850  64.380  1.00  0.00    -0.070 F  
HETATM   37  F   UNL     1      -6.665   9.468  66.482  1.00  0.00    -0.071 F  
HETATM   38  F   UNL     1      -6.126  10.913  64.935  1.00  0.00    -0.096 F  
ENDBRANCH  31  34
ENDBRANCH  27  28
ENDBRANCH  24  27
ENDBRANCH  16  21
ENDBRANCH  14  15
ENDBRANCH  13  14
ENDBRANCH   2  13
TORSDOF 7
ENDMDL
MODEL      245
REMARK 921   NORMALIZED FREE ENERGY PREDICTED BY IDOCK:   23.78 KCAL/MOL
REMARK 922        TOTAL FREE ENERGY PREDICTED BY IDOCK:   32.04 KCAL/MOL
REMARK 923 INTER-LIGAND FREE ENERGY PREDICTED BY IDOCK:   16.51 KCAL/MOL
REMARK 924 INTRA-LIGAND FREE ENERGY PREDICTED BY IDOCK:   15.53 KCAL/MOL
REMARK 927      BINDING AFFINITY PREDICTED BY RF-SCORE:    0.00 PKD
ROOT
HETATM    1  C   UNL     1     -10.750   7.059  73.934  1.00  0.00    -0.084 C  
HETATM    2  C   UNL     1      -9.964   8.018  73.043  1.00  0.00    -0.279 C  
HETATM    3  C   UNL     1     -10.780   8.938  71.184  1.00  0.00    -0.263 A  
HETATM    4  C   UNL     1     -10.282   9.504  73.361  1.00  0.00     5.636 C  
HETATM    5  N   UNL     1     -10.761   9.946  72.078  1.00  0.00     1.025 NA 
HETATM    6  O   UNL     1     -12.217  12.671  69.394  1.00  0.00    -0.200 OA 
HETATM    7  C   UNL     1     -11.202  11.075  71.503  1.00  0.00     2.139 A  
HETATM    8  O   UNL     1     -10.366   7.773  71.650  1.00  0.00    -0.194 OA 
HETATM    9  O   UNL     1     -12.201  10.939  68.030  1.00  0.00    -0.422 OA 
HETATM   10  C   UNL     1     -11.481  10.663  70.201  1.00  0.00    -0.329 A  
HETATM   11  N   UNL     1     -11.205   9.307  70.011  1.00  0.00    -0.210 NA 
HETATM   12  N   UNL     1     -12.004  11.478  69.126  1.00  0.00    -0.330 N  
ENDROOT
BRANCH   2  13
HETATM   13  C   UNL     1      -8.463   7.748  73.130  1.00  0.00    -0.163 C  
BRANCH  13  14
HETATM   14  O   UNL     1      -8.129   6.510  72.500  1.00  0.00    -0.104 OA 
BRANCH  14  15
HETATM   15  C   UNL     1      -8.427   6.476  71.165  1.00  0.00    -0.126 A  
HETATM   16  C   UNL     1      -9.187   6.186  68.427  1.00  0.00    -0.111 A  
HETATM   17  C   UNL     1      -8.911   7.555  70.439  1.00  0.00    -0.152 A  
HETATM   18  C   UNL     1      -8.227   5.272  70.506  1.00  0.00    -0.108 A  
HETATM   19  C   UNL     1      -9.282   7.405  69.104  1.00  0.00    -0.147 A  
HETATM   20  C   UNL     1      -8.597   5.138  69.158  1.00  0.00    -0.096 A  
BRANCH  16  21
HETATM   21  N   UNL     1      -9.600   6.060  67.110  1.00  0.00    -0.119 NA 
HETATM   22  C   UNL     1      -8.694   5.619  66.032  1.00  0.00    -0.144 C  
HETATM   23  C   UNL     1      -9.441   4.638  65.129  1.00  0.00    -0.147 C  
HETATM   24  C   UNL     1     -10.734   5.255  64.590  1.00  0.00     1.610 C  
HETATM   25  C   UNL     1     -10.769   6.777  66.594  1.00  0.00    -0.117 C  
HETATM   26  C   UNL     1     -11.572   5.794  65.755  1.00  0.00     2.044 C  
BRANCH  24  27
HETATM   27  O   UNL     1     -10.361   6.302  63.678  1.00  0.00     4.514 OA 
BRANCH  27  28
HETATM   28  C   UNL     1      -9.499   7.253  64.147  1.00  0.00     2.779 A  
HETATM   29  C   UNL     1      -8.285   7.587  63.557  1.00  0.00     0.063 A  
HETATM   30  C   UNL     1      -7.488   8.585  64.113  1.00  0.00    -0.112 A  
HETATM   31  C   UNL     1      -7.879   9.260  65.265  1.00  0.00    -0.105 A  
HETATM   32  C   UNL     1      -9.089   8.917  65.870  1.00  0.00    -0.271 A  
HETATM   33  C   UNL     1      -9.907   7.932  65.296  1.00  0.00     1.504 A  
BRANCH  31  34
HETATM   34  O   UNL     1      -6.960  10.138  65.730  1.00  0.00    -0.108 OA 
HETATM   35  C   UNL     1      -7.022  10.585  67.074  1.00  0.00    -0.089 C  
HETATM   36  F   UNL     1      -5.844  10.316  67.677  1.00  0.00    -0.045 F  
HETATM   37  F   UNL     1      -8.015  10.041  67.803  1.00  0.00    -0.102 F  
HETATM   38  F   UNL     1      -7.193  11.928  67.070  1.00  0.00    -0.126 F  
ENDBRANCH  31  34
ENDBRANCH  27  28
ENDBRANCH  24  27
ENDBRANCH  16  21
ENDBRANCH  14  15
ENDBRANCH  13  14
ENDBRANCH   2  13
TORSDOF 7
ENDMDL
MODEL      246
REMARK 921   NORMALIZED FREE ENERGY PREDICTED BY IDOCK:   26.94 KCAL/MOL
REMARK 922        TOTAL FREE ENERGY PREDICTED BY IDOCK:   36.49 KCAL/MOL
REMARK 923 INTER-LIGAND FREE ENERGY PREDICTED BY IDOCK:    1.81 KCAL/MOL
REMARK 924 INTRA-LIGAND FREE ENERGY PREDICTED BY IDOCK:   34.68 KCAL/MOL
REMARK 927      BINDING AFFINITY PREDICTED BY RF-SCORE:    0.00 PKD
ROOT
HETATM    1  C   UNL     1     -10.096   6.300  72.837  1.00  0.00    -0.196 C  
HETATM    2  C   UNL     1     -10.695   7.488  72.088  1.00  0.00    -0.234 C  
HETATM    3  C   UNL     1      -9.531   9.289  71.480  1.00  0.00    -0.031 A  
HETATM    4  C   UNL     1     -10.457   7.393  70.556  1.00  0.00    -0.218 C  
HETATM    5  N   UNL     1      -9.735   8.617  70.330  1.00  0.00    -0.170 NA 
HETATM    6  O   UNL     1      -7.792  11.420  68.067  1.00  0.00    -0.110 OA 
HETATM    7  C   UNL     1      -9.196   9.292  69.303  1.00  0.00    -0.152 A  
HETATM    8  O   UNL     1     -10.020   8.706  72.559  1.00  0.00    -0.282 OA 
HETATM    9  O   UNL     1      -7.522  12.418  70.014  1.00  0.00     0.935 OA 
HETATM   10  C   UNL     1      -8.660  10.417  69.930  1.00  0.00     0.154 A  
HETATM   11  N   UNL     1      -8.882  10.404  71.309  1.00  0.00     2.382 NA 
HETATM   12  N   UNL     1      -7.939  11.500  69.297  1.00  0.00     0.109 N  
ENDROOT
BRANCH   2  13
HETATM   13  C   UNL     1     -12.180   7.647  72.403  1.00  0.00    -0.167 C  
BRANCH  13  14
HETATM   14  O   UNL     1     -12.668   8.909  71.942  1.00  0.00    -0.328 OA 
BRANCH  14  15
HETATM   15  C   UNL     1     -12.183   9.269  70.714  1.00  0.00    -0.134 A  
HETATM   16  C   UNL     1     -10.955  10.108  68.276  1.00  0.00    -0.248 A  
HETATM   17  C   UNL     1     -12.147   8.433  69.607  1.00  0.00     1.328 A  
HETATM   18  C   UNL     1     -11.695  10.561  70.584  1.00  0.00    -0.453 A  
HETATM   19  C   UNL     1     -11.545   8.849  68.421  1.00  0.00     1.229 A  
HETATM   20  C   UNL     1     -11.099  10.969  69.380  1.00  0.00    -0.320 A  
BRANCH  16  21
HETATM   21  N   UNL     1     -10.330  10.478  67.095  1.00  0.00    -0.222 NA 
HETATM   22  C   UNL     1     -10.664   9.869  65.794  1.00  0.00     0.383 C  
HETATM   23  C   UNL     1     -10.724  10.968  64.734  1.00  0.00    -0.304 C  
HETATM   24  C   UNL     1      -9.418  11.765  64.688  1.00  0.00     0.012 C  
HETATM   25  C   UNL     1      -9.012  11.119  67.086  1.00  0.00    -0.145 C  
HETATM   26  C   UNL     1      -9.072  12.270  66.094  1.00  0.00    -0.076 C  
BRANCH  24  27
HETATM   27  O   UNL     1      -8.399  10.888  64.176  1.00  0.00    -0.004 OA 
BRANCH  27  28
HETATM   28  C   UNL     1      -8.071   9.807  64.945  1.00  0.00    -0.140 A  
HETATM   29  C   UNL     1      -8.918   8.740  65.222  1.00  0.00    -0.184 A  
HETATM   30  C   UNL     1      -8.474   7.680  66.009  1.00  0.00    -0.149 A  
HETATM   31  C   UNL     1      -7.188   7.667  66.539  1.00  0.00    -0.082 A  
HETATM   32  C   UNL     1      -6.340   8.742  66.277  1.00  0.00    -0.061 A  
HETATM   33  C   UNL     1      -6.774   9.797  65.461  1.00  0.00    -0.090 A  
BRANCH  31  34
HETATM   34  O   UNL     1      -6.937   6.613  67.352  1.00  0.00    -0.073 OA 
HETATM   35  C   UNL     1      -6.456   6.833  68.667  1.00  0.00    -0.040 C  
HETATM   36  F   UNL     1      -7.295   6.236  69.542  1.00  0.00    -0.073 F  
HETATM   37  F   UNL     1      -6.323   8.128  69.010  1.00  0.00    -0.037 F  
HETATM   38  F   UNL     1      -5.243   6.242  68.783  1.00  0.00    -0.003 F  
ENDBRANCH  31  34
ENDBRANCH  27  28
ENDBRANCH  24  27
ENDBRANCH  16  21
ENDBRANCH  14  15
ENDBRANCH  13  14
ENDBRANCH   2  13
TORSDOF 7
ENDMDL
MODEL      247
REMARK 921   NORMALIZED FREE ENERGY PREDICTED BY IDOCK:   29.55 KCAL/MOL
REMARK 922        TOTAL FREE ENERGY PREDICTED BY IDOCK:   40.16 KCAL/MOL
REMARK 923 INTER-LIGAND FREE ENERGY PREDICTED BY IDOCK:   18.69 KCAL/MOL
REMARK 924 INTRA-LIGAND FREE ENERGY PREDICTED BY IDOCK:   21.46 KCAL/MOL
REMARK 927      BINDING AFFINITY PREDICTED BY RF-SCORE:    0.00 PKD
ROOT
HETATM    1  C   UNL     1     -10.769   7.107  74.051  1.00  0.00     0.197 C  
HETATM    2  C   UNL     1     -10.203   8.195  73.142  1.00  0.00    -0.101 C  
HETATM    3  C   UNL     1     -11.158   8.844  71.236  1.00  0.00    -0.297 A  
HETATM    4  C   UNL     1     -10.866   9.576  73.400  1.00  0.00     5.663 C  
HETATM    5  N   UNL     1     -11.398   9.855  72.093  1.00  0.00     0.671 NA 
HETATM    6  O   UNL     1     -13.373  12.084  69.285  1.00  0.00     1.776 OA 
HETATM    7  C   UNL     1     -12.074  10.833  71.469  1.00  0.00    -0.102 A  
HETATM    8  O   UNL     1     -10.499   7.822  71.751  1.00  0.00    -0.208 OA 
HETATM    9  O   UNL     1     -12.918  10.362  67.985  1.00  0.00     3.400 OA 
HETATM   10  C   UNL     1     -12.213  10.327  70.177  1.00  0.00    -0.176 A  
HETATM   11  N   UNL     1     -11.625   9.067  70.042  1.00  0.00     0.000 NA 
HETATM   12  N   UNL     1     -12.881  10.966  69.064  1.00  0.00     0.808 N  
ENDROOT
BRANCH   2  13
HETATM   13  C   UNL     1      -8.683   8.286  73.268  1.00  0.00    -0.215 C  
BRANCH  13  14
HETATM   14  O   UNL     1      -8.051   7.178  72.623  1.00  0.00    -0.105 OA 
BRANCH  14  15
HETATM   15  C   UNL     1      -8.414   7.026  71.314  1.00  0.00    -0.118 A  
HETATM   16  C   UNL     1      -9.227   6.455  68.635  1.00  0.00    -0.125 A  
HETATM   17  C   UNL     1      -9.282   7.870  70.634  1.00  0.00    -0.157 A  
HETATM   18  C   UNL     1      -7.871   5.947  70.631  1.00  0.00    -0.105 A  
HETATM   19  C   UNL     1      -9.676   7.583  69.328  1.00  0.00    -0.163 A  
HETATM   20  C   UNL     1      -8.270   5.676  69.312  1.00  0.00    -0.096 A  
BRANCH  16  21
HETATM   21  N   UNL     1      -9.667   6.177  67.351  1.00  0.00    -0.116 NA 
HETATM   22  C   UNL     1     -10.656   5.121  67.060  1.00  0.00    -0.131 C  
HETATM   23  C   UNL     1     -11.650   5.647  66.026  1.00  0.00     1.444 C  
HETATM   24  C   UNL     1     -10.932   6.138  64.766  1.00  0.00     5.127 C  
HETATM   25  C   UNL     1      -8.883   6.543  66.168  1.00  0.00    -0.150 C  
HETATM   26  C   UNL     1      -9.843   7.145  65.153  1.00  0.00     2.035 C  
BRANCH  24  27
HETATM   27  O   UNL     1     -10.377   4.983  64.113  1.00  0.00     0.678 OA 
BRANCH  27  28
HETATM   28  C   UNL     1      -9.632   4.135  64.883  1.00  0.00    -0.178 A  
HETATM   29  C   UNL     1      -9.780   2.753  64.917  1.00  0.00     0.012 A  
HETATM   30  C   UNL     1      -8.955   1.980  65.731  1.00  0.00    -0.108 A  
HETATM   31  C   UNL     1      -7.977   2.567  66.527  1.00  0.00    -0.081 A  
HETATM   32  C   UNL     1      -7.835   3.955  66.508  1.00  0.00    -0.089 A  
HETATM   33  C   UNL     1      -8.645   4.733  65.668  1.00  0.00    -0.127 A  
BRANCH  31  34
HETATM   34  O   UNL     1      -7.317   1.694  67.324  1.00  0.00    -0.052 OA 
HETATM   35  C   UNL     1      -6.603   2.167  68.453  1.00  0.00    -0.029 C  
HETATM   36  F   UNL     1      -7.061   1.533  69.556  1.00  0.00    -0.035 F  
HETATM   37  F   UNL     1      -6.681   3.496  68.654  1.00  0.00    -0.041 F  
HETATM   38  F   UNL     1      -5.296   1.843  68.299  1.00  0.00    -0.011 F  
ENDBRANCH  31  34
ENDBRANCH  27  28
ENDBRANCH  24  27
ENDBRANCH  16  21
ENDBRANCH  14  15
ENDBRANCH  13  14
ENDBRANCH   2  13
TORSDOF 7
ENDMDL
MODEL      248
REMARK 921   NORMALIZED FREE ENERGY PREDICTED BY IDOCK:   30.48 KCAL/MOL
REMARK 922        TOTAL FREE ENERGY PREDICTED BY IDOCK:   41.47 KCAL/MOL
REMARK 923 INTER-LIGAND FREE ENERGY PREDICTED BY IDOCK:   25.97 KCAL/MOL
REMARK 924 INTRA-LIGAND FREE ENERGY PREDICTED BY IDOCK:   15.50 KCAL/MOL
REMARK 927      BINDING AFFINITY PREDICTED BY RF-SCORE:    0.00 PKD
ROOT
HETATM    1  C   UNL     1      -8.651   5.653  65.022  1.00  0.00    -0.108 C  
HETATM    2  C   UNL     1      -9.950   5.970  65.758  1.00  0.00     0.391 C  
HETATM    3  C   UNL     1     -10.493   5.119  67.746  1.00  0.00    -0.043 A  
HETATM    4  C   UNL     1      -9.766   7.095  66.812  1.00  0.00    -0.192 C  
HETATM    5  N   UNL     1     -10.176   6.403  68.005  1.00  0.00    -0.148 NA 
HETATM    6  O   UNL     1     -10.971   6.042  72.003  1.00  0.00    -0.240 OA 
HETATM    7  C   UNL     1     -10.333   6.658  69.313  1.00  0.00    -0.200 A  
HETATM    8  O   UNL     1     -10.367   4.759  66.481  1.00  0.00    -0.256 OA 
HETATM    9  O   UNL     1     -11.457   3.965  71.448  1.00  0.00     2.190 OA 
HETATM   10  C   UNL     1     -10.771   5.431  69.809  1.00  0.00    -0.210 A  
HETATM   11  N   UNL     1     -10.871   4.465  68.805  1.00  0.00     1.438 NA 
HETATM   12  N   UNL     1     -11.091   5.117  71.185  1.00  0.00     0.111 N  
ENDROOT
BRANCH   2  13
HETATM   13  C   UNL     1     -11.070   6.315  64.778  1.00  0.00     6.065 C  
BRANCH  13  14
HETATM   14  O   UNL     1     -10.685   7.394  63.924  1.00  0.00    10.146 OA 
BRANCH  14  15
HETATM   15  C   UNL     1      -9.869   8.309  64.530  1.00  0.00     2.840 A  
HETATM   16  C   UNL     1      -8.322  10.408  65.696  1.00  0.00    -0.163 A  
HETATM   17  C   UNL     1      -9.471   8.251  65.858  1.00  0.00    -0.125 A  
HETATM   18  C   UNL     1      -9.417   9.363  63.750  1.00  0.00     0.421 A  
HETATM   19  C   UNL     1      -8.718   9.280  66.420  1.00  0.00    -0.148 A  
HETATM   20  C   UNL     1      -8.651  10.388  64.328  1.00  0.00    -0.190 A  
BRANCH  16  21
HETATM   21  N   UNL     1      -7.605  11.432  66.294  1.00  0.00    -0.038 NA 
HETATM   22  C   UNL     1      -7.995  12.024  67.588  1.00  0.00    -0.150 C  
HETATM   23  C   UNL     1      -6.739  12.234  68.434  1.00  0.00    -0.064 C  
HETATM   24  C   UNL     1      -5.706  13.085  67.690  1.00  0.00    -0.118 C  
HETATM   25  C   UNL     1      -6.727  12.316  65.522  1.00  0.00     3.649 C  
HETATM   26  C   UNL     1      -5.435  12.475  66.309  1.00  0.00     1.747 C  
BRANCH  24  27
HETATM   27  O   UNL     1      -6.243  14.415  67.585  1.00  0.00    -0.247 OA 
BRANCH  27  28
HETATM   28  C   UNL     1      -7.600  14.543  67.676  1.00  0.00    -0.182 A  
HETATM   29  C   UNL     1      -8.397  13.912  68.625  1.00  0.00    -0.088 A  
HETATM   30  C   UNL     1      -9.774  14.124  68.636  1.00  0.00    -0.196 A  
HETATM   31  C   UNL     1     -10.380  14.958  67.702  1.00  0.00    -0.242 A  
HETATM   32  C   UNL     1      -9.587  15.581  66.738  1.00  0.00    -0.251 A  
HETATM   33  C   UNL     1      -8.197  15.392  66.743  1.00  0.00    -0.252 A  
BRANCH  31  34
HETATM   34  O   UNL     1     -11.731  14.993  67.788  1.00  0.00    -0.339 OA 
HETATM   35  C   UNL     1     -12.437  13.876  68.301  1.00  0.00     0.291 C  
HETATM   36  F   UNL     1     -13.196  14.282  69.343  1.00  0.00     0.224 F  
HETATM   37  F   UNL     1     -11.659  12.854  68.704  1.00  0.00    -0.271 F  
HETATM   38  F   UNL     1     -13.267  13.415  67.335  1.00  0.00     0.919 F  
ENDBRANCH  31  34
ENDBRANCH  27  28
ENDBRANCH  24  27
ENDBRANCH  16  21
ENDBRANCH  14  15
ENDBRANCH  13  14
ENDBRANCH   2  13
TORSDOF 7
ENDMDL
MODEL      249
REMARK 921   NORMALIZED FREE ENERGY PREDICTED BY IDOCK:   30.73 KCAL/MOL
REMARK 922        TOTAL FREE ENERGY PREDICTED BY IDOCK:   41.83 KCAL/MOL
REMARK 923 INTER-LIGAND FREE ENERGY PREDICTED BY IDOCK:   20.52 KCAL/MOL
REMARK 924 INTRA-LIGAND FREE ENERGY PREDICTED BY IDOCK:   21.31 KCAL/MOL
REMARK 927      BINDING AFFINITY PREDICTED BY RF-SCORE:    0.00 PKD
ROOT
HETATM    1  C   UNL     1     -10.997  10.654  70.900  1.00  0.00     0.430 C  
HETATM    2  C   UNL     1     -11.721   9.388  71.351  1.00  0.00    -0.378 C  
HETATM    3  C   UNL     1     -11.358   7.370  70.477  1.00  0.00    -0.271 A  
HETATM    4  C   UNL     1     -10.891   8.577  72.382  1.00  0.00    -0.308 C  
HETATM    5  N   UNL     1     -10.773   7.321  71.689  1.00  0.00    -0.215 NA 
HETATM    6  O   UNL     1      -9.590   3.431  71.225  1.00  0.00    -0.144 OA 
HETATM    7  C   UNL     1     -10.243   6.106  71.892  1.00  0.00    -0.200 A  
HETATM    8  O   UNL     1     -11.910   8.531  70.171  1.00  0.00     0.069 OA 
HETATM    9  O   UNL     1     -10.580   3.642  69.267  1.00  0.00     1.418 OA 
HETATM   10  C   UNL     1     -10.562   5.436  70.712  1.00  0.00    -0.223 A  
HETATM   11  N   UNL     1     -11.271   6.248  69.824  1.00  0.00    -0.403 NA 
HETATM   12  N   UNL     1     -10.223   4.071  70.371  1.00  0.00     0.119 N  
ENDROOT
BRANCH   2  13
HETATM   13  C   UNL     1     -13.110   9.711  71.898  1.00  0.00    -0.436 C  
BRANCH  13  14
HETATM   14  O   UNL     1     -13.967  10.195  70.862  1.00  0.00     0.113 OA 
BRANCH  14  15
HETATM   15  C   UNL     1     -13.311  10.903  69.893  1.00  0.00     0.909 A  
HETATM   16  C   UNL     1     -11.755  12.192  67.874  1.00  0.00    -0.336 A  
HETATM   17  C   UNL     1     -13.901  11.383  68.733  1.00  0.00     7.634 A  
HETATM   18  C   UNL     1     -11.961  11.148  70.098  1.00  0.00    -0.449 A  
HETATM   19  C   UNL     1     -13.135  12.009  67.751  1.00  0.00     4.523 A  
HETATM   20  C   UNL     1     -11.204  11.788  69.105  1.00  0.00    -0.324 A  
BRANCH  16  21
HETATM   21  N   UNL     1     -11.014  12.784  66.863  1.00  0.00    -0.254 NA 
HETATM   22  C   UNL     1     -10.971  12.247  65.490  1.00  0.00    -0.298 C  
HETATM   23  C   UNL     1     -11.062  13.409  64.502  1.00  0.00    -0.396 C  
HETATM   24  C   UNL     1      -9.962  14.443  64.759  1.00  0.00     0.058 C  
HETATM   25  C   UNL     1      -9.878  13.664  67.150  1.00  0.00    -0.242 C  
HETATM   26  C   UNL     1      -9.992  14.870  66.231  1.00  0.00    -0.300 C  
BRANCH  24  27
HETATM   27  O   UNL     1      -8.709  13.829  64.412  1.00  0.00     3.344 OA 
BRANCH  27  28
HETATM   28  C   UNL     1      -8.233  12.871  65.262  1.00  0.00     3.175 A  
HETATM   29  C   UNL     1      -6.951  12.853  65.802  1.00  0.00     4.615 A  
HETATM   30  C   UNL     1      -6.573  11.833  66.673  1.00  0.00     0.010 A  
HETATM   31  C   UNL     1      -7.457  10.814  67.013  1.00  0.00    -0.114 A  
HETATM   32  C   UNL     1      -8.738  10.819  66.461  1.00  0.00    -0.154 A  
HETATM   33  C   UNL     1      -9.131  11.861  65.608  1.00  0.00     0.017 A  
BRANCH  31  34
HETATM   34  O   UNL     1      -6.915   9.852  67.797  1.00  0.00    -0.083 OA 
HETATM   35  C   UNL     1      -7.700   8.746  68.207  1.00  0.00    -0.100 C  
HETATM   36  F   UNL     1      -7.082   7.607  67.824  1.00  0.00    -0.074 F  
HETATM   37  F   UNL     1      -8.958   8.739  67.726  1.00  0.00    -0.132 F  
HETATM   38  F   UNL     1      -7.769   8.748  69.560  1.00  0.00    -0.080 F  
ENDBRANCH  31  34
ENDBRANCH  27  28
ENDBRANCH  24  27
ENDBRANCH  16  21
ENDBRANCH  14  15
ENDBRANCH  13  14
ENDBRANCH   2  13
TORSDOF 7
ENDMDL
MODEL      250
REMARK 921   NORMALIZED FREE ENERGY PREDICTED BY IDOCK:   35.91 KCAL/MOL
REMARK 922        TOTAL FREE ENERGY PREDICTED BY IDOCK:   49.12 KCAL/MOL
REMARK 923 INTER-LIGAND FREE ENERGY PREDICTED BY IDOCK:   10.73 KCAL/MOL
REMARK 924 INTRA-LIGAND FREE ENERGY PREDICTED BY IDOCK:   38.39 KCAL/MOL
REMARK 927      BINDING AFFINITY PREDICTED BY RF-SCORE:    0.00 PKD
ROOT
HETATM    1  C   UNL     1      -5.255  18.022  62.879  1.00  0.00     1.110 C  
HETATM    2  C   UNL     1      -6.018  18.185  64.191  1.00  0.00     1.323 C  
HETATM    3  C   UNL     1      -6.984  16.500  65.285  1.00  0.00     4.100 A  
HETATM    4  C   UNL     1      -5.132  17.862  65.425  1.00  0.00    -0.110 C  
HETATM    5  N   UNL     1      -5.896  16.799  66.021  1.00  0.00     0.123 NA 
HETATM    6  O   UNL     1      -6.723  13.945  68.835  1.00  0.00    -0.095 OA 
HETATM    7  C   UNL     1      -5.843  16.004  67.101  1.00  0.00     0.051 A  
HETATM    8  O   UNL     1      -7.131  17.224  64.190  1.00  0.00     5.716 OA 
HETATM    9  O   UNL     1      -8.464  13.553  67.542  1.00  0.00    -0.168 OA 
HETATM   10  C   UNL     1      -6.983  15.215  66.953  1.00  0.00     0.520 A  
HETATM   11  N   UNL     1      -7.699  15.542  65.799  1.00  0.00     1.869 NA 
HETATM   12  N   UNL     1      -7.427  14.160  67.837  1.00  0.00    -0.134 N  
ENDROOT
BRANCH   2  13
HETATM   13  C   UNL     1      -6.630  19.580  64.305  1.00  0.00     0.480 C  
BRANCH  13  14
HETATM   14  O   UNL     1      -7.288  19.747  65.563  1.00  0.00    -0.323 OA 
BRANCH  14  15
HETATM   15  C   UNL     1      -8.017  18.656  65.949  1.00  0.00    -0.009 A  
HETATM   16  C   UNL     1      -9.461  16.429  67.005  1.00  0.00    -0.230 A  
HETATM   17  C   UNL     1      -9.333  18.417  65.581  1.00  0.00     0.673 A  
HETATM   18  C   UNL     1      -7.382  17.733  66.768  1.00  0.00    -0.239 A  
HETATM   19  C   UNL     1     -10.032  17.330  66.102  1.00  0.00    -0.288 A  
HETATM   20  C   UNL     1      -8.096  16.637  67.278  1.00  0.00    -0.193 A  
BRANCH  16  21
HETATM   21  N   UNL     1     -10.193  15.378  67.535  1.00  0.00    -0.241 NA 
HETATM   22  C   UNL     1      -9.673  14.506  68.604  1.00  0.00    -0.221 C  
HETATM   23  C   UNL     1     -10.785  14.251  69.621  1.00  0.00    -0.034 C  
HETATM   24  C   UNL     1     -12.030  13.669  68.946  1.00  0.00    -0.356 C  
HETATM   25  C   UNL     1     -11.296  14.755  66.798  1.00  0.00    -0.346 C  
HETATM   26  C   UNL     1     -12.447  14.565  67.774  1.00  0.00     0.259 C  
BRANCH  24  27
HETATM   27  O   UNL     1     -11.696  12.342  68.505  1.00  0.00    -0.292 OA 
BRANCH  27  28
HETATM   28  C   UNL     1     -11.988  11.315  69.358  1.00  0.00    -0.341 A  
HETATM   29  C   UNL     1     -12.870  11.397  70.430  1.00  0.00    -0.067 A  
HETATM   30  C   UNL     1     -13.105  10.281  71.230  1.00  0.00    -0.492 A  
HETATM   31  C   UNL     1     -12.464   9.072  70.983  1.00  0.00    -0.161 A  
HETATM   32  C   UNL     1     -11.567   8.989  69.919  1.00  0.00     0.165 A  
HETATM   33  C   UNL     1     -11.350  10.103  69.094  1.00  0.00    -0.198 A  
BRANCH  31  34
HETATM   34  O   UNL     1     -12.731   8.110  71.898  1.00  0.00    -0.313 OA 
HETATM   35  C   UNL     1     -11.708   7.216  72.304  1.00  0.00    -0.258 C  
HETATM   36  F   UNL     1     -11.578   7.284  73.647  1.00  0.00    -0.003 F  
HETATM   37  F   UNL     1     -10.506   7.443  71.742  1.00  0.00    -0.200 F  
HETATM   38  F   UNL     1     -12.089   5.956  71.984  1.00  0.00    -0.346 F  
ENDBRANCH  31  34
ENDBRANCH  27  28
ENDBRANCH  24  27
ENDBRANCH  16  21
ENDBRANCH  14  15
ENDBRANCH  13  14
ENDBRANCH   2  13
TORSDOF 7
ENDMDL
MODEL      251
REMARK 921   NORMALIZED FREE ENERGY PREDICTED BY IDOCK:   37.69 KCAL/MOL
REMARK 922        TOTAL FREE ENERGY PREDICTED BY IDOCK:   51.63 KCAL/MOL
REMARK 923 INTER-LIGAND FREE ENERGY PREDICTED BY IDOCK:   28.93 KCAL/MOL
REMARK 924 INTRA-LIGAND FREE ENERGY PREDICTED BY IDOCK:   22.70 KCAL/MOL
REMARK 927      BINDING AFFINITY PREDICTED BY RF-SCORE:    0.00 PKD
ROOT
HETATM    1  C   UNL     1      -7.507  18.366  71.451  1.00  0.00     5.761 C  
HETATM    2  C   UNL     1      -7.782  18.347  69.949  1.00  0.00     1.093 C  
HETATM    3  C   UNL     1      -9.824  18.273  69.060  1.00  0.00    -0.250 A  
HETATM    4  C   UNL     1      -8.100  19.763  69.396  1.00  0.00     0.173 C  
HETATM    5  N   UNL     1      -9.410  19.537  68.845  1.00  0.00    -0.373 NA 
HETATM    6  O   UNL     1     -12.849  20.586  66.891  1.00  0.00     3.892 OA 
HETATM    7  C   UNL     1     -10.353  20.221  68.179  1.00  0.00    -0.217 A  
HETATM    8  O   UNL     1      -8.968  17.511  69.717  1.00  0.00     0.729 OA 
HETATM    9  O   UNL     1     -13.409  18.495  67.307  1.00  0.00     6.624 OA 
HETATM   10  C   UNL     1     -11.355  19.266  68.010  1.00  0.00     0.793 A  
HETATM   11  N   UNL     1     -11.006  18.035  68.570  1.00  0.00     0.142 NA 
HETATM   12  N   UNL     1     -12.632  19.457  67.356  1.00  0.00     3.842 N  
ENDROOT
BRANCH   2  13
HETATM   13  C   UNL     1      -6.625  17.708  69.184  1.00  0.00    -0.251 C  
BRANCH  13  14
HETATM   14  O   UNL     1      -7.109  16.785  68.205  1.00  0.00    -0.156 OA 
BRANCH  14  15
HETATM   15  C   UNL     1      -8.088  15.953  68.673  1.00  0.00    -0.162 A  
HETATM   16  C   UNL     1     -10.273  14.278  69.434  1.00  0.00     0.080 A  
HETATM   17  C   UNL     1      -7.875  14.651  69.102  1.00  0.00    -0.107 A  
HETATM   18  C   UNL     1      -9.379  16.460  68.713  1.00  0.00    -0.245 A  
HETATM   19  C   UNL     1      -8.947  13.839  69.470  1.00  0.00     1.034 A  
HETATM   20  C   UNL     1     -10.447  15.633  69.095  1.00  0.00    -0.236 A  
BRANCH  16  21
HETATM   21  N   UNL     1     -11.320  13.435  69.770  1.00  0.00    -0.145 NA 
HETATM   22  C   UNL     1     -11.132  12.217  70.581  1.00  0.00     1.813 C  
HETATM   23  C   UNL     1     -12.272  12.115  71.593  1.00  0.00     0.436 C  
HETATM   24  C   UNL     1     -13.635  12.147  70.897  1.00  0.00     1.242 C  
HETATM   25  C   UNL     1     -12.563  13.397  68.994  1.00  0.00     0.509 C  
HETATM   26  C   UNL     1     -13.718  13.376  69.984  1.00  0.00     2.461 C  
BRANCH  24  27
HETATM   27  O   UNL     1     -13.764  10.925  70.151  1.00  0.00     0.768 OA 
BRANCH  27  28
HETATM   28  C   UNL     1     -12.661  10.500  69.465  1.00  0.00     0.247 A  
HETATM   29  C   UNL     1     -12.029   9.276  69.654  1.00  0.00     0.626 A  
HETATM   30  C   UNL     1     -10.916   8.937  68.888  1.00  0.00     0.044 A  
HETATM   31  C   UNL     1     -10.410   9.809  67.929  1.00  0.00    -0.213 A  
HETATM   32  C   UNL     1     -11.031  11.044  67.747  1.00  0.00    -0.323 A  
HETATM   33  C   UNL     1     -12.170  11.376  68.497  1.00  0.00     0.028 A  
BRANCH  31  34
HETATM   34  O   UNL     1      -9.276   9.374  67.331  1.00  0.00    -0.126 OA 
HETATM   35  C   UNL     1      -9.332   8.306  66.400  1.00  0.00    -0.213 C  
HETATM   36  F   UNL     1      -8.795   8.719  65.231  1.00  0.00    -0.187 F  
HETATM   37  F   UNL     1     -10.568   7.829  66.163  1.00  0.00    -0.086 F  
HETATM   38  F   UNL     1      -8.573   7.288  66.871  1.00  0.00    -0.115 F  
ENDBRANCH  31  34
ENDBRANCH  27  28
ENDBRANCH  24  27
ENDBRANCH  16  21
ENDBRANCH  14  15
ENDBRANCH  13  14
ENDBRANCH   2  13
TORSDOF 7
ENDMDL
MODEL      252
REMARK 921   NORMALIZED FREE ENERGY PREDICTED BY IDOCK:   67.11 KCAL/MOL
REMARK 922        TOTAL FREE ENERGY PREDICTED BY IDOCK:   93.09 KCAL/MOL
REMARK 923 INTER-LIGAND FREE ENERGY PREDICTED BY IDOCK:   66.64 KCAL/MOL
REMARK 924 INTRA-LIGAND FREE ENERGY PREDICTED BY IDOCK:   26.46 KCAL/MOL
REMARK 927      BINDING AFFINITY PREDICTED BY RF-SCORE:    0.00 PKD
ROOT
HETATM    1  C   UNL     1      -8.596  16.090  66.983  1.00  0.00    -0.238 C  
HETATM    2  C   UNL     1      -9.067  14.992  66.031  1.00  0.00    -0.114 C  
HETATM    3  C   UNL     1      -7.697  13.571  64.996  1.00  0.00     8.455 A  
HETATM    4  C   UNL     1      -9.197  13.618  66.743  1.00  0.00    -0.241 C  
HETATM    5  N   UNL     1      -8.291  12.830  65.952  1.00  0.00     0.987 NA 
HETATM    6  O   UNL     1      -6.320   9.413  64.860  1.00  0.00    -0.072 OA 
HETATM    7  C   UNL     1      -7.853  11.563  65.885  1.00  0.00     0.314 A  
HETATM    8  O   UNL     1      -8.054  14.843  64.976  1.00  0.00     4.575 OA 
HETATM    9  O   UNL     1      -5.417  10.735  63.344  1.00  0.00    -0.160 OA 
HETATM   10  C   UNL     1      -6.959  11.608  64.816  1.00  0.00     2.542 A  
HETATM   11  N   UNL     1      -6.871  12.886  64.260  1.00  0.00    10.721 NA 
HETATM   12  N   UNL     1      -6.173  10.510  64.298  1.00  0.00    -0.052 N  
ENDROOT
BRANCH   2  13
HETATM   13  C   UNL     1     -10.375  15.380  65.345  1.00  0.00    -0.394 C  
BRANCH  13  14
HETATM   14  O   UNL     1     -11.259  14.260  65.262  1.00  0.00    -0.313 OA 
BRANCH  14  15
HETATM   15  C   UNL     1     -10.868  13.195  66.026  1.00  0.00    -0.272 A  
HETATM   16  C   UNL     1      -9.884  10.907  67.425  1.00  0.00    -0.173 A  
HETATM   17  C   UNL     1     -10.503  13.276  67.362  1.00  0.00    -0.243 A  
HETATM   18  C   UNL     1     -10.837  11.954  65.406  1.00  0.00    -0.343 A  
HETATM   19  C   UNL     1     -10.022  12.156  68.038  1.00  0.00    -0.203 A  
HETATM   20  C   UNL     1     -10.359  10.832  66.102  1.00  0.00    -0.300 A  
BRANCH  16  21
HETATM   21  N   UNL     1      -9.366   9.822  68.113  1.00  0.00    -0.129 NA 
HETATM   22  C   UNL     1      -7.918   9.559  68.211  1.00  0.00    -0.094 C  
HETATM   23  C   UNL     1      -7.588   9.130  69.640  1.00  0.00    -0.080 C  
HETATM   24  C   UNL     1      -8.430   7.924  70.064  1.00  0.00    -0.134 C  
HETATM   25  C   UNL     1     -10.166   8.623  68.383  1.00  0.00    -0.200 C  
HETATM   26  C   UNL     1      -9.915   8.223  69.828  1.00  0.00    -0.191 C  
BRANCH  24  27
HETATM   27  O   UNL     1      -7.987   6.798  69.286  1.00  0.00    -0.112 OA 
BRANCH  27  28
HETATM   28  C   UNL     1      -8.423   6.731  67.993  1.00  0.00    -0.120 A  
HETATM   29  C   UNL     1      -7.598   6.733  66.874  1.00  0.00    -0.091 A  
HETATM   30  C   UNL     1      -8.149   6.646  65.597  1.00  0.00    -0.125 A  
HETATM   31  C   UNL     1      -9.526   6.563  65.413  1.00  0.00     0.629 A  
HETATM   32  C   UNL     1     -10.358   6.576  66.532  1.00  0.00    -0.132 A  
HETATM   33  C   UNL     1      -9.804   6.634  67.819  1.00  0.00    -0.144 A  
BRANCH  31  34
HETATM   34  O   UNL     1      -9.910   6.572  64.114  1.00  0.00     2.779 OA 
HETATM   35  C   UNL     1     -11.062   7.299  63.722  1.00  0.00    17.002 C  
HETATM   36  F   UNL     1     -10.714   8.178  62.756  1.00  0.00     6.295 F  
HETATM   37  F   UNL     1     -11.671   7.970  64.718  1.00  0.00     9.330 F  
HETATM   38  F   UNL     1     -11.956   6.430  63.194  1.00  0.00     7.676 F  
ENDBRANCH  31  34
ENDBRANCH  27  28
ENDBRANCH  24  27
ENDBRANCH  16  21
ENDBRANCH  14  15
ENDBRANCH  13  14
ENDBRANCH   2  13
TORSDOF 7
ENDMDL
MODEL      253
REMARK 921   NORMALIZED FREE ENERGY PREDICTED BY IDOCK:   95.90 KCAL/MOL
REMARK 922        TOTAL FREE ENERGY PREDICTED BY IDOCK:  133.67 KCAL/MOL
REMARK 923 INTER-LIGAND FREE ENERGY PREDICTED BY IDOCK:  111.73 KCAL/MOL
REMARK 924 INTRA-LIGAND FREE ENERGY PREDICTED BY IDOCK:   21.94 KCAL/MOL
REMARK 927      BINDING AFFINITY PREDICTED BY RF-SCORE:    0.00 PKD
ROOT
HETATM    1  C   UNL     1      -8.596  16.090  66.983  1.00  0.00    -0.238 C  
HETATM    2  C   UNL     1      -9.067  14.992  66.031  1.00  0.00    -0.114 C  
HETATM    3  C   UNL     1      -7.697  13.571  64.996  1.00  0.00     8.455 A  
HETATM    4  C   UNL     1      -9.197  13.618  66.743  1.00  0.00    -0.241 C  
HETATM    5  N   UNL     1      -8.291  12.830  65.952  1.00  0.00     0.987 NA 
HETATM    6  O   UNL     1      -6.320   9.413  64.860  1.00  0.00    -0.072 OA 
HETATM    7  C   UNL     1      -7.853  11.563  65.885  1.00  0.00     0.314 A  
HETATM    8  O   UNL     1      -8.054  14.843  64.976  1.00  0.00     4.575 OA 
HETATM    9  O   UNL     1      -5.417  10.735  63.344  1.00  0.00    -0.160 OA 
HETATM   10  C   UNL     1      -6.959  11.608  64.816  1.00  0.00     2.542 A  
HETATM   11  N   UNL     1      -6.871  12.886  64.260  1.00  0.00    10.721 NA 
HETATM   12  N   UNL     1      -6.173  10.510  64.298  1.00  0.00    -0.052 N  
ENDROOT
BRANCH   2  13
HETATM   13  C   UNL     1     -10.375  15.380  65.345  1.00  0.00    -0.394 C  
BRANCH  13  14
HETATM   14  O   UNL     1     -11.259  14.260  65.262  1.00  0.00    -0.313 OA 
BRANCH  14  15
HETATM   15  C   UNL     1     -10.868  13.195  66.026  1.00  0.00    -0.272 A  
HETATM   16  C   UNL     1      -9.884  10.907  67.425  1.00  0.00    -0.173 A  
HETATM   17  C   UNL     1     -10.503  13.276  67.362  1.00  0.00    -0.243 A  
HETATM   18  C   UNL     1     -10.837  11.954  65.406  1.00  0.00    -0.343 A  
HETATM   19  C   UNL     1     -10.022  12.156  68.038  1.00  0.00    -0.203 A  
HETATM   20  C   UNL     1     -10.359  10.832  66.102  1.00  0.00    -0.300 A  
BRANCH  16  21
HETATM   21  N   UNL     1      -9.366   9.822  68.113  1.00  0.00    -0.129 NA 
HETATM   22  C   UNL     1      -7.918   9.559  68.211  1.00  0.00    -0.094 C  
HETATM   23  C   UNL     1      -7.588   9.130  69.640  1.00  0.00    -0.080 C  
HETATM   24  C   UNL     1      -8.430   7.924  70.064  1.00  0.00    -0.134 C  
HETATM   25  C   UNL     1     -10.166   8.623  68.383  1.00  0.00    -0.200 C  
HETATM   26  C   UNL     1      -9.915   8.223  69.828  1.00  0.00    -0.191 C  
BRANCH  24  27
HETATM   27  O   UNL     1      -7.987   6.798  69.286  1.00  0.00    -0.112 OA 
BRANCH  27  28
HETATM   28  C   UNL     1      -8.955   6.033  68.699  1.00  0.00    -0.118 A  
HETATM   29  C   UNL     1      -9.088   5.831  67.330  1.00  0.00    -0.110 A  
HETATM   30  C   UNL     1     -10.106   5.017  66.838  1.00  0.00    -0.261 A  
HETATM   31  C   UNL     1     -11.010   4.399  67.696  1.00  0.00     2.150 A  
HETATM   32  C   UNL     1     -10.890   4.611  69.069  1.00  0.00     1.324 A  
HETATM   33  C   UNL     1      -9.848   5.407  69.569  1.00  0.00    -0.264 A  
BRANCH  31  34
HETATM   34  O   UNL     1     -11.992   3.714  67.063  1.00  0.00     8.834 OA 
HETATM   35  C   UNL     1     -13.319   3.758  67.558  1.00  0.00    27.906 C  
HETATM   36  F   UNL     1     -14.137   4.191  66.573  1.00  0.00    13.192 F  
HETATM   37  F   UNL     1     -13.492   4.541  68.639  1.00  0.00    17.255 F  
HETATM   38  F   UNL     1     -13.694   2.499  67.888  1.00  0.00    18.285 F  
ENDBRANCH  31  34
ENDBRANCH  27  28
ENDBRANCH  24  27
ENDBRANCH  16  21
ENDBRANCH  14  15
ENDBRANCH  13  14
ENDBRANCH   2  13
TORSDOF 7
ENDMDL
