MODEL        1
REMARK 921   NORMALIZED FREE ENERGY PREDICTED BY IDOCK:   -9.17 KCAL/MOL
REMARK 922        TOTAL FREE ENERGY PREDICTED BY IDOCK:  -11.08 KCAL/MOL
REMARK 923 INTER-LIGAND FREE ENERGY PREDICTED BY IDOCK:  -10.24 KCAL/MOL
REMARK 924 INTRA-LIGAND FREE ENERGY PREDICTED BY IDOCK:   -0.84 KCAL/MOL
REMARK 927      BINDING AFFINITY PREDICTED BY RF-SCORE:    0.00 PKD
ROOT
HETATM    1  N   UNL     1      -8.128  10.750  64.763  1.00  0.00    -0.364 NA 
HETATM    2  H1  UNL     1      -8.038  10.249  63.880  1.00  0.00     0.000 HD 
HETATM    3  C   UNL     1      -9.383  11.295  65.045  1.00  0.00    -0.178 A  
HETATM    4  H2  UNL     1      -7.836  10.147  65.531  1.00  0.00     0.000 HD 
HETATM    5  N   UNL     1      -9.502  11.959  66.216  1.00  0.00    -0.224 NA 
HETATM    6  C   UNL     1     -10.658  12.630  66.487  1.00  0.00    -0.253 A  
HETATM    7  F   UNL     1     -10.286  10.489  62.996  1.00  0.00    -0.330 F  
HETATM    8  C   UNL     1     -11.750  12.508  65.596  1.00  0.00    -0.423 A  
HETATM    9  C   UNL     1     -10.442  11.148  64.153  1.00  0.00    -0.377 A  
HETATM   10  F   UNL     1     -12.903  13.166  65.786  1.00  0.00    -0.461 F  
HETATM   11  C   UNL     1     -11.652  11.744  64.440  1.00  0.00    -0.325 A  
ENDROOT
BRANCH   6  12
HETATM   12  N   UNL     1     -10.726  13.484  67.664  1.00  0.00    -0.246 NA 
HETATM   13  C   UNL     1     -10.698  15.838  68.409  1.00  0.00    -0.281 C  
HETATM   14  C   UNL     1     -10.306  17.224  68.086  1.00  0.00    -0.357 C  
HETATM   15  C   UNL     1     -11.352  15.458  69.662  1.00  0.00    -0.307 C  
HETATM   16  C   UNL     1     -10.478  14.858  67.521  1.00  0.00    -0.254 C  
HETATM   17  O   UNL     1      -9.809  17.550  67.013  1.00  0.00    -0.274 OA 
HETATM   18  O   UNL     1     -11.587  16.308  70.518  1.00  0.00    -0.343 OA 
HETATM   19  C   UNL     1     -11.696  14.036  69.865  1.00  0.00    -0.368 A  
HETATM   20  O   UNL     1     -10.507  18.119  69.079  1.00  0.00    -0.249 OA 
HETATM   21  C   UNL     1     -12.372  13.712  71.041  1.00  0.00    -0.436 A  
HETATM   22  C   UNL     1     -12.690  12.391  71.304  1.00  0.00    -0.248 A  
HETATM   23  F   UNL     1     -13.374  12.141  72.431  1.00  0.00    -0.617 F  
HETATM   24  C   UNL     1     -12.262  11.342  70.475  1.00  0.00    -0.386 A  
HETATM   25  C   UNL     1     -11.443  11.698  69.364  1.00  0.00    -0.307 A  
HETATM   26 CL   UNL     1     -10.296  10.494  68.800  1.00  0.00    -0.190 Cl 
HETATM   27  C   UNL     1     -11.290  13.052  68.937  1.00  0.00    -0.287 A  
BRANCH  24  28
HETATM   28  N   UNL     1     -12.626  10.007  70.800  1.00  0.00    -0.305 NA 
HETATM   29  C   UNL     1     -13.906   9.366  70.841  1.00  0.00     0.154 C  
HETATM   30  C   UNL     1     -13.445   8.592  72.084  1.00  0.00    -0.398 C  
HETATM   31  C   UNL     1     -12.042   9.133  71.781  1.00  0.00    -0.376 C  
HETATM   32  O   UNL     1     -14.038   8.994  73.344  1.00  0.00    -1.231 OA 
HETATM   33  H   UNL     1     -13.753   8.515  74.114  1.00  0.00     0.000 HD 
ENDBRANCH  24  28
ENDBRANCH   6  12
TORSDOF 2
ENDMDL
MODEL        2
REMARK 921   NORMALIZED FREE ENERGY PREDICTED BY IDOCK:   -8.93 KCAL/MOL
REMARK 922        TOTAL FREE ENERGY PREDICTED BY IDOCK:  -10.81 KCAL/MOL
REMARK 923 INTER-LIGAND FREE ENERGY PREDICTED BY IDOCK:  -10.04 KCAL/MOL
REMARK 924 INTRA-LIGAND FREE ENERGY PREDICTED BY IDOCK:   -0.77 KCAL/MOL
REMARK 927      BINDING AFFINITY PREDICTED BY RF-SCORE:    0.00 PKD
ROOT
HETATM    1  N   UNL     1     -12.485  11.693  63.080  1.00  0.00    -0.949 NA 
HETATM    2  H1  UNL     1     -12.221  11.168  62.247  1.00  0.00     0.000 HD 
HETATM    3  C   UNL     1     -11.501  11.840  64.061  1.00  0.00    -0.359 A  
HETATM    4  H2  UNL     1     -12.841  12.610  62.810  1.00  0.00     0.000 HD 
HETATM    5  N   UNL     1     -11.851  12.536  65.166  1.00  0.00    -0.385 NA 
HETATM    6  C   UNL     1     -10.984  12.598  66.217  1.00  0.00    -0.283 A  
HETATM    7  F   UNL     1      -9.923  10.601  62.782  1.00  0.00    -0.331 F  
HETATM    8  C   UNL     1      -9.691  12.043  66.076  1.00  0.00    -0.239 A  
HETATM    9  C   UNL     1     -10.233  11.292  63.888  1.00  0.00    -0.365 A  
HETATM   10  F   UNL     1      -8.801  12.042  67.079  1.00  0.00    -0.168 F  
HETATM   11  C   UNL     1      -9.304  11.413  64.899  1.00  0.00    -0.137 A  
ENDROOT
BRANCH   6  12
HETATM   12  N   UNL     1     -11.424  13.199  67.467  1.00  0.00    -0.308 NA 
HETATM   13  C   UNL     1     -12.111  12.679  69.782  1.00  0.00    -0.301 C  
HETATM   14  C   UNL     1     -12.646  11.658  70.704  1.00  0.00    -0.230 C  
HETATM   15  C   UNL     1     -11.791  14.047  70.192  1.00  0.00    -0.306 C  
HETATM   16  C   UNL     1     -11.875  12.362  68.500  1.00  0.00    -0.304 C  
HETATM   17  O   UNL     1     -12.861  10.497  70.371  1.00  0.00    -0.331 OA 
HETATM   18  O   UNL     1     -11.979  14.403  71.353  1.00  0.00    -0.344 OA 
HETATM   19  C   UNL     1     -11.259  14.974  69.174  1.00  0.00    -0.293 A  
HETATM   20  O   UNL     1     -12.915  12.103  71.952  1.00  0.00    -0.387 OA 
HETATM   21  C   UNL     1     -10.906  16.252  69.606  1.00  0.00    -0.345 A  
HETATM   22  C   UNL     1     -10.436  17.177  68.691  1.00  0.00    -0.366 A  
HETATM   23  F   UNL     1     -10.074  18.378  69.167  1.00  0.00    -0.377 F  
HETATM   24  C   UNL     1     -10.398  16.910  67.313  1.00  0.00    -0.309 A  
HETATM   25  C   UNL     1     -10.909  15.648  66.892  1.00  0.00    -0.282 A  
HETATM   26 CL   UNL     1     -11.594  15.563  65.277  1.00  0.00    -0.085 Cl 
HETATM   27  C   UNL     1     -11.184  14.593  67.815  1.00  0.00    -0.308 A  
BRANCH  24  28
HETATM   28  N   UNL     1      -9.899  17.903  66.426  1.00  0.00    -0.348 NA 
HETATM   29  C   UNL     1      -8.619  18.541  66.355  1.00  0.00    -0.256 C  
HETATM   30  C   UNL     1      -9.328  19.854  65.995  1.00  0.00    -0.292 C  
HETATM   31  C   UNL     1     -10.599  19.011  65.838  1.00  0.00    -0.393 C  
HETATM   32  O   UNL     1      -9.347  20.874  67.025  1.00  0.00    -0.651 OA 
HETATM   33  H   UNL     1      -9.787  21.687  66.802  1.00  0.00     0.000 HD 
ENDBRANCH  24  28
ENDBRANCH   6  12
TORSDOF 2
ENDMDL
MODEL        3
REMARK 921   NORMALIZED FREE ENERGY PREDICTED BY IDOCK:   -8.79 KCAL/MOL
REMARK 922        TOTAL FREE ENERGY PREDICTED BY IDOCK:  -10.66 KCAL/MOL
REMARK 923 INTER-LIGAND FREE ENERGY PREDICTED BY IDOCK:   -9.89 KCAL/MOL
REMARK 924 INTRA-LIGAND FREE ENERGY PREDICTED BY IDOCK:   -0.77 KCAL/MOL
REMARK 927      BINDING AFFINITY PREDICTED BY RF-SCORE:    0.00 PKD
ROOT
HETATM    1  N   UNL     1     -10.922  19.375  65.799  1.00  0.00    -0.286 NA 
HETATM    2  H1  UNL     1     -10.505  20.103  65.218  1.00  0.00     0.000 HD 
HETATM    3  C   UNL     1     -10.103  18.819  66.784  1.00  0.00    -0.369 A  
HETATM    4  H2  UNL     1     -11.781  19.725  66.223  1.00  0.00     0.000 HD 
HETATM    5  N   UNL     1     -10.656  17.854  67.553  1.00  0.00    -0.392 NA 
HETATM    6  C   UNL     1      -9.871  17.176  68.439  1.00  0.00    -0.296 A  
HETATM    7  F   UNL     1      -8.272  20.205  66.163  1.00  0.00    -0.313 F  
HETATM    8  C   UNL     1      -8.530  17.586  68.624  1.00  0.00    -0.258 A  
HETATM    9  C   UNL     1      -8.790  19.252  66.949  1.00  0.00    -0.303 A  
HETATM   10  F   UNL     1      -7.696  16.944  69.454  1.00  0.00    -0.227 F  
HETATM   11  C   UNL     1      -7.995  18.643  67.897  1.00  0.00    -0.278 A  
ENDROOT
BRANCH   6  12
HETATM   12  N   UNL     1     -10.421  16.027  69.142  1.00  0.00    -0.232 NA 
HETATM   13  C   UNL     1     -11.705  15.357  71.143  1.00  0.00    -0.418 C  
HETATM   14  C   UNL     1     -12.131  15.722  72.508  1.00  0.00    -0.489 C  
HETATM   15  C   UNL     1     -12.071  14.096  70.496  1.00  0.00    -0.350 C  
HETATM   16  C   UNL     1     -10.964  16.212  70.424  1.00  0.00    -0.309 C  
HETATM   17  O   UNL     1     -11.870  16.803  73.028  1.00  0.00    -0.452 OA 
HETATM   18  O   UNL     1     -12.752  13.269  71.097  1.00  0.00    -0.357 OA 
HETATM   19  C   UNL     1     -11.584  13.850  69.124  1.00  0.00    -0.359 A  
HETATM   20  O   UNL     1     -12.812  14.760  73.169  1.00  0.00    -0.463 OA 
HETATM   21  C   UNL     1     -11.996  12.668  68.510  1.00  0.00    -0.258 A  
HETATM   22  C   UNL     1     -11.543  12.365  67.238  1.00  0.00    -0.365 A  
HETATM   23  F   UNL     1     -12.003  11.235  66.680  1.00  0.00    -0.070 F  
HETATM   24  C   UNL     1     -10.592  13.158  66.576  1.00  0.00    -0.284 A  
HETATM   25  C   UNL     1     -10.079  14.275  67.297  1.00  0.00    -0.252 A  
HETATM   26 CL   UNL     1      -8.447  14.794  66.907  1.00  0.00    -0.250 Cl 
HETATM   27  C   UNL     1     -10.684  14.745  68.503  1.00  0.00    -0.247 A  
BRANCH  24  28
HETATM   28  N   UNL     1     -10.171  12.792  65.269  1.00  0.00    -0.288 NA 
HETATM   29  C   UNL     1     -10.556  13.294  63.984  1.00  0.00    -0.192 C  
HETATM   30  C   UNL     1     -10.484  11.861  63.437  1.00  0.00    -0.441 C  
HETATM   31  C   UNL     1      -9.825  11.489  64.771  1.00  0.00    -0.249 C  
HETATM   32  O   UNL     1     -11.751  11.225  63.138  1.00  0.00    -0.840 OA 
HETATM   33  H   UNL     1     -11.707  10.338  62.800  1.00  0.00     0.000 HD 
ENDBRANCH  24  28
ENDBRANCH   6  12
TORSDOF 2
ENDMDL
MODEL        4
REMARK 921   NORMALIZED FREE ENERGY PREDICTED BY IDOCK:   -8.59 KCAL/MOL
REMARK 922        TOTAL FREE ENERGY PREDICTED BY IDOCK:  -10.43 KCAL/MOL
REMARK 923 INTER-LIGAND FREE ENERGY PREDICTED BY IDOCK:   -9.67 KCAL/MOL
REMARK 924 INTRA-LIGAND FREE ENERGY PREDICTED BY IDOCK:   -0.76 KCAL/MOL
REMARK 927      BINDING AFFINITY PREDICTED BY RF-SCORE:    0.00 PKD
ROOT
HETATM    1  N   UNL     1      -7.490  11.206  65.721  1.00  0.00    -0.370 NA 
HETATM    2  H1  UNL     1      -7.039  10.845  64.880  1.00  0.00     0.000 HD 
HETATM    3  C   UNL     1      -8.863  11.450  65.636  1.00  0.00    -0.076 A  
HETATM    4  H2  UNL     1      -7.301  10.583  66.506  1.00  0.00     0.000 HD 
HETATM    5  N   UNL     1      -9.461  11.928  66.751  1.00  0.00    -0.195 NA 
HETATM    6  C   UNL     1     -10.767  12.315  66.692  1.00  0.00    -0.245 A  
HETATM    7  F   UNL     1      -8.933  10.737  63.366  1.00  0.00    -0.176 F  
HETATM    8  C   UNL     1     -11.500  12.088  65.504  1.00  0.00    -0.313 A  
HETATM    9  C   UNL     1      -9.560  11.204  64.456  1.00  0.00    -0.250 A  
HETATM   10  F   UNL     1     -12.777  12.473  65.369  1.00  0.00    -0.506 F  
HETATM   11  C   UNL     1     -10.904  11.507  64.392  1.00  0.00    -0.405 A  
ENDROOT
BRANCH   6  12
HETATM   12  N   UNL     1     -11.361  12.987  67.838  1.00  0.00    -0.270 NA 
HETATM   13  C   UNL     1     -12.278  12.608  70.100  1.00  0.00    -0.310 C  
HETATM   14  C   UNL     1     -12.875  11.635  71.037  1.00  0.00    -0.245 C  
HETATM   15  C   UNL     1     -12.053  14.014  70.436  1.00  0.00    -0.356 C  
HETATM   16  C   UNL     1     -11.893  12.209  68.879  1.00  0.00    -0.304 C  
HETATM   17  O   UNL     1     -13.012  10.445  70.773  1.00  0.00    -0.375 OA 
HETATM   18  O   UNL     1     -12.379  14.445  71.539  1.00  0.00    -0.336 OA 
HETATM   19  C   UNL     1     -11.445  14.887  69.411  1.00  0.00    -0.324 A  
HETATM   20  O   UNL     1     -13.294  12.158  72.211  1.00  0.00    -0.500 OA 
HETATM   21  C   UNL     1     -11.187  16.207  69.778  1.00  0.00    -0.343 A  
HETATM   22  C   UNL     1     -10.652  17.082  68.849  1.00  0.00    -0.328 A  
HETATM   23  F   UNL     1     -10.387  18.329  69.268  1.00  0.00    -0.371 F  
HETATM   24  C   UNL     1     -10.455  16.717  67.508  1.00  0.00    -0.319 A  
HETATM   25  C   UNL     1     -10.873  15.407  67.134  1.00  0.00    -0.321 A  
HETATM   26 CL   UNL     1     -11.374  15.175  65.467  1.00  0.00    -0.314 Cl 
HETATM   27  C   UNL     1     -11.210  14.412  68.102  1.00  0.00    -0.281 A  
BRANCH  24  28
HETATM   28  N   UNL     1      -9.897  17.663  66.606  1.00  0.00    -0.295 NA 
HETATM   29  C   UNL     1      -8.619  18.308  66.592  1.00  0.00    -0.273 C  
HETATM   30  C   UNL     1      -9.306  19.592  66.108  1.00  0.00    -0.351 C  
HETATM   31  C   UNL     1     -10.558  18.730  65.906  1.00  0.00    -0.352 C  
HETATM   32  O   UNL     1      -9.406  20.669  67.074  1.00  0.00    -0.565 OA 
HETATM   33  H   UNL     1      -9.831  21.464  66.774  1.00  0.00     0.000 HD 
ENDBRANCH  24  28
ENDBRANCH   6  12
TORSDOF 2
ENDMDL
MODEL        5
REMARK 921   NORMALIZED FREE ENERGY PREDICTED BY IDOCK:   -8.52 KCAL/MOL
REMARK 922        TOTAL FREE ENERGY PREDICTED BY IDOCK:  -10.35 KCAL/MOL
REMARK 923 INTER-LIGAND FREE ENERGY PREDICTED BY IDOCK:   -9.48 KCAL/MOL
REMARK 924 INTRA-LIGAND FREE ENERGY PREDICTED BY IDOCK:   -0.87 KCAL/MOL
REMARK 927      BINDING AFFINITY PREDICTED BY RF-SCORE:    0.00 PKD
ROOT
HETATM    1  N   UNL     1     -14.202  15.549  71.327  1.00  0.00    -0.741 NA 
HETATM    2  H1  UNL     1     -14.179  16.213  72.100  1.00  0.00     0.000 HD 
HETATM    3  C   UNL     1     -12.972  15.215  70.755  1.00  0.00    -0.414 A  
HETATM    4  H2  UNL     1     -14.687  14.700  71.618  1.00  0.00     0.000 HD 
HETATM    5  N   UNL     1     -13.002  14.335  69.730  1.00  0.00     0.182 NA 
HETATM    6  C   UNL     1     -11.854  14.074  69.041  1.00  0.00    -0.354 A  
HETATM    7  F   UNL     1     -11.796  16.649  72.247  1.00  0.00    -0.553 F  
HETATM    8  C   UNL     1     -10.637  14.631  69.497  1.00  0.00    -0.149 A  
HETATM    9  C   UNL     1     -11.788  15.772  71.234  1.00  0.00    -0.437 A  
HETATM   10  F   UNL     1      -9.478  14.440  68.849  1.00  0.00    -0.200 F  
HETATM   11  C   UNL     1     -10.598  15.460  70.611  1.00  0.00    -0.165 A  
ENDROOT
BRANCH   6  12
HETATM   12  N   UNL     1     -11.918  13.261  67.835  1.00  0.00    -0.338 NA 
HETATM   13  C   UNL     1     -12.040  13.377  65.372  1.00  0.00    -0.457 C  
HETATM   14  C   UNL     1     -12.403  14.194  64.197  1.00  0.00    -0.335 C  
HETATM   15  C   UNL     1     -11.521  12.012  65.274  1.00  0.00    -0.302 C  
HETATM   16  C   UNL     1     -12.158  13.891  66.604  1.00  0.00    -0.448 C  
HETATM   17  O   UNL     1     -12.785  15.357  64.279  1.00  0.00    -0.480 OA 
HETATM   18  O   UNL     1     -11.384  11.482  64.174  1.00  0.00    -0.342 OA 
HETATM   19  C   UNL     1     -11.191  11.300  66.525  1.00  0.00    -0.222 A  
HETATM   20  O   UNL     1     -12.315  13.555  63.009  1.00  0.00    -0.661 OA 
HETATM   21  C   UNL     1     -10.644  10.024  66.399  1.00  0.00    -0.138 A  
HETATM   22  C   UNL     1     -10.347   9.293  67.536  1.00  0.00    -0.262 A  
HETATM   23  F   UNL     1      -9.786   8.088  67.358  1.00  0.00    -0.162 F  
HETATM   24  C   UNL     1     -10.678   9.749  68.823  1.00  0.00    -0.215 A  
HETATM   25  C   UNL     1     -11.375  10.990  68.902  1.00  0.00    -0.280 A  
HETATM   26 CL   UNL     1     -12.448  11.215  70.274  1.00  0.00    -0.370 Cl 
HETATM   27  C   UNL     1     -11.491  11.869  67.783  1.00  0.00    -0.319 A  
BRANCH  24  28
HETATM   28  N   UNL     1     -10.342   8.951  69.950  1.00  0.00    -0.200 NA 
HETATM   29  C   UNL     1     -10.890   7.715  70.422  1.00  0.00    -0.244 C  
HETATM   30  C   UNL     1     -10.723   8.225  71.860  1.00  0.00    -0.283 C  
HETATM   31  C   UNL     1      -9.912   9.377  71.253  1.00  0.00    -0.204 C  
HETATM   32  O   UNL     1     -11.942   8.585  72.558  1.00  0.00    -0.389 OA 
HETATM   33  H   UNL     1     -11.839   8.902  73.448  1.00  0.00     0.000 HD 
ENDBRANCH  24  28
ENDBRANCH   6  12
TORSDOF 2
ENDMDL
MODEL        6
REMARK 921   NORMALIZED FREE ENERGY PREDICTED BY IDOCK:   -8.48 KCAL/MOL
REMARK 922        TOTAL FREE ENERGY PREDICTED BY IDOCK:  -10.32 KCAL/MOL
REMARK 923 INTER-LIGAND FREE ENERGY PREDICTED BY IDOCK:   -9.22 KCAL/MOL
REMARK 924 INTRA-LIGAND FREE ENERGY PREDICTED BY IDOCK:   -1.10 KCAL/MOL
REMARK 927      BINDING AFFINITY PREDICTED BY RF-SCORE:    0.00 PKD
ROOT
HETATM    1  N   UNL     1     -12.602  14.190  63.916  1.00  0.00    -0.840 NA 
HETATM    2  H1  UNL     1     -12.446  14.656  63.022  1.00  0.00     0.000 HD 
HETATM    3  C   UNL     1     -12.009  14.777  65.036  1.00  0.00    -0.318 A  
HETATM    4  H2  UNL     1     -13.603  14.079  64.075  1.00  0.00     0.000 HD 
HETATM    5  N   UNL     1     -12.216  14.159  66.221  1.00  0.00    -0.455 NA 
HETATM    6  C   UNL     1     -11.554  14.602  67.327  1.00  0.00    -0.387 A  
HETATM    7  F   UNL     1     -11.060  16.520  63.724  1.00  0.00     0.100 F  
HETATM    8  C   UNL     1     -10.769  15.774  67.237  1.00  0.00    -0.313 A  
HETATM    9  C   UNL     1     -11.251  15.938  64.916  1.00  0.00    -0.337 A  
HETATM   10  F   UNL     1     -10.067  16.245  68.278  1.00  0.00    -0.225 F  
HETATM   11  C   UNL     1     -10.638  16.460  66.036  1.00  0.00    -0.275 A  
ENDROOT
BRANCH   6  12
HETATM   12  N   UNL     1     -11.643  13.836  68.562  1.00  0.00    -0.314 NA 
HETATM   13  C   UNL     1     -12.785  13.728  70.749  1.00  0.00    -0.361 C  
HETATM   14  C   UNL     1     -13.526  14.473  71.786  1.00  0.00    -0.375 C  
HETATM   15  C   UNL     1     -12.459  12.306  70.858  1.00  0.00    -0.276 C  
HETATM   16  C   UNL     1     -12.396  14.353  69.628  1.00  0.00    -0.255 C  
HETATM   17  O   UNL     1     -13.847  15.651  71.668  1.00  0.00    -0.475 OA 
HETATM   18  O   UNL     1     -12.790  11.672  71.858  1.00  0.00    -0.364 OA 
HETATM   19  C   UNL     1     -11.715  11.674  69.750  1.00  0.00    -0.425 A  
HETATM   20  O   UNL     1     -13.805  13.768  72.905  1.00  0.00    -0.668 OA 
HETATM   21  C   UNL     1     -11.470  10.305  69.853  1.00  0.00    -0.340 A  
HETATM   22  C   UNL     1     -10.746   9.664  68.864  1.00  0.00    -0.206 A  
HETATM   23  F   UNL     1     -10.574   8.340  68.994  1.00  0.00    -0.219 F  
HETATM   24  C   UNL     1     -10.152  10.365  67.802  1.00  0.00    -0.181 A  
HETATM   25  C   UNL     1     -10.295  11.783  67.813  1.00  0.00    -0.194 A  
HETATM   26 CL   UNL     1      -9.019  12.719  67.051  1.00  0.00    -0.216 Cl 
HETATM   27  C   UNL     1     -11.217  12.447  68.678  1.00  0.00    -0.271 A  
BRANCH  24  28
HETATM   28  N   UNL     1      -9.424   9.646  66.816  1.00  0.00    -0.154 NA 
HETATM   29  C   UNL     1      -8.028   9.341  66.715  1.00  0.00    -0.108 C  
HETATM   30  C   UNL     1      -8.121   9.561  65.199  1.00  0.00    -0.126 C  
HETATM   31  C   UNL     1      -9.642   9.602  65.396  1.00  0.00    -0.291 C  
HETATM   32  O   UNL     1      -7.499  10.766  64.687  1.00  0.00    -0.351 OA 
HETATM   33  H   UNL     1      -7.556  10.903  63.748  1.00  0.00     0.000 HD 
ENDBRANCH  24  28
ENDBRANCH   6  12
TORSDOF 2
ENDMDL
MODEL        7
REMARK 921   NORMALIZED FREE ENERGY PREDICTED BY IDOCK:   -8.47 KCAL/MOL
REMARK 922        TOTAL FREE ENERGY PREDICTED BY IDOCK:  -10.30 KCAL/MOL
REMARK 923 INTER-LIGAND FREE ENERGY PREDICTED BY IDOCK:  -10.00 KCAL/MOL
REMARK 924 INTRA-LIGAND FREE ENERGY PREDICTED BY IDOCK:   -0.30 KCAL/MOL
REMARK 927      BINDING AFFINITY PREDICTED BY RF-SCORE:    0.00 PKD
ROOT
HETATM    1  N   UNL     1     -10.925  16.471  64.447  1.00  0.00    -1.130 NA 
HETATM    2  H1  UNL     1     -10.639  17.234  63.834  1.00  0.00     0.000 HD 
HETATM    3  C   UNL     1     -10.869  16.721  65.821  1.00  0.00    -0.087 A  
HETATM    4  H2  UNL     1     -11.862  16.159  64.193  1.00  0.00     0.000 HD 
HETATM    5  N   UNL     1     -11.248  15.709  66.633  1.00  0.00    -0.152 NA 
HETATM    6  C   UNL     1     -11.086  15.840  67.981  1.00  0.00    -0.337 A  
HETATM    7  F   UNL     1     -10.067  18.934  65.470  1.00  0.00    -0.221 F  
HETATM    8  C   UNL     1     -10.647  17.078  68.504  1.00  0.00    -0.370 A  
HETATM    9  C   UNL     1     -10.443  17.955  66.305  1.00  0.00    -0.320 A  
HETATM   10  F   UNL     1     -10.437  17.265  69.815  1.00  0.00    -0.269 F  
HETATM   11  C   UNL     1     -10.350  18.147  67.667  1.00  0.00    -0.411 A  
ENDROOT
BRANCH   6  12
HETATM   12  N   UNL     1     -11.332  14.693  68.842  1.00  0.00    -0.268 NA 
HETATM   13  C   UNL     1     -12.601  13.936  70.821  1.00  0.00    -0.424 C  
HETATM   14  C   UNL     1     -13.307  14.337  72.054  1.00  0.00    -0.398 C  
HETATM   15  C   UNL     1     -12.449  12.544  70.396  1.00  0.00    -0.138 C  
HETATM   16  C   UNL     1     -12.079  14.874  70.016  1.00  0.00    -0.338 C  
HETATM   17  O   UNL     1     -13.482  15.507  72.379  1.00  0.00    -0.426 OA 
HETATM   18  O   UNL     1     -12.907  11.636  71.085  1.00  0.00    -0.364 OA 
HETATM   19  C   UNL     1     -11.722  12.274  69.140  1.00  0.00    -0.377 A  
HETATM   20  O   UNL     1     -13.730  13.312  72.827  1.00  0.00    -0.669 OA 
HETATM   21  C   UNL     1     -11.644  10.943  68.729  1.00  0.00    -0.378 A  
HETATM   22  C   UNL     1     -10.945  10.624  67.578  1.00  0.00    -0.310 A  
HETATM   23  F   UNL     1     -10.936   9.335  67.209  1.00  0.00    -0.340 F  
HETATM   24  C   UNL     1     -10.215  11.583  66.859  1.00  0.00    -0.217 A  
HETATM   25  C   UNL     1     -10.193  12.904  67.395  1.00  0.00    -0.230 A  
HETATM   26 CL   UNL     1      -8.775  13.881  67.048  1.00  0.00    -0.232 Cl 
HETATM   27  C   UNL     1     -11.078  13.316  68.437  1.00  0.00    -0.270 A  
BRANCH  24  28
HETATM   28  N   UNL     1      -9.521  11.189  65.683  1.00  0.00    -0.216 NA 
HETATM   29  C   UNL     1     -10.000  10.653  64.444  1.00  0.00    -0.350 C  
HETATM   30  C   UNL     1      -8.769   9.739  64.399  1.00  0.00    -0.206 C  
HETATM   31  C   UNL     1      -8.230  10.569  65.570  1.00  0.00    -0.162 C  
HETATM   32  O   UNL     1      -9.006   8.331  64.653  1.00  0.00    -0.397 OA 
HETATM   33  H   UNL     1      -8.243   7.765  64.625  1.00  0.00     0.000 HD 
ENDBRANCH  24  28
ENDBRANCH   6  12
TORSDOF 2
ENDMDL
MODEL        8
REMARK 921   NORMALIZED FREE ENERGY PREDICTED BY IDOCK:   -8.45 KCAL/MOL
REMARK 922        TOTAL FREE ENERGY PREDICTED BY IDOCK:  -10.27 KCAL/MOL
REMARK 923 INTER-LIGAND FREE ENERGY PREDICTED BY IDOCK:   -9.32 KCAL/MOL
REMARK 924 INTRA-LIGAND FREE ENERGY PREDICTED BY IDOCK:   -0.96 KCAL/MOL
REMARK 927      BINDING AFFINITY PREDICTED BY RF-SCORE:    0.00 PKD
ROOT
HETATM    1  N   UNL     1     -12.823  12.097  64.446  1.00  0.00    -0.645 NA 
HETATM    2  H1  UNL     1     -12.556  12.153  63.463  1.00  0.00     0.000 HD 
HETATM    3  C   UNL     1     -11.924  12.640  65.368  1.00  0.00    -0.446 A  
HETATM    4  H2  UNL     1     -13.743  12.515  64.577  1.00  0.00     0.000 HD 
HETATM    5  N   UNL     1     -12.277  12.565  66.670  1.00  0.00    -0.507 NA 
HETATM    6  C   UNL     1     -11.384  12.952  67.626  1.00  0.00    -0.303 A  
HETATM    7  F   UNL     1     -10.411  13.275  63.644  1.00  0.00    -0.281 F  
HETATM    8  C   UNL     1     -10.163  13.542  67.229  1.00  0.00    -0.242 A  
HETATM    9  C   UNL     1     -10.734  13.225  64.944  1.00  0.00    -0.351 A  
HETATM   10  F   UNL     1      -9.228  13.915  68.115  1.00  0.00    -0.175 F  
HETATM   11  C   UNL     1      -9.847  13.704  65.885  1.00  0.00    -0.263 A  
ENDROOT
BRANCH   6  12
HETATM   12  N   UNL     1     -11.696  12.713  69.028  1.00  0.00    -0.305 NA 
HETATM   13  C   UNL     1     -12.921  13.624  70.969  1.00  0.00    -0.303 C  
HETATM   14  C   UNL     1     -13.515  14.822  71.594  1.00  0.00    -0.384 C  
HETATM   15  C   UNL     1     -12.933  12.301  71.593  1.00  0.00    -0.311 C  
HETATM   16  C   UNL     1     -12.355  13.715  69.757  1.00  0.00    -0.228 C  
HETATM   17  O   UNL     1     -13.553  15.919  71.045  1.00  0.00    -0.455 OA 
HETATM   18  O   UNL     1     -13.441  12.146  72.701  1.00  0.00    -0.213 OA 
HETATM   19  C   UNL     1     -12.308  11.180  70.863  1.00  0.00    -0.500 A  
HETATM   20  O   UNL     1     -13.994  14.635  72.844  1.00  0.00    -0.514 OA 
HETATM   21  C   UNL     1     -12.386   9.919  71.454  1.00  0.00    -0.498 A  
HETATM   22  C   UNL     1     -11.787   8.836  70.834  1.00  0.00    -0.230 A  
HETATM   23  F   UNL     1     -11.927   7.641  71.427  1.00  0.00    -0.286 F  
HETATM   24  C   UNL     1     -11.006   8.978  69.676  1.00  0.00    -0.136 A  
HETATM   25  C   UNL     1     -10.823  10.304  69.187  1.00  0.00    -0.233 A  
HETATM   26 CL   UNL     1      -9.336  10.632  68.311  1.00  0.00    -0.151 Cl 
HETATM   27  C   UNL     1     -11.603  11.403  69.659  1.00  0.00    -0.330 A  
BRANCH  24  28
HETATM   28  N   UNL     1     -10.421   7.824  69.088  1.00  0.00    -0.219 NA 
HETATM   29  C   UNL     1     -11.017   6.705  68.420  1.00  0.00    -0.239 C  
HETATM   30  C   UNL     1      -9.977   5.793  69.086  1.00  0.00    -0.177 C  
HETATM   31  C   UNL     1      -9.270   7.082  69.523  1.00  0.00    -0.149 C  
HETATM   32  O   UNL     1     -10.466   4.929  70.142  1.00  0.00    -0.244 OA 
HETATM   33  H   UNL     1      -9.822   4.364  70.554  1.00  0.00     0.000 HD 
ENDBRANCH  24  28
ENDBRANCH   6  12
TORSDOF 2
ENDMDL
MODEL        9
REMARK 921   NORMALIZED FREE ENERGY PREDICTED BY IDOCK:   -8.16 KCAL/MOL
REMARK 922        TOTAL FREE ENERGY PREDICTED BY IDOCK:   -9.95 KCAL/MOL
REMARK 923 INTER-LIGAND FREE ENERGY PREDICTED BY IDOCK:   -8.93 KCAL/MOL
REMARK 924 INTRA-LIGAND FREE ENERGY PREDICTED BY IDOCK:   -1.02 KCAL/MOL
REMARK 927      BINDING AFFINITY PREDICTED BY RF-SCORE:    0.00 PKD
ROOT
HETATM    1  N   UNL     1      -8.191  18.405  68.591  1.00  0.00    -0.315 NA 
HETATM    2  H1  UNL     1      -7.930  19.214  68.027  1.00  0.00     0.000 HD 
HETATM    3  C   UNL     1      -9.036  17.471  67.987  1.00  0.00    -0.258 A  
HETATM    4  H2  UNL     1      -7.351  17.938  68.932  1.00  0.00     0.000 HD 
HETATM    5  N   UNL     1      -9.382  16.399  68.734  1.00  0.00    -0.236 NA 
HETATM    6  C   UNL     1     -10.311  15.523  68.254  1.00  0.00    -0.235 A  
HETATM    7  F   UNL     1      -9.127  18.732  65.971  1.00  0.00    -0.298 F  
HETATM    8  C   UNL     1     -10.792  15.685  66.934  1.00  0.00    -0.282 A  
HETATM    9  C   UNL     1      -9.484  17.653  66.681  1.00  0.00    -0.279 A  
HETATM   10  F   UNL     1     -11.727  14.880  66.411  1.00  0.00    -0.356 F  
HETATM   11  C   UNL     1     -10.358  16.737  66.135  1.00  0.00    -0.338 A  
ENDROOT
BRANCH   6  12
HETATM   12  N   UNL     1     -10.809  14.468  69.123  1.00  0.00    -0.259 NA 
HETATM   13  C   UNL     1     -12.404  13.991  70.948  1.00  0.00    -0.443 C  
HETATM   14  C   UNL     1     -13.203  14.548  72.057  1.00  0.00    -0.362 C  
HETATM   15  C   UNL     1     -12.381  12.568  70.607  1.00  0.00    -0.282 C  
HETATM   16  C   UNL     1     -11.669  14.808  70.179  1.00  0.00    -0.301 C  
HETATM   17  O   UNL     1     -13.265  15.748  72.305  1.00  0.00    -0.445 OA 
HETATM   18  O   UNL     1     -13.035  11.765  71.268  1.00  0.00    -0.359 OA 
HETATM   19  C   UNL     1     -11.542  12.137  69.471  1.00  0.00    -0.382 A  
HETATM   20  O   UNL     1     -13.848  13.630  72.811  1.00  0.00    -0.727 OA 
HETATM   21  C   UNL     1     -11.584  10.784  69.132  1.00  0.00    -0.376 A  
HETATM   22  C   UNL     1     -10.793  10.314  68.100  1.00  0.00    -0.265 A  
HETATM   23  F   UNL     1     -10.903   9.013  67.791  1.00  0.00    -0.293 F  
HETATM   24  C   UNL     1      -9.860  11.132  67.442  1.00  0.00    -0.173 A  
HETATM   25  C   UNL     1      -9.736  12.470  67.919  1.00  0.00    -0.205 A  
HETATM   26 CL   UNL     1      -8.172  13.245  67.721  1.00  0.00    -0.154 Cl 
HETATM   27  C   UNL     1     -10.685  13.049  68.815  1.00  0.00    -0.221 A  
BRANCH  24  28
HETATM   28  N   UNL     1      -9.080  10.587  66.387  1.00  0.00    -0.159 NA 
HETATM   29  C   UNL     1      -9.442  10.193  65.058  1.00  0.00    -0.271 C  
HETATM   30  C   UNL     1      -8.479   9.004  65.182  1.00  0.00    -0.167 C  
HETATM   31  C   UNL     1      -7.978   9.669  66.470  1.00  0.00    -0.112 C  
HETATM   32  O   UNL     1      -9.090   7.697  65.320  1.00  0.00    -0.372 OA 
HETATM   33  H   UNL     1      -8.494   6.961  65.397  1.00  0.00     0.000 HD 
ENDBRANCH  24  28
ENDBRANCH   6  12
TORSDOF 2
ENDMDL
MODEL       10
REMARK 921   NORMALIZED FREE ENERGY PREDICTED BY IDOCK:   -8.11 KCAL/MOL
REMARK 922        TOTAL FREE ENERGY PREDICTED BY IDOCK:   -9.90 KCAL/MOL
REMARK 923 INTER-LIGAND FREE ENERGY PREDICTED BY IDOCK:   -9.27 KCAL/MOL
REMARK 924 INTRA-LIGAND FREE ENERGY PREDICTED BY IDOCK:   -0.62 KCAL/MOL
REMARK 927      BINDING AFFINITY PREDICTED BY RF-SCORE:    0.00 PKD
ROOT
HETATM    1  N   UNL     1      -6.711  16.821  69.332  1.00  0.00    -0.235 NA 
HETATM    2  H1  UNL     1      -6.251  17.731  69.319  1.00  0.00     0.000 HD 
HETATM    3  C   UNL     1      -7.555  16.534  68.257  1.00  0.00    -0.170 A  
HETATM    4  H2  UNL     1      -6.011  16.085  69.426  1.00  0.00     0.000 HD 
HETATM    5  N   UNL     1      -8.164  15.327  68.275  1.00  0.00    -0.139 NA 
HETATM    6  C   UNL     1      -9.104  15.042  67.329  1.00  0.00    -0.201 A  
HETATM    7  F   UNL     1      -7.129  18.648  67.250  1.00  0.00    -0.200 F  
HETATM    8  C   UNL     1      -9.325  15.962  66.278  1.00  0.00    -0.322 A  
HETATM    9  C   UNL     1      -7.743  17.456  67.231  1.00  0.00    -0.200 A  
HETATM   10  F   UNL     1     -10.256  15.757  65.334  1.00  0.00    -0.329 F  
HETATM   11  C   UNL     1      -8.625  17.160  66.213  1.00  0.00    -0.276 A  
ENDROOT
BRANCH   6  12
HETATM   12  N   UNL     1      -9.881  13.816  67.446  1.00  0.00    -0.234 NA 
HETATM   13  C   UNL     1      -9.968  11.450  66.743  1.00  0.00    -0.238 C  
HETATM   14  C   UNL     1      -9.532  10.446  65.753  1.00  0.00    -0.198 C  
HETATM   15  C   UNL     1     -10.844  11.138  67.874  1.00  0.00    -0.235 C  
HETATM   16  C   UNL     1      -9.539  12.717  66.643  1.00  0.00    -0.249 C  
HETATM   17  O   UNL     1      -8.754  10.698  64.838  1.00  0.00    -0.184 OA 
HETATM   18  O   UNL     1     -11.270   9.996  68.027  1.00  0.00    -0.244 OA 
HETATM   19  C   UNL     1     -11.206  12.232  68.798  1.00  0.00    -0.312 A  
HETATM   20  O   UNL     1     -10.081   9.220  65.905  1.00  0.00    -0.293 OA 
HETATM   21  C   UNL     1     -11.993  11.895  69.898  1.00  0.00    -0.398 A  
HETATM   22  C   UNL     1     -12.394  12.883  70.780  1.00  0.00    -0.299 A  
HETATM   23  F   UNL     1     -13.116  12.496  71.842  1.00  0.00    -0.484 F  
HETATM   24  C   UNL     1     -12.125  14.241  70.549  1.00  0.00    -0.343 A  
HETATM   25  C   UNL     1     -11.451  14.563  69.335  1.00  0.00    -0.285 A  
HETATM   26 CL   UNL     1     -11.772  16.144  68.640  1.00  0.00    -0.305 Cl 
HETATM   27  C   UNL     1     -10.827  13.566  68.526  1.00  0.00    -0.264 A  
BRANCH  24  28
HETATM   28  N   UNL     1     -12.563  15.206  71.497  1.00  0.00    -0.325 NA 
HETATM   29  C   UNL     1     -11.827  16.142  72.293  1.00  0.00    -0.536 C  
HETATM   30  C   UNL     1     -12.803  15.880  73.448  1.00  0.00    -0.576 C  
HETATM   31  C   UNL     1     -13.656  15.118  72.426  1.00  0.00    -0.470 C  
HETATM   32  O   UNL     1     -12.285  15.113  74.564  1.00  0.00    -0.729 OA 
HETATM   33  H   UNL     1     -12.890  14.951  75.279  1.00  0.00     0.000 HD 
ENDBRANCH  24  28
ENDBRANCH   6  12
TORSDOF 2
ENDMDL
MODEL       11
REMARK 921   NORMALIZED FREE ENERGY PREDICTED BY IDOCK:   -8.08 KCAL/MOL
REMARK 922        TOTAL FREE ENERGY PREDICTED BY IDOCK:   -9.86 KCAL/MOL
REMARK 923 INTER-LIGAND FREE ENERGY PREDICTED BY IDOCK:   -8.84 KCAL/MOL
REMARK 924 INTRA-LIGAND FREE ENERGY PREDICTED BY IDOCK:   -1.02 KCAL/MOL
REMARK 927      BINDING AFFINITY PREDICTED BY RF-SCORE:    0.00 PKD
ROOT
HETATM    1  N   UNL     1      -9.874  17.341  66.190  1.00  0.00    -0.431 NA 
HETATM    2  H1  UNL     1      -9.853  17.876  65.322  1.00  0.00     0.000 HD 
HETATM    3  C   UNL     1     -10.523  16.105  66.145  1.00  0.00    -0.325 A  
HETATM    4  H2  UNL     1      -8.924  17.217  66.540  1.00  0.00     0.000 HD 
HETATM    5  N   UNL     1     -10.551  15.397  67.296  1.00  0.00    -0.288 NA 
HETATM    6  C   UNL     1     -11.286  14.249  67.355  1.00  0.00    -0.316 A  
HETATM    7  F   UNL     1     -11.064  16.379  63.844  1.00  0.00    -0.133 F  
HETATM    8  C   UNL     1     -11.895  13.760  66.176  1.00  0.00    -0.398 A  
HETATM    9  C   UNL     1     -11.103  15.646  64.966  1.00  0.00    -0.389 A  
HETATM   10  F   UNL     1     -12.656  12.657  66.170  1.00  0.00    -0.375 F  
HETATM   11  C   UNL     1     -11.782  14.446  64.972  1.00  0.00    -0.389 A  
ENDROOT
BRANCH   6  12
HETATM   12  N   UNL     1     -11.455  13.578  68.635  1.00  0.00    -0.285 NA 
HETATM   13  C   UNL     1     -12.738  13.628  70.745  1.00  0.00    -0.338 C  
HETATM   14  C   UNL     1     -13.547  14.445  71.672  1.00  0.00    -0.384 C  
HETATM   15  C   UNL     1     -12.420  12.220  70.982  1.00  0.00    -0.263 C  
HETATM   16  C   UNL     1     -12.277  14.169  69.608  1.00  0.00    -0.326 C  
HETATM   17  O   UNL     1     -13.859  15.610  71.444  1.00  0.00    -0.537 OA 
HETATM   18  O   UNL     1     -12.815  11.661  72.002  1.00  0.00    -0.335 OA 
HETATM   19  C   UNL     1     -11.604  11.511  69.975  1.00  0.00    -0.364 A  
HETATM   20  O   UNL     1     -13.898  13.824  72.819  1.00  0.00    -0.716 OA 
HETATM   21  C   UNL     1     -11.366  10.155  70.197  1.00  0.00    -0.372 A  
HETATM   22  C   UNL     1     -10.578   9.446  69.308  1.00  0.00    -0.225 A  
HETATM   23  F   UNL     1     -10.415   8.136  69.548  1.00  0.00    -0.210 F  
HETATM   24  C   UNL     1      -9.916  10.068  68.238  1.00  0.00    -0.153 A  
HETATM   25  C   UNL     1     -10.060  11.482  68.132  1.00  0.00    -0.193 A  
HETATM   26 CL   UNL     1      -8.737  12.365  67.388  1.00  0.00    -0.174 Cl 
HETATM   27  C   UNL     1     -11.037  12.204  68.883  1.00  0.00    -0.243 A  
BRANCH  24  28
HETATM   28  N   UNL     1      -9.124   9.280  67.358  1.00  0.00    -0.126 NA 
HETATM   29  C   UNL     1      -9.496   8.298  66.385  1.00  0.00    -0.221 C  
HETATM   30  C   UNL     1      -8.264   7.477  66.787  1.00  0.00    -0.124 C  
HETATM   31  C   UNL     1      -7.827   8.707  67.592  1.00  0.00    -0.103 C  
HETATM   32  O   UNL     1      -8.519   6.265  67.540  1.00  0.00    -0.109 OA 
HETATM   33  H   UNL     1      -7.756   5.756  67.789  1.00  0.00     0.000 HD 
ENDBRANCH  24  28
ENDBRANCH   6  12
TORSDOF 2
ENDMDL
MODEL       12
REMARK 921   NORMALIZED FREE ENERGY PREDICTED BY IDOCK:   -7.87 KCAL/MOL
REMARK 922        TOTAL FREE ENERGY PREDICTED BY IDOCK:   -9.63 KCAL/MOL
REMARK 923 INTER-LIGAND FREE ENERGY PREDICTED BY IDOCK:   -8.59 KCAL/MOL
REMARK 924 INTRA-LIGAND FREE ENERGY PREDICTED BY IDOCK:   -1.05 KCAL/MOL
REMARK 927      BINDING AFFINITY PREDICTED BY RF-SCORE:    0.00 PKD
ROOT
HETATM    1  N   UNL     1     -12.941  12.398  63.773  1.00  0.00    -0.775 NA 
HETATM    2  H1  UNL     1     -13.079  13.075  63.022  1.00  0.00     0.000 HD 
HETATM    3  C   UNL     1     -12.430  12.895  64.974  1.00  0.00    -0.492 A  
HETATM    4  H2  UNL     1     -13.813  11.900  63.951  1.00  0.00     0.000 HD 
HETATM    5  N   UNL     1     -12.247  11.998  65.969  1.00  0.00    -0.431 NA 
HETATM    6  C   UNL     1     -11.624  12.393  67.116  1.00  0.00    -0.365 A  
HETATM    7  F   UNL     1     -12.319  15.109  64.107  1.00  0.00    -0.507 F  
HETATM    8  C   UNL     1     -11.301  13.759  67.289  1.00  0.00    -0.321 A  
HETATM    9  C   UNL     1     -12.133  14.248  65.118  1.00  0.00    -0.410 A  
HETATM   10  F   UNL     1     -10.661  14.209  68.378  1.00  0.00    -0.231 F  
HETATM   11  C   UNL     1     -11.580  14.694  66.299  1.00  0.00    -0.344 A  
ENDROOT
BRANCH   6  12
HETATM   12  N   UNL     1     -11.274  11.394  68.115  1.00  0.00    -0.254 NA 
HETATM   13  C   UNL     1     -11.964  10.433  70.283  1.00  0.00    -0.387 C  
HETATM   14  C   UNL     1     -12.724  10.639  71.531  1.00  0.00    -0.444 C  
HETATM   15  C   UNL     1     -11.201   9.218  69.996  1.00  0.00    -0.168 C  
HETATM   16  C   UNL     1     -11.970  11.380  69.334  1.00  0.00    -0.339 C  
HETATM   17  O   UNL     1     -13.408  11.635  71.746  1.00  0.00    -0.399 OA 
HETATM   18  O   UNL     1     -11.156   8.308  70.821  1.00  0.00    -0.250 OA 
HETATM   19  C   UNL     1     -10.484   9.133  68.708  1.00  0.00    -0.236 A  
HETATM   20  O   UNL     1     -12.590   9.656  72.449  1.00  0.00    -0.280 OA 
HETATM   21  C   UNL     1      -9.814   7.940  68.436  1.00  0.00    -0.185 A  
HETATM   22  C   UNL     1      -9.095   7.814  67.261  1.00  0.00    -0.131 A  
HETATM   23  F   UNL     1      -8.504   6.632  67.032  1.00  0.00    -0.111 F  
HETATM   24  C   UNL     1      -8.924   8.887  66.372  1.00  0.00    -0.158 A  
HETATM   25  C   UNL     1      -9.495  10.134  66.759  1.00  0.00    -0.168 A  
HETATM   26 CL   UNL     1      -8.708  11.589  66.167  1.00  0.00    -0.168 Cl 
HETATM   27  C   UNL     1     -10.427  10.242  67.835  1.00  0.00    -0.212 A  
BRANCH  24  28
HETATM   28  N   UNL     1      -8.175   8.689  65.180  1.00  0.00    -0.142 NA 
HETATM   29  C   UNL     1      -6.763   8.709  64.943  1.00  0.00    -0.068 C  
HETATM   30  C   UNL     1      -7.029   9.398  63.598  1.00  0.00    -0.095 C  
HETATM   31  C   UNL     1      -8.510   9.078  63.837  1.00  0.00    -0.160 C  
HETATM   32  O   UNL     1      -6.672  10.800  63.514  1.00  0.00    -0.355 OA 
HETATM   33  H   UNL     1      -6.837  11.226  62.680  1.00  0.00     0.000 HD 
ENDBRANCH  24  28
ENDBRANCH   6  12
TORSDOF 2
ENDMDL
MODEL       13
REMARK 921   NORMALIZED FREE ENERGY PREDICTED BY IDOCK:   -7.86 KCAL/MOL
REMARK 922        TOTAL FREE ENERGY PREDICTED BY IDOCK:   -9.62 KCAL/MOL
REMARK 923 INTER-LIGAND FREE ENERGY PREDICTED BY IDOCK:   -8.84 KCAL/MOL
REMARK 924 INTRA-LIGAND FREE ENERGY PREDICTED BY IDOCK:   -0.78 KCAL/MOL
REMARK 927      BINDING AFFINITY PREDICTED BY RF-SCORE:    0.00 PKD
ROOT
HETATM    1  N   UNL     1     -10.678  16.295  64.651  1.00  0.00    -0.821 NA 
HETATM    2  H1  UNL     1     -10.317  17.208  64.373  1.00  0.00     0.000 HD 
HETATM    3  C   UNL     1      -9.935  15.595  65.605  1.00  0.00    -0.354 A  
HETATM    4  H2  UNL     1     -11.642  16.389  64.968  1.00  0.00     0.000 HD 
HETATM    5  N   UNL     1     -10.413  14.385  65.972  1.00  0.00    -0.291 NA 
HETATM    6  C   UNL     1      -9.664  13.595  66.794  1.00  0.00    -0.275 A  
HETATM    7  F   UNL     1      -8.318  17.336  65.744  1.00  0.00    -0.240 F  
HETATM    8  C   UNL     1      -8.469  14.111  67.345  1.00  0.00    -0.203 A  
HETATM    9  C   UNL     1      -8.767  16.136  66.138  1.00  0.00    -0.323 A  
HETATM   10  F   UNL     1      -7.671  13.377  68.134  1.00  0.00    -0.103 F  
HETATM   11  C   UNL     1      -8.032  15.394  67.038  1.00  0.00    -0.259 A  
ENDROOT
BRANCH   6  12
HETATM   12  N   UNL     1     -10.096  12.229  67.053  1.00  0.00    -0.212 NA 
HETATM   13  C   UNL     1      -9.676   9.871  66.451  1.00  0.00    -0.270 C  
HETATM   14  C   UNL     1      -9.122   8.939  65.449  1.00  0.00    -0.163 C  
HETATM   15  C   UNL     1     -10.311   9.432  67.694  1.00  0.00    -0.246 C  
HETATM   16  C   UNL     1      -9.587  11.194  66.252  1.00  0.00    -0.206 C  
HETATM   17  O   UNL     1      -8.540   9.309  64.435  1.00  0.00    -0.182 OA 
HETATM   18  O   UNL     1     -10.421   8.233  67.942  1.00  0.00    -0.224 OA 
HETATM   19  C   UNL     1     -10.823  10.465  68.618  1.00  0.00    -0.270 A  
HETATM   20  O   UNL     1      -9.329   7.629  65.714  1.00  0.00    -0.015 OA 
HETATM   21  C   UNL     1     -11.370  10.020  69.821  1.00  0.00    -0.281 A  
HETATM   22  C   UNL     1     -11.899  10.939  70.711  1.00  0.00    -0.319 A  
HETATM   23  F   UNL     1     -12.375  10.460  71.870  1.00  0.00    -0.456 F  
HETATM   24  C   UNL     1     -12.003  12.304  70.400  1.00  0.00    -0.263 A  
HETATM   25  C   UNL     1     -11.573  12.698  69.099  1.00  0.00    -0.320 A  
HETATM   26 CL   UNL     1     -12.352  14.106  68.395  1.00  0.00    -0.170 Cl 
HETATM   27  C   UNL     1     -10.819  11.829  68.253  1.00  0.00    -0.220 A  
BRANCH  24  28
HETATM   28  N   UNL     1     -12.553  13.195  71.361  1.00  0.00    -0.308 NA 
HETATM   29  C   UNL     1     -13.896  13.357  71.830  1.00  0.00    -0.284 C  
HETATM   30  C   UNL     1     -13.664  14.874  71.878  1.00  0.00    -0.429 C  
HETATM   31  C   UNL     1     -12.183  14.556  71.635  1.00  0.00    -0.331 C  
HETATM   32  O   UNL     1     -14.337  15.657  70.860  1.00  0.00    -0.801 OA 
HETATM   33  H   UNL     1     -14.192  16.596  70.889  1.00  0.00     0.000 HD 
ENDBRANCH  24  28
ENDBRANCH   6  12
TORSDOF 2
ENDMDL
MODEL       14
REMARK 921   NORMALIZED FREE ENERGY PREDICTED BY IDOCK:   -7.83 KCAL/MOL
REMARK 922        TOTAL FREE ENERGY PREDICTED BY IDOCK:   -9.58 KCAL/MOL
REMARK 923 INTER-LIGAND FREE ENERGY PREDICTED BY IDOCK:   -8.93 KCAL/MOL
REMARK 924 INTRA-LIGAND FREE ENERGY PREDICTED BY IDOCK:   -0.65 KCAL/MOL
REMARK 927      BINDING AFFINITY PREDICTED BY RF-SCORE:    0.00 PKD
ROOT
HETATM    1  N   UNL     1     -10.340  18.194  65.794  1.00  0.00    -0.615 NA 
HETATM    2  H1  UNL     1      -9.872  19.098  65.716  1.00  0.00     0.000 HD 
HETATM    3  C   UNL     1      -9.913  17.360  66.830  1.00  0.00    -0.307 A  
HETATM    4  H2  UNL     1     -11.348  18.334  65.858  1.00  0.00     0.000 HD 
HETATM    5  N   UNL     1     -10.532  16.163  66.933  1.00  0.00    -0.302 NA 
HETATM    6  C   UNL     1     -10.069  15.250  67.834  1.00  0.00    -0.233 A  
HETATM    7  F   UNL     1      -8.305  18.954  67.563  1.00  0.00    -0.271 F  
HETATM    8  C   UNL     1      -9.038  15.624  68.727  1.00  0.00    -0.208 A  
HETATM    9  C   UNL     1      -8.903  17.762  67.700  1.00  0.00    -0.248 A  
HETATM   10  F   UNL     1      -8.517  14.765  69.615  1.00  0.00    -0.119 F  
HETATM   11  C   UNL     1      -8.471  16.891  68.678  1.00  0.00    -0.260 A  
ENDROOT
BRANCH   6  12
HETATM   12  N   UNL     1     -10.622  13.903  67.829  1.00  0.00    -0.244 NA 
HETATM   13  C   UNL     1     -10.392  11.670  66.800  1.00  0.00    -0.257 C  
HETATM   14  C   UNL     1      -9.897  10.895  65.645  1.00  0.00    -0.241 C  
HETATM   15  C   UNL     1     -11.092  11.066  67.934  1.00  0.00    -0.288 C  
HETATM   16  C   UNL     1     -10.186  12.994  66.853  1.00  0.00    -0.244 C  
HETATM   17  O   UNL     1      -9.262  11.395  64.722  1.00  0.00    -0.155 OA 
HETATM   18  O   UNL     1     -11.311   9.857  67.951  1.00  0.00    -0.158 OA 
HETATM   19  C   UNL     1     -11.536  11.950  69.030  1.00  0.00    -0.355 A  
HETATM   20  O   UNL     1     -10.222   9.583  65.658  1.00  0.00    -0.228 OA 
HETATM   21  C   UNL     1     -12.147  11.340  70.126  1.00  0.00    -0.448 A  
HETATM   22  C   UNL     1     -12.616  12.120  71.168  1.00  0.00    -0.260 A  
HETATM   23  F   UNL     1     -13.160  11.478  72.213  1.00  0.00    -0.587 F  
HETATM   24  C   UNL     1     -12.595  13.523  71.117  1.00  0.00    -0.355 A  
HETATM   25  C   UNL     1     -12.102  14.112  69.917  1.00  0.00    -0.347 A  
HETATM   26 CL   UNL     1     -12.741  15.690  69.483  1.00  0.00     0.072 Cl 
HETATM   27  C   UNL     1     -11.406  13.353  68.928  1.00  0.00    -0.287 A  
BRANCH  24  28
HETATM   28  N   UNL     1     -13.090  14.265  72.224  1.00  0.00    -0.375 NA 
HETATM   29  C   UNL     1     -13.849  15.478  72.278  1.00  0.00    -0.543 C  
HETATM   30  C   UNL     1     -13.032  15.900  73.507  1.00  0.00    -0.594 C  
HETATM   31  C   UNL     1     -12.481  14.468  73.510  1.00  0.00    -0.161 C  
HETATM   32  O   UNL     1     -12.071  16.966  73.302  1.00  0.00    -0.316 OA 
HETATM   33  H   UNL     1     -11.565  17.227  74.063  1.00  0.00     0.000 HD 
ENDBRANCH  24  28
ENDBRANCH   6  12
TORSDOF 2
ENDMDL
MODEL       15
REMARK 921   NORMALIZED FREE ENERGY PREDICTED BY IDOCK:   -7.79 KCAL/MOL
REMARK 922        TOTAL FREE ENERGY PREDICTED BY IDOCK:   -9.54 KCAL/MOL
REMARK 923 INTER-LIGAND FREE ENERGY PREDICTED BY IDOCK:   -8.48 KCAL/MOL
REMARK 924 INTRA-LIGAND FREE ENERGY PREDICTED BY IDOCK:   -1.06 KCAL/MOL
REMARK 927      BINDING AFFINITY PREDICTED BY RF-SCORE:    0.00 PKD
ROOT
HETATM    1  N   UNL     1      -6.738  12.161  66.827  1.00  0.00    -0.371 NA 
HETATM    2  H1  UNL     1      -6.222  11.952  65.972  1.00  0.00     0.000 HD 
HETATM    3  C   UNL     1      -8.029  11.636  66.920  1.00  0.00    -0.161 A  
HETATM    4  H2  UNL     1      -6.191  11.873  67.638  1.00  0.00     0.000 HD 
HETATM    5  N   UNL     1      -8.713  11.914  68.053  1.00  0.00    -0.165 NA 
HETATM    6  C   UNL     1     -10.024  11.548  68.146  1.00  0.00    -0.192 A  
HETATM    7  F   UNL     1      -7.859  10.620  64.774  1.00  0.00    -0.143 F  
HETATM    8  C   UNL     1     -10.598  10.775  67.111  1.00  0.00    -0.256 A  
HETATM    9  C   UNL     1      -8.563  10.869  65.888  1.00  0.00    -0.176 A  
HETATM   10  F   UNL     1     -11.888  10.409  67.125  1.00  0.00     0.091 F  
HETATM   11  C   UNL     1      -9.860  10.411  65.991  1.00  0.00    -0.289 A  
ENDROOT
BRANCH   6  12
HETATM   12  N   UNL     1     -10.806  11.995  69.289  1.00  0.00    -0.138 NA 
HETATM   13  C   UNL     1     -12.058  13.916  70.205  1.00  0.00    -0.423 C  
HETATM   14  C   UNL     1     -12.258  15.379  70.176  1.00  0.00    -0.375 C  
HETATM   15  C   UNL     1     -12.802  13.020  71.091  1.00  0.00    -0.245 C  
HETATM   16  C   UNL     1     -11.173  13.347  69.374  1.00  0.00    -0.175 C  
HETATM   17  O   UNL     1     -11.673  16.122  69.394  1.00  0.00    -0.304 OA 
HETATM   18  O   UNL     1     -13.632  13.475  71.875  1.00  0.00    -0.406 OA 
HETATM   19  C   UNL     1     -12.512  11.573  71.022  1.00  0.00    -0.458 A  
HETATM   20  O   UNL     1     -13.118  15.855  71.104  1.00  0.00    -0.500 OA 
HETATM   21  C   UNL     1     -13.277  10.737  71.834  1.00  0.00    -0.524 A  
HETATM   22  C   UNL     1     -13.027   9.376  71.840  1.00  0.00    -0.417 A  
HETATM   23  F   UNL     1     -13.819   8.614  72.609  1.00  0.00    -0.386 F  
HETATM   24  C   UNL     1     -11.954   8.812  71.133  1.00  0.00    -0.285 A  
HETATM   25  C   UNL     1     -11.101   9.717  70.437  1.00  0.00    -0.307 A  
HETATM   26 CL   UNL     1      -9.426   9.231  70.225  1.00  0.00    -0.251 Cl 
HETATM   27  C   UNL     1     -11.456  11.083  70.222  1.00  0.00    -0.273 A  
BRANCH  24  28
HETATM   28  N   UNL     1     -11.754   7.405  71.179  1.00  0.00    -0.285 NA 
HETATM   29  C   UNL     1     -11.047   6.586  72.117  1.00  0.00    -0.260 C  
HETATM   30  C   UNL     1     -10.568   5.714  70.948  1.00  0.00    -0.258 C  
HETATM   31  C   UNL     1     -11.570   6.491  70.085  1.00  0.00    -0.402 C  
HETATM   32  O   UNL     1      -9.169   5.837  70.589  1.00  0.00    -0.148 OA 
HETATM   33  H   UNL     1      -8.872   5.297  69.865  1.00  0.00     0.000 HD 
ENDBRANCH  24  28
ENDBRANCH   6  12
TORSDOF 2
ENDMDL
MODEL       16
REMARK 921   NORMALIZED FREE ENERGY PREDICTED BY IDOCK:   -7.78 KCAL/MOL
REMARK 922        TOTAL FREE ENERGY PREDICTED BY IDOCK:   -9.53 KCAL/MOL
REMARK 923 INTER-LIGAND FREE ENERGY PREDICTED BY IDOCK:   -8.43 KCAL/MOL
REMARK 924 INTRA-LIGAND FREE ENERGY PREDICTED BY IDOCK:   -1.10 KCAL/MOL
REMARK 927      BINDING AFFINITY PREDICTED BY RF-SCORE:    0.00 PKD
ROOT
HETATM    1  N   UNL     1      -9.454   6.615  65.748  1.00  0.00    -0.377 NA 
HETATM    2  H1  UNL     1      -8.698   6.157  65.239  1.00  0.00     0.000 HD 
HETATM    3  C   UNL     1      -9.090   7.675  66.583  1.00  0.00    -0.164 A  
HETATM    4  H2  UNL     1     -10.171   6.925  65.093  1.00  0.00     0.000 HD 
HETATM    5  N   UNL     1     -10.092   8.282  67.258  1.00  0.00    -0.221 NA 
HETATM    6  C   UNL     1      -9.789   9.229  68.190  1.00  0.00    -0.162 A  
HETATM    7  F   UNL     1      -6.790   7.440  66.018  1.00  0.00    -0.052 F  
HETATM    8  C   UNL     1      -8.446   9.647  68.336  1.00  0.00    -0.118 A  
HETATM    9  C   UNL     1      -7.760   8.070  66.696  1.00  0.00    -0.094 A  
HETATM   10  F   UNL     1      -8.075  10.550  69.255  1.00  0.00    -0.123 F  
HETATM   11  C   UNL     1      -7.432   9.086  67.569  1.00  0.00    -0.081 A  
ENDROOT
BRANCH   6  12
HETATM   12  N   UNL     1     -10.849   9.759  69.036  1.00  0.00    -0.217 NA 
HETATM   13  C   UNL     1     -12.070   9.387  71.150  1.00  0.00    -0.406 C  
HETATM   14  C   UNL     1     -12.462   8.412  72.187  1.00  0.00    -0.370 C  
HETATM   15  C   UNL     1     -12.478  10.792  71.171  1.00  0.00    -0.414 C  
HETATM   16  C   UNL     1     -11.281   9.002  70.136  1.00  0.00    -0.171 C  
HETATM   17  O   UNL     1     -12.073   7.249  72.197  1.00  0.00    -0.293 OA 
HETATM   18  O   UNL     1     -13.197  11.213  72.075  1.00  0.00    -0.493 OA 
HETATM   19  C   UNL     1     -12.017  11.669  70.075  1.00  0.00    -0.429 A  
HETATM   20  O   UNL     1     -13.315   8.887  73.121  1.00  0.00    -0.229 OA 
HETATM   21  C   UNL     1     -12.371  13.015  70.152  1.00  0.00    -0.270 A  
HETATM   22  C   UNL     1     -11.998  13.878  69.137  1.00  0.00    -0.363 A  
HETATM   23  F   UNL     1     -12.331  15.170  69.281  1.00  0.00    -0.302 F  
HETATM   24  C   UNL     1     -11.362  13.426  67.970  1.00  0.00    -0.286 A  
HETATM   25  C   UNL     1     -11.153  12.021  67.859  1.00  0.00    -0.236 A  
HETATM   26 CL   UNL     1     -11.115  11.346  66.238  1.00  0.00    -0.319 Cl 
HETATM   27  C   UNL     1     -11.313  11.139  68.971  1.00  0.00    -0.276 A  
BRANCH  24  28
HETATM   28  N   UNL     1     -11.003  14.366  66.966  1.00  0.00    -0.298 NA 
HETATM   29  C   UNL     1     -11.683  14.773  65.773  1.00  0.00    -0.252 C  
HETATM   30  C   UNL     1     -10.326  14.842  65.059  1.00  0.00    -0.389 C  
HETATM   31  C   UNL     1      -9.697  14.667  66.447  1.00  0.00    -0.295 C  
HETATM   32  O   UNL     1     -10.058  13.799  64.088  1.00  0.00    -0.729 OA 
HETATM   33  H   UNL     1      -9.218  13.841  63.647  1.00  0.00     0.000 HD 
ENDBRANCH  24  28
ENDBRANCH   6  12
TORSDOF 2
ENDMDL
MODEL       17
REMARK 921   NORMALIZED FREE ENERGY PREDICTED BY IDOCK:   -7.76 KCAL/MOL
REMARK 922        TOTAL FREE ENERGY PREDICTED BY IDOCK:   -9.50 KCAL/MOL
REMARK 923 INTER-LIGAND FREE ENERGY PREDICTED BY IDOCK:   -8.79 KCAL/MOL
REMARK 924 INTRA-LIGAND FREE ENERGY PREDICTED BY IDOCK:   -0.71 KCAL/MOL
REMARK 927      BINDING AFFINITY PREDICTED BY RF-SCORE:    0.00 PKD
ROOT
HETATM    1  N   UNL     1     -11.969  10.706  70.718  1.00  0.00    -0.349 NA 
HETATM    2  H1  UNL     1     -12.310  10.400  71.629  1.00  0.00     0.000 HD 
HETATM    3  C   UNL     1     -12.073  12.071  70.441  1.00  0.00    -0.321 A  
HETATM    4  H2  UNL     1     -11.003  10.403  70.594  1.00  0.00     0.000 HD 
HETATM    5  N   UNL     1     -11.620  12.477  69.233  1.00  0.00    -0.302 NA 
HETATM    6  C   UNL     1     -11.819  13.770  68.847  1.00  0.00    -0.360 A  
HETATM    7  F   UNL     1     -13.062  12.512  72.560  1.00  0.00    -0.504 F  
HETATM    8  C   UNL     1     -12.376  14.686  69.769  1.00  0.00    -0.262 A  
HETATM    9  C   UNL     1     -12.616  12.951  71.374  1.00  0.00    -0.220 A  
HETATM   10  F   UNL     1     -12.626  15.963  69.444  1.00  0.00    -0.255 F  
HETATM   11  C   UNL     1     -12.751  14.283  71.045  1.00  0.00    -0.430 A  
ENDROOT
BRANCH   6  12
HETATM   12  N   UNL     1     -11.487  14.164  67.486  1.00  0.00    -0.321 NA 
HETATM   13  C   UNL     1     -12.161  13.897  65.125  1.00  0.00    -0.443 C  
HETATM   14  C   UNL     1     -12.878  13.064  64.139  1.00  0.00     0.006 C  
HETATM   15  C   UNL     1     -11.461  15.133  64.776  1.00  0.00    -0.383 C  
HETATM   16  C   UNL     1     -12.151  13.540  66.418  1.00  0.00    -0.417 C  
HETATM   17  O   UNL     1     -13.511  12.058  64.443  1.00  0.00    -0.591 OA 
HETATM   18  O   UNL     1     -11.435  15.520  63.610  1.00  0.00     0.155 OA 
HETATM   19  C   UNL     1     -10.783  15.879  65.856  1.00  0.00    -0.303 A  
HETATM   20  O   UNL     1     -12.764  13.474  62.856  1.00  0.00    -0.569 OA 
HETATM   21  C   UNL     1     -10.174  17.084  65.506  1.00  0.00    -0.111 A  
HETATM   22  C   UNL     1      -9.493  17.809  66.467  1.00  0.00    -0.290 A  
HETATM   23  F   UNL     1      -8.961  18.979  66.084  1.00  0.00    -0.319 F  
HETATM   24  C   UNL     1      -9.298  17.323  67.769  1.00  0.00    -0.250 A  
HETATM   25  C   UNL     1      -9.803  16.019  68.047  1.00  0.00    -0.222 A  
HETATM   26 CL   UNL     1      -8.968  15.087  69.280  1.00  0.00    -0.190 Cl 
HETATM   27  C   UNL     1     -10.700  15.347  67.162  1.00  0.00    -0.314 A  
BRANCH  24  28
HETATM   28  N   UNL     1      -8.591  18.120  68.710  1.00  0.00    -0.257 NA 
HETATM   29  C   UNL     1      -8.826  19.454  69.176  1.00  0.00    -0.117 C  
HETATM   30  C   UNL     1      -7.309  19.684  69.189  1.00  0.00    -0.304 C  
HETATM   31  C   UNL     1      -7.175  18.174  68.953  1.00  0.00    -0.258 C  
HETATM   32  O   UNL     1      -6.783  20.552  68.154  1.00  0.00    -0.291 OA 
HETATM   33  H   UNL     1      -5.844  20.695  68.162  1.00  0.00     0.000 HD 
ENDBRANCH  24  28
ENDBRANCH   6  12
TORSDOF 2
ENDMDL
MODEL       18
REMARK 921   NORMALIZED FREE ENERGY PREDICTED BY IDOCK:   -7.72 KCAL/MOL
REMARK 922        TOTAL FREE ENERGY PREDICTED BY IDOCK:   -9.47 KCAL/MOL
REMARK 923 INTER-LIGAND FREE ENERGY PREDICTED BY IDOCK:   -8.37 KCAL/MOL
REMARK 924 INTRA-LIGAND FREE ENERGY PREDICTED BY IDOCK:   -1.10 KCAL/MOL
REMARK 927      BINDING AFFINITY PREDICTED BY RF-SCORE:    0.00 PKD
ROOT
HETATM    1  N   UNL     1      -6.188   9.643  67.577  1.00  0.00    -0.056 NA 
HETATM    2  H1  UNL     1      -5.468   9.363  66.910  1.00  0.00     0.000 HD 
HETATM    3  C   UNL     1      -7.434   9.026  67.443  1.00  0.00    -0.085 A  
HETATM    4  H2  UNL     1      -5.842   9.516  68.527  1.00  0.00     0.000 HD 
HETATM    5  N   UNL     1      -8.388   9.397  68.327  1.00  0.00    -0.118 NA 
HETATM    6  C   UNL     1      -9.661   8.936  68.165  1.00  0.00    -0.145 A  
HETATM    7  F   UNL     1      -6.693   7.742  65.581  1.00  0.00    -0.044 F  
HETATM    8  C   UNL     1      -9.925   7.981  67.157  1.00  0.00    -0.235 A  
HETATM    9  C   UNL     1      -7.660   8.080  66.446  1.00  0.00    -0.091 A  
HETATM   10  F   UNL     1     -11.159   7.510  66.924  1.00  0.00    -0.425 F  
HETATM   11  C   UNL     1      -8.917   7.531  66.312  1.00  0.00    -0.199 A  
ENDROOT
BRANCH   6  12
HETATM   12  N   UNL     1     -10.721   9.466  69.010  1.00  0.00    -0.214 NA 
HETATM   13  C   UNL     1     -11.938   9.100  71.128  1.00  0.00    -0.374 C  
HETATM   14  C   UNL     1     -12.325   8.128  72.170  1.00  0.00    -0.338 C  
HETATM   15  C   UNL     1     -12.350  10.503  71.143  1.00  0.00    -0.405 C  
HETATM   16  C   UNL     1     -11.149   8.713  70.115  1.00  0.00    -0.192 C  
HETATM   17  O   UNL     1     -11.932   6.966  72.185  1.00  0.00    -0.294 OA 
HETATM   18  O   UNL     1     -13.070  10.926  72.046  1.00  0.00    -0.491 OA 
HETATM   19  C   UNL     1     -11.894  11.376  70.043  1.00  0.00    -0.440 A  
HETATM   20  O   UNL     1     -13.178   8.604  73.104  1.00  0.00    -0.171 OA 
HETATM   21  C   UNL     1     -12.253  12.722  70.114  1.00  0.00    -0.320 A  
HETATM   22  C   UNL     1     -11.885  13.581  69.094  1.00  0.00    -0.340 A  
HETATM   23  F   UNL     1     -12.222  14.872  69.232  1.00  0.00    -0.326 F  
HETATM   24  C   UNL     1     -11.249  13.126  67.928  1.00  0.00    -0.270 A  
HETATM   25  C   UNL     1     -11.036  11.721  67.823  1.00  0.00    -0.225 A  
HETATM   26 CL   UNL     1     -10.997  11.038  66.205  1.00  0.00    -0.241 Cl 
HETATM   27  C   UNL     1     -11.190  10.843  68.940  1.00  0.00    -0.267 A  
BRANCH  24  28
HETATM   28  N   UNL     1     -10.895  14.062  66.919  1.00  0.00    -0.288 NA 
HETATM   29  C   UNL     1     -11.631  14.555  65.793  1.00  0.00    -0.347 C  
HETATM   30  C   UNL     1     -10.333  14.536  64.975  1.00  0.00    -0.413 C  
HETATM   31  C   UNL     1      -9.614  14.274  66.303  1.00  0.00    -0.288 C  
HETATM   32  O   UNL     1     -10.228  13.503  63.963  1.00  0.00    -0.723 OA 
HETATM   33  H   UNL     1      -9.424  13.492  63.456  1.00  0.00     0.000 HD 
ENDBRANCH  24  28
ENDBRANCH   6  12
TORSDOF 2
ENDMDL
MODEL       19
REMARK 921   NORMALIZED FREE ENERGY PREDICTED BY IDOCK:   -7.66 KCAL/MOL
REMARK 922        TOTAL FREE ENERGY PREDICTED BY IDOCK:   -9.39 KCAL/MOL
REMARK 923 INTER-LIGAND FREE ENERGY PREDICTED BY IDOCK:   -8.63 KCAL/MOL
REMARK 924 INTRA-LIGAND FREE ENERGY PREDICTED BY IDOCK:   -0.76 KCAL/MOL
REMARK 927      BINDING AFFINITY PREDICTED BY RF-SCORE:    0.00 PKD
ROOT
HETATM    1  N   UNL     1      -8.543   8.132  70.533  1.00  0.00    -0.127 NA 
HETATM    2  H1  UNL     1      -8.335   7.149  70.710  1.00  0.00     0.000 HD 
HETATM    3  C   UNL     1      -9.864   8.536  70.737  1.00  0.00    -0.182 A  
HETATM    4  H2  UNL     1      -7.915   8.719  71.081  1.00  0.00     0.000 HD 
HETATM    5  N   UNL     1     -10.139   9.838  70.501  1.00  0.00    -0.265 NA 
HETATM    6  C   UNL     1     -11.433  10.265  70.548  1.00  0.00    -0.343 A  
HETATM    7  F   UNL     1     -10.524   6.341  71.379  1.00  0.00    -0.224 F  
HETATM    8  C   UNL     1     -12.440   9.366  70.969  1.00  0.00    -0.239 A  
HETATM    9  C   UNL     1     -10.831   7.629  71.163  1.00  0.00    -0.235 A  
HETATM   10  F   UNL     1     -13.735   9.711  71.007  1.00  0.00    -0.421 F  
HETATM   11  C   UNL     1     -12.135   8.052  71.303  1.00  0.00    -0.314 A  
ENDROOT
BRANCH   6  12
HETATM   12  N   UNL     1     -11.750  11.623  70.129  1.00  0.00    -0.321 NA 
HETATM   13  C   UNL     1     -12.612  13.794  70.930  1.00  0.00    -0.428 C  
HETATM   14  C   UNL     1     -13.407  14.497  71.957  1.00  0.00    -0.373 C  
HETATM   15  C   UNL     1     -11.979  14.472  69.798  1.00  0.00    -0.332 C  
HETATM   16  C   UNL     1     -12.422  12.470  71.024  1.00  0.00    -0.258 C  
HETATM   17  O   UNL     1     -13.889  13.935  72.935  1.00  0.00    -0.662 OA 
HETATM   18  O   UNL     1     -12.110  15.685  69.655  1.00  0.00    -0.364 OA 
HETATM   19  C   UNL     1     -11.207  13.656  68.840  1.00  0.00    -0.309 A  
HETATM   20  O   UNL     1     -13.596  15.815  71.727  1.00  0.00    -0.459 OA 
HETATM   21  C   UNL     1     -10.566  14.336  67.805  1.00  0.00    -0.253 A  
HETATM   22  C   UNL     1      -9.856  13.622  66.855  1.00  0.00    -0.261 A  
HETATM   23  F   UNL     1      -9.227  14.329  65.905  1.00  0.00    -0.246 F  
HETATM   24  C   UNL     1      -9.844  12.218  66.833  1.00  0.00    -0.209 A  
HETATM   25  C   UNL     1     -10.636  11.556  67.817  1.00  0.00    -0.192 A  
HETATM   26 CL   UNL     1     -11.272   9.974  67.396  1.00  0.00    -0.167 Cl 
HETATM   27  C   UNL     1     -11.188  12.247  68.939  1.00  0.00    -0.273 A  
BRANCH  24  28
HETATM   28  N   UNL     1      -9.092  11.546  65.832  1.00  0.00    -0.203 NA 
HETATM   29  C   UNL     1      -9.462  11.091  64.526  1.00  0.00    -0.233 C  
HETATM   30  C   UNL     1      -8.595   9.844  64.747  1.00  0.00    -0.178 C  
HETATM   31  C   UNL     1      -8.064  10.555  65.998  1.00  0.00    -0.148 C  
HETATM   32  O   UNL     1      -9.306   8.598  64.960  1.00  0.00    -0.417 OA 
HETATM   33  H   UNL     1      -8.769   7.826  65.097  1.00  0.00     0.000 HD 
ENDBRANCH  24  28
ENDBRANCH   6  12
TORSDOF 2
ENDMDL
MODEL       20
REMARK 921   NORMALIZED FREE ENERGY PREDICTED BY IDOCK:   -7.62 KCAL/MOL
REMARK 922        TOTAL FREE ENERGY PREDICTED BY IDOCK:   -9.35 KCAL/MOL
REMARK 923 INTER-LIGAND FREE ENERGY PREDICTED BY IDOCK:   -8.38 KCAL/MOL
REMARK 924 INTRA-LIGAND FREE ENERGY PREDICTED BY IDOCK:   -0.97 KCAL/MOL
REMARK 927      BINDING AFFINITY PREDICTED BY RF-SCORE:    0.00 PKD
ROOT
HETATM    1  N   UNL     1     -11.098   5.936  66.407  1.00  0.00    -0.759 NA 
HETATM    2  H1  UNL     1     -10.740   5.048  66.054  1.00  0.00     0.000 HD 
HETATM    3  C   UNL     1     -10.187   6.993  66.470  1.00  0.00    -0.057 A  
HETATM    4  H2  UNL     1     -11.913   6.218  65.864  1.00  0.00     0.000 HD 
HETATM    5  N   UNL     1     -10.660   8.170  66.937  1.00  0.00    -0.311 NA 
HETATM    6  C   UNL     1      -9.792   9.199  67.153  1.00  0.00    -0.195 A  
HETATM    7  F   UNL     1      -8.427   5.638  65.613  1.00  0.00    -0.122 F  
HETATM    8  C   UNL     1      -8.441   9.054  66.760  1.00  0.00    -0.119 A  
HETATM    9  C   UNL     1      -8.865   6.822  66.065  1.00  0.00    -0.135 A  
HETATM   10  F   UNL     1      -7.529  10.014  66.972  1.00  0.00    -0.089 F  
HETATM   11  C   UNL     1      -7.982   7.873  66.190  1.00  0.00    -0.104 A  
ENDROOT
BRANCH   6  12
HETATM   12  N   UNL     1     -10.269  10.405  67.814  1.00  0.00    -0.183 NA 
HETATM   13  C   UNL     1     -10.956  12.744  67.416  1.00  0.00    -0.285 C  
HETATM   14  C   UNL     1     -10.873  13.912  66.518  1.00  0.00    -0.295 C  
HETATM   15  C   UNL     1     -11.696  12.749  68.678  1.00  0.00    -0.324 C  
HETATM   16  C   UNL     1     -10.350  11.596  67.076  1.00  0.00    -0.217 C  
HETATM   17  O   UNL     1     -10.298  13.888  65.434  1.00  0.00    -0.315 OA 
HETATM   18  O   UNL     1     -12.278  13.767  69.048  1.00  0.00    -0.343 OA 
HETATM   19  C   UNL     1     -11.705  11.514  69.487  1.00  0.00    -0.413 A  
HETATM   20  O   UNL     1     -11.456  15.036  66.991  1.00  0.00    -0.344 OA 
HETATM   21  C   UNL     1     -12.467  11.529  70.655  1.00  0.00    -0.405 A  
HETATM   22  C   UNL     1     -12.485  10.413  71.473  1.00  0.00    -0.404 A  
HETATM   23  F   UNL     1     -13.266  10.468  72.562  1.00  0.00    -0.446 F  
HETATM   24  C   UNL     1     -11.675   9.293  71.225  1.00  0.00    -0.346 A  
HETATM   25  C   UNL     1     -10.796   9.376  70.106  1.00  0.00    -0.249 A  
HETATM   26 CL   UNL     1      -9.306   8.450  70.194  1.00  0.00    -0.162 Cl 
HETATM   27  C   UNL     1     -10.914  10.402  69.120  1.00  0.00    -0.241 A  
BRANCH  24  28
HETATM   28  N   UNL     1     -11.745   8.177  72.103  1.00  0.00    -0.334 NA 
HETATM   29  C   UNL     1     -10.811   7.683  73.069  1.00  0.00    -0.400 C  
HETATM   30  C   UNL     1     -11.198   6.253  72.667  1.00  0.00    -0.267 C  
HETATM   31  C   UNL     1     -12.344   6.892  71.871  1.00  0.00    -0.325 C  
HETATM   32  O   UNL     1     -10.212   5.512  71.906  1.00  0.00    -0.187 OA 
HETATM   33  H   UNL     1     -10.452   4.627  71.657  1.00  0.00     0.000 HD 
ENDBRANCH  24  28
ENDBRANCH   6  12
TORSDOF 2
ENDMDL
MODEL       21
REMARK 921   NORMALIZED FREE ENERGY PREDICTED BY IDOCK:   -7.55 KCAL/MOL
REMARK 922        TOTAL FREE ENERGY PREDICTED BY IDOCK:   -9.27 KCAL/MOL
REMARK 923 INTER-LIGAND FREE ENERGY PREDICTED BY IDOCK:   -8.55 KCAL/MOL
REMARK 924 INTRA-LIGAND FREE ENERGY PREDICTED BY IDOCK:   -0.72 KCAL/MOL
REMARK 927      BINDING AFFINITY PREDICTED BY RF-SCORE:    0.00 PKD
ROOT
HETATM    1  N   UNL     1     -13.014   7.345  72.014  1.00  0.00    -0.505 NA 
HETATM    2  H1  UNL     1     -12.745   6.456  72.436  1.00  0.00     0.000 HD 
HETATM    3  C   UNL     1     -11.982   8.116  71.474  1.00  0.00    -0.298 A  
HETATM    4  H2  UNL     1     -13.731   7.186  71.306  1.00  0.00     0.000 HD 
HETATM    5  N   UNL     1     -12.339   9.294  70.915  1.00  0.00    -0.223 NA 
HETATM    6  C   UNL     1     -11.367  10.153  70.494  1.00  0.00    -0.338 A  
HETATM    7  F   UNL     1     -10.343   6.503  72.087  1.00  0.00    -0.200 F  
HETATM    8  C   UNL     1     -10.016   9.738  70.534  1.00  0.00    -0.193 A  
HETATM    9  C   UNL     1     -10.662   7.674  71.517  1.00  0.00    -0.221 A  
HETATM   10  F   UNL     1      -9.010  10.544  70.165  1.00  0.00    -0.036 F  
HETATM   11  C   UNL     1      -9.664   8.485  71.021  1.00  0.00    -0.243 A  
ENDROOT
BRANCH   6  12
HETATM   12  N   UNL     1     -11.741  11.488  70.051  1.00  0.00    -0.331 NA 
HETATM   13  C   UNL     1     -12.660  13.647  70.822  1.00  0.00    -0.397 C  
HETATM   14  C   UNL     1     -13.456  14.346  71.851  1.00  0.00    -0.393 C  
HETATM   15  C   UNL     1     -12.079  14.319  69.659  1.00  0.00    -0.346 C  
HETATM   16  C   UNL     1     -12.422  12.333  70.942  1.00  0.00    -0.276 C  
HETATM   17  O   UNL     1     -13.895  13.792  72.853  1.00  0.00    -0.668 OA 
HETATM   18  O   UNL     1     -12.256  15.523  69.491  1.00  0.00    -0.327 OA 
HETATM   19  C   UNL     1     -11.301  13.508  68.702  1.00  0.00    -0.323 A  
HETATM   20  O   UNL     1     -13.697  15.651  71.595  1.00  0.00    -0.485 OA 
HETATM   21  C   UNL     1     -10.709  14.184  67.636  1.00  0.00    -0.260 A  
HETATM   22  C   UNL     1      -9.997  13.472  66.687  1.00  0.00    -0.282 A  
HETATM   23  F   UNL     1      -9.416  14.178  65.705  1.00  0.00    -0.258 F  
HETATM   24  C   UNL     1      -9.935  12.070  66.697  1.00  0.00    -0.201 A  
HETATM   25  C   UNL     1     -10.680  11.405  67.715  1.00  0.00    -0.211 A  
HETATM   26 CL   UNL     1     -11.269   9.792  67.347  1.00  0.00    -0.053 Cl 
HETATM   27  C   UNL     1     -11.229  12.103  68.833  1.00  0.00    -0.269 A  
BRANCH  24  28
HETATM   28  N   UNL     1      -9.183  11.400  65.694  1.00  0.00    -0.213 NA 
HETATM   29  C   UNL     1      -9.578  10.858  64.429  1.00  0.00    -0.265 C  
HETATM   30  C   UNL     1      -8.620   9.683  64.667  1.00  0.00    -0.183 C  
HETATM   31  C   UNL     1      -8.085  10.488  65.858  1.00  0.00    -0.154 C  
HETATM   32  O   UNL     1      -9.235   8.406  64.969  1.00  0.00    -0.402 OA 
HETATM   33  H   UNL     1      -8.642   7.678  65.117  1.00  0.00     0.000 HD 
ENDBRANCH  24  28
ENDBRANCH   6  12
TORSDOF 2
ENDMDL
MODEL       22
REMARK 921   NORMALIZED FREE ENERGY PREDICTED BY IDOCK:   -7.49 KCAL/MOL
REMARK 922        TOTAL FREE ENERGY PREDICTED BY IDOCK:   -9.21 KCAL/MOL
REMARK 923 INTER-LIGAND FREE ENERGY PREDICTED BY IDOCK:   -8.17 KCAL/MOL
REMARK 924 INTRA-LIGAND FREE ENERGY PREDICTED BY IDOCK:   -1.04 KCAL/MOL
REMARK 927      BINDING AFFINITY PREDICTED BY RF-SCORE:    0.00 PKD
ROOT
HETATM    1  N   UNL     1     -10.030   9.467  65.215  1.00  0.00    -0.382 NA 
HETATM    2  H1  UNL     1      -9.411   9.119  64.483  1.00  0.00     0.000 HD 
HETATM    3  C   UNL     1      -9.506  10.447  66.061  1.00  0.00    -0.185 A  
HETATM    4  H2  UNL     1     -10.899   9.800  64.800  1.00  0.00     0.000 HD 
HETATM    5  N   UNL     1     -10.326  10.907  67.032  1.00  0.00    -0.221 NA 
HETATM    6  C   UNL     1      -9.832  11.762  67.972  1.00  0.00    -0.183 A  
HETATM    7  F   UNL     1      -7.415  10.428  64.924  1.00  0.00    -0.143 F  
HETATM    8  C   UNL     1      -8.510  12.247  67.835  1.00  0.00    -0.165 A  
HETATM    9  C   UNL     1      -8.204  10.913  65.893  1.00  0.00    -0.133 A  
HETATM   10  F   UNL     1      -7.952  13.064  68.740  1.00  0.00    -0.129 F  
HETATM   11  C   UNL     1      -7.703  11.843  66.779  1.00  0.00    -0.051 A  
ENDROOT
BRANCH   6  12
HETATM   12  N   UNL     1     -10.662  12.123  69.112  1.00  0.00    -0.125 NA 
HETATM   13  C   UNL     1     -12.169  13.871  69.991  1.00  0.00    -0.408 C  
HETATM   14  C   UNL     1     -12.574  15.290  69.926  1.00  0.00    -0.177 C  
HETATM   15  C   UNL     1     -12.773  12.902  70.906  1.00  0.00    -0.207 C  
HETATM   16  C   UNL     1     -11.218  13.411  69.165  1.00  0.00    -0.248 C  
HETATM   17  O   UNL     1     -12.107  16.087  69.120  1.00  0.00    -0.293 OA 
HETATM   18  O   UNL     1     -13.653  13.256  71.687  1.00  0.00    -0.321 OA 
HETATM   19  C   UNL     1     -12.280  11.511  70.872  1.00  0.00    -0.425 A  
HETATM   20  O   UNL     1     -13.488  15.663  70.850  1.00  0.00    -0.569 OA 
HETATM   21  C   UNL     1     -12.913  10.596  71.713  1.00  0.00    -0.577 A  
HETATM   22  C   UNL     1     -12.473   9.285  71.751  1.00  0.00    -0.381 A  
HETATM   23  F   UNL     1     -13.143   8.439  72.547  1.00  0.00    -0.337 F  
HETATM   24  C   UNL     1     -11.334   8.860  71.048  1.00  0.00    -0.291 A  
HETATM   25  C   UNL     1     -10.623   9.858  70.320  1.00  0.00    -0.301 A  
HETATM   26 CL   UNL     1      -8.898   9.610  70.104  1.00  0.00    -0.256 Cl 
HETATM   27  C   UNL     1     -11.171  11.154  70.073  1.00  0.00    -0.181 A  
BRANCH  24  28
HETATM   28  N   UNL     1     -10.937   7.498  71.127  1.00  0.00    -0.243 NA 
HETATM   29  C   UNL     1     -11.597   6.300  70.702  1.00  0.00    -0.281 C  
HETATM   30  C   UNL     1     -11.066   5.597  71.958  1.00  0.00    -0.230 C  
HETATM   31  C   UNL     1     -10.193   6.841  72.167  1.00  0.00    -0.193 C  
HETATM   32  O   UNL     1     -12.041   5.307  72.991  1.00  0.00    -0.528 OA 
HETATM   33  H   UNL     1     -11.712   4.872  73.769  1.00  0.00     0.000 HD 
ENDBRANCH  24  28
ENDBRANCH   6  12
TORSDOF 2
ENDMDL
MODEL       23
REMARK 921   NORMALIZED FREE ENERGY PREDICTED BY IDOCK:   -7.39 KCAL/MOL
REMARK 922        TOTAL FREE ENERGY PREDICTED BY IDOCK:   -9.09 KCAL/MOL
REMARK 923 INTER-LIGAND FREE ENERGY PREDICTED BY IDOCK:   -8.97 KCAL/MOL
REMARK 924 INTRA-LIGAND FREE ENERGY PREDICTED BY IDOCK:   -0.12 KCAL/MOL
REMARK 927      BINDING AFFINITY PREDICTED BY RF-SCORE:    0.00 PKD
ROOT
HETATM    1  N   UNL     1     -12.781  14.079  63.336  1.00  0.00    -0.796 NA 
HETATM    2  H1  UNL     1     -13.217  13.359  62.760  1.00  0.00     0.000 HD 
HETATM    3  C   UNL     1     -11.679  13.684  64.098  1.00  0.00    -0.386 A  
HETATM    4  H2  UNL     1     -12.529  14.877  62.755  1.00  0.00     0.000 HD 
HETATM    5  N   UNL     1     -11.101  14.639  64.862  1.00  0.00    -0.387 NA 
HETATM    6  C   UNL     1     -10.111  14.288  65.730  1.00  0.00    -0.335 A  
HETATM    7  F   UNL     1     -11.817  11.449  63.293  1.00  0.00    -0.468 F  
HETATM    8  C   UNL     1      -9.623  12.961  65.719  1.00  0.00    -0.074 A  
HETATM    9  C   UNL     1     -11.215  12.372  64.056  1.00  0.00    -0.396 A  
HETATM   10  F   UNL     1      -8.673  12.542  66.567  1.00  0.00    -0.201 F  
HETATM   11  C   UNL     1     -10.157  12.007  64.861  1.00  0.00    -0.289 A  
ENDROOT
BRANCH   6  12
HETATM   12  N   UNL     1      -9.607  15.278  66.672  1.00  0.00    -0.242 NA 
HETATM   13  C   UNL     1      -8.262  17.342  66.847  1.00  0.00    -0.256 C  
HETATM   14  C   UNL     1      -7.223  18.187  66.226  1.00  0.00    -0.266 C  
HETATM   15  C   UNL     1      -8.902  17.660  68.124  1.00  0.00    -0.269 C  
HETATM   16  C   UNL     1      -8.679  16.230  66.223  1.00  0.00    -0.335 C  
HETATM   17  O   UNL     1      -6.728  17.948  65.130  1.00  0.00    -0.240 OA 
HETATM   18  O   UNL     1      -8.571  18.666  68.747  1.00  0.00    -0.324 OA 
HETATM   19  C   UNL     1      -9.931  16.733  68.638  1.00  0.00    -0.276 A  
HETATM   20  O   UNL     1      -6.826  19.242  66.973  1.00  0.00    -0.198 OA 
HETATM   21  C   UNL     1     -10.566  17.092  69.827  1.00  0.00    -0.004 A  
HETATM   22  C   UNL     1     -11.514  16.246  70.376  1.00  0.00    -0.248 A  
HETATM   23  F   UNL     1     -12.121  16.659  71.499  1.00  0.00    -0.350 F  
HETATM   24  C   UNL     1     -11.787  14.980  69.835  1.00  0.00    -0.324 A  
HETATM   25  C   UNL     1     -11.009  14.585  68.708  1.00  0.00    -0.250 A  
HETATM   26 CL   UNL     1     -10.736  12.864  68.492  1.00  0.00    -0.264 Cl 
HETATM   27  C   UNL     1     -10.196  15.510  67.984  1.00  0.00    -0.229 A  
BRANCH  24  28
HETATM   28  N   UNL     1     -12.775  14.162  70.447  1.00  0.00    -0.324 NA 
HETATM   29  C   UNL     1     -14.021  14.499  71.068  1.00  0.00    -0.060 C  
HETATM   30  C   UNL     1     -13.755  13.413  72.120  1.00  0.00    -0.552 C  
HETATM   31  C   UNL     1     -12.593  12.967  71.224  1.00  0.00    -0.256 C  
HETATM   32  O   UNL     1     -13.410  13.879  73.448  1.00  0.00    -0.371 OA 
HETATM   33  H   UNL     1     -13.245  13.207  74.100  1.00  0.00     0.000 HD 
ENDBRANCH  24  28
ENDBRANCH   6  12
TORSDOF 2
ENDMDL
MODEL       24
REMARK 921   NORMALIZED FREE ENERGY PREDICTED BY IDOCK:   -7.32 KCAL/MOL
REMARK 922        TOTAL FREE ENERGY PREDICTED BY IDOCK:   -9.01 KCAL/MOL
REMARK 923 INTER-LIGAND FREE ENERGY PREDICTED BY IDOCK:   -7.97 KCAL/MOL
REMARK 924 INTRA-LIGAND FREE ENERGY PREDICTED BY IDOCK:   -1.04 KCAL/MOL
REMARK 927      BINDING AFFINITY PREDICTED BY RF-SCORE:    0.00 PKD
ROOT
HETATM    1  N   UNL     1     -12.753  13.800  64.170  1.00  0.00    -0.644 NA 
HETATM    2  H1  UNL     1     -12.702  14.509  63.438  1.00  0.00     0.000 HD 
HETATM    3  C   UNL     1     -11.922  13.987  65.277  1.00  0.00    -0.379 A  
HETATM    4  H2  UNL     1     -13.719  13.695  64.479  1.00  0.00     0.000 HD 
HETATM    5  N   UNL     1     -11.989  13.048  66.246  1.00  0.00    -0.410 NA 
HETATM    6  C   UNL     1     -11.107  13.099  67.285  1.00  0.00    -0.279 A  
HETATM    7  F   UNL     1     -11.031  16.001  64.372  1.00  0.00    -0.434 F  
HETATM    8  C   UNL     1     -10.231  14.204  67.391  1.00  0.00    -0.244 A  
HETATM    9  C   UNL     1     -11.078  15.092  65.357  1.00  0.00    -0.367 A  
HETATM   10  F   UNL     1      -9.319  14.300  68.369  1.00  0.00    -0.184 F  
HETATM   11  C   UNL     1     -10.234  15.217  66.440  1.00  0.00    -0.291 A  
ENDROOT
BRANCH   6  12
HETATM   12  N   UNL     1     -11.065  11.998  68.237  1.00  0.00    -0.225 NA 
HETATM   13  C   UNL     1     -12.111  11.112  70.291  1.00  0.00    -0.462 C  
HETATM   14  C   UNL     1     -12.897  11.424  71.501  1.00  0.00    -0.403 C  
HETATM   15  C   UNL     1     -11.621   9.771  69.972  1.00  0.00    -0.130 C  
HETATM   16  C   UNL     1     -11.835  12.082  69.407  1.00  0.00    -0.324 C  
HETATM   17  O   UNL     1     -13.355  12.537  71.738  1.00  0.00    -0.414 OA 
HETATM   18  O   UNL     1     -11.842   8.835  70.737  1.00  0.00    -0.266 OA 
HETATM   19  C   UNL     1     -10.848   9.589  68.728  1.00  0.00    -0.173 A  
HETATM   20  O   UNL     1     -13.055  10.391  72.359  1.00  0.00    -0.301 OA 
HETATM   21  C   UNL     1     -10.444   8.290  68.419  1.00  0.00    -0.206 A  
HETATM   22  C   UNL     1      -9.686   8.062  67.285  1.00  0.00    -0.177 A  
HETATM   23  F   UNL     1      -9.359   6.789  67.015  1.00  0.00    -0.127 F  
HETATM   24  C   UNL     1      -9.213   9.111  66.480  1.00  0.00    -0.175 A  
HETATM   25  C   UNL     1      -9.518  10.435  66.912  1.00  0.00    -0.168 A  
HETATM   26 CL   UNL     1      -8.383  11.700  66.465  1.00  0.00    -0.155 Cl 
HETATM   27  C   UNL     1     -10.479  10.698  67.935  1.00  0.00    -0.208 A  
BRANCH  24  28
HETATM   28  N   UNL     1      -8.441   8.808  65.326  1.00  0.00    -0.165 NA 
HETATM   29  C   UNL     1      -7.025   8.688  65.147  1.00  0.00    -0.072 C  
HETATM   30  C   UNL     1      -7.173   9.357  63.774  1.00  0.00    -0.102 C  
HETATM   31  C   UNL     1      -8.685   9.185  63.961  1.00  0.00    -0.137 C  
HETATM   32  O   UNL     1      -6.681  10.716  63.667  1.00  0.00    -0.351 OA 
HETATM   33  H   UNL     1      -6.772  11.131  62.817  1.00  0.00     0.000 HD 
ENDBRANCH  24  28
ENDBRANCH   6  12
TORSDOF 2
ENDMDL
MODEL       25
REMARK 921   NORMALIZED FREE ENERGY PREDICTED BY IDOCK:   -7.31 KCAL/MOL
REMARK 922        TOTAL FREE ENERGY PREDICTED BY IDOCK:   -9.01 KCAL/MOL
REMARK 923 INTER-LIGAND FREE ENERGY PREDICTED BY IDOCK:   -8.17 KCAL/MOL
REMARK 924 INTRA-LIGAND FREE ENERGY PREDICTED BY IDOCK:   -0.84 KCAL/MOL
REMARK 927      BINDING AFFINITY PREDICTED BY RF-SCORE:    0.00 PKD
ROOT
HETATM    1  N   UNL     1     -10.260  10.012  64.477  1.00  0.00    -0.364 NA 
HETATM    2  H1  UNL     1      -9.606   9.603  63.810  1.00  0.00     0.000 HD 
HETATM    3  C   UNL     1      -9.768  10.256  65.762  1.00  0.00    -0.238 A  
HETATM    4  H2  UNL     1     -10.653  10.870  64.092  1.00  0.00     0.000 HD 
HETATM    5  N   UNL     1     -10.635  10.797  66.647  1.00  0.00    -0.246 NA 
HETATM    6  C   UNL     1     -10.259  10.931  67.951  1.00  0.00    -0.179 A  
HETATM    7  F   UNL     1      -7.619   9.408  65.190  1.00  0.00    -0.100 F  
HETATM    8  C   UNL     1      -8.929  10.623  68.319  1.00  0.00    -0.143 A  
HETATM    9  C   UNL     1      -8.450   9.952  66.091  1.00  0.00    -0.125 A  
HETATM   10  F   UNL     1      -8.504  10.703  69.588  1.00  0.00    -0.151 F  
HETATM   11  C   UNL     1      -8.014  10.157  67.383  1.00  0.00    -0.110 A  
ENDROOT
BRANCH   6  12
HETATM   12  N   UNL     1     -11.245  11.353  68.935  1.00  0.00    -0.224 NA 
HETATM   13  C   UNL     1     -12.637  10.555  70.813  1.00  0.00    -0.474 C  
HETATM   14  C   UNL     1     -13.269   9.392  71.466  1.00  0.00    -0.384 C  
HETATM   15  C   UNL     1     -12.768  11.926  71.308  1.00  0.00    -0.298 C  
HETATM   16  C   UNL     1     -11.879  10.377  69.721  1.00  0.00    -0.207 C  
HETATM   17  O   UNL     1     -13.112   8.237  71.081  1.00  0.00    -0.179 OA 
HETATM   18  O   UNL     1     -13.445  12.159  72.307  1.00  0.00    -0.491 OA 
HETATM   19  C   UNL     1     -12.084  13.004  70.567  1.00  0.00    -0.373 A  
HETATM   20  O   UNL     1     -14.069   9.691  72.513  1.00  0.00    -0.243 OA 
HETATM   21  C   UNL     1     -12.177  14.291  71.094  1.00  0.00    -0.431 A  
HETATM   22  C   UNL     1     -11.586  15.348  70.424  1.00  0.00    -0.324 A  
HETATM   23  F   UNL     1     -11.673  16.558  70.997  1.00  0.00    -0.400 F  
HETATM   24  C   UNL     1     -10.982  15.190  69.167  1.00  0.00    -0.259 A  
HETATM   25  C   UNL     1     -11.041  13.888  68.589  1.00  0.00    -0.265 A  
HETATM   26 CL   UNL     1     -11.037  13.794  66.835  1.00  0.00    -0.303 Cl 
HETATM   27  C   UNL     1     -11.432  12.739  69.342  1.00  0.00    -0.257 A  
BRANCH  24  28
HETATM   28  N   UNL     1     -10.390  16.317  68.534  1.00  0.00    -0.248 NA 
HETATM   29  C   UNL     1     -10.875  17.170  67.491  1.00  0.00    -0.203 C  
HETATM   30  C   UNL     1      -9.453  17.228  66.919  1.00  0.00    -0.257 C  
HETATM   31  C   UNL     1      -9.007  16.542  68.216  1.00  0.00    -0.214 C  
HETATM   32  O   UNL     1      -9.228  16.498  65.687  1.00  0.00    -0.481 OA 
HETATM   33  H   UNL     1      -8.347  16.533  65.332  1.00  0.00     0.000 HD 
ENDBRANCH  24  28
ENDBRANCH   6  12
TORSDOF 2
ENDMDL
MODEL       26
REMARK 921   NORMALIZED FREE ENERGY PREDICTED BY IDOCK:   -7.29 KCAL/MOL
REMARK 922        TOTAL FREE ENERGY PREDICTED BY IDOCK:   -8.98 KCAL/MOL
REMARK 923 INTER-LIGAND FREE ENERGY PREDICTED BY IDOCK:   -8.22 KCAL/MOL
REMARK 924 INTRA-LIGAND FREE ENERGY PREDICTED BY IDOCK:   -0.76 KCAL/MOL
REMARK 927      BINDING AFFINITY PREDICTED BY RF-SCORE:    0.00 PKD
ROOT
HETATM    1  N   UNL     1      -8.374   8.143  71.464  1.00  0.00    -0.115 NA 
HETATM    2  H1  UNL     1      -8.113   7.209  71.781  1.00  0.00     0.000 HD 
HETATM    3  C   UNL     1      -9.735   8.455  71.500  1.00  0.00    -0.210 A  
HETATM    4  H2  UNL     1      -7.847   8.843  71.985  1.00  0.00     0.000 HD 
HETATM    5  N   UNL     1     -10.080   9.693  71.079  1.00  0.00    -0.223 NA 
HETATM    6  C   UNL     1     -11.401  10.011  70.960  1.00  0.00    -0.357 A  
HETATM    7  F   UNL     1     -10.291   6.306  72.356  1.00  0.00    -0.194 F  
HETATM    8  C   UNL     1     -12.375   9.086  71.403  1.00  0.00    -0.318 A  
HETATM    9  C   UNL     1     -10.669   7.527  71.953  1.00  0.00    -0.217 A  
HETATM   10  F   UNL     1     -13.690   9.323  71.286  1.00  0.00    -0.401 F  
HETATM   11  C   UNL     1     -12.009   7.852  71.925  1.00  0.00    -0.347 A  
ENDROOT
BRANCH   6  12
HETATM   12  N   UNL     1     -11.775  11.277  70.347  1.00  0.00    -0.329 NA 
HETATM   13  C   UNL     1     -12.707  13.513  70.827  1.00  0.00    -0.316 C  
HETATM   14  C   UNL     1     -13.513  14.335  71.751  1.00  0.00    -0.381 C  
HETATM   15  C   UNL     1     -12.116  14.034  69.594  1.00  0.00    -0.355 C  
HETATM   16  C   UNL     1     -12.466  12.226  71.116  1.00  0.00    -0.226 C  
HETATM   17  O   UNL     1     -13.960  13.912  72.812  1.00  0.00    -0.697 OA 
HETATM   18  O   UNL     1     -12.294  15.206  69.271  1.00  0.00    -0.207 OA 
HETATM   19  C   UNL     1     -11.327  13.109  68.755  1.00  0.00    -0.333 A  
HETATM   20  O   UNL     1     -13.756  15.596  71.328  1.00  0.00    -0.568 OA 
HETATM   21  C   UNL     1     -10.726  13.646  67.616  1.00  0.00    -0.253 A  
HETATM   22  C   UNL     1     -10.004  12.822  66.772  1.00  0.00    -0.237 A  
HETATM   23  F   UNL     1      -9.415  13.398  65.714  1.00  0.00    -0.222 F  
HETATM   24  C   UNL     1      -9.939  11.432  66.962  1.00  0.00    -0.201 A  
HETATM   25  C   UNL     1     -10.691  10.900  68.050  1.00  0.00    -0.220 A  
HETATM   26 CL   UNL     1     -11.273   9.251  67.885  1.00  0.00     0.077 Cl 
HETATM   27  C   UNL     1     -11.253  11.733  69.065  1.00  0.00    -0.265 A  
BRANCH  24  28
HETATM   28  N   UNL     1      -9.176  10.643  66.060  1.00  0.00    -0.176 NA 
HETATM   29  C   UNL     1      -7.826  10.779  65.603  1.00  0.00    -0.076 C  
HETATM   30  C   UNL     1      -8.283  10.321  64.211  1.00  0.00    -0.157 C  
HETATM   31  C   UNL     1      -9.617   9.959  64.875  1.00  0.00    -0.288 C  
HETATM   32  O   UNL     1      -8.324  11.342  63.183  1.00  0.00    -0.409 OA 
HETATM   33  H   UNL     1      -8.608  11.059  62.321  1.00  0.00     0.000 HD 
ENDBRANCH  24  28
ENDBRANCH   6  12
TORSDOF 2
ENDMDL
MODEL       27
REMARK 921   NORMALIZED FREE ENERGY PREDICTED BY IDOCK:   -7.29 KCAL/MOL
REMARK 922        TOTAL FREE ENERGY PREDICTED BY IDOCK:   -8.98 KCAL/MOL
REMARK 923 INTER-LIGAND FREE ENERGY PREDICTED BY IDOCK:   -8.18 KCAL/MOL
REMARK 924 INTRA-LIGAND FREE ENERGY PREDICTED BY IDOCK:   -0.80 KCAL/MOL
REMARK 927      BINDING AFFINITY PREDICTED BY RF-SCORE:    0.00 PKD
ROOT
HETATM    1  N   UNL     1      -9.249  14.890  69.631  1.00  0.00    -0.446 NA 
HETATM    2  H1  UNL     1      -9.497  15.777  70.069  1.00  0.00     0.000 HD 
HETATM    3  C   UNL     1     -10.081  14.451  68.599  1.00  0.00    -0.242 A  
HETATM    4  H2  UNL     1      -8.284  14.927  69.303  1.00  0.00     0.000 HD 
HETATM    5  N   UNL     1      -9.753  13.274  68.019  1.00  0.00    -0.217 NA 
HETATM    6  C   UNL     1     -10.600  12.724  67.103  1.00  0.00    -0.237 A  
HETATM    7  F   UNL     1     -11.486  16.361  68.806  1.00  0.00    -0.336 F  
HETATM    8  C   UNL     1     -11.734  13.458  66.685  1.00  0.00    -0.385 A  
HETATM    9  C   UNL     1     -11.185  15.202  68.203  1.00  0.00    -0.320 A  
HETATM   10  F   UNL     1     -12.623  12.963  65.812  1.00  0.00    -0.497 F  
HETATM   11  C   UNL     1     -12.014  14.712  67.216  1.00  0.00    -0.312 A  
ENDROOT
BRANCH   6  12
HETATM   12  N   UNL     1     -10.335  11.382  66.606  1.00  0.00    -0.225 NA 
HETATM   13  C   UNL     1      -9.341  10.125  64.726  1.00  0.00    -0.324 C  
HETATM   14  C   UNL     1      -8.940  10.153  63.306  1.00  0.00    -0.247 C  
HETATM   15  C   UNL     1      -9.191   8.948  65.582  1.00  0.00    -0.204 C  
HETATM   16  C   UNL     1      -9.850  11.226  65.297  1.00  0.00    -0.246 C  
HETATM   17  O   UNL     1      -9.014  11.157  62.605  1.00  0.00    -0.306 OA 
HETATM   18  O   UNL     1      -8.728   7.906  65.123  1.00  0.00    -0.086 OA 
HETATM   19  C   UNL     1      -9.628   9.049  66.989  1.00  0.00    -0.231 A  
HETATM   20  O   UNL     1      -8.508   8.970  62.813  1.00  0.00    -0.193 OA 
HETATM   21  C   UNL     1      -9.420   7.931  67.797  1.00  0.00    -0.165 A  
HETATM   22  C   UNL     1      -9.841   7.953  69.115  1.00  0.00    -0.174 A  
HETATM   23  F   UNL     1      -9.579   6.866  69.857  1.00  0.00    -0.155 F  
HETATM   24  C   UNL     1     -10.571   9.027  69.647  1.00  0.00    -0.224 A  
HETATM   25  C   UNL     1     -10.898  10.085  68.748  1.00  0.00    -0.219 A  
HETATM   26 CL   UNL     1     -12.366  10.990  69.083  1.00  0.00    -0.234 Cl 
HETATM   27  C   UNL     1     -10.291  10.203  67.461  1.00  0.00    -0.230 A  
BRANCH  24  28
HETATM   28  N   UNL     1     -10.970   8.989  71.010  1.00  0.00    -0.260 NA 
HETATM   29  C   UNL     1     -10.252   8.609  72.189  1.00  0.00    -0.323 C  
HETATM   30  C   UNL     1     -11.535   7.959  72.725  1.00  0.00    -0.368 C  
HETATM   31  C   UNL     1     -12.254   8.646  71.558  1.00  0.00    -0.318 C  
HETATM   32  O   UNL     1     -11.561   6.510  72.743  1.00  0.00    -0.452 OA 
HETATM   33  H   UNL     1     -12.355   6.108  73.074  1.00  0.00     0.000 HD 
ENDBRANCH  24  28
ENDBRANCH   6  12
TORSDOF 2
ENDMDL
MODEL       28
REMARK 921   NORMALIZED FREE ENERGY PREDICTED BY IDOCK:   -7.18 KCAL/MOL
REMARK 922        TOTAL FREE ENERGY PREDICTED BY IDOCK:   -8.86 KCAL/MOL
REMARK 923 INTER-LIGAND FREE ENERGY PREDICTED BY IDOCK:  -10.01 KCAL/MOL
REMARK 924 INTRA-LIGAND FREE ENERGY PREDICTED BY IDOCK:    1.15 KCAL/MOL
REMARK 927      BINDING AFFINITY PREDICTED BY RF-SCORE:    0.00 PKD
ROOT
HETATM    1  N   UNL     1     -11.913  16.288  71.479  1.00  0.00    -0.650 NA 
HETATM    2  H1  UNL     1     -12.326  17.047  72.020  1.00  0.00     0.000 HD 
HETATM    3  C   UNL     1     -12.514  15.033  71.607  1.00  0.00    -0.339 A  
HETATM    4  H2  UNL     1     -11.873  16.550  70.494  1.00  0.00     0.000 HD 
HETATM    5  N   UNL     1     -11.966  14.027  70.889  1.00  0.00    -0.308 NA 
HETATM    6  C   UNL     1     -12.418  12.754  71.075  1.00  0.00    -0.277 A  
HETATM    7  F   UNL     1     -14.132  15.871  73.138  1.00  0.00    -0.628 F  
HETATM    8  C   UNL     1     -13.534  12.535  71.916  1.00  0.00    -0.296 A  
HETATM    9  C   UNL     1     -13.619  14.852  72.434  1.00  0.00    -0.450 A  
HETATM   10  F   UNL     1     -14.008  11.306  72.167  1.00  0.00    -0.191 F  
HETATM   11  C   UNL     1     -14.153  13.589  72.577  1.00  0.00    -0.463 A  
ENDROOT
BRANCH   6  12
HETATM   12  N   UNL     1     -11.718  11.650  70.434  1.00  0.00    -0.278 NA 
HETATM   13  C   UNL     1     -11.135   9.263  70.680  1.00  0.00    -0.335 C  
HETATM   14  C   UNL     1     -10.957   8.131  71.611  1.00  0.00    -0.250 C  
HETATM   15  C   UNL     1     -10.911   9.161  69.237  1.00  0.00    -0.132 C  
HETATM   16  C   UNL     1     -11.544  10.452  71.145  1.00  0.00    -0.228 C  
HETATM   17  O   UNL     1     -11.199   8.204  72.812  1.00  0.00    -0.389 OA 
HETATM   18  O   UNL     1     -10.539   8.098  68.744  1.00  0.00    -0.200 OA 
HETATM   19  C   UNL     1     -11.126  10.366  68.411  1.00  0.00    -0.322 A  
HETATM   20  O   UNL     1     -10.473   7.002  71.049  1.00  0.00    -0.211 OA 
HETATM   21  C   UNL     1     -10.963  10.225  67.033  1.00  0.00    -0.189 A  
HETATM   22  C   UNL     1     -11.116  11.327  66.211  1.00  0.00    -0.166 A  
HETATM   23  F   UNL     1     -10.987  11.126  64.891  1.00  0.00    -0.352 F  
HETATM   24  C   UNL     1     -11.328  12.616  66.724  1.00  0.00    -0.320 A  
HETATM   25  C   UNL     1     -11.337  12.746  68.144  1.00  0.00    -0.288 A  
HETATM   26 CL   UNL     1     -10.824  14.290  68.806  1.00  0.00    -0.255 Cl 
HETATM   27  C   UNL     1     -11.412  11.613  69.010  1.00  0.00    -0.294 A  
BRANCH  24  28
HETATM   28  N   UNL     1     -11.481  13.706  65.824  1.00  0.00    -0.310 NA 
HETATM   29  C   UNL     1     -12.656  14.348  65.318  1.00  0.00    -0.327 C  
HETATM   30  C   UNL     1     -11.957  14.488  63.958  1.00  0.00    -0.209 C  
HETATM   31  C   UNL     1     -10.680  14.040  64.679  1.00  0.00    -0.399 C  
HETATM   32  O   UNL     1     -12.441  13.626  62.898  1.00  0.00    -0.960 OA 
HETATM   33  H   UNL     1     -12.009  13.712  62.056  1.00  0.00     0.000 HD 
ENDBRANCH  24  28
ENDBRANCH   6  12
TORSDOF 2
ENDMDL
MODEL       29
REMARK 921   NORMALIZED FREE ENERGY PREDICTED BY IDOCK:   -7.17 KCAL/MOL
REMARK 922        TOTAL FREE ENERGY PREDICTED BY IDOCK:   -8.85 KCAL/MOL
REMARK 923 INTER-LIGAND FREE ENERGY PREDICTED BY IDOCK:   -7.75 KCAL/MOL
REMARK 924 INTRA-LIGAND FREE ENERGY PREDICTED BY IDOCK:   -1.09 KCAL/MOL
REMARK 927      BINDING AFFINITY PREDICTED BY RF-SCORE:    0.00 PKD
ROOT
HETATM    1  N   UNL     1      -8.341   7.856  72.699  1.00  0.00    -0.132 NA 
HETATM    2  H1  UNL     1      -8.255   7.274  73.532  1.00  0.00     0.000 HD 
HETATM    3  C   UNL     1      -9.635   8.232  72.331  1.00  0.00    -0.294 A  
HETATM    4  H2  UNL     1      -7.757   8.686  72.798  1.00  0.00     0.000 HD 
HETATM    5  N   UNL     1      -9.748   9.003  71.226  1.00  0.00    -0.289 NA 
HETATM    6  C   UNL     1     -10.988   9.288  70.738  1.00  0.00    -0.284 A  
HETATM    7  F   UNL     1     -10.588   7.053  74.166  1.00  0.00    -0.396 F  
HETATM    8  C   UNL     1     -12.128   8.882  71.470  1.00  0.00    -0.330 A  
HETATM    9  C   UNL     1     -10.736   7.825  73.080  1.00  0.00    -0.384 A  
HETATM   10  F   UNL     1     -13.375   9.103  71.030  1.00  0.00    -0.313 F  
HETATM   11  C   UNL     1     -12.002   8.171  72.657  1.00  0.00    -0.353 A  
ENDROOT
BRANCH   6  12
HETATM   12  N   UNL     1     -11.108   9.972  69.458  1.00  0.00    -0.240 NA 
HETATM   13  C   UNL     1     -11.466  12.183  68.417  1.00  0.00    -0.356 C  
HETATM   14  C   UNL     1     -11.992  13.551  68.591  1.00  0.00    -0.343 C  
HETATM   15  C   UNL     1     -10.867  11.703  67.172  1.00  0.00    -0.261 C  
HETATM   16  C   UNL     1     -11.504  11.318  69.442  1.00  0.00    -0.301 C  
HETATM   17  O   UNL     1     -12.443  13.969  69.653  1.00  0.00    -0.311 OA 
HETATM   18  O   UNL     1     -10.796  12.445  66.195  1.00  0.00    -0.259 OA 
HETATM   19  C   UNL     1     -10.374  10.311  67.126  1.00  0.00    -0.292 A  
HETATM   20  O   UNL     1     -11.971  14.315  67.476  1.00  0.00    -0.389 OA 
HETATM   21  C   UNL     1      -9.754   9.899  65.946  1.00  0.00    -0.326 A  
HETATM   22  C   UNL     1      -9.305   8.596  65.831  1.00  0.00    -0.195 A  
HETATM   23  F   UNL     1      -8.681   8.265  64.690  1.00  0.00    -0.154 F  
HETATM   24  C   UNL     1      -9.544   7.633  66.824  1.00  0.00    -0.209 A  
HETATM   25  C   UNL     1     -10.314   8.053  67.948  1.00  0.00    -0.222 A  
HETATM   26 CL   UNL     1     -11.268   6.824  68.764  1.00  0.00    -0.217 Cl 
HETATM   27  C   UNL     1     -10.594   9.429  68.207  1.00  0.00    -0.210 A  
BRANCH  24  28
HETATM   28  N   UNL     1      -9.052   6.312  66.645  1.00  0.00    -0.139 NA 
HETATM   29  C   UNL     1      -9.699   5.124  66.175  1.00  0.00    -0.176 C  
HETATM   30  C   UNL     1      -8.905   4.318  67.213  1.00  0.00    -0.113 C  
HETATM   31  C   UNL     1      -8.092   5.598  67.441  1.00  0.00    -0.102 C  
HETATM   32  O   UNL     1      -9.658   3.815  68.345  1.00  0.00    -0.162 OA 
HETATM   33  H   UNL     1      -9.166   3.317  68.988  1.00  0.00     0.000 HD 
ENDBRANCH  24  28
ENDBRANCH   6  12
TORSDOF 2
ENDMDL
MODEL       30
REMARK 921   NORMALIZED FREE ENERGY PREDICTED BY IDOCK:   -7.15 KCAL/MOL
REMARK 922        TOTAL FREE ENERGY PREDICTED BY IDOCK:   -8.82 KCAL/MOL
REMARK 923 INTER-LIGAND FREE ENERGY PREDICTED BY IDOCK:   -7.79 KCAL/MOL
REMARK 924 INTRA-LIGAND FREE ENERGY PREDICTED BY IDOCK:   -1.03 KCAL/MOL
REMARK 927      BINDING AFFINITY PREDICTED BY RF-SCORE:    0.00 PKD
ROOT
HETATM    1  N   UNL     1      -5.874  11.860  66.673  1.00  0.00    -0.432 NA 
HETATM    2  H1  UNL     1      -5.171  11.597  65.983  1.00  0.00     0.000 HD 
HETATM    3  C   UNL     1      -7.138  11.283  66.525  1.00  0.00    -0.097 A  
HETATM    4  H2  UNL     1      -5.520  11.675  67.611  1.00  0.00     0.000 HD 
HETATM    5  N   UNL     1      -8.070  11.632  67.439  1.00  0.00    -0.145 NA 
HETATM    6  C   UNL     1      -9.357  11.212  67.272  1.00  0.00    -0.160 A  
HETATM    7  F   UNL     1      -6.453  10.078  64.590  1.00  0.00    -0.098 F  
HETATM    8  C   UNL     1      -9.659  10.318  66.219  1.00  0.00    -0.189 A  
HETATM    9  C   UNL     1      -7.400  10.396  65.484  1.00  0.00    -0.139 A  
HETATM   10  F   UNL     1     -10.907   9.892  65.979  1.00  0.00    -0.136 F  
HETATM   11  C   UNL     1      -8.674   9.887  65.339  1.00  0.00    -0.175 A  
ENDROOT
BRANCH   6  12
HETATM   12  N   UNL     1     -10.393  11.725  68.157  1.00  0.00    -0.193 NA 
HETATM   13  C   UNL     1     -11.718  11.196  70.173  1.00  0.00    -0.439 C  
HETATM   14  C   UNL     1     -12.235  10.134  71.059  1.00  0.00    -0.374 C  
HETATM   15  C   UNL     1     -11.994  12.618  70.375  1.00  0.00    -0.248 C  
HETATM   16  C   UNL     1     -10.933  10.874  69.134  1.00  0.00    -0.239 C  
HETATM   17  O   UNL     1     -11.956   8.947  70.920  1.00  0.00    -0.282 OA 
HETATM   18  O   UNL     1     -12.703  12.983  71.310  1.00  0.00    -0.368 OA 
HETATM   19  C   UNL     1     -11.415  13.584  69.419  1.00  0.00    -0.340 A  
HETATM   20  O   UNL     1     -13.074  10.561  72.029  1.00  0.00    -0.467 OA 
HETATM   21  C   UNL     1     -11.646  14.936  69.669  1.00  0.00    -0.337 A  
HETATM   22  C   UNL     1     -11.159  15.886  68.788  1.00  0.00    -0.328 A  
HETATM   23  F   UNL     1     -11.376  17.173  69.099  1.00  0.00    -0.089 F  
HETATM   24  C   UNL     1     -10.527  15.533  67.586  1.00  0.00    -0.279 A  
HETATM   25  C   UNL     1     -10.445  14.141  67.291  1.00  0.00    -0.272 A  
HETATM   26 CL   UNL     1     -10.411  13.687  65.594  1.00  0.00    -0.292 Cl 
HETATM   27  C   UNL     1     -10.725  13.139  68.269  1.00  0.00    -0.245 A  
BRANCH  24  28
HETATM   28  N   UNL     1     -10.046  16.559  66.727  1.00  0.00    -0.279 NA 
HETATM   29  C   UNL     1      -9.053  17.570  66.934  1.00  0.00    -0.254 C  
HETATM   30  C   UNL     1      -9.927  18.549  66.138  1.00  0.00    -0.322 C  
HETATM   31  C   UNL     1     -10.775  17.330  65.757  1.00  0.00    -0.131 C  
HETATM   32  O   UNL     1     -10.587  19.587  66.904  1.00  0.00    -0.441 OA 
HETATM   33  H   UNL     1     -11.128  20.193  66.410  1.00  0.00     0.000 HD 
ENDBRANCH  24  28
ENDBRANCH   6  12
TORSDOF 2
ENDMDL
MODEL       31
REMARK 921   NORMALIZED FREE ENERGY PREDICTED BY IDOCK:   -7.14 KCAL/MOL
REMARK 922        TOTAL FREE ENERGY PREDICTED BY IDOCK:   -8.82 KCAL/MOL
REMARK 923 INTER-LIGAND FREE ENERGY PREDICTED BY IDOCK:   -8.40 KCAL/MOL
REMARK 924 INTRA-LIGAND FREE ENERGY PREDICTED BY IDOCK:   -0.42 KCAL/MOL
REMARK 927      BINDING AFFINITY PREDICTED BY RF-SCORE:    0.00 PKD
ROOT
HETATM    1  N   UNL     1     -11.640   9.821  69.489  1.00  0.00    -0.453 NA 
HETATM    2  H1  UNL     1     -11.747   8.862  69.819  1.00  0.00     0.000 HD 
HETATM    3  C   UNL     1     -11.054   9.986  68.232  1.00  0.00    -0.190 A  
HETATM    4  H2  UNL     1     -12.542  10.295  69.512  1.00  0.00     0.000 HD 
HETATM    5  N   UNL     1     -10.911  11.258  67.795  1.00  0.00    -0.232 NA 
HETATM    6  C   UNL     1     -10.224  11.492  66.641  1.00  0.00    -0.219 A  
HETATM    7  F   UNL     1     -10.797   7.636  67.951  1.00  0.00    -0.266 F  
HETATM    8  C   UNL     1      -9.791  10.394  65.862  1.00  0.00    -0.235 A  
HETATM    9  C   UNL     1     -10.648   8.884  67.483  1.00  0.00    -0.237 A  
HETATM   10  F   UNL     1      -9.084  10.554  64.734  1.00  0.00    -0.179 F  
HETATM   11  C   UNL     1     -10.026   9.087  66.270  1.00  0.00    -0.352 A  
ENDROOT
BRANCH   6  12
HETATM   12  N   UNL     1      -9.923  12.864  66.259  1.00  0.00    -0.266 NA 
HETATM   13  C   UNL     1     -10.864  14.871  65.170  1.00  0.00    -0.428 C  
HETATM   14  C   UNL     1     -11.880  15.400  64.238  1.00  0.00    -0.199 C  
HETATM   15  C   UNL     1      -9.875  15.711  65.844  1.00  0.00    -0.350 C  
HETATM   16  C   UNL     1     -10.835  13.560  65.451  1.00  0.00    -0.294 C  
HETATM   17  O   UNL     1     -12.744  14.702  63.718  1.00  0.00    -0.778 OA 
HETATM   18  O   UNL     1      -9.848  16.922  65.635  1.00  0.00    -0.549 OA 
HETATM   19  C   UNL     1      -8.913  15.061  66.756  1.00  0.00    -0.293 A  
HETATM   20  O   UNL     1     -11.774  16.721  63.970  1.00  0.00    -1.120 OA 
HETATM   21  C   UNL     1      -8.019  15.893  67.431  1.00  0.00    -0.187 A  
HETATM   22  C   UNL     1      -7.071  15.338  68.271  1.00  0.00    -0.115 A  
HETATM   23  F   UNL     1      -6.263  16.187  68.925  1.00  0.00    -0.118 F  
HETATM   24  C   UNL     1      -6.902  13.949  68.391  1.00  0.00    -0.101 A  
HETATM   25  C   UNL     1      -7.732  13.131  67.570  1.00  0.00    -0.166 A  
HETATM   26 CL   UNL     1      -7.088  11.567  67.094  1.00  0.00    -0.131 Cl 
HETATM   27  C   UNL     1      -8.863  13.654  66.873  1.00  0.00    -0.187 A  
BRANCH  24  28
HETATM   28  N   UNL     1      -5.911  13.444  69.276  1.00  0.00    -0.082 NA 
HETATM   29  C   UNL     1      -5.162  12.223  69.249  1.00  0.00    -0.068 C  
HETATM   30  C   UNL     1      -5.282  12.152  70.778  1.00  0.00    -0.145 C  
HETATM   31  C   UNL     1      -5.830  13.583  70.704  1.00  0.00    -0.171 C  
HETATM   32  O   UNL     1      -6.176  11.140  71.304  1.00  0.00    -0.289 OA 
HETATM   33  H   UNL     1      -6.251  11.096  72.251  1.00  0.00     0.000 HD 
ENDBRANCH  24  28
ENDBRANCH   6  12
TORSDOF 2
ENDMDL
MODEL       32
REMARK 921   NORMALIZED FREE ENERGY PREDICTED BY IDOCK:   -7.14 KCAL/MOL
REMARK 922        TOTAL FREE ENERGY PREDICTED BY IDOCK:   -8.81 KCAL/MOL
REMARK 923 INTER-LIGAND FREE ENERGY PREDICTED BY IDOCK:   -7.88 KCAL/MOL
REMARK 924 INTRA-LIGAND FREE ENERGY PREDICTED BY IDOCK:   -0.94 KCAL/MOL
REMARK 927      BINDING AFFINITY PREDICTED BY RF-SCORE:    0.00 PKD
ROOT
HETATM    1  N   UNL     1      -7.676  16.829  68.662  1.00  0.00    -0.220 NA 
HETATM    2  H1  UNL     1      -7.518  17.837  68.666  1.00  0.00     0.000 HD 
HETATM    3  C   UNL     1      -8.621  16.351  67.750  1.00  0.00    -0.168 A  
HETATM    4  H2  UNL     1      -6.790  16.343  68.526  1.00  0.00     0.000 HD 
HETATM    5  N   UNL     1      -8.830  15.015  67.745  1.00  0.00    -0.168 NA 
HETATM    6  C   UNL     1      -9.835  14.502  66.978  1.00  0.00    -0.249 A  
HETATM    7  F   UNL     1      -9.069  18.543  66.938  1.00  0.00    -0.262 F  
HETATM    8  C   UNL     1     -10.546  15.362  66.110  1.00  0.00    -0.316 A  
HETATM    9  C   UNL     1      -9.297  17.222  66.900  1.00  0.00    -0.255 A  
HETATM   10  F   UNL     1     -11.565  14.928  65.353  1.00  0.00    -0.341 F  
HETATM   11  C   UNL     1     -10.260  16.720  66.050  1.00  0.00    -0.361 A  
ENDROOT
BRANCH   6  12
HETATM   12  N   UNL     1     -10.172  13.091  67.100  1.00  0.00    -0.241 NA 
HETATM   13  C   UNL     1      -9.645  10.844  66.223  1.00  0.00    -0.234 C  
HETATM   14  C   UNL     1      -9.087  10.063  65.101  1.00  0.00    -0.204 C  
HETATM   15  C   UNL     1     -10.192  10.233  67.435  1.00  0.00    -0.218 C  
HETATM   16  C   UNL     1      -9.644  12.184  66.169  1.00  0.00    -0.240 C  
HETATM   17  O   UNL     1      -8.578  10.579  64.110  1.00  0.00    -0.178 OA 
HETATM   18  O   UNL     1     -10.220   9.010  67.551  1.00  0.00    -0.208 OA 
HETATM   19  C   UNL     1     -10.719  11.125  68.488  1.00  0.00    -0.235 A  
HETATM   20  O   UNL     1      -9.204   8.723  65.226  1.00  0.00    -0.157 OA 
HETATM   21  C   UNL     1     -11.179  10.519  69.656  1.00  0.00    -0.342 A  
HETATM   22  C   UNL     1     -11.717  11.299  70.664  1.00  0.00    -0.161 A  
HETATM   23  F   UNL     1     -12.108  10.668  71.781  1.00  0.00    -0.388 F  
HETATM   24  C   UNL     1     -11.916  12.681  70.512  1.00  0.00    -0.192 A  
HETATM   25  C   UNL     1     -11.573  13.240  69.247  1.00  0.00    -0.314 A  
HETATM   26 CL   UNL     1     -12.467  14.664  68.737  1.00  0.00    -0.014 Cl 
HETATM   27  C   UNL     1     -10.812  12.519  68.277  1.00  0.00    -0.234 A  
BRANCH  24  28
HETATM   28  N   UNL     1     -12.470  13.425  71.589  1.00  0.00    -0.173 NA 
HETATM   29  C   UNL     1     -13.797  13.455  72.125  1.00  0.00    -0.511 C  
HETATM   30  C   UNL     1     -13.645  14.968  72.335  1.00  0.00    -0.460 C  
HETATM   31  C   UNL     1     -12.162  14.767  72.001  1.00  0.00    -0.331 C  
HETATM   32  O   UNL     1     -14.404  15.819  71.440  1.00  0.00    -0.501 OA 
HETATM   33  H   UNL     1     -14.310  16.756  71.570  1.00  0.00     0.000 HD 
ENDBRANCH  24  28
ENDBRANCH   6  12
TORSDOF 2
ENDMDL
MODEL       33
REMARK 921   NORMALIZED FREE ENERGY PREDICTED BY IDOCK:   -7.13 KCAL/MOL
REMARK 922        TOTAL FREE ENERGY PREDICTED BY IDOCK:   -8.80 KCAL/MOL
REMARK 923 INTER-LIGAND FREE ENERGY PREDICTED BY IDOCK:   -7.83 KCAL/MOL
REMARK 924 INTRA-LIGAND FREE ENERGY PREDICTED BY IDOCK:   -0.96 KCAL/MOL
REMARK 927      BINDING AFFINITY PREDICTED BY RF-SCORE:    0.00 PKD
ROOT
HETATM    1  N   UNL     1     -13.190   7.343  72.325  1.00  0.00    -0.500 NA 
HETATM    2  H1  UNL     1     -13.198   6.949  73.266  1.00  0.00     0.000 HD 
HETATM    3  C   UNL     1     -11.980   7.884  71.886  1.00  0.00    -0.305 A  
HETATM    4  H2  UNL     1     -13.516   6.644  71.658  1.00  0.00     0.000 HD 
HETATM    5  N   UNL     1     -11.970   8.406  70.638  1.00  0.00    -0.112 NA 
HETATM    6  C   UNL     1     -10.862   9.071  70.203  1.00  0.00    -0.237 A  
HETATM    7  F   UNL     1     -10.902   7.356  73.941  1.00  0.00    -0.396 F  
HETATM    8  C   UNL     1      -9.705   9.087  71.015  1.00  0.00    -0.278 A  
HETATM    9  C   UNL     1     -10.854   7.874  72.705  1.00  0.00    -0.386 A  
HETATM   10  F   UNL     1      -8.593   9.748  70.662  1.00  0.00    -0.226 F  
HETATM   11  C   UNL     1      -9.691   8.465  72.258  1.00  0.00    -0.386 A  
ENDROOT
BRANCH   6  12
HETATM   12  N   UNL     1     -10.911   9.778  68.931  1.00  0.00    -0.214 NA 
HETATM   13  C   UNL     1     -11.223  12.006  67.913  1.00  0.00    -0.323 C  
HETATM   14  C   UNL     1     -11.767  13.368  68.081  1.00  0.00    -0.362 C  
HETATM   15  C   UNL     1     -10.548  11.553  66.696  1.00  0.00    -0.253 C  
HETATM   16  C   UNL     1     -11.315  11.122  68.917  1.00  0.00    -0.278 C  
HETATM   17  O   UNL     1     -12.283  13.762  69.123  1.00  0.00    -0.344 OA 
HETATM   18  O   UNL     1     -10.425  12.315  65.739  1.00  0.00    -0.243 OA 
HETATM   19  C   UNL     1     -10.044  10.166  66.653  1.00  0.00    -0.283 A  
HETATM   20  O   UNL     1     -11.686  14.153  66.984  1.00  0.00    -0.363 OA 
HETATM   21  C   UNL     1      -9.353   9.780  65.505  1.00  0.00    -0.299 A  
HETATM   22  C   UNL     1      -8.889   8.482  65.391  1.00  0.00    -0.130 A  
HETATM   23  F   UNL     1      -8.197   8.176  64.283  1.00  0.00    -0.150 F  
HETATM   24  C   UNL     1      -9.180   7.499  66.351  1.00  0.00    -0.167 A  
HETATM   25  C   UNL     1     -10.017   7.892  67.435  1.00  0.00    -0.198 A  
HETATM   26 CL   UNL     1     -11.009   6.643  68.170  1.00  0.00    -0.326 Cl 
HETATM   27  C   UNL     1     -10.320   9.262  67.703  1.00  0.00    -0.253 A  
BRANCH  24  28
HETATM   28  N   UNL     1      -8.668   6.184  66.176  1.00  0.00    -0.143 NA 
HETATM   29  C   UNL     1      -9.152   5.084  65.398  1.00  0.00    -0.154 C  
HETATM   30  C   UNL     1      -8.721   4.136  66.525  1.00  0.00    -0.115 C  
HETATM   31  C   UNL     1      -8.004   5.347  67.136  1.00  0.00    -0.101 C  
HETATM   32  O   UNL     1      -9.788   3.548  67.311  1.00  0.00    -0.309 OA 
HETATM   33  H   UNL     1      -9.521   2.961  68.009  1.00  0.00     0.000 HD 
ENDBRANCH  24  28
ENDBRANCH   6  12
TORSDOF 2
ENDMDL
MODEL       34
REMARK 921   NORMALIZED FREE ENERGY PREDICTED BY IDOCK:   -7.07 KCAL/MOL
REMARK 922        TOTAL FREE ENERGY PREDICTED BY IDOCK:   -8.73 KCAL/MOL
REMARK 923 INTER-LIGAND FREE ENERGY PREDICTED BY IDOCK:   -8.12 KCAL/MOL
REMARK 924 INTRA-LIGAND FREE ENERGY PREDICTED BY IDOCK:   -0.61 KCAL/MOL
REMARK 927      BINDING AFFINITY PREDICTED BY RF-SCORE:    0.00 PKD
ROOT
HETATM    1  N   UNL     1      -6.613  12.126  69.103  1.00  0.00    -0.101 NA 
HETATM    2  H1  UNL     1      -5.830  12.388  68.504  1.00  0.00     0.000 HD 
HETATM    3  C   UNL     1      -7.619  11.357  68.513  1.00  0.00    -0.129 A  
HETATM    4  H2  UNL     1      -6.265  11.654  69.937  1.00  0.00     0.000 HD 
HETATM    5  N   UNL     1      -8.657  11.011  69.308  1.00  0.00     0.004 NA 
HETATM    6  C   UNL     1      -9.734  10.380  68.758  1.00  0.00    -0.183 A  
HETATM    7  F   UNL     1      -6.495  11.345  66.415  1.00  0.00    -0.125 F  
HETATM    8  C   UNL     1      -9.685   9.988  67.401  1.00  0.00    -0.161 A  
HETATM    9  C   UNL     1      -7.536  10.977  67.176  1.00  0.00    -0.117 A  
HETATM   10  F   UNL     1     -10.720   9.393  66.791  1.00  0.00    -0.299 F  
HETATM   11  C   UNL     1      -8.573  10.263  66.614  1.00  0.00    -0.130 A  
ENDROOT
BRANCH   6  12
HETATM   12  N   UNL     1     -10.920  10.160  69.573  1.00  0.00    -0.242 NA 
HETATM   13  C   UNL     1     -12.089   8.484  70.960  1.00  0.00    -0.231 C  
HETATM   14  C   UNL     1     -12.270   7.050  71.262  1.00  0.00    -0.377 C  
HETATM   15  C   UNL     1     -12.826   9.549  71.641  1.00  0.00    -0.393 C  
HETATM   16  C   UNL     1     -11.195   8.863  70.035  1.00  0.00    -0.110 C  
HETATM   17  O   UNL     1     -11.611   6.162  70.730  1.00  0.00    -0.316 OA 
HETATM   18  O   UNL     1     -13.658   9.271  72.502  1.00  0.00    -0.467 OA 
HETATM   19  C   UNL     1     -12.553  10.946  71.249  1.00  0.00    -0.526 A  
HETATM   20  O   UNL     1     -13.246   6.774  72.155  1.00  0.00    -0.146 OA 
HETATM   21  C   UNL     1     -13.226  11.943  71.955  1.00  0.00    -0.467 A  
HETATM   22  C   UNL     1     -13.038  13.270  71.610  1.00  0.00    -0.363 A  
HETATM   23  F   UNL     1     -13.679  14.189  72.347  1.00  0.00    -0.452 F  
HETATM   24  C   UNL     1     -12.270  13.649  70.497  1.00  0.00    -0.368 A  
HETATM   25  C   UNL     1     -11.722  12.595  69.709  1.00  0.00    -0.284 A  
HETATM   26 CL   UNL     1     -11.463  12.927  68.004  1.00  0.00    -0.335 Cl 
HETATM   27  C   UNL     1     -11.703  11.240  70.160  1.00  0.00    -0.343 A  
BRANCH  24  28
HETATM   28  N   UNL     1     -12.114  15.030  70.199  1.00  0.00    -0.310 NA 
HETATM   29  C   UNL     1     -12.014  15.715  68.946  1.00  0.00    -0.279 C  
HETATM   30  C   UNL     1     -10.974  16.652  69.575  1.00  0.00    -0.228 C  
HETATM   31  C   UNL     1     -11.363  16.022  70.918  1.00  0.00    -0.385 C  
HETATM   32  O   UNL     1      -9.602  16.470  69.144  1.00  0.00    -0.260 OA 
HETATM   33  H   UNL     1      -8.959  17.050  69.534  1.00  0.00     0.000 HD 
ENDBRANCH  24  28
ENDBRANCH   6  12
TORSDOF 2
ENDMDL
MODEL       35
REMARK 921   NORMALIZED FREE ENERGY PREDICTED BY IDOCK:   -7.04 KCAL/MOL
REMARK 922        TOTAL FREE ENERGY PREDICTED BY IDOCK:   -8.71 KCAL/MOL
REMARK 923 INTER-LIGAND FREE ENERGY PREDICTED BY IDOCK:   -7.63 KCAL/MOL
REMARK 924 INTRA-LIGAND FREE ENERGY PREDICTED BY IDOCK:   -1.07 KCAL/MOL
REMARK 927      BINDING AFFINITY PREDICTED BY RF-SCORE:    0.00 PKD
ROOT
HETATM    1  N   UNL     1     -12.472   9.723  70.431  1.00  0.00    -0.495 NA 
HETATM    2  H1  UNL     1     -12.617   9.538  71.423  1.00  0.00     0.000 HD 
HETATM    3  C   UNL     1     -11.155   9.657  69.971  1.00  0.00    -0.255 A  
HETATM    4  H2  UNL     1     -13.061   9.102  69.876  1.00  0.00     0.000 HD 
HETATM    5  N   UNL     1     -10.963   9.903  68.655  1.00  0.00    -0.209 NA 
HETATM    6  C   UNL     1      -9.691   9.990  68.173  1.00  0.00    -0.140 A  
HETATM    7  F   UNL     1     -10.336   9.120  72.140  1.00  0.00    -0.403 F  
HETATM    8  C   UNL     1      -8.606   9.693  69.031  1.00  0.00    -0.133 A  
HETATM    9  C   UNL     1     -10.110   9.351  70.838  1.00  0.00    -0.296 A  
HETATM   10  F   UNL     1      -7.331   9.790  68.629  1.00  0.00    -0.070 F  
HETATM   11  C   UNL     1      -8.817   9.346  70.360  1.00  0.00    -0.290 A  
ENDROOT
BRANCH   6  12
HETATM   12  N   UNL     1      -9.480  10.422  66.798  1.00  0.00    -0.163 NA 
HETATM   13  C   UNL     1      -9.038   9.605  64.510  1.00  0.00    -0.287 C  
HETATM   14  C   UNL     1      -8.516   8.502  63.679  1.00  0.00    -0.021 C  
HETATM   15  C   UNL     1      -9.553  10.857  63.955  1.00  0.00    -0.284 C  
HETATM   16  C   UNL     1      -9.075   9.475  65.844  1.00  0.00    -0.184 C  
HETATM   17  O   UNL     1      -8.137   7.432  64.143  1.00  0.00    -0.126 OA 
HETATM   18  O   UNL     1      -9.552  11.040  62.740  1.00  0.00    -0.313 OA 
HETATM   19  C   UNL     1     -10.050  11.883  64.893  1.00  0.00    -0.296 A  
HETATM   20  O   UNL     1      -8.456   8.766  62.355  1.00  0.00    -0.194 OA 
HETATM   21  C   UNL     1     -10.590  13.042  64.335  1.00  0.00    -0.429 A  
HETATM   22  C   UNL     1     -11.039  14.054  65.163  1.00  0.00    -0.341 A  
HETATM   23  F   UNL     1     -11.585  15.128  64.573  1.00  0.00    -0.381 F  
HETATM   24  C   UNL     1     -10.873  14.006  66.557  1.00  0.00    -0.300 A  
HETATM   25  C   UNL     1     -10.179  12.876  67.079  1.00  0.00    -0.243 A  
HETATM   26 CL   UNL     1      -9.291  13.109  68.577  1.00  0.00    -0.141 Cl 
HETATM   27  C   UNL     1      -9.910  11.717  66.289  1.00  0.00    -0.221 A  
BRANCH  24  28
HETATM   28  N   UNL     1     -11.361  15.079  67.352  1.00  0.00    -0.337 NA 
HETATM   29  C   UNL     1     -10.777  16.345  67.681  1.00  0.00    -0.312 C  
HETATM   30  C   UNL     1     -11.365  16.215  69.092  1.00  0.00    -0.323 C  
HETATM   31  C   UNL     1     -12.156  15.019  68.547  1.00  0.00    -0.142 C  
HETATM   32  O   UNL     1     -10.420  15.939  70.157  1.00  0.00    -0.301 OA 
HETATM   33  H   UNL     1     -10.785  15.858  71.031  1.00  0.00     0.000 HD 
ENDBRANCH  24  28
ENDBRANCH   6  12
TORSDOF 2
ENDMDL
MODEL       36
REMARK 921   NORMALIZED FREE ENERGY PREDICTED BY IDOCK:   -6.93 KCAL/MOL
REMARK 922        TOTAL FREE ENERGY PREDICTED BY IDOCK:   -8.58 KCAL/MOL
REMARK 923 INTER-LIGAND FREE ENERGY PREDICTED BY IDOCK:   -7.90 KCAL/MOL
REMARK 924 INTRA-LIGAND FREE ENERGY PREDICTED BY IDOCK:   -0.68 KCAL/MOL
REMARK 927      BINDING AFFINITY PREDICTED BY RF-SCORE:    0.00 PKD
ROOT
HETATM    1  N   UNL     1      -6.564   5.995  65.420  1.00  0.00    -0.042 NA 
HETATM    2  H1  UNL     1      -6.284   5.032  65.229  1.00  0.00     0.000 HD 
HETATM    3  C   UNL     1      -7.844   6.179  65.946  1.00  0.00    -0.107 A  
HETATM    4  H2  UNL     1      -5.875   6.437  66.028  1.00  0.00     0.000 HD 
HETATM    5  N   UNL     1      -8.214   7.454  66.199  1.00  0.00    -0.123 NA 
HETATM    6  C   UNL     1      -9.497   7.712  66.582  1.00  0.00    -0.198 A  
HETATM    7  F   UNL     1      -8.282   3.839  65.921  1.00  0.00    -0.098 F  
HETATM    8  C   UNL     1     -10.372   6.629  66.832  1.00  0.00    -0.254 A  
HETATM    9  C   UNL     1      -8.679   5.091  66.192  1.00  0.00    -0.120 A  
HETATM   10  F   UNL     1     -11.654   6.813  67.181  1.00  0.00    -0.399 F  
HETATM   11  C   UNL     1      -9.955   5.315  66.662  1.00  0.00    -0.227 A  
ENDROOT
BRANCH   6  12
HETATM   12  N   UNL     1      -9.943   9.094  66.689  1.00  0.00    -0.251 NA 
HETATM   13  C   UNL     1     -10.699  11.039  65.370  1.00  0.00    -0.222 C  
HETATM   14  C   UNL     1     -10.706  11.701  64.050  1.00  0.00    -0.384 C  
HETATM   15  C   UNL     1     -11.341  11.605  66.557  1.00  0.00    -0.263 C  
HETATM   16  C   UNL     1     -10.102   9.848  65.516  1.00  0.00    -0.227 C  
HETATM   17  O   UNL     1     -10.216  11.199  63.044  1.00  0.00    -0.309 OA 
HETATM   18  O   UNL     1     -11.911  12.692  66.491  1.00  0.00    -0.396 OA 
HETATM   19  C   UNL     1     -11.266  10.844  67.820  1.00  0.00    -0.384 A  
HETATM   20  O   UNL     1     -11.271  12.929  64.031  1.00  0.00    -0.367 OA 
HETATM   21  C   UNL     1     -11.937  11.377  68.920  1.00  0.00    -0.371 A  
HETATM   22  C   UNL     1     -11.873  10.727  70.140  1.00  0.00    -0.343 A  
HETATM   23  F   UNL     1     -12.570  11.263  71.153  1.00  0.00    -0.421 F  
HETATM   24  C   UNL     1     -11.065   9.597  70.341  1.00  0.00    -0.290 A  
HETATM   25  C   UNL     1     -10.275   9.171  69.234  1.00  0.00    -0.210 A  
HETATM   26 CL   UNL     1      -8.767   8.348  69.601  1.00  0.00    -0.132 Cl 
HETATM   27  C   UNL     1     -10.487   9.669  67.912  1.00  0.00    -0.246 A  
BRANCH  24  28
HETATM   28  N   UNL     1     -11.048   8.975  71.619  1.00  0.00    -0.339 NA 
HETATM   29  C   UNL     1      -9.957   8.517  72.426  1.00  0.00    -0.295 C  
HETATM   30  C   UNL     1     -10.811   7.312  72.843  1.00  0.00    -0.337 C  
HETATM   31  C   UNL     1     -11.985   8.034  72.169  1.00  0.00    -0.348 C  
HETATM   32  O   UNL     1     -10.428   6.031  72.285  1.00  0.00    -0.195 OA 
HETATM   33  H   UNL     1     -10.957   5.285  72.543  1.00  0.00     0.000 HD 
ENDBRANCH  24  28
ENDBRANCH   6  12
TORSDOF 2
ENDMDL
MODEL       37
REMARK 921   NORMALIZED FREE ENERGY PREDICTED BY IDOCK:   -6.92 KCAL/MOL
REMARK 922        TOTAL FREE ENERGY PREDICTED BY IDOCK:   -8.57 KCAL/MOL
REMARK 923 INTER-LIGAND FREE ENERGY PREDICTED BY IDOCK:   -7.53 KCAL/MOL
REMARK 924 INTRA-LIGAND FREE ENERGY PREDICTED BY IDOCK:   -1.04 KCAL/MOL
REMARK 927      BINDING AFFINITY PREDICTED BY RF-SCORE:    0.00 PKD
ROOT
HETATM    1  N   UNL     1      -9.543  16.591  68.534  1.00  0.00    -0.225 NA 
HETATM    2  H1  UNL     1      -9.590  17.495  68.063  1.00  0.00     0.000 HD 
HETATM    3  C   UNL     1     -10.125  15.510  67.867  1.00  0.00    -0.224 A  
HETATM    4  H2  UNL     1      -8.574  16.373  68.762  1.00  0.00     0.000 HD 
HETATM    5  N   UNL     1     -10.063  14.313  68.492  1.00  0.00    -0.242 NA 
HETATM    6  C   UNL     1     -10.730  13.249  67.960  1.00  0.00    -0.240 A  
HETATM    7  F   UNL     1     -10.779  16.884  66.037  1.00  0.00    -0.312 F  
HETATM    8  C   UNL     1     -11.362  13.391  66.703  1.00  0.00    -0.323 A  
HETATM    9  C   UNL     1     -10.729  15.680  66.624  1.00  0.00    -0.296 A  
HETATM   10  F   UNL     1     -12.060  12.395  66.139  1.00  0.00    -0.464 F  
HETATM   11  C   UNL     1     -11.339  14.601  66.020  1.00  0.00    -0.344 A  
ENDROOT
BRANCH   6  12
HETATM   12  N   UNL     1     -10.807  12.008  68.717  1.00  0.00    -0.226 NA 
HETATM   13  C   UNL     1     -12.046  10.857  70.516  1.00  0.00    -0.464 C  
HETATM   14  C   UNL     1     -12.911  11.008  71.703  1.00  0.00    -0.456 C  
HETATM   15  C   UNL     1     -11.586   9.561  70.016  1.00  0.00    -0.048 C  
HETATM   16  C   UNL     1     -11.663  11.941  69.827  1.00  0.00    -0.331 C  
HETATM   17  O   UNL     1     -13.342  12.091  72.088  1.00  0.00    -0.510 OA 
HETATM   18  O   UNL     1     -11.903   8.527  70.598  1.00  0.00    -0.227 OA 
HETATM   19  C   UNL     1     -10.724   9.543  68.817  1.00  0.00    -0.218 A  
HETATM   20  O   UNL     1     -13.177   9.860  72.364  1.00  0.00    -0.386 OA 
HETATM   21  C   UNL     1     -10.349   8.292  68.327  1.00  0.00    -0.242 A  
HETATM   22  C   UNL     1      -9.514   8.212  67.227  1.00  0.00    -0.155 A  
HETATM   23  F   UNL     1      -9.217   6.984  66.775  1.00  0.00    -0.132 F  
HETATM   24  C   UNL     1      -8.938   9.351  66.643  1.00  0.00    -0.146 A  
HETATM   25  C   UNL     1      -9.223  10.602  67.265  1.00  0.00    -0.143 A  
HETATM   26 CL   UNL     1      -8.008  11.862  67.116  1.00  0.00    -0.166 Cl 
HETATM   27  C   UNL     1     -10.251  10.746  68.246  1.00  0.00    -0.167 A  
BRANCH  24  28
HETATM   28  N   UNL     1      -8.091   9.199  65.512  1.00  0.00    -0.111 NA 
HETATM   29  C   UNL     1      -6.708   8.842  65.416  1.00  0.00    -0.068 C  
HETATM   30  C   UNL     1      -6.557   9.853  64.271  1.00  0.00    -0.126 C  
HETATM   31  C   UNL     1      -8.087   9.953  64.288  1.00  0.00    -0.152 C  
HETATM   32  O   UNL     1      -5.823  11.064  64.578  1.00  0.00    -0.388 OA 
HETATM   33  H   UNL     1      -5.730  11.690  63.870  1.00  0.00     0.000 HD 
ENDBRANCH  24  28
ENDBRANCH   6  12
TORSDOF 2
ENDMDL
MODEL       38
REMARK 921   NORMALIZED FREE ENERGY PREDICTED BY IDOCK:   -6.90 KCAL/MOL
REMARK 922        TOTAL FREE ENERGY PREDICTED BY IDOCK:   -8.54 KCAL/MOL
REMARK 923 INTER-LIGAND FREE ENERGY PREDICTED BY IDOCK:   -7.57 KCAL/MOL
REMARK 924 INTRA-LIGAND FREE ENERGY PREDICTED BY IDOCK:   -0.97 KCAL/MOL
REMARK 927      BINDING AFFINITY PREDICTED BY RF-SCORE:    0.00 PKD
ROOT
HETATM    1  N   UNL     1     -10.873   9.991  71.045  1.00  0.00    -0.318 NA 
HETATM    2  H1  UNL     1     -10.827   9.205  71.695  1.00  0.00     0.000 HD 
HETATM    3  C   UNL     1     -10.679   9.694  69.694  1.00  0.00    -0.240 A  
HETATM    4  H2  UNL     1     -11.757  10.484  71.165  1.00  0.00     0.000 HD 
HETATM    5  N   UNL     1     -10.740  10.736  68.834  1.00  0.00    -0.207 NA 
HETATM    6  C   UNL     1     -10.424  10.535  67.523  1.00  0.00    -0.239 A  
HETATM    7  F   UNL     1     -10.379   7.380  70.159  1.00  0.00    -0.200 F  
HETATM    8  C   UNL     1     -10.167   9.221  67.069  1.00  0.00    -0.262 A  
HETATM    9  C   UNL     1     -10.440   8.388  69.277  1.00  0.00    -0.215 A  
HETATM   10  F   UNL     1      -9.821   8.958  65.801  1.00  0.00    -0.331 F  
HETATM   11  C   UNL     1     -10.201   8.140  67.942  1.00  0.00    -0.274 A  
ENDROOT
BRANCH   6  12
HETATM   12  N   UNL     1     -10.323  11.683  66.633  1.00  0.00    -0.215 NA 
HETATM   13  C   UNL     1     -11.530  12.955  64.894  1.00  0.00    -0.351 C  
HETATM   14  C   UNL     1     -12.594  12.931  63.870  1.00  0.00    -0.247 C  
HETATM   15  C   UNL     1     -10.691  14.125  65.155  1.00  0.00    -0.388 C  
HETATM   16  C   UNL     1     -11.312  11.872  65.655  1.00  0.00    -0.284 C  
HETATM   17  O   UNL     1     -13.333  11.968  63.691  1.00  0.00    -0.676 OA 
HETATM   18  O   UNL     1     -10.841  15.151  64.497  1.00  0.00    -0.312 OA 
HETATM   19  C   UNL     1      -9.662  14.023  66.209  1.00  0.00    -0.311 A  
HETATM   20  O   UNL     1     -12.680  14.046  63.112  1.00  0.00    -0.676 OA 
HETATM   21  C   UNL     1      -8.917  15.171  66.478  1.00  0.00    -0.326 A  
HETATM   22  C   UNL     1      -7.913  15.126  67.430  1.00  0.00    -0.190 A  
HETATM   23  F   UNL     1      -7.255  16.269  67.675  1.00  0.00    -0.122 F  
HETATM   24  C   UNL     1      -7.542  13.932  68.067  1.00  0.00    -0.144 A  
HETATM   25  C   UNL     1      -8.223  12.749  67.655  1.00  0.00    -0.175 A  
HETATM   26 CL   UNL     1      -7.344  11.235  67.791  1.00  0.00    -0.090 Cl 
HETATM   27  C   UNL     1      -9.405  12.793  66.855  1.00  0.00    -0.234 A  
BRANCH  24  28
HETATM   28  N   UNL     1      -6.505  13.956  69.039  1.00  0.00    -0.097 NA 
HETATM   29  C   UNL     1      -6.533  14.271  70.435  1.00  0.00    -0.073 C  
HETATM   30  C   UNL     1      -5.176  14.969  70.274  1.00  0.00    -0.114 C  
HETATM   31  C   UNL     1      -5.132  14.347  68.873  1.00  0.00    -0.088 C  
HETATM   32  O   UNL     1      -5.188  16.417  70.344  1.00  0.00    -0.169 OA 
HETATM   33  H   UNL     1      -4.347  16.849  70.244  1.00  0.00     0.000 HD 
ENDBRANCH  24  28
ENDBRANCH   6  12
TORSDOF 2
ENDMDL
MODEL       39
REMARK 921   NORMALIZED FREE ENERGY PREDICTED BY IDOCK:   -6.87 KCAL/MOL
REMARK 922        TOTAL FREE ENERGY PREDICTED BY IDOCK:   -8.51 KCAL/MOL
REMARK 923 INTER-LIGAND FREE ENERGY PREDICTED BY IDOCK:   -7.88 KCAL/MOL
REMARK 924 INTRA-LIGAND FREE ENERGY PREDICTED BY IDOCK:   -0.63 KCAL/MOL
REMARK 927      BINDING AFFINITY PREDICTED BY RF-SCORE:    0.00 PKD
ROOT
HETATM    1  N   UNL     1      -9.428   9.573  64.518  1.00  0.00    -0.431 NA 
HETATM    2  H1  UNL     1      -8.726   9.783  63.809  1.00  0.00     0.000 HD 
HETATM    3  C   UNL     1      -9.099   9.897  65.836  1.00  0.00    -0.162 A  
HETATM    4  H2  UNL     1     -10.313  10.014  64.266  1.00  0.00     0.000 HD 
HETATM    5  N   UNL     1     -10.031   9.619  66.776  1.00  0.00    -0.212 NA 
HETATM    6  C   UNL     1      -9.718   9.784  68.093  1.00  0.00    -0.145 A  
HETATM    7  F   UNL     1      -6.968  10.734  65.186  1.00  0.00    -0.100 F  
HETATM    8  C   UNL     1      -8.475  10.364  68.438  1.00  0.00    -0.124 A  
HETATM    9  C   UNL     1      -7.872  10.479  66.143  1.00  0.00    -0.145 A  
HETATM   10  F   UNL     1      -8.092  10.525  69.713  1.00  0.00    -0.164 F  
HETATM   11  C   UNL     1      -7.560  10.737  67.461  1.00  0.00    -0.094 A  
ENDROOT
BRANCH   6  12
HETATM   12  N   UNL     1     -10.654   9.324  69.109  1.00  0.00    -0.221 NA 
HETATM   13  C   UNL     1     -11.214   7.412  70.568  1.00  0.00    -0.296 C  
HETATM   14  C   UNL     1     -11.090   5.958  70.789  1.00  0.00    -0.254 C  
HETATM   15  C   UNL     1     -11.956   8.302  71.462  1.00  0.00    -0.296 C  
HETATM   16  C   UNL     1     -10.609   7.982  69.515  1.00  0.00    -0.214 C  
HETATM   17  O   UNL     1     -10.421   5.223  70.069  1.00  0.00    -0.293 OA 
HETATM   18  O   UNL     1     -12.531   7.846  72.448  1.00  0.00    -0.263 OA 
HETATM   19  C   UNL     1     -12.004   9.740  71.132  1.00  0.00    -0.463 A  
HETATM   20  O   UNL     1     -11.798   5.478  71.835  1.00  0.00     0.020 OA 
HETATM   21  C   UNL     1     -12.668  10.573  72.033  1.00  0.00    -0.327 A  
HETATM   22  C   UNL     1     -12.777  11.925  71.760  1.00  0.00    -0.182 A  
HETATM   23  F   UNL     1     -13.390  12.685  72.679  1.00  0.00    -0.577 F  
HETATM   24  C   UNL     1     -12.333  12.479  70.549  1.00  0.00    -0.262 A  
HETATM   25  C   UNL     1     -11.798  11.572  69.588  1.00  0.00    -0.354 A  
HETATM   26 CL   UNL     1     -11.960  12.015  67.896  1.00  0.00    -0.316 Cl 
HETATM   27  C   UNL     1     -11.462  10.224  69.921  1.00  0.00    -0.273 A  
BRANCH  24  28
HETATM   28  N   UNL     1     -12.471  13.878  70.333  1.00  0.00    -0.344 NA 
HETATM   29  C   UNL     1     -11.487  14.904  70.165  1.00  0.00    -0.279 C  
HETATM   30  C   UNL     1     -12.378  15.850  70.982  1.00  0.00    -0.356 C  
HETATM   31  C   UNL     1     -13.463  14.772  70.864  1.00  0.00    -0.276 C  
HETATM   32  O   UNL     1     -11.920  16.167  72.320  1.00  0.00    -0.483 OA 
HETATM   33  H   UNL     1     -12.472  16.752  72.826  1.00  0.00     0.000 HD 
ENDBRANCH  24  28
ENDBRANCH   6  12
TORSDOF 2
ENDMDL
MODEL       40
REMARK 921   NORMALIZED FREE ENERGY PREDICTED BY IDOCK:   -6.86 KCAL/MOL
REMARK 922        TOTAL FREE ENERGY PREDICTED BY IDOCK:   -8.50 KCAL/MOL
REMARK 923 INTER-LIGAND FREE ENERGY PREDICTED BY IDOCK:   -7.40 KCAL/MOL
REMARK 924 INTRA-LIGAND FREE ENERGY PREDICTED BY IDOCK:   -1.10 KCAL/MOL
REMARK 927      BINDING AFFINITY PREDICTED BY RF-SCORE:    0.00 PKD
ROOT
HETATM    1  N   UNL     1      -8.204   8.044  72.598  1.00  0.00    -0.136 NA 
HETATM    2  H1  UNL     1      -7.919   7.158  73.015  1.00  0.00     0.000 HD 
HETATM    3  C   UNL     1      -9.568   8.202  72.342  1.00  0.00    -0.265 A  
HETATM    4  H2  UNL     1      -7.871   8.817  73.174  1.00  0.00     0.000 HD 
HETATM    5  N   UNL     1      -9.945   9.377  71.789  1.00  0.00    -0.107 NA 
HETATM    6  C   UNL     1     -11.239   9.540  71.389  1.00  0.00    -0.382 A  
HETATM    7  F   UNL     1     -10.064   6.035  73.191  1.00  0.00    -0.168 F  
HETATM    8  C   UNL     1     -12.182   8.527  71.679  1.00  0.00    -0.322 A  
HETATM    9  C   UNL     1     -10.474   7.191  72.650  1.00  0.00    -0.237 A  
HETATM   10  F   UNL     1     -13.462   8.610  71.286  1.00  0.00    -0.337 F  
HETATM   11  C   UNL     1     -11.806   7.361  72.335  1.00  0.00    -0.273 A  
ENDROOT
BRANCH   6  12
HETATM   12  N   UNL     1     -11.606  10.734  70.641  1.00  0.00    -0.327 NA 
HETATM   13  C   UNL     1     -12.590  12.988  70.866  1.00  0.00    -0.364 C  
HETATM   14  C   UNL     1     -13.444  13.880  71.674  1.00  0.00    -0.352 C  
HETATM   15  C   UNL     1     -11.959  13.397  69.610  1.00  0.00    -0.324 C  
HETATM   16  C   UNL     1     -12.341  11.740  71.288  1.00  0.00    -0.145 C  
HETATM   17  O   UNL     1     -13.926  13.554  72.753  1.00  0.00    -0.733 OA 
HETATM   18  O   UNL     1     -12.141  14.529  69.168  1.00  0.00    -0.308 OA 
HETATM   19  C   UNL     1     -11.123  12.411  68.896  1.00  0.00    -0.307 A  
HETATM   20  O   UNL     1     -13.688  15.089  71.121  1.00  0.00    -0.423 OA 
HETATM   21  C   UNL     1     -10.486  12.846  67.734  1.00  0.00    -0.225 A  
HETATM   22  C   UNL     1      -9.719  11.957  67.003  1.00  0.00    -0.194 A  
HETATM   23  F   UNL     1      -9.097  12.439  65.916  1.00  0.00    -0.181 F  
HETATM   24  C   UNL     1      -9.641  10.594  67.330  1.00  0.00    -0.163 A  
HETATM   25  C   UNL     1     -10.428  10.156  68.435  1.00  0.00    -0.208 A  
HETATM   26 CL   UNL     1     -10.978   8.488  68.410  1.00  0.00     0.043 Cl 
HETATM   27  C   UNL     1     -11.041  11.072  69.342  1.00  0.00    -0.262 A  
BRANCH  24  28
HETATM   28  N   UNL     1      -8.831   9.735  66.538  1.00  0.00    -0.137 NA 
HETATM   29  C   UNL     1      -9.129   8.998  65.346  1.00  0.00    -0.193 C  
HETATM   30  C   UNL     1      -8.263   7.848  65.878  1.00  0.00    -0.126 C  
HETATM   31  C   UNL     1      -7.805   8.825  66.968  1.00  0.00    -0.095 C  
HETATM   32  O   UNL     1      -8.973   6.664  66.322  1.00  0.00    -0.149 OA 
HETATM   33  H   UNL     1      -8.437   5.952  66.651  1.00  0.00     0.000 HD 
ENDBRANCH  24  28
ENDBRANCH   6  12
TORSDOF 2
ENDMDL
MODEL       41
REMARK 921   NORMALIZED FREE ENERGY PREDICTED BY IDOCK:   -6.84 KCAL/MOL
REMARK 922        TOTAL FREE ENERGY PREDICTED BY IDOCK:   -8.48 KCAL/MOL
REMARK 923 INTER-LIGAND FREE ENERGY PREDICTED BY IDOCK:   -7.38 KCAL/MOL
REMARK 924 INTRA-LIGAND FREE ENERGY PREDICTED BY IDOCK:   -1.09 KCAL/MOL
REMARK 927      BINDING AFFINITY PREDICTED BY RF-SCORE:    0.00 PKD
ROOT
HETATM    1  N   UNL     1      -8.555   6.198  64.506  1.00  0.00    -0.346 NA 
HETATM    2  H1  UNL     1      -7.776   5.914  63.912  1.00  0.00     0.000 HD 
HETATM    3  C   UNL     1      -8.279   7.170  65.471  1.00  0.00    -0.139 A  
HETATM    4  H2  UNL     1      -9.336   6.502  63.927  1.00  0.00     0.000 HD 
HETATM    5  N   UNL     1      -9.311   7.547  66.260  1.00  0.00    -0.154 NA 
HETATM    6  C   UNL     1      -9.076   8.387  67.308  1.00  0.00    -0.137 A  
HETATM    7  F   UNL     1      -5.999   7.307  64.802  1.00  0.00    -0.035 F  
HETATM    8  C   UNL     1      -7.787   8.946  67.467  1.00  0.00    -0.101 A  
HETATM    9  C   UNL     1      -7.001   7.710  65.596  1.00  0.00    -0.060 A  
HETATM   10  F   UNL     1      -7.481   9.754  68.492  1.00  0.00    -0.075 F  
HETATM   11  C   UNL     1      -6.753   8.628  66.594  1.00  0.00    -0.068 A  
ENDROOT
BRANCH   6  12
HETATM   12  N   UNL     1     -10.147   8.658  68.255  1.00  0.00    -0.185 NA 
HETATM   13  C   UNL     1     -11.251   7.806  70.294  1.00  0.00    -0.215 C  
HETATM   14  C   UNL     1     -11.516   6.632  71.148  1.00  0.00    -0.320 C  
HETATM   15  C   UNL     1     -11.782   9.141  70.573  1.00  0.00    -0.152 C  
HETATM   16  C   UNL     1     -10.469   7.682  69.212  1.00  0.00    -0.218 C  
HETATM   17  O   UNL     1     -11.025   5.526  70.943  1.00  0.00    -0.226 OA 
HETATM   18  O   UNL     1     -12.502   9.326  71.552  1.00  0.00    -0.318 OA 
HETATM   19  C   UNL     1     -11.442  10.236  69.643  1.00  0.00    -0.297 A  
HETATM   20  O   UNL     1     -12.374   6.852  72.169  1.00  0.00    -0.277 OA 
HETATM   21  C   UNL     1     -11.912  11.508  69.965  1.00  0.00    -0.435 A  
HETATM   22  C   UNL     1     -11.656  12.567  69.113  1.00  0.00    -0.320 A  
HETATM   23  F   UNL     1     -12.098  13.776  69.492  1.00  0.00    -0.322 F  
HETATM   24  C   UNL     1     -11.026  12.389  67.871  1.00  0.00    -0.228 A  
HETATM   25  C   UNL     1     -10.696  11.051  67.507  1.00  0.00    -0.244 A  
HETATM   26 CL   UNL     1     -10.657  10.678  65.791  1.00  0.00    -0.222 Cl 
HETATM   27  C   UNL     1     -10.735   9.977  68.447  1.00  0.00    -0.234 A  
BRANCH  24  28
HETATM   28  N   UNL     1     -10.789  13.521  67.044  1.00  0.00    -0.280 NA 
HETATM   29  C   UNL     1     -11.561  14.082  65.976  1.00  0.00    -0.357 C  
HETATM   30  C   UNL     1     -10.254  14.385  65.231  1.00  0.00    -0.389 C  
HETATM   31  C   UNL     1      -9.538  14.012  66.535  1.00  0.00    -0.293 C  
HETATM   32  O   UNL     1      -9.970  13.560  64.074  1.00  0.00    -0.734 OA 
HETATM   33  H   UNL     1      -9.161  13.747  63.612  1.00  0.00     0.000 HD 
ENDBRANCH  24  28
ENDBRANCH   6  12
TORSDOF 2
ENDMDL
MODEL       42
REMARK 921   NORMALIZED FREE ENERGY PREDICTED BY IDOCK:   -6.81 KCAL/MOL
REMARK 922        TOTAL FREE ENERGY PREDICTED BY IDOCK:   -8.44 KCAL/MOL
REMARK 923 INTER-LIGAND FREE ENERGY PREDICTED BY IDOCK:   -7.87 KCAL/MOL
REMARK 924 INTRA-LIGAND FREE ENERGY PREDICTED BY IDOCK:   -0.57 KCAL/MOL
REMARK 927      BINDING AFFINITY PREDICTED BY RF-SCORE:    0.00 PKD
ROOT
HETATM    1  N   UNL     1      -6.624  10.829  65.555  1.00  0.00    -0.333 NA 
HETATM    2  H1  UNL     1      -6.225  10.229  64.833  1.00  0.00     0.000 HD 
HETATM    3  C   UNL     1      -7.869  10.448  66.063  1.00  0.00    -0.142 A  
HETATM    4  H2  UNL     1      -5.959  10.934  66.320  1.00  0.00     0.000 HD 
HETATM    5  N   UNL     1      -8.398  11.243  67.020  1.00  0.00    -0.146 NA 
HETATM    6  C   UNL     1      -9.667  11.004  67.457  1.00  0.00    -0.172 A  
HETATM    7  F   UNL     1      -7.961   8.544  64.637  1.00  0.00    -0.110 F  
HETATM    8  C   UNL     1     -10.351   9.856  66.994  1.00  0.00    -0.239 A  
HETATM    9  C   UNL     1      -8.511   9.305  65.594  1.00  0.00    -0.139 A  
HETATM   10  F   UNL     1     -11.611   9.579  67.359  1.00  0.00     0.067 F  
HETATM   11  C   UNL     1      -9.762   8.989  66.081  1.00  0.00    -0.354 A  
ENDROOT
BRANCH   6  12
HETATM   12  N   UNL     1     -10.299  11.956  68.359  1.00  0.00    -0.204 NA 
HETATM   13  C   UNL     1     -11.109  14.282  68.535  1.00  0.00    -0.276 C  
HETATM   14  C   UNL     1     -11.016  15.658  68.008  1.00  0.00    -0.318 C  
HETATM   15  C   UNL     1     -11.979  13.904  69.649  1.00  0.00    -0.342 C  
HETATM   16  C   UNL     1     -10.388  13.302  67.971  1.00  0.00    -0.241 C  
HETATM   17  O   UNL     1     -10.328  15.962  67.038  1.00  0.00    -0.285 OA 
HETATM   18  O   UNL     1     -12.669  14.753  70.208  1.00  0.00    -0.334 OA 
HETATM   19  C   UNL     1     -11.984  12.492  70.081  1.00  0.00    -0.377 A  
HETATM   20  O   UNL     1     -11.727  16.580  68.694  1.00  0.00    -0.180 OA 
HETATM   21  C   UNL     1     -12.866  12.148  71.106  1.00  0.00    -0.313 A  
HETATM   22  C   UNL     1     -12.890  10.848  71.578  1.00  0.00    -0.454 A  
HETATM   23  F   UNL     1     -13.785  10.564  72.536  1.00  0.00    -0.362 F  
HETATM   24  C   UNL     1     -11.978   9.877  71.135  1.00  0.00    -0.384 A  
HETATM   25  C   UNL     1     -10.992  10.305  70.199  1.00  0.00    -0.314 A  
HETATM   26 CL   UNL     1      -9.456   9.452  70.213  1.00  0.00    -0.270 Cl 
HETATM   27  C   UNL     1     -11.079  11.561  69.525  1.00  0.00    -0.191 A  
BRANCH  24  28
HETATM   28  N   UNL     1     -12.059   8.558  71.659  1.00  0.00    -0.303 NA 
HETATM   29  C   UNL     1     -11.339   7.923  72.721  1.00  0.00    -0.393 C  
HETATM   30  C   UNL     1     -11.317   6.631  71.894  1.00  0.00    -0.279 C  
HETATM   31  C   UNL     1     -12.310   7.329  70.957  1.00  0.00    -0.297 C  
HETATM   32  O   UNL     1     -10.038   6.257  71.323  1.00  0.00    -0.186 OA 
HETATM   33  H   UNL     1     -10.024   5.457  70.810  1.00  0.00     0.000 HD 
ENDBRANCH  24  28
ENDBRANCH   6  12
TORSDOF 2
ENDMDL
MODEL       43
REMARK 921   NORMALIZED FREE ENERGY PREDICTED BY IDOCK:   -6.77 KCAL/MOL
REMARK 922        TOTAL FREE ENERGY PREDICTED BY IDOCK:   -8.40 KCAL/MOL
REMARK 923 INTER-LIGAND FREE ENERGY PREDICTED BY IDOCK:   -7.38 KCAL/MOL
REMARK 924 INTRA-LIGAND FREE ENERGY PREDICTED BY IDOCK:   -1.02 KCAL/MOL
REMARK 927      BINDING AFFINITY PREDICTED BY RF-SCORE:    0.00 PKD
ROOT
HETATM    1  N   UNL     1     -12.151   9.030  70.205  1.00  0.00    -0.425 NA 
HETATM    2  H1  UNL     1     -12.463   9.155  71.169  1.00  0.00     0.000 HD 
HETATM    3  C   UNL     1     -10.771   8.961  70.001  1.00  0.00    -0.228 A  
HETATM    4  H2  UNL     1     -12.600   8.207  69.803  1.00  0.00     0.000 HD 
HETATM    5  N   UNL     1     -10.359   8.796  68.724  1.00  0.00    -0.214 NA 
HETATM    6  C   UNL     1      -9.026   8.858  68.442  1.00  0.00    -0.134 A  
HETATM    7  F   UNL     1     -10.330   9.228  72.324  1.00  0.00    -0.335 F  
HETATM    8  C   UNL     1      -8.100   8.964  69.506  1.00  0.00    -0.101 A  
HETATM    9  C   UNL     1      -9.885   9.057  71.071  1.00  0.00    -0.282 A  
HETATM   10  F   UNL     1      -6.780   9.062  69.296  1.00  0.00    -0.047 F  
HETATM   11  C   UNL     1      -8.529   9.037  70.826  1.00  0.00    -0.238 A  
ENDROOT
BRANCH   6  12
HETATM   12  N   UNL     1      -8.593   8.852  67.052  1.00  0.00    -0.115 NA 
HETATM   13  C   UNL     1      -7.623   7.425  65.285  1.00  0.00    -0.098 C  
HETATM   14  C   UNL     1      -6.834   6.216  64.978  1.00  0.00    -0.051 C  
HETATM   15  C   UNL     1      -8.146   8.327  64.258  1.00  0.00    -0.147 C  
HETATM   16  C   UNL     1      -7.910   7.729  66.559  1.00  0.00    -0.101 C  
HETATM   17  O   UNL     1      -6.444   5.431  65.837  1.00  0.00    -0.038 OA 
HETATM   18  O   UNL     1      -7.924   8.105  63.070  1.00  0.00    -0.148 OA 
HETATM   19  C   UNL     1      -8.924   9.504  64.695  1.00  0.00    -0.266 A  
HETATM   20  O   UNL     1      -6.540   6.044  63.670  1.00  0.00    -0.032 OA 
HETATM   21  C   UNL     1      -9.461  10.313  63.693  1.00  0.00    -0.348 A  
HETATM   22  C   UNL     1     -10.169  11.450  64.041  1.00  0.00    -0.346 A  
HETATM   23  F   UNL     1     -10.697  12.169  63.039  1.00  0.00    -0.414 F  
HETATM   24  C   UNL     1     -10.279  11.882  65.372  1.00  0.00    -0.263 A  
HETATM   25  C   UNL     1      -9.588  11.113  66.353  1.00  0.00    -0.200 A  
HETATM   26 CL   UNL     1      -9.044  11.961  67.792  1.00  0.00    -0.174 Cl 
HETATM   27  C   UNL     1      -9.048   9.823  66.065  1.00  0.00    -0.162 A  
BRANCH  24  28
HETATM   28  N   UNL     1     -11.025  13.058  65.661  1.00  0.00    -0.272 NA 
HETATM   29  C   UNL     1     -12.433  13.311  65.616  1.00  0.00    -0.451 C  
HETATM   30  C   UNL     1     -12.132  14.715  65.074  1.00  0.00    -0.349 C  
HETATM   31  C   UNL     1     -10.666  14.428  65.418  1.00  0.00    -0.348 C  
HETATM   32  O   UNL     1     -12.440  14.941  63.675  1.00  0.00    -1.055 OA 
HETATM   33  H   UNL     1     -12.253  15.810  63.339  1.00  0.00     0.000 HD 
ENDBRANCH  24  28
ENDBRANCH   6  12
TORSDOF 2
ENDMDL
MODEL       44
REMARK 921   NORMALIZED FREE ENERGY PREDICTED BY IDOCK:   -6.71 KCAL/MOL
REMARK 922        TOTAL FREE ENERGY PREDICTED BY IDOCK:   -8.33 KCAL/MOL
REMARK 923 INTER-LIGAND FREE ENERGY PREDICTED BY IDOCK:   -8.46 KCAL/MOL
REMARK 924 INTRA-LIGAND FREE ENERGY PREDICTED BY IDOCK:    0.13 KCAL/MOL
REMARK 927      BINDING AFFINITY PREDICTED BY RF-SCORE:    0.00 PKD
ROOT
HETATM    1  N   UNL     1      -9.144  11.093  64.259  1.00  0.00    -0.369 NA 
HETATM    2  H1  UNL     1      -9.283  10.498  63.442  1.00  0.00     0.000 HD 
HETATM    3  C   UNL     1     -10.127  12.054  64.504  1.00  0.00    -0.265 A  
HETATM    4  H2  UNL     1      -9.016  10.514  65.088  1.00  0.00     0.000 HD 
HETATM    5  N   UNL     1      -9.942  12.843  65.586  1.00  0.00    -0.264 NA 
HETATM    6  C   UNL     1     -10.792  13.888  65.801  1.00  0.00    -0.289 A  
HETATM    7  F   UNL     1     -11.380  11.380  62.596  1.00  0.00     0.024 F  
HETATM    8  C   UNL     1     -11.919  14.043  64.962  1.00  0.00    -0.401 A  
HETATM    9  C   UNL     1     -11.233  12.175  63.665  1.00  0.00    -0.464 A  
HETATM   10  F   UNL     1     -12.776  15.066  65.099  1.00  0.00    -0.160 F  
HETATM   11  C   UNL     1     -12.156  13.169  63.908  1.00  0.00    -0.536 A  
ENDROOT
BRANCH   6  12
HETATM   12  N   UNL     1     -10.495  14.838  66.864  1.00  0.00    -0.274 NA 
HETATM   13  C   UNL     1      -9.848  17.180  67.306  1.00  0.00    -0.265 C  
HETATM   14  C   UNL     1      -9.220  18.403  66.768  1.00  0.00    -0.293 C  
HETATM   15  C   UNL     1     -10.372  17.076  68.668  1.00  0.00    -0.351 C  
HETATM   16  C   UNL     1      -9.981  16.099  66.524  1.00  0.00    -0.280 C  
HETATM   17  O   UNL     1      -8.833  18.506  65.609  1.00  0.00    -0.270 OA 
HETATM   18  O   UNL     1     -10.287  18.031  69.437  1.00  0.00    -0.191 OA 
HETATM   19  C   UNL     1     -10.980  15.797  69.086  1.00  0.00    -0.265 A  
HETATM   20  O   UNL     1      -9.071  19.406  67.662  1.00  0.00    -0.291 OA 
HETATM   21  C   UNL     1     -11.524  15.745  70.369  1.00  0.00    -0.380 A  
HETATM   22  C   UNL     1     -12.076  14.562  70.829  1.00  0.00    -0.329 A  
HETATM   23  F   UNL     1     -12.620  14.580  72.056  1.00  0.00    -0.348 F  
HETATM   24  C   UNL     1     -12.015  13.372  70.088  1.00  0.00    -0.326 A  
HETATM   25  C   UNL     1     -11.316  13.428  68.847  1.00  0.00    -0.287 A  
HETATM   26 CL   UNL     1     -10.554  11.945  68.294  1.00  0.00    -0.221 Cl 
HETATM   27  C   UNL     1     -10.940  14.665  68.241  1.00  0.00    -0.252 A  
BRANCH  24  28
HETATM   28  N   UNL     1     -12.605  12.192  70.617  1.00  0.00    -0.225 NA 
HETATM   29  C   UNL     1     -12.669  11.695  71.959  1.00  0.00     0.010 C  
HETATM   30  C   UNL     1     -12.474  10.275  71.409  1.00  0.00    -0.424 C  
HETATM   31  C   UNL     1     -12.691  10.888  70.020  1.00  0.00    -0.109 C  
HETATM   32  O   UNL     1     -11.183   9.664  71.656  1.00  0.00    -0.367 OA 
HETATM   33  H   UNL     1     -11.063   8.785  71.315  1.00  0.00     0.000 HD 
ENDBRANCH  24  28
ENDBRANCH   6  12
TORSDOF 2
ENDMDL
MODEL       45
REMARK 921   NORMALIZED FREE ENERGY PREDICTED BY IDOCK:   -6.71 KCAL/MOL
REMARK 922        TOTAL FREE ENERGY PREDICTED BY IDOCK:   -8.33 KCAL/MOL
REMARK 923 INTER-LIGAND FREE ENERGY PREDICTED BY IDOCK:   -7.32 KCAL/MOL
REMARK 924 INTRA-LIGAND FREE ENERGY PREDICTED BY IDOCK:   -1.01 KCAL/MOL
REMARK 927      BINDING AFFINITY PREDICTED BY RF-SCORE:    0.00 PKD
ROOT
HETATM    1  N   UNL     1      -5.629  11.617  66.070  1.00  0.00    -0.503 NA 
HETATM    2  H1  UNL     1      -5.048  11.755  65.243  1.00  0.00     0.000 HD 
HETATM    3  C   UNL     1      -6.566  10.583  66.008  1.00  0.00    -0.127 A  
HETATM    4  H2  UNL     1      -5.035  11.494  66.890  1.00  0.00     0.000 HD 
HETATM    5  N   UNL     1      -7.336  10.402  67.105  1.00  0.00    -0.090 NA 
HETATM    6  C   UNL     1      -8.360   9.502  67.058  1.00  0.00    -0.124 A  
HETATM    7  F   UNL     1      -5.907  10.006  63.796  1.00  0.00    -0.094 F  
HETATM    8  C   UNL     1      -8.510   8.689  65.911  1.00  0.00    -0.146 A  
HETATM    9  C   UNL     1      -6.682   9.792  64.869  1.00  0.00    -0.112 A  
HETATM   10  F   UNL     1      -9.513   7.807  65.787  1.00  0.00    -0.157 F  
HETATM   11  C   UNL     1      -7.653   8.815  64.824  1.00  0.00    -0.107 A  
ENDROOT
BRANCH   6  12
HETATM   12  N   UNL     1      -9.293   9.428  68.173  1.00  0.00    -0.134 NA 
HETATM   13  C   UNL     1      -9.698   8.330  70.348  1.00  0.00    -0.175 C  
HETATM   14  C   UNL     1      -9.405   7.169  71.211  1.00  0.00    -0.155 C  
HETATM   15  C   UNL     1     -10.601   9.414  70.735  1.00  0.00    -0.303 C  
HETATM   16  C   UNL     1      -9.105   8.438  69.150  1.00  0.00    -0.147 C  
HETATM   17  O   UNL     1      -8.605   6.290  70.907  1.00  0.00    -0.133 OA 
HETATM   18  O   UNL     1     -11.175   9.380  71.822  1.00  0.00    -0.376 OA 
HETATM   19  C   UNL     1     -10.810  10.522  69.782  1.00  0.00    -0.335 A  
HETATM   20  O   UNL     1     -10.111   7.123  72.363  1.00  0.00    -0.177 OA 
HETATM   21  C   UNL     1     -11.629  11.571  70.202  1.00  0.00    -0.336 A  
HETATM   22  C   UNL     1     -11.890  12.620  69.339  1.00  0.00    -0.296 A  
HETATM   23  F   UNL     1     -12.651  13.620  69.808  1.00  0.00    -0.333 F  
HETATM   24  C   UNL     1     -11.444  12.620  68.008  1.00  0.00    -0.318 A  
HETATM   25  C   UNL     1     -10.739  11.461  67.570  1.00  0.00    -0.222 A  
HETATM   26 CL   UNL     1     -10.850  11.058  65.864  1.00  0.00    -0.236 Cl 
HETATM   27  C   UNL     1     -10.258  10.474  68.483  1.00  0.00    -0.174 A  
BRANCH  24  28
HETATM   28  N   UNL     1     -11.744  13.732  67.175  1.00  0.00    -0.362 NA 
HETATM   29  C   UNL     1     -12.654  13.865  66.077  1.00  0.00    -0.423 C  
HETATM   30  C   UNL     1     -11.622  14.754  65.369  1.00  0.00    -0.316 C  
HETATM   31  C   UNL     1     -10.859  14.759  66.699  1.00  0.00    -0.319 C  
HETATM   32  O   UNL     1     -10.943  14.166  64.231  1.00  0.00    -0.592 OA 
HETATM   33  H   UNL     1     -10.304  14.717  63.793  1.00  0.00     0.000 HD 
ENDBRANCH  24  28
ENDBRANCH   6  12
TORSDOF 2
ENDMDL
MODEL       46
REMARK 921   NORMALIZED FREE ENERGY PREDICTED BY IDOCK:   -6.60 KCAL/MOL
REMARK 922        TOTAL FREE ENERGY PREDICTED BY IDOCK:   -8.21 KCAL/MOL
REMARK 923 INTER-LIGAND FREE ENERGY PREDICTED BY IDOCK:   -7.79 KCAL/MOL
REMARK 924 INTRA-LIGAND FREE ENERGY PREDICTED BY IDOCK:   -0.43 KCAL/MOL
REMARK 927      BINDING AFFINITY PREDICTED BY RF-SCORE:    0.00 PKD
ROOT
HETATM    1  N   UNL     1      -8.876   8.437  64.206  1.00  0.00    -0.382 NA 
HETATM    2  H1  UNL     1      -8.139   8.454  63.501  1.00  0.00     0.000 HD 
HETATM    3  C   UNL     1      -8.668   9.219  65.344  1.00  0.00    -0.178 A  
HETATM    4  H2  UNL     1      -9.767   8.685  63.777  1.00  0.00     0.000 HD 
HETATM    5  N   UNL     1      -9.645   9.196  66.278  1.00  0.00    -0.233 NA 
HETATM    6  C   UNL     1      -9.441   9.827  67.470  1.00  0.00    -0.147 A  
HETATM    7  F   UNL     1      -6.556   9.970  64.543  1.00  0.00    -0.105 F  
HETATM    8  C   UNL     1      -8.270  10.599  67.650  1.00  0.00    -0.107 A  
HETATM    9  C   UNL     1      -7.509   9.977  65.487  1.00  0.00    -0.137 A  
HETATM   10  F   UNL     1      -7.994  11.218  68.806  1.00  0.00    -0.125 F  
HETATM   11  C   UNL     1      -7.313  10.696  66.647  1.00  0.00    -0.129 A  
ENDROOT
BRANCH   6  12
HETATM   12  N   UNL     1     -10.416   9.661  68.538  1.00  0.00    -0.205 NA 
HETATM   13  C   UNL     1     -11.161   8.120  70.319  1.00  0.00    -0.182 C  
HETATM   14  C   UNL     1     -11.181   6.728  70.809  1.00  0.00    -0.304 C  
HETATM   15  C   UNL     1     -11.809   9.230  71.019  1.00  0.00    -0.307 C  
HETATM   16  C   UNL     1     -10.505   8.420  69.189  1.00  0.00    -0.206 C  
HETATM   17  O   UNL     1     -10.590   5.810  70.251  1.00  0.00    -0.252 OA 
HETATM   18  O   UNL     1     -12.425   9.026  72.063  1.00  0.00    -0.347 OA 
HETATM   19  C   UNL     1     -11.715  10.579  70.425  1.00  0.00    -0.434 A  
HETATM   20  O   UNL     1     -11.931   6.525  71.915  1.00  0.00    -0.323 OA 
HETATM   21  C   UNL     1     -12.290  11.627  71.143  1.00  0.00    -0.351 A  
HETATM   22  C   UNL     1     -12.265  12.908  70.621  1.00  0.00    -0.302 A  
HETATM   23  F   UNL     1     -12.798  13.883  71.372  1.00  0.00    -0.371 F  
HETATM   24  C   UNL     1     -11.770  13.179  69.336  1.00  0.00    -0.327 A  
HETATM   25  C   UNL     1     -11.330  12.060  68.570  1.00  0.00    -0.272 A  
HETATM   26 CL   UNL     1     -11.451  12.191  66.823  1.00  0.00    -0.407 Cl 
HETATM   27  C   UNL     1     -11.129  10.772  69.154  1.00  0.00    -0.249 A  
BRANCH  24  28
HETATM   28  N   UNL     1     -11.769  14.519  68.860  1.00  0.00    -0.302 NA 
HETATM   29  C   UNL     1     -11.747  15.042  67.527  1.00  0.00    -0.253 C  
HETATM   30  C   UNL     1     -10.818  16.163  68.016  1.00  0.00    -0.333 C  
HETATM   31  C   UNL     1     -11.134  15.673  69.435  1.00  0.00    -0.303 C  
HETATM   32  O   UNL     1      -9.435  16.079  67.592  1.00  0.00    -0.214 OA 
HETATM   33  H   UNL     1      -8.860  16.772  67.895  1.00  0.00     0.000 HD 
ENDBRANCH  24  28
ENDBRANCH   6  12
TORSDOF 2
ENDMDL
MODEL       47
REMARK 921   NORMALIZED FREE ENERGY PREDICTED BY IDOCK:   -6.55 KCAL/MOL
REMARK 922        TOTAL FREE ENERGY PREDICTED BY IDOCK:   -8.15 KCAL/MOL
REMARK 923 INTER-LIGAND FREE ENERGY PREDICTED BY IDOCK:   -7.14 KCAL/MOL
REMARK 924 INTRA-LIGAND FREE ENERGY PREDICTED BY IDOCK:   -1.01 KCAL/MOL
REMARK 927      BINDING AFFINITY PREDICTED BY RF-SCORE:    0.00 PKD
ROOT
HETATM    1  N   UNL     1      -6.763  11.435  66.238  1.00  0.00    -0.360 NA 
HETATM    2  H1  UNL     1      -6.303  11.401  65.329  1.00  0.00     0.000 HD 
HETATM    3  C   UNL     1      -7.850  10.576  66.418  1.00  0.00    -0.138 A  
HETATM    4  H2  UNL     1      -6.077  11.279  66.976  1.00  0.00     0.000 HD 
HETATM    5  N   UNL     1      -8.461  10.621  67.624  1.00  0.00    -0.118 NA 
HETATM    6  C   UNL     1      -9.609   9.910  67.815  1.00  0.00    -0.141 A  
HETATM    7  F   UNL     1      -7.641   9.714  64.210  1.00  0.00    -0.110 F  
HETATM    8  C   UNL     1     -10.061   9.043  66.794  1.00  0.00    -0.274 A  
HETATM    9  C   UNL     1      -8.265   9.726  65.396  1.00  0.00    -0.131 A  
HETATM   10  F   UNL     1     -11.198   8.341  66.905  1.00  0.00    -0.163 F  
HETATM   11  C   UNL     1      -9.374   8.930  65.591  1.00  0.00    -0.259 A  
ENDROOT
BRANCH   6  12
HETATM   12  N   UNL     1     -10.358  10.090  69.051  1.00  0.00    -0.194 NA 
HETATM   13  C   UNL     1     -11.898  11.618  70.230  1.00  0.00    -0.414 C  
HETATM   14  C   UNL     1     -12.405  12.999  70.349  1.00  0.00    -0.277 C  
HETATM   15  C   UNL     1     -12.349  10.518  71.084  1.00  0.00    -0.405 C  
HETATM   16  C   UNL     1     -10.994  11.318  69.285  1.00  0.00    -0.243 C  
HETATM   17  O   UNL     1     -12.068  13.907  69.596  1.00  0.00    -0.321 OA 
HETATM   18  O   UNL     1     -13.179  10.723  71.966  1.00  0.00    -0.484 OA 
HETATM   19  C   UNL     1     -11.766   9.180  70.862  1.00  0.00    -0.341 A  
HETATM   20  O   UNL     1     -13.256  13.207  71.378  1.00  0.00    -0.305 OA 
HETATM   21  C   UNL     1     -12.256   8.139  71.650  1.00  0.00    -0.343 A  
HETATM   22  C   UNL     1     -11.723   6.869  71.513  1.00  0.00    -0.311 A  
HETATM   23  F   UNL     1     -12.260   5.898  72.268  1.00  0.00    -0.366 F  
HETATM   24  C   UNL     1     -10.625   6.607  70.679  1.00  0.00    -0.227 A  
HETATM   25  C   UNL     1     -10.053   7.726  70.005  1.00  0.00    -0.201 A  
HETATM   26 CL   UNL     1      -8.341   7.636  69.624  1.00  0.00    -0.128 Cl 
HETATM   27  C   UNL     1     -10.709   8.993  69.943  1.00  0.00    -0.229 A  
BRANCH  24  28
HETATM   28  N   UNL     1     -10.129   5.279  70.581  1.00  0.00    -0.223 NA 
HETATM   29  C   UNL     1      -9.156   4.580  71.366  1.00  0.00    -0.131 C  
HETATM   30  C   UNL     1      -8.647   3.909  70.082  1.00  0.00    -0.065 C  
HETATM   31  C   UNL     1      -9.887   4.498  69.399  1.00  0.00    -0.190 C  
HETATM   32  O   UNL     1      -7.359   4.359  69.592  1.00  0.00    -0.050 OA 
HETATM   33  H   UNL     1      -7.044   3.944  68.797  1.00  0.00     0.000 HD 
ENDBRANCH  24  28
ENDBRANCH   6  12
TORSDOF 2
ENDMDL
MODEL       48
REMARK 921   NORMALIZED FREE ENERGY PREDICTED BY IDOCK:   -6.53 KCAL/MOL
REMARK 922        TOTAL FREE ENERGY PREDICTED BY IDOCK:   -8.13 KCAL/MOL
REMARK 923 INTER-LIGAND FREE ENERGY PREDICTED BY IDOCK:   -7.14 KCAL/MOL
REMARK 924 INTRA-LIGAND FREE ENERGY PREDICTED BY IDOCK:   -0.99 KCAL/MOL
REMARK 927      BINDING AFFINITY PREDICTED BY RF-SCORE:    0.00 PKD
ROOT
HETATM    1  N   UNL     1      -7.506  18.830  68.755  1.00  0.00    -0.307 NA 
HETATM    2  H1  UNL     1      -7.186  19.524  68.078  1.00  0.00     0.000 HD 
HETATM    3  C   UNL     1      -8.675  18.137  68.430  1.00  0.00    -0.291 A  
HETATM    4  H2  UNL     1      -6.756  18.167  68.947  1.00  0.00     0.000 HD 
HETATM    5  N   UNL     1      -9.099  17.218  69.326  1.00  0.00     0.038 NA 
HETATM    6  C   UNL     1     -10.303  16.607  69.135  1.00  0.00    -0.326 A  
HETATM    7  F   UNL     1      -8.905  19.319  66.377  1.00  0.00    -0.299 F  
HETATM    8  C   UNL     1     -11.018  16.853  67.940  1.00  0.00    -0.251 A  
HETATM    9  C   UNL     1      -9.350  18.394  67.240  1.00  0.00    -0.270 A  
HETATM   10  F   UNL     1     -12.221  16.310  67.703  1.00  0.00     0.355 F  
HETATM   11  C   UNL     1     -10.529  17.728  66.977  1.00  0.00    -0.324 A  
ENDROOT
BRANCH   6  12
HETATM   12  N   UNL     1     -10.839  15.748  70.181  1.00  0.00    -0.326 NA 
HETATM   13  C   UNL     1     -11.969  15.767  72.377  1.00  0.00    -0.600 C  
HETATM   14  C   UNL     1     -12.256  16.537  73.603  1.00  0.00    -0.393 C  
HETATM   15  C   UNL     1     -12.444  14.402  72.153  1.00  0.00    -0.257 C  
HETATM   16  C   UNL     1     -11.258  16.329  71.388  1.00  0.00    -0.024 C  
HETATM   17  O   UNL     1     -11.904  17.701  73.765  1.00  0.00     0.174 OA 
HETATM   18  O   UNL     1     -13.105  13.829  73.017  1.00  0.00    -0.436 OA 
HETATM   19  C   UNL     1     -12.091  13.740  70.881  1.00  0.00    -0.366 A  
HETATM   20  O   UNL     1     -12.916  15.852  74.564  1.00  0.00    -0.479 OA 
HETATM   21  C   UNL     1     -12.607  12.461  70.670  1.00  0.00    -0.237 A  
HETATM   22  C   UNL     1     -12.282  11.777  69.513  1.00  0.00    -0.169 A  
HETATM   23  F   UNL     1     -12.837  10.567  69.343  1.00  0.00    -0.183 F  
HETATM   24  C   UNL     1     -11.359  12.281  68.582  1.00  0.00    -0.291 A  
HETATM   25  C   UNL     1     -10.737  13.521  68.907  1.00  0.00    -0.201 A  
HETATM   26 CL   UNL     1      -9.125  13.796  68.266  1.00  0.00    -0.194 Cl 
HETATM   27  C   UNL     1     -11.212  14.356  69.963  1.00  0.00    -0.141 A  
BRANCH  24  28
HETATM   28  N   UNL     1     -11.072  11.528  67.411  1.00  0.00    -0.264 NA 
HETATM   29  C   UNL     1      -9.943  10.715  67.070  1.00  0.00    -0.202 C  
HETATM   30  C   UNL     1     -10.044  11.233  65.629  1.00  0.00    -0.247 C  
HETATM   31  C   UNL     1     -11.389  11.841  66.045  1.00  0.00    -0.273 C  
HETATM   32  O   UNL     1      -9.014  12.162  65.207  1.00  0.00    -0.358 OA 
HETATM   33  H   UNL     1      -9.077  12.482  64.315  1.00  0.00     0.000 HD 
ENDBRANCH  24  28
ENDBRANCH   6  12
TORSDOF 2
ENDMDL
MODEL       49
REMARK 921   NORMALIZED FREE ENERGY PREDICTED BY IDOCK:   -6.46 KCAL/MOL
REMARK 922        TOTAL FREE ENERGY PREDICTED BY IDOCK:   -8.05 KCAL/MOL
REMARK 923 INTER-LIGAND FREE ENERGY PREDICTED BY IDOCK:   -7.02 KCAL/MOL
REMARK 924 INTRA-LIGAND FREE ENERGY PREDICTED BY IDOCK:   -1.03 KCAL/MOL
REMARK 927      BINDING AFFINITY PREDICTED BY RF-SCORE:    0.00 PKD
ROOT
HETATM    1  N   UNL     1      -8.436   6.549  64.433  1.00  0.00    -0.343 NA 
HETATM    2  H1  UNL     1      -7.663   6.381  63.789  1.00  0.00     0.000 HD 
HETATM    3  C   UNL     1      -8.201   7.461  65.464  1.00  0.00    -0.135 A  
HETATM    4  H2  UNL     1      -9.265   6.829  63.909  1.00  0.00     0.000 HD 
HETATM    5  N   UNL     1      -9.226   7.683  66.318  1.00  0.00    -0.173 NA 
HETATM    6  C   UNL     1      -9.017   8.455  67.423  1.00  0.00    -0.134 A  
HETATM    7  F   UNL     1      -5.972   7.848  64.727  1.00  0.00    -0.042 F  
HETATM    8  C   UNL     1      -7.774   9.109  67.581  1.00  0.00    -0.089 A  
HETATM    9  C   UNL     1      -6.969   8.098  65.587  1.00  0.00    -0.066 A  
HETATM   10  F   UNL     1      -7.492   9.856  68.658  1.00  0.00    -0.071 F  
HETATM   11  C   UNL     1      -6.756   8.952  66.648  1.00  0.00    -0.072 A  
ENDROOT
BRANCH   6  12
HETATM   12  N   UNL     1     -10.066   8.555  68.428  1.00  0.00    -0.189 NA 
HETATM   13  C   UNL     1     -11.042   7.422  70.393  1.00  0.00    -0.284 C  
HETATM   14  C   UNL     1     -11.207   6.148  71.120  1.00  0.00    -0.292 C  
HETATM   15  C   UNL     1     -11.637   8.684  70.835  1.00  0.00    -0.269 C  
HETATM   16  C   UNL     1     -10.296   7.463  69.280  1.00  0.00    -0.204 C  
HETATM   17  O   UNL     1     -10.661   5.103  70.778  1.00  0.00    -0.187 OA 
HETATM   18  O   UNL     1     -12.329   8.717  71.850  1.00  0.00    -0.316 OA 
HETATM   19  C   UNL     1     -11.395   9.892  70.020  1.00  0.00    -0.303 A  
HETATM   20  O   UNL     1     -12.037   6.203  72.185  1.00  0.00    -0.327 OA 
HETATM   21  C   UNL     1     -11.925  11.091  70.496  1.00  0.00    -0.474 A  
HETATM   22  C   UNL     1     -11.761  12.250  69.759  1.00  0.00    -0.298 A  
HETATM   23  F   UNL     1     -12.256  13.381  70.283  1.00  0.00    -0.365 F  
HETATM   24  C   UNL     1     -11.169  12.246  68.486  1.00  0.00    -0.271 A  
HETATM   25  C   UNL     1     -10.778  10.978  67.966  1.00  0.00    -0.217 A  
HETATM   26 CL   UNL     1     -10.782  10.797  66.219  1.00  0.00    -0.249 Cl 
HETATM   27  C   UNL     1     -10.720   9.808  68.782  1.00  0.00    -0.215 A  
BRANCH  24  28
HETATM   28  N   UNL     1     -11.029  13.473  67.782  1.00  0.00    -0.261 NA 
HETATM   29  C   UNL     1     -10.129  14.570  67.976  1.00  0.00    -0.226 C  
HETATM   30  C   UNL     1     -11.272  15.531  67.620  1.00  0.00    -0.291 C  
HETATM   31  C   UNL     1     -12.053  14.285  67.184  1.00  0.00    -0.377 C  
HETATM   32  O   UNL     1     -11.830  16.298  68.716  1.00  0.00    -0.278 OA 
HETATM   33  H   UNL     1     -12.538  16.892  68.496  1.00  0.00     0.000 HD 
ENDBRANCH  24  28
ENDBRANCH   6  12
TORSDOF 2
ENDMDL
MODEL       50
REMARK 921   NORMALIZED FREE ENERGY PREDICTED BY IDOCK:   -6.45 KCAL/MOL
REMARK 922        TOTAL FREE ENERGY PREDICTED BY IDOCK:   -8.04 KCAL/MOL
REMARK 923 INTER-LIGAND FREE ENERGY PREDICTED BY IDOCK:   -7.13 KCAL/MOL
REMARK 924 INTRA-LIGAND FREE ENERGY PREDICTED BY IDOCK:   -0.91 KCAL/MOL
REMARK 927      BINDING AFFINITY PREDICTED BY RF-SCORE:    0.00 PKD
ROOT
HETATM    1  N   UNL     1      -9.433   9.363  63.187  1.00  0.00    -0.444 NA 
HETATM    2  H1  UNL     1      -8.762   8.959  62.533  1.00  0.00     0.000 HD 
HETATM    3  C   UNL     1      -8.901   9.982  64.321  1.00  0.00    -0.220 A  
HETATM    4  H2  UNL     1     -10.042  10.015  62.694  1.00  0.00     0.000 HD 
HETATM    5  N   UNL     1      -9.790  10.517  65.187  1.00  0.00    -0.273 NA 
HETATM    6  C   UNL     1      -9.344  11.012  66.378  1.00  0.00    -0.183 A  
HETATM    7  F   UNL     1      -6.673   9.485  63.650  1.00  0.00    -0.093 F  
HETATM    8  C   UNL     1      -7.953  11.072  66.621  1.00  0.00    -0.156 A  
HETATM    9  C   UNL     1      -7.525  10.034  64.527  1.00  0.00    -0.142 A  
HETATM   10  F   UNL     1      -7.450  11.517  67.781  1.00  0.00    -0.087 F  
HETATM   11  C   UNL     1      -7.039  10.607  65.683  1.00  0.00    -0.076 A  
ENDROOT
BRANCH   6  12
HETATM   12  N   UNL     1     -10.313  11.432  67.380  1.00  0.00    -0.196 NA 
HETATM   13  C   UNL     1     -11.461  10.718  69.447  1.00  0.00    -0.366 C  
HETATM   14  C   UNL     1     -11.887   9.580  70.285  1.00  0.00    -0.057 C  
HETATM   15  C   UNL     1     -11.743  12.114  69.782  1.00  0.00    -0.310 C  
HETATM   16  C   UNL     1     -10.758  10.496  68.327  1.00  0.00    -0.229 C  
HETATM   17  O   UNL     1     -11.601   8.414  70.031  1.00  0.00    -0.016 OA 
HETATM   18  O   UNL     1     -12.379  12.389  70.797  1.00  0.00    -0.377 OA 
HETATM   19  C   UNL     1     -11.259  13.163  68.862  1.00  0.00    -0.324 A  
HETATM   20  O   UNL     1     -12.651   9.911  71.350  1.00  0.00    -0.337 OA 
HETATM   21  C   UNL     1     -11.490  14.487  69.236  1.00  0.00    -0.322 A  
HETATM   22  C   UNL     1     -11.092  15.513  68.398  1.00  0.00    -0.315 A  
HETATM   23  F   UNL     1     -11.303  16.767  68.825  1.00  0.00    -0.299 F  
HETATM   24  C   UNL     1     -10.554  15.269  67.124  1.00  0.00    -0.302 A  
HETATM   25  C   UNL     1     -10.474  13.906  66.715  1.00  0.00    -0.270 A  
HETATM   26 CL   UNL     1     -10.571  13.585  64.990  1.00  0.00    -0.356 Cl 
HETATM   27  C   UNL     1     -10.657  12.825  67.630  1.00  0.00    -0.219 A  
BRANCH  24  28
HETATM   28  N   UNL     1     -10.161  16.369  66.314  1.00  0.00    -0.316 NA 
HETATM   29  C   UNL     1      -9.191  17.399  66.534  1.00  0.00    -0.266 C  
HETATM   30  C   UNL     1     -10.144  18.397  65.862  1.00  0.00    -0.162 C  
HETATM   31  C   UNL     1     -10.974  17.176  65.446  1.00  0.00     0.035 C  
HETATM   32  O   UNL     1     -10.790  19.355  66.737  1.00  0.00    -0.454 OA 
HETATM   33  H   UNL     1     -11.380  19.973  66.321  1.00  0.00     0.000 HD 
ENDBRANCH  24  28
ENDBRANCH   6  12
TORSDOF 2
ENDMDL
MODEL       51
REMARK 921   NORMALIZED FREE ENERGY PREDICTED BY IDOCK:   -6.44 KCAL/MOL
REMARK 922        TOTAL FREE ENERGY PREDICTED BY IDOCK:   -8.03 KCAL/MOL
REMARK 923 INTER-LIGAND FREE ENERGY PREDICTED BY IDOCK:   -6.96 KCAL/MOL
REMARK 924 INTRA-LIGAND FREE ENERGY PREDICTED BY IDOCK:   -1.07 KCAL/MOL
REMARK 927      BINDING AFFINITY PREDICTED BY RF-SCORE:    0.00 PKD
ROOT
HETATM    1  N   UNL     1     -11.837   8.777  70.311  1.00  0.00    -0.466 NA 
HETATM    2  H1  UNL     1     -11.975   8.661  71.315  1.00  0.00     0.000 HD 
HETATM    3  C   UNL     1     -10.518   8.928  69.876  1.00  0.00    -0.214 A  
HETATM    4  H2  UNL     1     -12.276   8.003  69.813  1.00  0.00     0.000 HD 
HETATM    5  N   UNL     1     -10.336   9.082  68.545  1.00  0.00    -0.201 NA 
HETATM    6  C   UNL     1      -9.090   9.371  68.073  1.00  0.00    -0.127 A  
HETATM    7  F   UNL     1      -9.680   8.770  72.098  1.00  0.00    -0.326 F  
HETATM    8  C   UNL     1      -7.997   9.375  68.970  1.00  0.00    -0.091 A  
HETATM    9  C   UNL     1      -9.462   8.917  70.783  1.00  0.00    -0.228 A  
HETATM   10  F   UNL     1      -6.752   9.682  68.577  1.00  0.00    -0.052 F  
HETATM   11  C   UNL     1      -8.178   9.121  70.324  1.00  0.00    -0.170 A  
ENDROOT
BRANCH   6  12
HETATM   12  N   UNL     1      -8.923   9.704  66.665  1.00  0.00    -0.144 NA 
HETATM   13  C   UNL     1      -8.405   8.745  64.450  1.00  0.00    -0.165 C  
HETATM   14  C   UNL     1      -7.779   7.631  63.709  1.00  0.00    -0.126 C  
HETATM   15  C   UNL     1      -9.041   9.889  63.796  1.00  0.00    -0.256 C  
HETATM   16  C   UNL     1      -8.429   8.724  65.790  1.00  0.00    -0.148 C  
HETATM   17  O   UNL     1      -7.296   6.646  64.258  1.00  0.00    -0.065 OA 
HETATM   18  O   UNL     1      -9.059   9.968  62.570  1.00  0.00    -0.247 OA 
HETATM   19  C   UNL     1      -9.635  10.938  64.650  1.00  0.00    -0.305 A  
HETATM   20  O   UNL     1      -7.746   7.787  62.367  1.00  0.00    -0.101 OA 
HETATM   21  C   UNL     1     -10.286  11.986  64.001  1.00  0.00    -0.406 A  
HETATM   22  C   UNL     1     -10.831  13.017  64.746  1.00  0.00    -0.337 A  
HETATM   23  F   UNL     1     -11.480  13.979  64.073  1.00  0.00    -0.359 F  
HETATM   24  C   UNL     1     -10.661  13.103  66.137  1.00  0.00    -0.279 A  
HETATM   25  C   UNL     1      -9.859  12.093  66.746  1.00  0.00    -0.206 A  
HETATM   26 CL   UNL     1      -8.997  12.537  68.211  1.00  0.00    -0.195 Cl 
HETATM   27  C   UNL     1      -9.479  10.904  66.053  1.00  0.00    -0.203 A  
BRANCH  24  28
HETATM   28  N   UNL     1     -11.250  14.186  66.844  1.00  0.00    -0.308 NA 
HETATM   29  C   UNL     1     -10.802  15.532  67.042  1.00  0.00    -0.314 C  
HETATM   30  C   UNL     1     -11.352  15.471  68.474  1.00  0.00    -0.351 C  
HETATM   31  C   UNL     1     -12.016  14.152  68.059  1.00  0.00    -0.337 C  
HETATM   32  O   UNL     1     -10.367  15.397  69.536  1.00  0.00    -0.234 OA 
HETATM   33  H   UNL     1     -10.707  15.359  70.422  1.00  0.00     0.000 HD 
ENDBRANCH  24  28
ENDBRANCH   6  12
TORSDOF 2
ENDMDL
MODEL       52
REMARK 921   NORMALIZED FREE ENERGY PREDICTED BY IDOCK:   -6.44 KCAL/MOL
REMARK 922        TOTAL FREE ENERGY PREDICTED BY IDOCK:   -8.03 KCAL/MOL
REMARK 923 INTER-LIGAND FREE ENERGY PREDICTED BY IDOCK:   -7.79 KCAL/MOL
REMARK 924 INTRA-LIGAND FREE ENERGY PREDICTED BY IDOCK:   -0.24 KCAL/MOL
REMARK 927      BINDING AFFINITY PREDICTED BY RF-SCORE:    0.00 PKD
ROOT
HETATM    1  N   UNL     1     -11.086  19.517  67.292  1.00  0.00    -0.340 NA 
HETATM    2  H1  UNL     1     -10.870  20.512  67.349  1.00  0.00     0.000 HD 
HETATM    3  C   UNL     1     -10.003  18.654  67.107  1.00  0.00    -0.331 A  
HETATM    4  H2  UNL     1     -11.614  19.232  68.116  1.00  0.00     0.000 HD 
HETATM    5  N   UNL     1     -10.289  17.335  67.031  1.00  0.00    -0.324 NA 
HETATM    6  C   UNL     1      -9.297  16.455  66.714  1.00  0.00    -0.245 A  
HETATM    7  F   UNL     1      -8.458  20.465  67.081  1.00  0.00    -0.355 F  
HETATM    8  C   UNL     1      -7.968  16.927  66.600  1.00  0.00    -0.265 A  
HETATM    9  C   UNL     1      -8.705  19.149  67.010  1.00  0.00    -0.294 A  
HETATM   10  F   UNL     1      -6.952  16.122  66.260  1.00  0.00    -0.104 F  
HETATM   11  C   UNL     1      -7.667  18.272  66.774  1.00  0.00    -0.247 A  
ENDROOT
BRANCH   6  12
HETATM   12  N   UNL     1      -9.635  15.062  66.465  1.00  0.00    -0.260 NA 
HETATM   13  C   UNL     1     -10.873  13.565  64.939  1.00  0.00    -0.371 C  
HETATM   14  C   UNL     1     -11.956  13.450  63.942  1.00  0.00    -0.465 C  
HETATM   15  C   UNL     1     -10.057  12.432  65.375  1.00  0.00    -0.269 C  
HETATM   16  C   UNL     1     -10.582  14.760  65.473  1.00  0.00    -0.359 C  
HETATM   17  O   UNL     1     -12.601  14.411  63.536  1.00  0.00    -0.784 OA 
HETATM   18  O   UNL     1     -10.267  11.309  64.922  1.00  0.00    -0.251 OA 
HETATM   19  C   UNL     1      -9.000  12.678  66.378  1.00  0.00    -0.056 A  
HETATM   20  O   UNL     1     -12.213  12.191  63.523  1.00  0.00    -0.519 OA 
HETATM   21  C   UNL     1      -8.199  11.593  66.731  1.00  0.00    -0.161 A  
HETATM   22  C   UNL     1      -7.216  11.754  67.692  1.00  0.00    -0.111 A  
HETATM   23  F   UNL     1      -6.450  10.687  67.964  1.00  0.00    -0.060 F  
HETATM   24  C   UNL     1      -7.062  12.952  68.407  1.00  0.00    -0.099 A  
HETATM   25  C   UNL     1      -7.997  13.989  68.126  1.00  0.00    -0.149 A  
HETATM   26 CL   UNL     1      -8.356  15.113  69.427  1.00  0.00    -0.219 Cl 
HETATM   27  C   UNL     1      -8.867  13.942  66.994  1.00  0.00    -0.218 A  
BRANCH  24  28
HETATM   28  N   UNL     1      -6.029  13.052  69.378  1.00  0.00    -0.095 NA 
HETATM   29  C   UNL     1      -5.769  12.280  70.556  1.00  0.00    -0.161 C  
HETATM   30  C   UNL     1      -5.336  13.568  71.268  1.00  0.00    -0.196 C  
HETATM   31  C   UNL     1      -5.391  14.235  69.888  1.00  0.00    -0.095 C  
HETATM   32  O   UNL     1      -6.245  14.081  72.275  1.00  0.00    -0.383 OA 
HETATM   33  H   UNL     1      -5.976  14.879  72.716  1.00  0.00     0.000 HD 
ENDBRANCH  24  28
ENDBRANCH   6  12
TORSDOF 2
ENDMDL
MODEL       53
REMARK 921   NORMALIZED FREE ENERGY PREDICTED BY IDOCK:   -6.43 KCAL/MOL
REMARK 922        TOTAL FREE ENERGY PREDICTED BY IDOCK:   -8.02 KCAL/MOL
REMARK 923 INTER-LIGAND FREE ENERGY PREDICTED BY IDOCK:   -6.95 KCAL/MOL
REMARK 924 INTRA-LIGAND FREE ENERGY PREDICTED BY IDOCK:   -1.07 KCAL/MOL
REMARK 927      BINDING AFFINITY PREDICTED BY RF-SCORE:    0.00 PKD
ROOT
HETATM    1  N   UNL     1     -12.563   9.022  71.263  1.00  0.00    -0.410 NA 
HETATM    2  H1  UNL     1     -12.466   8.809  72.256  1.00  0.00     0.000 HD 
HETATM    3  C   UNL     1     -11.381   9.260  70.559  1.00  0.00    -0.258 A  
HETATM    4  H2  UNL     1     -13.094   8.282  70.804  1.00  0.00     0.000 HD 
HETATM    5  N   UNL     1     -11.510   9.542  69.243  1.00  0.00     0.100 NA 
HETATM    6  C   UNL     1     -10.409   9.918  68.531  1.00  0.00    -0.196 A  
HETATM    7  F   UNL     1     -10.054   8.926  72.507  1.00  0.00    -0.347 F  
HETATM    8  C   UNL     1      -9.140   9.878  69.154  1.00  0.00    -0.173 A  
HETATM    9  C   UNL     1     -10.145   9.202  71.197  1.00  0.00    -0.314 A  
HETATM   10  F   UNL     1      -8.022  10.265  68.521  1.00  0.00    -0.094 F  
HETATM   11  C   UNL     1      -9.003   9.494  70.482  1.00  0.00    -0.265 A  
ENDROOT
BRANCH   6  12
HETATM   12  N   UNL     1     -10.573  10.386  67.163  1.00  0.00    -0.256 NA 
HETATM   13  C   UNL     1     -11.178  12.355  65.801  1.00  0.00    -0.370 C  
HETATM   14  C   UNL     1     -11.881  13.653  65.762  1.00  0.00    -0.371 C  
HETATM   15  C   UNL     1     -10.480  11.783  64.648  1.00  0.00    -0.299 C  
HETATM   16  C   UNL     1     -11.138  11.652  66.941  1.00  0.00    -0.308 C  
HETATM   17  O   UNL     1     -12.417  14.157  66.743  1.00  0.00    -0.396 OA 
HETATM   18  O   UNL     1     -10.474  12.378  63.573  1.00  0.00    -0.435 OA 
HETATM   19  C   UNL     1      -9.812  10.477  64.817  1.00  0.00    -0.387 A  
HETATM   20  O   UNL     1     -11.922  14.243  64.546  1.00  0.00    -0.420 OA 
HETATM   21  C   UNL     1      -9.105   9.983  63.720  1.00  0.00    -0.302 A  
HETATM   22  C   UNL     1      -8.488   8.748  63.806  1.00  0.00    -0.099 A  
HETATM   23  F   UNL     1      -7.789   8.340  62.736  1.00  0.00    -0.110 F  
HETATM   24  C   UNL     1      -8.635   7.917  64.928  1.00  0.00     0.056 A  
HETATM   25  C   UNL     1      -9.489   8.390  65.966  1.00  0.00    -0.154 A  
HETATM   26 CL   UNL     1     -10.304   7.178  66.942  1.00  0.00    -0.347 Cl 
HETATM   27  C   UNL     1      -9.952   9.740  66.014  1.00  0.00    -0.272 A  
BRANCH  24  28
HETATM   28  N   UNL     1      -7.971   6.661  64.953  1.00  0.00    -0.118 NA 
HETATM   29  C   UNL     1      -8.397   5.364  64.521  1.00  0.00    -0.138 C  
HETATM   30  C   UNL     1      -7.681   4.757  65.735  1.00  0.00    -0.090 C  
HETATM   31  C   UNL     1      -7.065   6.146  65.944  1.00  0.00    -0.070 C  
HETATM   32  O   UNL     1      -8.532   4.257  66.796  1.00  0.00    -0.105 OA 
HETATM   33  H   UNL     1      -8.089   3.881  67.548  1.00  0.00     0.000 HD 
ENDBRANCH  24  28
ENDBRANCH   6  12
TORSDOF 2
ENDMDL
MODEL       54
REMARK 921   NORMALIZED FREE ENERGY PREDICTED BY IDOCK:   -6.43 KCAL/MOL
REMARK 922        TOTAL FREE ENERGY PREDICTED BY IDOCK:   -8.02 KCAL/MOL
REMARK 923 INTER-LIGAND FREE ENERGY PREDICTED BY IDOCK:   -6.97 KCAL/MOL
REMARK 924 INTRA-LIGAND FREE ENERGY PREDICTED BY IDOCK:   -1.05 KCAL/MOL
REMARK 927      BINDING AFFINITY PREDICTED BY RF-SCORE:    0.00 PKD
ROOT
HETATM    1  N   UNL     1     -11.637   6.541  69.487  1.00  0.00    -0.642 NA 
HETATM    2  H1  UNL     1     -11.981   5.622  69.208  1.00  0.00     0.000 HD 
HETATM    3  C   UNL     1     -10.883   7.237  68.539  1.00  0.00    -0.060 A  
HETATM    4  H2  UNL     1     -12.417   7.119  69.798  1.00  0.00     0.000 HD 
HETATM    5  N   UNL     1     -10.427   8.455  68.909  1.00  0.00    -0.213 NA 
HETATM    6  C   UNL     1      -9.573   9.125  68.084  1.00  0.00    -0.144 A  
HETATM    7  F   UNL     1     -11.090   5.473  66.955  1.00  0.00    -0.296 F  
HETATM    8  C   UNL     1      -9.287   8.589  66.807  1.00  0.00    -0.182 A  
HETATM    9  C   UNL     1     -10.629   6.688  67.285  1.00  0.00    -0.317 A  
HETATM   10  F   UNL     1      -8.432   9.180  65.960  1.00  0.00    -0.117 F  
HETATM   11  C   UNL     1      -9.837   7.381  66.395  1.00  0.00    -0.137 A  
ENDROOT
BRANCH   6  12
HETATM   12  N   UNL     1      -8.948  10.353  68.553  1.00  0.00    -0.133 NA 
HETATM   13  C   UNL     1      -7.001  11.241  69.786  1.00  0.00    -0.008 C  
HETATM   14  C   UNL     1      -5.932  10.955  70.763  1.00  0.00    -0.034 C  
HETATM   15  C   UNL     1      -7.190  12.549  69.158  1.00  0.00     0.070 C  
HETATM   16  C   UNL     1      -7.846  10.266  69.417  1.00  0.00    -0.157 C  
HETATM   17  O   UNL     1      -5.741   9.844  71.246  1.00  0.00    -0.074 OA 
HETATM   18  O   UNL     1      -6.448  13.485  69.448  1.00  0.00    -0.105 OA 
HETATM   19  C   UNL     1      -8.297  12.706  68.193  1.00  0.00    -0.175 A  
HETATM   20  O   UNL     1      -5.184  12.024  71.118  1.00  0.00    -0.155 OA 
HETATM   21  C   UNL     1      -8.417  13.946  67.566  1.00  0.00    -0.200 A  
HETATM   22  C   UNL     1      -9.456  14.165  66.679  1.00  0.00    -0.289 A  
HETATM   23  F   UNL     1      -9.500  15.362  66.075  1.00  0.00    -0.281 F  
HETATM   24  C   UNL     1     -10.465  13.213  66.464  1.00  0.00    -0.279 A  
HETATM   25  C   UNL     1     -10.393  12.018  67.237  1.00  0.00    -0.212 A  
HETATM   26 CL   UNL     1     -11.910  11.210  67.600  1.00  0.00    -0.171 Cl 
HETATM   27  C   UNL     1      -9.227  11.664  67.981  1.00  0.00    -0.178 A  
BRANCH  24  28
HETATM   28  N   UNL     1     -11.503  13.500  65.536  1.00  0.00    -0.301 NA 
HETATM   29  C   UNL     1     -11.482  13.615  64.108  1.00  0.00    -0.329 C  
HETATM   30  C   UNL     1     -12.482  14.774  64.217  1.00  0.00    -0.197 C  
HETATM   31  C   UNL     1     -12.627  14.382  65.693  1.00  0.00    -0.322 C  
HETATM   32  O   UNL     1     -11.960  16.098  63.945  1.00  0.00    -1.331 OA 
HETATM   33  H   UNL     1     -12.579  16.816  64.013  1.00  0.00     0.000 HD 
ENDBRANCH  24  28
ENDBRANCH   6  12
TORSDOF 2
ENDMDL
MODEL       55
REMARK 921   NORMALIZED FREE ENERGY PREDICTED BY IDOCK:   -6.43 KCAL/MOL
REMARK 922        TOTAL FREE ENERGY PREDICTED BY IDOCK:   -8.02 KCAL/MOL
REMARK 923 INTER-LIGAND FREE ENERGY PREDICTED BY IDOCK:   -7.42 KCAL/MOL
REMARK 924 INTRA-LIGAND FREE ENERGY PREDICTED BY IDOCK:   -0.59 KCAL/MOL
REMARK 927      BINDING AFFINITY PREDICTED BY RF-SCORE:    0.00 PKD
ROOT
HETATM    1  N   UNL     1     -12.295  14.165  63.166  1.00  0.00    -1.046 NA 
HETATM    2  H1  UNL     1     -13.049  13.573  62.819  1.00  0.00     0.000 HD 
HETATM    3  C   UNL     1     -11.906  13.964  64.493  1.00  0.00    -0.426 A  
HETATM    4  H2  UNL     1     -11.484  14.082  62.554  1.00  0.00     0.000 HD 
HETATM    5  N   UNL     1     -10.906  14.749  64.953  1.00  0.00    -0.410 NA 
HETATM    6  C   UNL     1     -10.574  14.698  66.274  1.00  0.00    -0.306 A  
HETATM    7  F   UNL     1     -13.521  12.242  64.794  1.00  0.00    -0.255 F  
HETATM    8  C   UNL     1     -11.192  13.734  67.104  1.00  0.00    -0.311 A  
HETATM    9  C   UNL     1     -12.527  12.998  65.280  1.00  0.00    -0.499 A  
HETATM   10  F   UNL     1     -10.935  13.651  68.417  1.00  0.00    -0.238 F  
HETATM   11  C   UNL     1     -12.152  12.864  66.601  1.00  0.00    -0.360 A  
ENDROOT
BRANCH   6  12
HETATM   12  N   UNL     1      -9.619  15.660  66.805  1.00  0.00    -0.231 NA 
HETATM   13  C   UNL     1      -9.271  18.063  67.258  1.00  0.00    -0.255 C  
HETATM   14  C   UNL     1      -9.668  19.446  66.926  1.00  0.00    -0.343 C  
HETATM   15  C   UNL     1      -8.236  17.737  68.239  1.00  0.00    -0.285 C  
HETATM   16  C   UNL     1      -9.888  17.031  66.665  1.00  0.00    -0.290 C  
HETATM   17  O   UNL     1     -10.575  19.716  66.145  1.00  0.00    -0.472 OA 
HETATM   18  O   UNL     1      -7.634  18.635  68.823  1.00  0.00    -0.306 OA 
HETATM   19  C   UNL     1      -7.932  16.312  68.485  1.00  0.00    -0.184 A  
HETATM   20  O   UNL     1      -8.934  20.409  67.526  1.00  0.00    -0.345 OA 
HETATM   21  C   UNL     1      -6.984  16.029  69.467  1.00  0.00    -0.191 A  
HETATM   22  C   UNL     1      -6.631  14.715  69.717  1.00  0.00    -0.164 A  
HETATM   23  F   UNL     1      -5.744  14.497  70.699  1.00  0.00    -0.122 F  
HETATM   24  C   UNL     1      -7.118  13.651  68.940  1.00  0.00    -0.102 A  
HETATM   25  C   UNL     1      -7.967  13.994  67.847  1.00  0.00    -0.158 A  
HETATM   26 CL   UNL     1      -7.961  12.913  66.464  1.00  0.00     0.375 Cl 
HETATM   27  C   UNL     1      -8.529  15.299  67.702  1.00  0.00    -0.161 A  
BRANCH  24  28
HETATM   28  N   UNL     1      -6.719  12.323  69.252  1.00  0.00    -0.099 NA 
HETATM   29  C   UNL     1      -5.518  11.607  68.946  1.00  0.00    -0.049 C  
HETATM   30  C   UNL     1      -6.363  10.345  68.723  1.00  0.00    -0.047 C  
HETATM   31  C   UNL     1      -7.529  11.138  69.325  1.00  0.00    -0.076 C  
HETATM   32  O   UNL     1      -6.513   9.909  67.349  1.00  0.00    -0.067 OA 
HETATM   33  H   UNL     1      -7.037   9.128  67.211  1.00  0.00     0.000 HD 
ENDBRANCH  24  28
ENDBRANCH   6  12
TORSDOF 2
ENDMDL
MODEL       56
REMARK 921   NORMALIZED FREE ENERGY PREDICTED BY IDOCK:   -6.38 KCAL/MOL
REMARK 922        TOTAL FREE ENERGY PREDICTED BY IDOCK:   -7.97 KCAL/MOL
REMARK 923 INTER-LIGAND FREE ENERGY PREDICTED BY IDOCK:   -7.84 KCAL/MOL
REMARK 924 INTRA-LIGAND FREE ENERGY PREDICTED BY IDOCK:   -0.13 KCAL/MOL
REMARK 927      BINDING AFFINITY PREDICTED BY RF-SCORE:    0.00 PKD
ROOT
HETATM    1  N   UNL     1     -13.668  10.602  72.087  1.00  0.00    -0.357 NA 
HETATM    2  H1  UNL     1     -14.148  10.891  72.939  1.00  0.00     0.000 HD 
HETATM    3  C   UNL     1     -13.010  11.605  71.371  1.00  0.00    -0.324 A  
HETATM    4  H2  UNL     1     -13.016   9.847  72.299  1.00  0.00     0.000 HD 
HETATM    5  N   UNL     1     -12.374  11.221  70.241  1.00  0.00    -0.315 NA 
HETATM    6  C   UNL     1     -11.831  12.171  69.427  1.00  0.00    -0.309 A  
HETATM    7  F   UNL     1     -13.667  13.271  72.939  1.00  0.00    -0.567 F  
HETATM    8  C   UNL     1     -11.832  13.521  69.848  1.00  0.00    -0.316 A  
HETATM    9  C   UNL     1     -13.019  12.924  71.818  1.00  0.00    -0.315 A  
HETATM   10  F   UNL     1     -11.343  14.507  69.082  1.00  0.00    -0.239 F  
HETATM   11  C   UNL     1     -12.403  13.896  71.058  1.00  0.00    -0.453 A  
ENDROOT
BRANCH   6  12
HETATM   12  N   UNL     1     -11.299  11.776  68.131  1.00  0.00    -0.259 NA 
HETATM   13  C   UNL     1     -11.414  12.256  65.712  1.00  0.00    -0.417 C  
HETATM   14  C   UNL     1     -12.211  12.832  64.610  1.00  0.00    -0.447 C  
HETATM   15  C   UNL     1     -10.103  11.635  65.518  1.00  0.00    -0.246 C  
HETATM   16  C   UNL     1     -11.877  12.310  66.969  1.00  0.00    -0.259 C  
HETATM   17  O   UNL     1     -13.283  13.402  64.783  1.00  0.00    -0.590 OA 
HETATM   18  O   UNL     1      -9.618  11.557  64.391  1.00  0.00    -0.219 OA 
HETATM   19  C   UNL     1      -9.404  11.098  66.702  1.00  0.00    -0.194 A  
HETATM   20  O   UNL     1     -11.685  12.660  63.377  1.00  0.00    -0.497 OA 
HETATM   21  C   UNL     1      -8.131  10.565  66.497  1.00  0.00    -0.134 A  
HETATM   22  C   UNL     1      -7.442  10.015  67.563  1.00  0.00    -0.090 A  
HETATM   23  F   UNL     1      -6.207   9.553  67.317  1.00  0.00    -0.059 F  
HETATM   24  C   UNL     1      -8.022   9.874  68.834  1.00  0.00    -0.096 A  
HETATM   25  C   UNL     1      -9.378  10.291  68.967  1.00  0.00    -0.189 A  
HETATM   26 CL   UNL     1     -10.347   9.474  70.183  1.00  0.00    -0.273 Cl 
HETATM   27  C   UNL     1     -10.037  11.065  67.965  1.00  0.00    -0.179 A  
BRANCH  24  28
HETATM   28  N   UNL     1      -7.257   9.303  69.887  1.00  0.00    -0.063 NA 
HETATM   29  C   UNL     1      -7.353   8.028  70.532  1.00  0.00    -0.060 C  
HETATM   30  C   UNL     1      -7.017   8.712  71.865  1.00  0.00    -0.075 C  
HETATM   31  C   UNL     1      -6.681   9.954  71.031  1.00  0.00     0.099 C  
HETATM   32  O   UNL     1      -8.107   8.840  72.812  1.00  0.00    -0.398 OA 
HETATM   33  H   UNL     1      -7.899   9.263  73.637  1.00  0.00     0.000 HD 
ENDBRANCH  24  28
ENDBRANCH   6  12
TORSDOF 2
ENDMDL
MODEL       57
REMARK 921   NORMALIZED FREE ENERGY PREDICTED BY IDOCK:   -6.36 KCAL/MOL
REMARK 922        TOTAL FREE ENERGY PREDICTED BY IDOCK:   -7.94 KCAL/MOL
REMARK 923 INTER-LIGAND FREE ENERGY PREDICTED BY IDOCK:   -7.23 KCAL/MOL
REMARK 924 INTRA-LIGAND FREE ENERGY PREDICTED BY IDOCK:   -0.71 KCAL/MOL
REMARK 927      BINDING AFFINITY PREDICTED BY RF-SCORE:    0.00 PKD
ROOT
HETATM    1  N   UNL     1     -10.475  10.885  62.587  1.00  0.00    -0.723 NA 
HETATM    2  H1  UNL     1     -11.222  10.996  61.901  1.00  0.00     0.000 HD 
HETATM    3  C   UNL     1     -10.735  11.365  63.873  1.00  0.00    -0.397 A  
HETATM    4  H2  UNL     1     -10.197   9.905  62.636  1.00  0.00     0.000 HD 
HETATM    5  N   UNL     1      -9.745  11.218  64.783  1.00  0.00    -0.248 NA 
HETATM    6  C   UNL     1      -9.883  11.787  66.014  1.00  0.00    -0.232 A  
HETATM    7  F   UNL     1     -12.914  12.094  63.251  1.00  0.00    -0.601 F  
HETATM    8  C   UNL     1     -11.109  12.405  66.355  1.00  0.00    -0.301 A  
HETATM    9  C   UNL     1     -11.957  11.958  64.181  1.00  0.00    -0.307 A  
HETATM   10  F   UNL     1     -11.300  13.010  67.536  1.00  0.00    -0.270 F  
HETATM   11  C   UNL     1     -12.158  12.467  65.446  1.00  0.00    -0.494 A  
ENDROOT
BRANCH   6  12
HETATM   12  N   UNL     1      -8.753  11.777  66.932  1.00  0.00    -0.183 NA 
HETATM   13  C   UNL     1      -7.098  13.227  68.054  1.00  0.00    -0.122 C  
HETATM   14  C   UNL     1      -6.384  14.519  68.035  1.00  0.00    -0.154 C  
HETATM   15  C   UNL     1      -6.879  12.201  69.074  1.00  0.00    -0.098 C  
HETATM   16  C   UNL     1      -8.016  12.958  67.114  1.00  0.00    -0.099 C  
HETATM   17  O   UNL     1      -6.610  15.400  67.211  1.00  0.00    -0.265 OA 
HETATM   18  O   UNL     1      -6.054  12.385  69.966  1.00  0.00    -0.144 OA 
HETATM   19  C   UNL     1      -7.658  10.950  68.984  1.00  0.00    -0.135 A  
HETATM   20  O   UNL     1      -5.430  14.657  68.982  1.00  0.00    -0.088 OA 
HETATM   21  C   UNL     1      -7.473  10.015  70.002  1.00  0.00    -0.181 A  
HETATM   22  C   UNL     1      -8.148   8.809  69.953  1.00  0.00    -0.109 A  
HETATM   23  F   UNL     1      -7.963   7.964  70.978  1.00  0.00    -0.083 F  
HETATM   24  C   UNL     1      -8.940   8.442  68.853  1.00  0.00    -0.146 A  
HETATM   25  C   UNL     1      -8.984   9.359  67.762  1.00  0.00    -0.122 A  
HETATM   26 CL   UNL     1      -9.258   8.683  66.164  1.00  0.00    -0.249 Cl 
HETATM   27  C   UNL     1      -8.493  10.695  67.873  1.00  0.00    -0.120 A  
BRANCH  24  28
HETATM   28  N   UNL     1      -9.611   7.189  68.867  1.00  0.00    -0.142 NA 
HETATM   29  C   UNL     1      -9.276   5.937  68.258  1.00  0.00    -0.117 C  
HETATM   30  C   UNL     1     -10.765   5.718  67.960  1.00  0.00    -0.209 C  
HETATM   31  C   UNL     1     -11.024   6.929  68.864  1.00  0.00    -0.168 C  
HETATM   32  O   UNL     1     -11.166   5.844  66.572  1.00  0.00    -0.724 OA 
HETATM   33  H   UNL     1     -12.088   5.709  66.388  1.00  0.00     0.000 HD 
ENDBRANCH  24  28
ENDBRANCH   6  12
TORSDOF 2
ENDMDL
MODEL       58
REMARK 921   NORMALIZED FREE ENERGY PREDICTED BY IDOCK:   -6.33 KCAL/MOL
REMARK 922        TOTAL FREE ENERGY PREDICTED BY IDOCK:   -7.91 KCAL/MOL
REMARK 923 INTER-LIGAND FREE ENERGY PREDICTED BY IDOCK:   -7.18 KCAL/MOL
REMARK 924 INTRA-LIGAND FREE ENERGY PREDICTED BY IDOCK:   -0.73 KCAL/MOL
REMARK 927      BINDING AFFINITY PREDICTED BY RF-SCORE:    0.00 PKD
ROOT
HETATM    1  N   UNL     1     -13.506  13.655  65.466  1.00  0.00    -0.398 NA 
HETATM    2  H1  UNL     1     -13.985  14.128  64.700  1.00  0.00     0.000 HD 
HETATM    3  C   UNL     1     -12.336  12.965  65.137  1.00  0.00    -0.493 A  
HETATM    4  H2  UNL     1     -13.314  14.320  66.215  1.00  0.00     0.000 HD 
HETATM    5  N   UNL     1     -11.701  12.337  66.153  1.00  0.00    -0.501 NA 
HETATM    6  C   UNL     1     -10.634  11.535  65.875  1.00  0.00    -0.268 A  
HETATM    7  F   UNL     1     -12.526  13.569  62.843  1.00  0.00    -0.521 F  
HETATM    8  C   UNL     1     -10.137  11.482  64.553  1.00  0.00    -0.278 A  
HETATM    9  C   UNL     1     -11.866  12.941  63.827  1.00  0.00    -0.504 A  
HETATM   10  F   UNL     1      -9.111  10.691  64.206  1.00  0.00    -0.187 F  
HETATM   11  C   UNL     1     -10.737  12.207  63.530  1.00  0.00    -0.509 A  
ENDROOT
BRANCH   6  12
HETATM   12  N   UNL     1     -10.057  10.727  66.940  1.00  0.00    -0.204 NA 
HETATM   13  C   UNL     1      -9.788   8.407  67.743  1.00  0.00    -0.218 C  
HETATM   14  C   UNL     1     -10.309   7.026  67.705  1.00  0.00    -0.202 C  
HETATM   15  C   UNL     1      -8.632   8.810  68.544  1.00  0.00    -0.134 C  
HETATM   16  C   UNL     1     -10.368   9.360  66.998  1.00  0.00    -0.252 C  
HETATM   17  O   UNL     1     -11.243   6.679  66.990  1.00  0.00    -0.404 OA 
HETATM   18  O   UNL     1      -8.051   7.986  69.247  1.00  0.00    -0.114 OA 
HETATM   19  C   UNL     1      -8.207  10.223  68.494  1.00  0.00    -0.111 A  
HETATM   20  O   UNL     1      -9.697   6.164  68.547  1.00  0.00    -0.124 OA 
HETATM   21  C   UNL     1      -7.067  10.567  69.221  1.00  0.00    -0.097 A  
HETATM   22  C   UNL     1      -6.641  11.883  69.241  1.00  0.00    -0.110 A  
HETATM   23  F   UNL     1      -5.517  12.149  69.923  1.00  0.00    -0.070 F  
HETATM   24  C   UNL     1      -7.378  12.915  68.639  1.00  0.00    -0.099 A  
HETATM   25  C   UNL     1      -8.616  12.548  68.036  1.00  0.00    -0.185 A  
HETATM   26 CL   UNL     1      -9.872  13.775  67.986  1.00  0.00    -0.232 Cl 
HETATM   27  C   UNL     1      -8.971  11.186  67.797  1.00  0.00    -0.139 A  
BRANCH  24  28
HETATM   28  N   UNL     1      -6.882  14.246  68.693  1.00  0.00    -0.092 NA 
HETATM   29  C   UNL     1      -6.968  15.239  69.721  1.00  0.00    -0.168 C  
HETATM   30  C   UNL     1      -7.152  16.305  68.633  1.00  0.00    -0.155 C  
HETATM   31  C   UNL     1      -6.779  15.207  67.630  1.00  0.00    -0.176 C  
HETATM   32  O   UNL     1      -8.480  16.873  68.511  1.00  0.00    -0.238 OA 
HETATM   33  H   UNL     1      -8.594  17.534  67.837  1.00  0.00     0.000 HD 
ENDBRANCH  24  28
ENDBRANCH   6  12
TORSDOF 2
ENDMDL
MODEL       59
REMARK 921   NORMALIZED FREE ENERGY PREDICTED BY IDOCK:   -6.22 KCAL/MOL
REMARK 922        TOTAL FREE ENERGY PREDICTED BY IDOCK:   -7.79 KCAL/MOL
REMARK 923 INTER-LIGAND FREE ENERGY PREDICTED BY IDOCK:   -6.73 KCAL/MOL
REMARK 924 INTRA-LIGAND FREE ENERGY PREDICTED BY IDOCK:   -1.05 KCAL/MOL
REMARK 927      BINDING AFFINITY PREDICTED BY RF-SCORE:    0.00 PKD
ROOT
HETATM    1  N   UNL     1     -12.165  14.276  63.354  1.00  0.00    -1.068 NA 
HETATM    2  H1  UNL     1     -13.154  14.132  63.151  1.00  0.00     0.000 HD 
HETATM    3  C   UNL     1     -11.793  14.233  64.700  1.00  0.00    -0.448 A  
HETATM    4  H2  UNL     1     -11.605  13.610  62.822  1.00  0.00     0.000 HD 
HETATM    5  N   UNL     1     -10.482  14.424  64.969  1.00  0.00    -0.414 NA 
HETATM    6  C   UNL     1     -10.078  14.531  66.267  1.00  0.00    -0.295 A  
HETATM    7  F   UNL     1     -14.034  13.826  65.392  1.00  0.00     0.337 F  
HETATM    8  C   UNL     1     -11.017  14.311  67.302  1.00  0.00    -0.297 A  
HETATM    9  C   UNL     1     -12.740  14.003  65.695  1.00  0.00    -0.481 A  
HETATM   10  F   UNL     1     -10.693  14.432  68.597  1.00  0.00    -0.225 F  
HETATM   11  C   UNL     1     -12.345  14.020  67.016  1.00  0.00    -0.278 A  
ENDROOT
BRANCH   6  12
HETATM   12  N   UNL     1      -8.701  14.905  66.554  1.00  0.00    -0.228 NA 
HETATM   13  C   UNL     1      -7.155  16.827  66.684  1.00  0.00    -0.275 C  
HETATM   14  C   UNL     1      -6.879  18.213  66.255  1.00  0.00    -0.245 C  
HETATM   15  C   UNL     1      -6.259  16.059  67.548  1.00  0.00    -0.165 C  
HETATM   16  C   UNL     1      -8.288  16.222  66.298  1.00  0.00    -0.308 C  
HETATM   17  O   UNL     1      -7.658  18.874  65.577  1.00  0.00    -0.466 OA 
HETATM   18  O   UNL     1      -5.206  16.555  67.942  1.00  0.00    -0.105 OA 
HETATM   19  C   UNL     1      -6.650  14.681  67.909  1.00  0.00    -0.177 A  
HETATM   20  O   UNL     1      -5.678  18.700  66.640  1.00  0.00    -0.149 OA 
HETATM   21  C   UNL     1      -5.807  13.993  68.782  1.00  0.00    -0.085 A  
HETATM   22  C   UNL     1      -6.102  12.687  69.128  1.00  0.00    -0.092 A  
HETATM   23  F   UNL     1      -5.279  12.086  70.001  1.00  0.00    -0.068 F  
HETATM   24  C   UNL     1      -7.171  11.984  68.548  1.00  0.00    -0.101 A  
HETATM   25  C   UNL     1      -7.918  12.671  67.547  1.00  0.00    -0.174 A  
HETATM   26 CL   UNL     1      -8.677  11.688  66.305  1.00  0.00    -0.171 Cl 
HETATM   27  C   UNL     1      -7.789  14.077  67.332  1.00  0.00    -0.170 A  
BRANCH  24  28
HETATM   28  N   UNL     1      -7.422  10.645  68.951  1.00  0.00    -0.099 NA 
HETATM   29  C   UNL     1      -6.899   9.403  68.463  1.00  0.00    -0.062 C  
HETATM   30  C   UNL     1      -8.286   8.776  68.663  1.00  0.00    -0.117 C  
HETATM   31  C   UNL     1      -8.653  10.064  69.412  1.00  0.00    -0.175 C  
HETATM   32  O   UNL     1      -9.038   8.487  67.459  1.00  0.00    -0.133 OA 
HETATM   33  H   UNL     1      -9.897   8.099  67.582  1.00  0.00     0.000 HD 
ENDBRANCH  24  28
ENDBRANCH   6  12
TORSDOF 2
ENDMDL
MODEL       60
REMARK 921   NORMALIZED FREE ENERGY PREDICTED BY IDOCK:   -6.21 KCAL/MOL
REMARK 922        TOTAL FREE ENERGY PREDICTED BY IDOCK:   -7.78 KCAL/MOL
REMARK 923 INTER-LIGAND FREE ENERGY PREDICTED BY IDOCK:   -7.50 KCAL/MOL
REMARK 924 INTRA-LIGAND FREE ENERGY PREDICTED BY IDOCK:   -0.28 KCAL/MOL
REMARK 927      BINDING AFFINITY PREDICTED BY RF-SCORE:    0.00 PKD
ROOT
HETATM    1  N   UNL     1     -12.505   7.146  70.395  1.00  0.00    -0.596 NA 
HETATM    2  H1  UNL     1     -13.041   7.194  71.261  1.00  0.00     0.000 HD 
HETATM    3  C   UNL     1     -11.301   7.855  70.368  1.00  0.00    -0.194 A  
HETATM    4  H2  UNL     1     -12.335   6.171  70.149  1.00  0.00     0.000 HD 
HETATM    5  N   UNL     1     -10.591   7.792  69.219  1.00  0.00    -0.216 NA 
HETATM    6  C   UNL     1      -9.479   8.569  69.080  1.00  0.00    -0.150 A  
HETATM    7  F   UNL     1     -11.608   8.626  72.598  1.00  0.00    -0.429 F  
HETATM    8  C   UNL     1      -9.023   9.324  70.186  1.00  0.00    -0.214 A  
HETATM    9  C   UNL     1     -10.874   8.579  71.477  1.00  0.00    -0.263 A  
HETATM   10  F   UNL     1      -7.957  10.132  70.108  1.00  0.00    -0.174 F  
HETATM   11  C   UNL     1      -9.706   9.308  71.396  1.00  0.00    -0.269 A  
ENDROOT
BRANCH   6  12
HETATM   12  N   UNL     1      -8.812   8.632  67.787  1.00  0.00    -0.136 NA 
HETATM   13  C   UNL     1      -7.292   7.401  66.280  1.00  0.00    -0.082 C  
HETATM   14  C   UNL     1      -6.247   6.363  66.169  1.00  0.00    -0.038 C  
HETATM   15  C   UNL     1      -7.785   8.173  65.139  1.00  0.00    -0.107 C  
HETATM   16  C   UNL     1      -7.853   7.657  67.471  1.00  0.00    -0.119 C  
HETATM   17  O   UNL     1      -5.875   5.679  67.117  1.00  0.00    -0.016 OA 
HETATM   18  O   UNL     1      -7.316   7.985  64.019  1.00  0.00    -0.086 OA 
HETATM   19  C   UNL     1      -8.836   9.181  65.381  1.00  0.00    -0.236 A  
HETATM   20  O   UNL     1      -5.699   6.237  64.940  1.00  0.00    -0.021 OA 
HETATM   21  C   UNL     1      -9.329   9.860  64.267  1.00  0.00    -0.313 A  
HETATM   22  C   UNL     1     -10.289  10.842  64.436  1.00  0.00    -0.361 A  
HETATM   23  F   UNL     1     -10.756  11.435  63.327  1.00  0.00    -0.389 F  
HETATM   24  C   UNL     1     -10.713  11.260  65.707  1.00  0.00    -0.223 A  
HETATM   25  C   UNL     1     -10.076  10.650  66.826  1.00  0.00    -0.224 A  
HETATM   26 CL   UNL     1      -9.966  11.602  68.298  1.00  0.00    -0.195 Cl 
HETATM   27  C   UNL     1      -9.259   9.486  66.694  1.00  0.00    -0.152 A  
BRANCH  24  28
HETATM   28  N   UNL     1     -11.706  12.272  65.810  1.00  0.00    -0.426 NA 
HETATM   29  C   UNL     1     -12.783  12.624  64.934  1.00  0.00    -0.370 C  
HETATM   30  C   UNL     1     -12.521  14.101  65.256  1.00  0.00    -0.461 C  
HETATM   31  C   UNL     1     -11.583  13.595  66.358  1.00  0.00    -0.350 C  
HETATM   32  O   UNL     1     -11.918  14.890  64.199  1.00  0.00    -0.693 OA 
HETATM   33  H   UNL     1     -11.756  15.805  64.398  1.00  0.00     0.000 HD 
ENDBRANCH  24  28
ENDBRANCH   6  12
TORSDOF 2
ENDMDL
MODEL       61
REMARK 921   NORMALIZED FREE ENERGY PREDICTED BY IDOCK:   -6.19 KCAL/MOL
REMARK 922        TOTAL FREE ENERGY PREDICTED BY IDOCK:   -7.75 KCAL/MOL
REMARK 923 INTER-LIGAND FREE ENERGY PREDICTED BY IDOCK:   -6.66 KCAL/MOL
REMARK 924 INTRA-LIGAND FREE ENERGY PREDICTED BY IDOCK:   -1.10 KCAL/MOL
REMARK 927      BINDING AFFINITY PREDICTED BY RF-SCORE:    0.00 PKD
ROOT
HETATM    1  N   UNL     1      -5.192  15.235  67.540  1.00  0.00    -0.334 NA 
HETATM    2  H1  UNL     1      -4.573  15.710  68.197  1.00  0.00     0.000 HD 
HETATM    3  C   UNL     1      -6.527  15.102  67.927  1.00  0.00    -0.159 A  
HETATM    4  H2  UNL     1      -5.142  15.692  66.630  1.00  0.00     0.000 HD 
HETATM    5  N   UNL     1      -7.347  14.471  67.055  1.00  0.00     0.003 NA 
HETATM    6  C   UNL     1      -8.627  14.188  67.431  1.00  0.00    -0.210 A  
HETATM    7  F   UNL     1      -6.127  16.214  69.992  1.00  0.00    -0.173 F  
HETATM    8  C   UNL     1      -9.105  14.674  68.670  1.00  0.00    -0.189 A  
HETATM    9  C   UNL     1      -6.970  15.601  69.149  1.00  0.00    -0.166 A  
HETATM   10  F   UNL     1     -10.341  14.405  69.113  1.00  0.00    -0.225 F  
HETATM   11  C   UNL     1      -8.283  15.405  69.520  1.00  0.00    -0.207 A  
ENDROOT
BRANCH   6  12
HETATM   12  N   UNL     1      -9.456  13.362  66.565  1.00  0.00    -0.260 NA 
HETATM   13  C   UNL     1     -11.072  13.448  64.699  1.00  0.00    -0.380 C  
HETATM   14  C   UNL     1     -12.052  14.268  63.960  1.00  0.00    -0.316 C  
HETATM   15  C   UNL     1     -10.780  12.052  64.372  1.00  0.00    -0.323 C  
HETATM   16  C   UNL     1     -10.381  13.987  65.714  1.00  0.00    -0.319 C  
HETATM   17  O   UNL     1     -12.254  15.454  64.200  1.00  0.00    -0.598 OA 
HETATM   18  O   UNL     1     -11.374  11.497  63.450  1.00  0.00    -0.374 OA 
HETATM   19  C   UNL     1      -9.775  11.340  65.187  1.00  0.00    -0.285 A  
HETATM   20  O   UNL     1     -12.743  13.606  63.005  1.00  0.00    -0.681 OA 
HETATM   21  C   UNL     1      -9.474  10.030  64.815  1.00  0.00    -0.366 A  
HETATM   22  C   UNL     1      -8.567   9.300  65.563  1.00  0.00    -0.152 A  
HETATM   23  F   UNL     1      -8.285   8.059  65.137  1.00  0.00    -0.120 F  
HETATM   24  C   UNL     1      -8.012   9.795  66.753  1.00  0.00    -0.105 A  
HETATM   25  C   UNL     1      -8.460  11.078  67.183  1.00  0.00    -0.137 A  
HETATM   26 CL   UNL     1      -8.443  11.391  68.911  1.00  0.00    -0.083 Cl 
HETATM   27  C   UNL     1      -9.209  11.946  66.330  1.00  0.00    -0.215 A  
BRANCH  24  28
HETATM   28  N   UNL     1      -7.082   8.994  67.472  1.00  0.00    -0.075 NA 
HETATM   29  C   UNL     1      -7.280   8.029  68.511  1.00  0.00    -0.085 C  
HETATM   30  C   UNL     1      -5.999   8.537  69.185  1.00  0.00    -0.042 C  
HETATM   31  C   UNL     1      -5.751   9.331  67.896  1.00  0.00    -0.038 C  
HETATM   32  O   UNL     1      -6.176   9.308  70.400  1.00  0.00    -0.042 OA 
HETATM   33  H   UNL     1      -5.383   9.623  70.817  1.00  0.00     0.000 HD 
ENDBRANCH  24  28
ENDBRANCH   6  12
TORSDOF 2
ENDMDL
MODEL       62
REMARK 921   NORMALIZED FREE ENERGY PREDICTED BY IDOCK:   -6.16 KCAL/MOL
REMARK 922        TOTAL FREE ENERGY PREDICTED BY IDOCK:   -7.72 KCAL/MOL
REMARK 923 INTER-LIGAND FREE ENERGY PREDICTED BY IDOCK:   -6.72 KCAL/MOL
REMARK 924 INTRA-LIGAND FREE ENERGY PREDICTED BY IDOCK:   -0.99 KCAL/MOL
REMARK 927      BINDING AFFINITY PREDICTED BY RF-SCORE:    0.00 PKD
ROOT
HETATM    1  N   UNL     1     -11.364  11.913  63.909  1.00  0.00    -0.400 NA 
HETATM    2  H1  UNL     1     -11.221  12.566  63.139  1.00  0.00     0.000 HD 
HETATM    3  C   UNL     1     -11.008  12.365  65.182  1.00  0.00    -0.302 A  
HETATM    4  H2  UNL     1     -12.332  11.596  63.916  1.00  0.00     0.000 HD 
HETATM    5  N   UNL     1     -11.196  11.499  66.204  1.00  0.00    -0.254 NA 
HETATM    6  C   UNL     1     -10.742  11.827  67.447  1.00  0.00    -0.236 A  
HETATM    7  F   UNL     1     -10.309  14.474  64.330  1.00  0.00    -0.371 F  
HETATM    8  C   UNL     1     -10.204  13.116  67.666  1.00  0.00    -0.224 A  
HETATM    9  C   UNL     1     -10.490  13.644  65.367  1.00  0.00    -0.324 A  
HETATM   10  F   UNL     1      -9.711  13.491  68.855  1.00  0.00    -0.172 F  
HETATM   11  C   UNL     1     -10.101  14.037  66.630  1.00  0.00    -0.276 A  
ENDROOT
BRANCH   6  12
HETATM   12  N   UNL     1     -10.790  10.830  68.507  1.00  0.00    -0.210 NA 
HETATM   13  C   UNL     1     -12.023  10.155  70.538  1.00  0.00    -0.400 C  
HETATM   14  C   UNL     1     -12.915  10.584  71.633  1.00  0.00    -0.476 C  
HETATM   15  C   UNL     1     -11.509   8.791  70.406  1.00  0.00    -0.144 C  
HETATM   16  C   UNL     1     -11.664  11.030  69.587  1.00  0.00    -0.329 C  
HETATM   17  O   UNL     1     -13.389  11.713  71.711  1.00  0.00    -0.399 OA 
HETATM   18  O   UNL     1     -11.802   7.938  71.240  1.00  0.00    -0.288 OA 
HETATM   19  C   UNL     1     -10.626   8.486  69.262  1.00  0.00    -0.193 A  
HETATM   20  O   UNL     1     -13.153   9.644  72.575  1.00  0.00    -0.360 OA 
HETATM   21  C   UNL     1     -10.199   7.165  69.128  1.00  0.00    -0.196 A  
HETATM   22  C   UNL     1      -9.342   6.826  68.096  1.00  0.00    -0.122 A  
HETATM   23  F   UNL     1      -8.995   5.535  67.991  1.00  0.00    -0.110 F  
HETATM   24  C   UNL     1      -8.795   7.790  67.234  1.00  0.00    -0.128 A  
HETATM   25  C   UNL     1      -9.133   9.149  67.497  1.00  0.00    -0.124 A  
HETATM   26 CL   UNL     1      -7.960  10.368  67.028  1.00  0.00    -0.114 Cl 
HETATM   27  C   UNL     1     -10.183   9.510  68.396  1.00  0.00    -0.194 A  
BRANCH  24  28
HETATM   28  N   UNL     1      -7.922   7.374  66.192  1.00  0.00    -0.107 NA 
HETATM   29  C   UNL     1      -8.188   6.703  64.955  1.00  0.00    -0.105 C  
HETATM   30  C   UNL     1      -6.890   5.906  65.143  1.00  0.00    -0.051 C  
HETATM   31  C   UNL     1      -6.580   6.869  66.296  1.00  0.00    -0.052 C  
HETATM   32  O   UNL     1      -7.042   4.506  65.488  1.00  0.00    -0.064 OA 
HETATM   33  H   UNL     1      -6.238   4.013  65.605  1.00  0.00     0.000 HD 
ENDBRANCH  24  28
ENDBRANCH   6  12
TORSDOF 2
ENDMDL
MODEL       63
REMARK 921   NORMALIZED FREE ENERGY PREDICTED BY IDOCK:   -6.15 KCAL/MOL
REMARK 922        TOTAL FREE ENERGY PREDICTED BY IDOCK:   -7.71 KCAL/MOL
REMARK 923 INTER-LIGAND FREE ENERGY PREDICTED BY IDOCK:   -7.07 KCAL/MOL
REMARK 924 INTRA-LIGAND FREE ENERGY PREDICTED BY IDOCK:   -0.64 KCAL/MOL
REMARK 927      BINDING AFFINITY PREDICTED BY RF-SCORE:    0.00 PKD
ROOT
HETATM    1  N   UNL     1      -8.260   8.333  71.337  1.00  0.00    -0.119 NA 
HETATM    2  H1  UNL     1      -8.255   7.921  72.270  1.00  0.00     0.000 HD 
HETATM    3  C   UNL     1      -9.440   8.969  70.943  1.00  0.00    -0.267 A  
HETATM    4  H2  UNL     1      -7.475   8.977  71.242  1.00  0.00     0.000 HD 
HETATM    5  N   UNL     1      -9.446   9.515  69.706  1.00  0.00    -0.195 NA 
HETATM    6  C   UNL     1     -10.609  10.028  69.211  1.00  0.00    -0.227 A  
HETATM    7  F   UNL     1     -10.500   8.467  73.014  1.00  0.00    -0.375 F  
HETATM    8  C   UNL     1     -11.746  10.093  70.049  1.00  0.00    -0.223 A  
HETATM    9  C   UNL     1     -10.539   9.027  71.796  1.00  0.00    -0.356 A  
HETATM   10  F   UNL     1     -12.927  10.556  69.616  1.00  0.00    -0.239 F  
HETATM   11  C   UNL     1     -11.704   9.616  71.354  1.00  0.00    -0.478 A  
ENDROOT
BRANCH   6  12
HETATM   12  N   UNL     1     -10.660  10.459  67.821  1.00  0.00    -0.230 NA 
HETATM   13  C   UNL     1     -11.012  12.426  66.369  1.00  0.00    -0.315 C  
HETATM   14  C   UNL     1     -11.590  13.779  66.253  1.00  0.00    -0.350 C  
HETATM   15  C   UNL     1     -10.313  11.752  65.274  1.00  0.00    -0.274 C  
HETATM   16  C   UNL     1     -11.095  11.762  67.531  1.00  0.00    -0.272 C  
HETATM   17  O   UNL     1     -12.126  14.364  67.188  1.00  0.00    -0.414 OA 
HETATM   18  O   UNL     1     -10.198  12.305  64.183  1.00  0.00    -0.328 OA 
HETATM   19  C   UNL     1      -9.777  10.398  65.518  1.00  0.00    -0.307 A  
HETATM   20  O   UNL     1     -11.515  14.326  65.019  1.00  0.00    -0.333 OA 
HETATM   21  C   UNL     1      -9.065   9.804  64.476  1.00  0.00    -0.297 A  
HETATM   22  C   UNL     1      -8.569   8.522  64.633  1.00  0.00    -0.055 A  
HETATM   23  F   UNL     1      -7.857   8.014  63.614  1.00  0.00    -0.116 F  
HETATM   24  C   UNL     1      -8.847   7.748  65.770  1.00  0.00    -0.106 A  
HETATM   25  C   UNL     1      -9.706   8.332  66.746  1.00  0.00    -0.239 A  
HETATM   26 CL   UNL     1     -10.676   7.234  67.714  1.00  0.00    -0.284 Cl 
HETATM   27  C   UNL     1     -10.044   9.720  66.728  1.00  0.00    -0.231 A  
BRANCH  24  28
HETATM   28  N   UNL     1      -8.304   6.438  65.870  1.00  0.00    -0.137 NA 
HETATM   29  C   UNL     1      -6.963   5.993  66.105  1.00  0.00    -0.062 C  
HETATM   30  C   UNL     1      -7.200   4.850  65.109  1.00  0.00    -0.064 C  
HETATM   31  C   UNL     1      -8.679   5.255  65.145  1.00  0.00    -0.146 C  
HETATM   32  O   UNL     1      -6.525   4.964  63.831  1.00  0.00    -0.032 OA 
HETATM   33  H   UNL     1      -6.672   4.256  63.214  1.00  0.00     0.000 HD 
ENDBRANCH  24  28
ENDBRANCH   6  12
TORSDOF 2
ENDMDL
MODEL       64
REMARK 921   NORMALIZED FREE ENERGY PREDICTED BY IDOCK:   -6.15 KCAL/MOL
REMARK 922        TOTAL FREE ENERGY PREDICTED BY IDOCK:   -7.70 KCAL/MOL
REMARK 923 INTER-LIGAND FREE ENERGY PREDICTED BY IDOCK:   -6.84 KCAL/MOL
REMARK 924 INTRA-LIGAND FREE ENERGY PREDICTED BY IDOCK:   -0.86 KCAL/MOL
REMARK 927      BINDING AFFINITY PREDICTED BY RF-SCORE:    0.00 PKD
ROOT
HETATM    1  N   UNL     1     -12.215  15.394  68.048  1.00  0.00    -0.326 NA 
HETATM    2  H1  UNL     1     -12.521  16.013  67.297  1.00  0.00     0.000 HD 
HETATM    3  C   UNL     1     -11.807  14.113  67.671  1.00  0.00    -0.392 A  
HETATM    4  H2  UNL     1     -11.476  15.846  68.586  1.00  0.00     0.000 HD 
HETATM    5  N   UNL     1     -11.402  13.292  68.667  1.00  0.00    -0.267 NA 
HETATM    6  C   UNL     1     -11.123  11.988  68.383  1.00  0.00    -0.245 A  
HETATM    7  F   UNL     1     -12.237  14.560  65.374  1.00  0.00    -0.365 F  
HETATM    8  C   UNL     1     -11.137  11.558  67.036  1.00  0.00    -0.307 A  
HETATM    9  C   UNL     1     -11.822  13.722  66.335  1.00  0.00    -0.404 A  
HETATM   10  F   UNL     1     -10.903  10.283  66.692  1.00  0.00    -0.284 F  
HETATM   11  C   UNL     1     -11.461  12.433  66.006  1.00  0.00    -0.431 A  
ENDROOT
BRANCH   6  12
HETATM   12  N   UNL     1     -10.853  11.065  69.476  1.00  0.00    -0.238 NA 
HETATM   13  C   UNL     1     -11.928   9.743  71.264  1.00  0.00    -0.471 C  
HETATM   14  C   UNL     1     -13.113   9.583  72.130  1.00  0.00    -0.436 C  
HETATM   15  C   UNL     1     -10.761   8.862  71.326  1.00  0.00    -0.287 C  
HETATM   16  C   UNL     1     -11.899  10.721  70.347  1.00  0.00    -0.358 C  
HETATM   17  O   UNL     1     -14.113  10.287  72.038  1.00  0.00     0.085 OA 
HETATM   18  O   UNL     1     -10.724   7.943  72.140  1.00  0.00    -0.224 OA 
HETATM   19  C   UNL     1      -9.640   9.126  70.402  1.00  0.00    -0.268 A  
HETATM   20  O   UNL     1     -13.007   8.614  73.066  1.00  0.00    -0.250 OA 
HETATM   21  C   UNL     1      -8.566   8.236  70.442  1.00  0.00    -0.134 A  
HETATM   22  C   UNL     1      -7.470   8.451  69.625  1.00  0.00    -0.073 A  
HETATM   23  F   UNL     1      -6.484   7.543  69.675  1.00  0.00    -0.033 F  
HETATM   24  C   UNL     1      -7.350   9.600  68.826  1.00  0.00    -0.074 A  
HETATM   25  C   UNL     1      -8.397  10.561  68.927  1.00  0.00    -0.147 A  
HETATM   26 CL   UNL     1      -7.972  12.238  68.619  1.00  0.00    -0.095 Cl 
HETATM   27  C   UNL     1      -9.636  10.271  69.574  1.00  0.00    -0.202 A  
BRANCH  24  28
HETATM   28  N   UNL     1      -6.199   9.758  68.007  1.00  0.00    -0.055 NA 
HETATM   29  C   UNL     1      -5.154  10.737  68.034  1.00  0.00    -0.036 C  
HETATM   30  C   UNL     1      -5.142  10.722  66.499  1.00  0.00    -0.069 C  
HETATM   31  C   UNL     1      -6.057   9.496  66.601  1.00  0.00    -0.064 C  
HETATM   32  O   UNL     1      -5.691  11.892  65.843  1.00  0.00    -0.393 OA 
HETATM   33  H   UNL     1      -5.684  11.882  64.893  1.00  0.00     0.000 HD 
ENDBRANCH  24  28
ENDBRANCH   6  12
TORSDOF 2
ENDMDL
MODEL       65
REMARK 921   NORMALIZED FREE ENERGY PREDICTED BY IDOCK:   -6.08 KCAL/MOL
REMARK 922        TOTAL FREE ENERGY PREDICTED BY IDOCK:   -7.63 KCAL/MOL
REMARK 923 INTER-LIGAND FREE ENERGY PREDICTED BY IDOCK:   -6.78 KCAL/MOL
REMARK 924 INTRA-LIGAND FREE ENERGY PREDICTED BY IDOCK:   -0.85 KCAL/MOL
REMARK 927      BINDING AFFINITY PREDICTED BY RF-SCORE:    0.00 PKD
ROOT
HETATM    1  N   UNL     1      -9.487   7.976  65.530  1.00  0.00    -0.348 NA 
HETATM    2  H1  UNL     1      -8.862   7.774  64.749  1.00  0.00     0.000 HD 
HETATM    3  C   UNL     1      -9.194   9.116  66.283  1.00  0.00    -0.194 A  
HETATM    4  H2  UNL     1     -10.449   8.023  65.197  1.00  0.00     0.000 HD 
HETATM    5  N   UNL     1     -10.021   9.383  67.318  1.00  0.00    -0.182 NA 
HETATM    6  C   UNL     1      -9.711  10.400  68.172  1.00  0.00    -0.151 A  
HETATM    7  F   UNL     1      -7.298   9.621  64.935  1.00  0.00    -0.100 F  
HETATM    8  C   UNL     1      -8.605  11.231  67.882  1.00  0.00    -0.134 A  
HETATM    9  C   UNL     1      -8.103   9.921  65.964  1.00  0.00    -0.120 A  
HETATM   10  F   UNL     1      -8.227  12.227  68.696  1.00  0.00    -0.143 F  
HETATM   11  C   UNL     1      -7.814  11.008  66.761  1.00  0.00    -0.149 A  
ENDROOT
BRANCH   6  12
HETATM   12  N   UNL     1     -10.505  10.580  69.380  1.00  0.00    -0.230 NA 
HETATM   13  C   UNL     1     -12.143  12.072  70.470  1.00  0.00    -0.402 C  
HETATM   14  C   UNL     1     -12.711  13.434  70.536  1.00  0.00    -0.124 C  
HETATM   15  C   UNL     1     -12.573  10.978  71.340  1.00  0.00    -0.393 C  
HETATM   16  C   UNL     1     -11.199  11.787  69.561  1.00  0.00    -0.195 C  
HETATM   17  O   UNL     1     -12.389  14.335  69.768  1.00  0.00    -0.328 OA 
HETATM   18  O   UNL     1     -13.437  11.170  72.192  1.00  0.00    -0.380 OA 
HETATM   19  C   UNL     1     -11.928   9.660  71.174  1.00  0.00    -0.452 A  
HETATM   20  O   UNL     1     -13.601  13.632  71.533  1.00  0.00    -0.310 OA 
HETATM   21  C   UNL     1     -12.398   8.620  71.976  1.00  0.00    -0.435 A  
HETATM   22  C   UNL     1     -11.809   7.372  71.890  1.00  0.00    -0.297 A  
HETATM   23  F   UNL     1     -12.327   6.399  72.655  1.00  0.00    -0.164 F  
HETATM   24  C   UNL     1     -10.676   7.135  71.096  1.00  0.00    -0.232 A  
HETATM   25  C   UNL     1     -10.131   8.258  70.408  1.00  0.00    -0.190 A  
HETATM   26 CL   UNL     1      -8.405   8.231  70.080  1.00  0.00    -0.119 Cl 
HETATM   27  C   UNL     1     -10.837   9.493  70.291  1.00  0.00    -0.269 A  
BRANCH  24  28
HETATM   28  N   UNL     1     -10.121   5.827  71.049  1.00  0.00    -0.196 NA 
HETATM   29  C   UNL     1      -8.945   5.283  71.659  1.00  0.00    -0.135 C  
HETATM   30  C   UNL     1      -8.702   4.461  70.386  1.00  0.00    -0.085 C  
HETATM   31  C   UNL     1     -10.107   4.898  69.953  1.00  0.00    -0.262 C  
HETATM   32  O   UNL     1      -7.600   4.889  69.547  1.00  0.00    -0.056 OA 
HETATM   33  H   UNL     1      -7.450   4.380  68.758  1.00  0.00     0.000 HD 
ENDBRANCH  24  28
ENDBRANCH   6  12
TORSDOF 2
ENDMDL
MODEL       66
REMARK 921   NORMALIZED FREE ENERGY PREDICTED BY IDOCK:   -6.04 KCAL/MOL
REMARK 922        TOTAL FREE ENERGY PREDICTED BY IDOCK:   -7.59 KCAL/MOL
REMARK 923 INTER-LIGAND FREE ENERGY PREDICTED BY IDOCK:   -6.58 KCAL/MOL
REMARK 924 INTRA-LIGAND FREE ENERGY PREDICTED BY IDOCK:   -1.01 KCAL/MOL
REMARK 927      BINDING AFFINITY PREDICTED BY RF-SCORE:    0.00 PKD
ROOT
HETATM    1  N   UNL     1      -8.906   6.293  65.099  1.00  0.00    -0.364 NA 
HETATM    2  H1  UNL     1      -9.398   5.560  64.587  1.00  0.00     0.000 HD 
HETATM    3  C   UNL     1      -9.392   6.596  66.373  1.00  0.00    -0.139 A  
HETATM    4  H2  UNL     1      -7.914   6.066  65.155  1.00  0.00     0.000 HD 
HETATM    5  N   UNL     1      -8.740   7.567  67.052  1.00  0.00    -0.124 NA 
HETATM    6  C   UNL     1      -9.247   8.005  68.240  1.00  0.00    -0.134 A  
HETATM    7  F   UNL     1     -11.117   4.967  66.194  1.00  0.00    -0.313 F  
HETATM    8  C   UNL     1     -10.367   7.344  68.796  1.00  0.00    -0.199 A  
HETATM    9  C   UNL     1     -10.490   5.919  66.898  1.00  0.00    -0.286 A  
HETATM   10  F   UNL     1     -10.933   7.742  69.944  1.00  0.00    -0.247 F  
HETATM   11  C   UNL     1     -10.974   6.281  68.137  1.00  0.00    -0.412 A  
ENDROOT
BRANCH   6  12
HETATM   12  N   UNL     1      -8.646   9.162  68.886  1.00  0.00    -0.129 NA 
HETATM   13  C   UNL     1      -6.863   9.857  70.447  1.00  0.00    -0.141 C  
HETATM   14  C   UNL     1      -5.960   9.447  71.541  1.00  0.00    -0.054 C  
HETATM   15  C   UNL     1      -6.903  11.214  69.901  1.00  0.00    -0.057 C  
HETATM   16  C   UNL     1      -7.685   8.957  69.889  1.00  0.00    -0.076 C  
HETATM   17  O   UNL     1      -5.888   8.296  71.959  1.00  0.00    -0.037 OA 
HETATM   18  O   UNL     1      -6.172  12.087  70.364  1.00  0.00    -0.190 OA 
HETATM   19  C   UNL     1      -7.850  11.497  68.804  1.00  0.00    -0.117 A  
HETATM   20  O   UNL     1      -5.227  10.448  72.079  1.00  0.00    -0.240 OA 
HETATM   21  C   UNL     1      -7.825  12.782  68.264  1.00  0.00    -0.141 A  
HETATM   22  C   UNL     1      -8.714  13.118  67.258  1.00  0.00    -0.210 A  
HETATM   23  F   UNL     1      -8.619  14.354  66.748  1.00  0.00    -0.230 F  
HETATM   24  C   UNL     1      -9.721  12.238  66.829  1.00  0.00    -0.213 A  
HETATM   25  C   UNL     1      -9.812  10.990  67.511  1.00  0.00    -0.169 A  
HETATM   26 CL   UNL     1     -11.399  10.240  67.591  1.00  0.00    -0.241 Cl 
HETATM   27  C   UNL     1      -8.783  10.523  68.383  1.00  0.00    -0.137 A  
BRANCH  24  28
HETATM   28  N   UNL     1     -10.600  12.644  65.788  1.00  0.00    -0.266 NA 
HETATM   29  C   UNL     1     -10.348  12.955  64.413  1.00  0.00    -0.369 C  
HETATM   30  C   UNL     1     -11.385  14.082  64.510  1.00  0.00    -0.358 C  
HETATM   31  C   UNL     1     -11.759  13.489  65.873  1.00  0.00    -0.352 C  
HETATM   32  O   UNL     1     -10.864  15.434  64.509  1.00  0.00    -0.640 OA 
HETATM   33  H   UNL     1     -11.506  16.132  64.569  1.00  0.00     0.000 HD 
ENDBRANCH  24  28
ENDBRANCH   6  12
TORSDOF 2
ENDMDL
MODEL       67
REMARK 921   NORMALIZED FREE ENERGY PREDICTED BY IDOCK:   -6.03 KCAL/MOL
REMARK 922        TOTAL FREE ENERGY PREDICTED BY IDOCK:   -7.57 KCAL/MOL
REMARK 923 INTER-LIGAND FREE ENERGY PREDICTED BY IDOCK:   -7.28 KCAL/MOL
REMARK 924 INTRA-LIGAND FREE ENERGY PREDICTED BY IDOCK:   -0.29 KCAL/MOL
REMARK 927      BINDING AFFINITY PREDICTED BY RF-SCORE:    0.00 PKD
ROOT
HETATM    1  N   UNL     1     -10.147  11.998  62.766  1.00  0.00    -0.364 NA 
HETATM    2  H1  UNL     1     -10.801  11.993  61.983  1.00  0.00     0.000 HD 
HETATM    3  C   UNL     1     -10.681  12.297  64.022  1.00  0.00    -0.396 A  
HETATM    4  H2  UNL     1      -9.652  11.107  62.806  1.00  0.00     0.000 HD 
HETATM    5  N   UNL     1      -9.814  12.304  65.059  1.00  0.00    -0.191 NA 
HETATM    6  C   UNL     1     -10.244  12.721  66.284  1.00  0.00    -0.253 A  
HETATM    7  F   UNL     1     -12.868  12.560  63.122  1.00  0.00    -0.467 F  
HETATM    8  C   UNL     1     -11.616  13.012  66.470  1.00  0.00    -0.356 A  
HETATM    9  C   UNL     1     -12.038  12.568  64.174  1.00  0.00    -0.447 A  
HETATM   10  F   UNL     1     -12.099  13.457  67.639  1.00  0.00    -0.373 F  
HETATM   11  C   UNL     1     -12.520  12.910  65.420  1.00  0.00    -0.511 A  
ENDROOT
BRANCH   6  12
HETATM   12  N   UNL     1      -9.276  12.892  67.358  1.00  0.00    -0.189 NA 
HETATM   13  C   UNL     1      -7.885  11.661  68.986  1.00  0.00     0.031 C  
HETATM   14  C   UNL     1      -7.695  10.404  69.736  1.00  0.00    -0.116 C  
HETATM   15  C   UNL     1      -6.999  12.818  69.116  1.00  0.00    -0.015 C  
HETATM   16  C   UNL     1      -8.900  11.772  68.117  1.00  0.00    -0.169 C  
HETATM   17  O   UNL     1      -8.406   9.416  69.584  1.00  0.00    -0.121 OA 
HETATM   18  O   UNL     1      -6.047  12.782  69.892  1.00  0.00    -0.128 OA 
HETATM   19  C   UNL     1      -7.296  14.018  68.307  1.00  0.00    -0.115 A  
HETATM   20  O   UNL     1      -6.687  10.426  70.637  1.00  0.00    -0.313 OA 
HETATM   21  C   UNL     1      -6.402  15.084  68.406  1.00  0.00    -0.107 A  
HETATM   22  C   UNL     1      -6.646  16.248  67.700  1.00  0.00    -0.148 A  
HETATM   23  F   UNL     1      -5.733  17.225  67.801  1.00  0.00    -0.111 F  
HETATM   24  C   UNL     1      -7.826  16.440  66.963  1.00  0.00    -0.212 A  
HETATM   25  C   UNL     1      -8.787  15.388  67.010  1.00  0.00    -0.228 A  
HETATM   26 CL   UNL     1     -10.472  15.839  66.810  1.00  0.00    -0.301 Cl 
HETATM   27  C   UNL     1      -8.474  14.095  67.531  1.00  0.00    -0.187 A  
BRANCH  24  28
HETATM   28  N   UNL     1      -8.013  17.659  66.257  1.00  0.00    -0.391 NA 
HETATM   29  C   UNL     1      -7.076  18.513  65.592  1.00  0.00    -0.170 C  
HETATM   30  C   UNL     1      -7.867  19.726  66.100  1.00  0.00    -0.335 C  
HETATM   31  C   UNL     1      -8.941  18.721  66.535  1.00  0.00    -0.319 C  
HETATM   32  O   UNL     1      -7.242  20.505  67.151  1.00  0.00    -0.277 OA 
HETATM   33  H   UNL     1      -7.732  21.256  67.466  1.00  0.00     0.000 HD 
ENDBRANCH  24  28
ENDBRANCH   6  12
TORSDOF 2
ENDMDL
MODEL       68
REMARK 921   NORMALIZED FREE ENERGY PREDICTED BY IDOCK:   -5.96 KCAL/MOL
REMARK 922        TOTAL FREE ENERGY PREDICTED BY IDOCK:   -7.50 KCAL/MOL
REMARK 923 INTER-LIGAND FREE ENERGY PREDICTED BY IDOCK:   -6.48 KCAL/MOL
REMARK 924 INTRA-LIGAND FREE ENERGY PREDICTED BY IDOCK:   -1.02 KCAL/MOL
REMARK 927      BINDING AFFINITY PREDICTED BY RF-SCORE:    0.00 PKD
ROOT
HETATM    1  N   UNL     1     -10.313   5.575  65.956  1.00  0.00    -0.444 NA 
HETATM    2  H1  UNL     1      -9.885   4.930  65.292  1.00  0.00     0.000 HD 
HETATM    3  C   UNL     1      -9.704   6.824  66.092  1.00  0.00     0.104 A  
HETATM    4  H2  UNL     1     -11.300   5.696  65.729  1.00  0.00     0.000 HD 
HETATM    5  N   UNL     1     -10.271   7.679  66.973  1.00  0.00    -0.272 NA 
HETATM    6  C   UNL     1      -9.647   8.859  67.252  1.00  0.00    -0.164 A  
HETATM    7  F   UNL     1      -8.032   6.276  64.489  1.00  0.00    -0.102 F  
HETATM    8  C   UNL     1      -8.492   9.217  66.520  1.00  0.00    -0.126 A  
HETATM    9  C   UNL     1      -8.573   7.152  65.348  1.00  0.00    -0.032 A  
HETATM   10  F   UNL     1      -7.813  10.347  66.766  1.00  0.00    -0.108 F  
HETATM   11  C   UNL     1      -7.968   8.375  65.547  1.00  0.00    -0.115 A  
ENDROOT
BRANCH   6  12
HETATM   12  N   UNL     1     -10.164   9.701  68.321  1.00  0.00    -0.178 NA 
HETATM   13  C   UNL     1     -11.421  11.777  68.777  1.00  0.00    -0.350 C  
HETATM   14  C   UNL     1     -11.850  13.091  68.260  1.00  0.00    -0.343 C  
HETATM   15  C   UNL     1     -11.756  11.290  70.116  1.00  0.00    -0.343 C  
HETATM   16  C   UNL     1     -10.706  10.954  67.996  1.00  0.00    -0.220 C  
HETATM   17  O   UNL     1     -11.616  13.474  67.118  1.00  0.00    -0.320 OA 
HETATM   18  O   UNL     1     -12.413  11.992  70.881  1.00  0.00    -0.369 OA 
HETATM   19  C   UNL     1     -11.269   9.954  70.514  1.00  0.00    -0.399 A  
HETATM   20  O   UNL     1     -12.502  13.869  69.153  1.00  0.00    -0.231 OA 
HETATM   21  C   UNL     1     -11.652   9.491  71.772  1.00  0.00    -0.382 A  
HETATM   22  C   UNL     1     -11.197   8.262  72.215  1.00  0.00    -0.374 A  
HETATM   23  F   UNL     1     -11.629   7.848  73.416  1.00  0.00    -0.349 F  
HETATM   24  C   UNL     1     -10.270   7.502  71.484  1.00  0.00    -0.188 A  
HETATM   25  C   UNL     1      -9.784   8.078  70.274  1.00  0.00    -0.175 A  
HETATM   26 CL   UNL     1      -8.168   7.616  69.765  1.00  0.00    -0.129 Cl 
HETATM   27  C   UNL     1     -10.395   9.223  69.678  1.00  0.00    -0.217 A  
BRANCH  24  28
HETATM   28  N   UNL     1      -9.846   6.245  71.994  1.00  0.00    -0.158 NA 
HETATM   29  C   UNL     1      -8.727   5.894  72.816  1.00  0.00    -0.125 C  
HETATM   30  C   UNL     1      -8.569   4.606  71.997  1.00  0.00    -0.118 C  
HETATM   31  C   UNL     1      -9.925   4.952  71.371  1.00  0.00    -0.197 C  
HETATM   32  O   UNL     1      -7.432   4.552  71.099  1.00  0.00    -0.056 OA 
HETATM   33  H   UNL     1      -7.335   3.755  70.591  1.00  0.00     0.000 HD 
ENDBRANCH  24  28
ENDBRANCH   6  12
TORSDOF 2
ENDMDL
MODEL       69
REMARK 921   NORMALIZED FREE ENERGY PREDICTED BY IDOCK:   -5.93 KCAL/MOL
REMARK 922        TOTAL FREE ENERGY PREDICTED BY IDOCK:   -7.46 KCAL/MOL
REMARK 923 INTER-LIGAND FREE ENERGY PREDICTED BY IDOCK:   -7.10 KCAL/MOL
REMARK 924 INTRA-LIGAND FREE ENERGY PREDICTED BY IDOCK:   -0.36 KCAL/MOL
REMARK 927      BINDING AFFINITY PREDICTED BY RF-SCORE:    0.00 PKD
ROOT
HETATM    1  N   UNL     1     -12.116  11.756  67.352  1.00  0.00    -0.530 NA 
HETATM    2  H1  UNL     1     -12.721  11.054  66.926  1.00  0.00     0.000 HD 
HETATM    3  C   UNL     1     -11.864  12.903  66.595  1.00  0.00    -0.395 A  
HETATM    4  H2  UNL     1     -12.487  12.021  68.264  1.00  0.00     0.000 HD 
HETATM    5  N   UNL     1     -11.061  13.833  67.160  1.00  0.00    -0.296 NA 
HETATM    6  C   UNL     1     -10.666  14.909  66.421  1.00  0.00    -0.316 A  
HETATM    7  F   UNL     1     -13.207  12.113  64.796  1.00  0.00    -0.386 F  
HETATM    8  C   UNL     1     -11.208  15.093  65.127  1.00  0.00    -0.389 A  
HETATM    9  C   UNL     1     -12.421  13.060  65.329  1.00  0.00    -0.499 A  
HETATM   10  F   UNL     1     -10.838  16.110  64.337  1.00  0.00    -0.401 F  
HETATM   11  C   UNL     1     -12.108  14.181  64.590  1.00  0.00    -0.469 A  
ENDROOT
BRANCH   6  12
HETATM   12  N   UNL     1      -9.670  15.819  66.967  1.00  0.00    -0.225 NA 
HETATM   13  C   UNL     1      -9.239  18.188  67.516  1.00  0.00    -0.257 C  
HETATM   14  C   UNL     1      -9.603  19.595  67.256  1.00  0.00    -0.346 C  
HETATM   15  C   UNL     1      -8.189  17.788  68.453  1.00  0.00    -0.298 C  
HETATM   16  C   UNL     1      -9.901  17.201  66.894  1.00  0.00    -0.285 C  
HETATM   17  O   UNL     1     -10.521  19.925  66.512  1.00  0.00    -0.459 OA 
HETATM   18  O   UNL     1      -7.545  18.642  69.059  1.00  0.00    -0.280 OA 
HETATM   19  C   UNL     1      -7.921  16.346  68.627  1.00  0.00    -0.220 A  
HETATM   20  O   UNL     1      -8.826  20.509  67.878  1.00  0.00    -0.157 OA 
HETATM   21  C   UNL     1      -6.956  15.992  69.569  1.00  0.00    -0.191 A  
HETATM   22  C   UNL     1      -6.637  14.658  69.751  1.00  0.00    -0.164 A  
HETATM   23  F   UNL     1      -5.731  14.372  70.698  1.00  0.00    -0.120 F  
HETATM   24  C   UNL     1      -7.175  13.645  68.942  1.00  0.00    -0.083 A  
HETATM   25  C   UNL     1      -8.042  14.061  67.889  1.00  0.00    -0.156 A  
HETATM   26 CL   UNL     1      -8.104  13.043  66.459  1.00  0.00     0.339 Cl 
HETATM   27  C   UNL     1      -8.568  15.386  67.817  1.00  0.00    -0.157 A  
BRANCH  24  28
HETATM   28  N   UNL     1      -6.808  12.294  69.184  1.00  0.00    -0.096 NA 
HETATM   29  C   UNL     1      -5.619  11.569  68.850  1.00  0.00    -0.046 C  
HETATM   30  C   UNL     1      -6.489  10.340  68.551  1.00  0.00    -0.052 C  
HETATM   31  C   UNL     1      -7.644  11.125  69.185  1.00  0.00    -0.098 C  
HETATM   32  O   UNL     1      -6.635   9.983  67.154  1.00  0.00    -0.068 OA 
HETATM   33  H   UNL     1      -7.173   9.223  66.968  1.00  0.00     0.000 HD 
ENDBRANCH  24  28
ENDBRANCH   6  12
TORSDOF 2
ENDMDL
MODEL       70
REMARK 921   NORMALIZED FREE ENERGY PREDICTED BY IDOCK:   -5.89 KCAL/MOL
REMARK 922        TOTAL FREE ENERGY PREDICTED BY IDOCK:   -7.42 KCAL/MOL
REMARK 923 INTER-LIGAND FREE ENERGY PREDICTED BY IDOCK:   -6.50 KCAL/MOL
REMARK 924 INTRA-LIGAND FREE ENERGY PREDICTED BY IDOCK:   -0.91 KCAL/MOL
REMARK 927      BINDING AFFINITY PREDICTED BY RF-SCORE:    0.00 PKD
ROOT
HETATM    1  N   UNL     1     -12.700   7.589  70.704  1.00  0.00    -0.524 NA 
HETATM    2  H1  UNL     1     -13.136   7.693  71.620  1.00  0.00     0.000 HD 
HETATM    3  C   UNL     1     -11.346   7.920  70.618  1.00  0.00    -0.259 A  
HETATM    4  H2  UNL     1     -12.844   6.640  70.361  1.00  0.00     0.000 HD 
HETATM    5  N   UNL     1     -10.768   7.783  69.403  1.00  0.00    -0.208 NA 
HETATM    6  C   UNL     1      -9.488   8.219  69.222  1.00  0.00    -0.155 A  
HETATM    7  F   UNL     1     -11.254   8.497  72.925  1.00  0.00    -0.394 F  
HETATM    8  C   UNL     1      -8.754   8.684  70.337  1.00  0.00    -0.155 A  
HETATM    9  C   UNL     1     -10.647   8.364  71.737  1.00  0.00    -0.282 A  
HETATM   10  F   UNL     1      -7.504   9.156  70.222  1.00  0.00    -0.058 F  
HETATM   11  C   UNL     1      -9.325   8.733  71.603  1.00  0.00    -0.345 A  
ENDROOT
BRANCH   6  12
HETATM   12  N   UNL     1      -8.925   8.230  67.879  1.00  0.00    -0.134 NA 
HETATM   13  C   UNL     1      -7.881   6.800  66.157  1.00  0.00    -0.102 C  
HETATM   14  C   UNL     1      -7.145   5.551  65.878  1.00  0.00    -0.068 C  
HETATM   15  C   UNL     1      -8.246   7.768  65.121  1.00  0.00    -0.132 C  
HETATM   16  C   UNL     1      -8.270   7.081  67.409  1.00  0.00    -0.119 C  
HETATM   17  O   UNL     1      -6.889   4.715  66.739  1.00  0.00    -0.053 OA 
HETATM   18  O   UNL     1      -7.924   7.571  63.952  1.00  0.00    -0.134 OA 
HETATM   19  C   UNL     1      -8.986   8.979  65.529  1.00  0.00    -0.252 A  
HETATM   20  O   UNL     1      -6.738   5.403  64.598  1.00  0.00    -0.045 OA 
HETATM   21  C   UNL     1      -9.372   9.854  64.514  1.00  0.00    -0.336 A  
HETATM   22  C   UNL     1     -10.037  11.024  64.837  1.00  0.00    -0.300 A  
HETATM   23  F   UNL     1     -10.420  11.809  63.819  1.00  0.00    -0.301 F  
HETATM   24  C   UNL     1     -10.247  11.419  66.168  1.00  0.00    -0.239 A  
HETATM   25  C   UNL     1      -9.704  10.574  67.179  1.00  0.00    -0.171 A  
HETATM   26 CL   UNL     1      -9.248  11.336  68.694  1.00  0.00    -0.179 Cl 
HETATM   27  C   UNL     1      -9.221   9.261  66.893  1.00  0.00    -0.144 A  
BRANCH  24  28
HETATM   28  N   UNL     1     -10.941  12.631  66.431  1.00  0.00    -0.265 NA 
HETATM   29  C   UNL     1     -10.487  13.989  66.445  1.00  0.00    -0.284 C  
HETATM   30  C   UNL     1     -11.401  14.251  67.649  1.00  0.00    -0.324 C  
HETATM   31  C   UNL     1     -12.005  12.869  67.368  1.00  0.00    -0.300 C  
HETATM   32  O   UNL     1     -10.742  14.425  68.929  1.00  0.00    -0.242 OA 
HETATM   33  H   UNL     1     -11.309  14.586  69.674  1.00  0.00     0.000 HD 
ENDBRANCH  24  28
ENDBRANCH   6  12
TORSDOF 2
ENDMDL
MODEL       71
REMARK 921   NORMALIZED FREE ENERGY PREDICTED BY IDOCK:   -5.87 KCAL/MOL
REMARK 922        TOTAL FREE ENERGY PREDICTED BY IDOCK:   -7.39 KCAL/MOL
REMARK 923 INTER-LIGAND FREE ENERGY PREDICTED BY IDOCK:   -6.46 KCAL/MOL
REMARK 924 INTRA-LIGAND FREE ENERGY PREDICTED BY IDOCK:   -0.93 KCAL/MOL
REMARK 927      BINDING AFFINITY PREDICTED BY RF-SCORE:    0.00 PKD
ROOT
HETATM    1  N   UNL     1      -7.767   6.303  72.848  1.00  0.00    -0.103 NA 
HETATM    2  H1  UNL     1      -7.477   5.498  73.403  1.00  0.00     0.000 HD 
HETATM    3  C   UNL     1      -9.128   6.393  72.546  1.00  0.00    -0.136 A  
HETATM    4  H2  UNL     1      -7.459   7.162  73.302  1.00  0.00     0.000 HD 
HETATM    5  N   UNL     1      -9.513   7.460  71.810  1.00  0.00    -0.149 NA 
HETATM    6  C   UNL     1     -10.800   7.533  71.366  1.00  0.00    -0.229 A  
HETATM    7  F   UNL     1      -9.606   4.375  73.713  1.00  0.00    -0.119 F  
HETATM    8  C   UNL     1     -11.733   6.560  71.794  1.00  0.00    -0.324 A  
HETATM    9  C   UNL     1     -10.024   5.424  72.992  1.00  0.00    -0.168 A  
HETATM   10  F   UNL     1     -13.005   6.556  71.370  1.00  0.00    -0.323 F  
HETATM   11  C   UNL     1     -11.351   5.518  72.630  1.00  0.00    -0.346 A  
ENDROOT
BRANCH   6  12
HETATM   12  N   UNL     1     -11.172   8.589  70.435  1.00  0.00    -0.241 NA 
HETATM   13  C   UNL     1     -11.978  10.919  70.300  1.00  0.00    -0.448 C  
HETATM   14  C   UNL     1     -12.678  12.019  70.993  1.00  0.00    -0.241 C  
HETATM   15  C   UNL     1     -11.465  11.026  68.934  1.00  0.00    -0.296 C  
HETATM   16  C   UNL     1     -11.764   9.758  70.937  1.00  0.00    -0.347 C  
HETATM   17  O   UNL     1     -13.057  11.946  72.158  1.00  0.00    -0.443 OA 
HETATM   18  O   UNL     1     -11.623  12.064  68.295  1.00  0.00    -0.289 OA 
HETATM   19  C   UNL     1     -10.779   9.854  68.353  1.00  0.00    -0.271 A  
HETATM   20  O   UNL     1     -12.904  13.116  70.237  1.00  0.00    -0.005 OA 
HETATM   21  C   UNL     1     -10.250  10.004  67.072  1.00  0.00    -0.295 A  
HETATM   22  C   UNL     1      -9.627   8.930  66.461  1.00  0.00    -0.232 A  
HETATM   23  F   UNL     1      -9.101   9.141  65.245  1.00  0.00    -0.213 F  
HETATM   24  C   UNL     1      -9.600   7.653  67.044  1.00  0.00    -0.175 A  
HETATM   25  C   UNL     1     -10.285   7.502  68.285  1.00  0.00    -0.186 A  
HETATM   26 CL   UNL     1     -10.941   5.913  68.645  1.00  0.00    -0.343 Cl 
HETATM   27  C   UNL     1     -10.734   8.624  69.046  1.00  0.00    -0.101 A  
BRANCH  24  28
HETATM   28  N   UNL     1      -8.940   6.593  66.364  1.00  0.00    -0.146 NA 
HETATM   29  C   UNL     1      -7.605   6.489  65.858  1.00  0.00    -0.087 C  
HETATM   30  C   UNL     1      -8.156   5.725  64.646  1.00  0.00    -0.132 C  
HETATM   31  C   UNL     1      -9.484   5.664  65.412  1.00  0.00     0.194 C  
HETATM   32  O   UNL     1      -8.164   6.442  63.387  1.00  0.00    -0.268 OA 
HETATM   33  H   UNL     1      -8.506   5.969  62.636  1.00  0.00     0.000 HD 
ENDBRANCH  24  28
ENDBRANCH   6  12
TORSDOF 2
ENDMDL
MODEL       72
REMARK 921   NORMALIZED FREE ENERGY PREDICTED BY IDOCK:   -5.83 KCAL/MOL
REMARK 922        TOTAL FREE ENERGY PREDICTED BY IDOCK:   -7.35 KCAL/MOL
REMARK 923 INTER-LIGAND FREE ENERGY PREDICTED BY IDOCK:   -6.35 KCAL/MOL
REMARK 924 INTRA-LIGAND FREE ENERGY PREDICTED BY IDOCK:   -1.00 KCAL/MOL
REMARK 927      BINDING AFFINITY PREDICTED BY RF-SCORE:    0.00 PKD
ROOT
HETATM    1  N   UNL     1     -12.508  12.466  65.446  1.00  0.00    -0.613 NA 
HETATM    2  H1  UNL     1     -12.597  13.392  65.027  1.00  0.00     0.000 HD 
HETATM    3  C   UNL     1     -11.534  12.321  66.436  1.00  0.00    -0.378 A  
HETATM    4  H2  UNL     1     -13.413  12.164  65.807  1.00  0.00     0.000 HD 
HETATM    5  N   UNL     1     -11.417  11.093  66.991  1.00  0.00    -0.439 NA 
HETATM    6  C   UNL     1     -10.396  10.851  67.862  1.00  0.00    -0.187 A  
HETATM    7  F   UNL     1     -10.877  14.600  66.241  1.00  0.00    -0.298 F  
HETATM    8  C   UNL     1      -9.564  11.922  68.264  1.00  0.00    -0.201 A  
HETATM    9  C   UNL     1     -10.739  13.398  66.818  1.00  0.00    -0.277 A  
HETATM   10  F   UNL     1      -8.525  11.747  69.092  1.00  0.00    -0.026 F  
HETATM   11  C   UNL     1      -9.752  13.204  67.762  1.00  0.00    -0.218 A  
ENDROOT
BRANCH   6  12
HETATM   12  N   UNL     1     -10.166   9.491  68.327  1.00  0.00    -0.185 NA 
HETATM   13  C   UNL     1     -10.897   7.812  69.984  1.00  0.00    -0.243 C  
HETATM   14  C   UNL     1     -11.553   7.576  71.286  1.00  0.00    -0.281 C  
HETATM   15  C   UNL     1     -10.358   6.740  69.148  1.00  0.00    -0.194 C  
HETATM   16  C   UNL     1     -10.795   9.061  69.506  1.00  0.00    -0.166 C  
HETATM   17  O   UNL     1     -12.054   8.471  71.959  1.00  0.00    -0.316 OA 
HETATM   18  O   UNL     1     -10.423   5.572  69.525  1.00  0.00    -0.260 OA 
HETATM   19  C   UNL     1      -9.728   7.106  67.864  1.00  0.00    -0.156 A  
HETATM   20  O   UNL     1     -11.537   6.292  71.707  1.00  0.00    -0.293 OA 
HETATM   21  C   UNL     1      -9.276   6.060  67.060  1.00  0.00    -0.124 A  
HETATM   22  C   UNL     1      -8.645   6.343  65.862  1.00  0.00    -0.148 A  
HETATM   23  F   UNL     1      -8.266   5.298  65.111  1.00  0.00    -0.110 F  
HETATM   24  C   UNL     1      -8.344   7.657  65.470  1.00  0.00    -0.135 A  
HETATM   25  C   UNL     1      -8.684   8.692  66.388  1.00  0.00    -0.130 A  
HETATM   26 CL   UNL     1      -7.700  10.147  66.350  1.00  0.00    -0.107 Cl 
HETATM   27  C   UNL     1      -9.533   8.461  67.513  1.00  0.00    -0.149 A  
BRANCH  24  28
HETATM   28  N   UNL     1      -7.696   7.879  64.224  1.00  0.00    -0.121 NA 
HETATM   29  C   UNL     1      -6.319   8.115  63.910  1.00  0.00    -0.067 C  
HETATM   30  C   UNL     1      -6.768   9.117  62.837  1.00  0.00    -0.093 C  
HETATM   31  C   UNL     1      -8.187   8.586  63.073  1.00  0.00    -0.165 C  
HETATM   32  O   UNL     1      -6.540  10.517  63.132  1.00  0.00    -0.273 OA 
HETATM   33  H   UNL     1      -6.817  11.137  62.467  1.00  0.00     0.000 HD 
ENDBRANCH  24  28
ENDBRANCH   6  12
TORSDOF 2
ENDMDL
MODEL       73
REMARK 921   NORMALIZED FREE ENERGY PREDICTED BY IDOCK:   -5.79 KCAL/MOL
REMARK 922        TOTAL FREE ENERGY PREDICTED BY IDOCK:   -7.31 KCAL/MOL
REMARK 923 INTER-LIGAND FREE ENERGY PREDICTED BY IDOCK:   -6.74 KCAL/MOL
REMARK 924 INTRA-LIGAND FREE ENERGY PREDICTED BY IDOCK:   -0.57 KCAL/MOL
REMARK 927      BINDING AFFINITY PREDICTED BY RF-SCORE:    0.00 PKD
ROOT
HETATM    1  N   UNL     1     -13.492  13.947  65.492  1.00  0.00    -0.585 NA 
HETATM    2  H1  UNL     1     -14.101  14.080  64.684  1.00  0.00     0.000 HD 
HETATM    3  C   UNL     1     -12.277  13.299  65.257  1.00  0.00    -0.448 A  
HETATM    4  H2  UNL     1     -13.321  14.845  65.944  1.00  0.00     0.000 HD 
HETATM    5  N   UNL     1     -11.471  13.123  66.328  1.00  0.00    -0.320 NA 
HETATM    6  C   UNL     1     -10.337  12.378  66.193  1.00  0.00    -0.247 A  
HETATM    7  F   UNL     1     -12.761  13.053  62.940  1.00  0.00    -0.352 F  
HETATM    8  C   UNL     1      -9.964  11.918  64.909  1.00  0.00    -0.241 A  
HETATM    9  C   UNL     1     -11.934  12.868  63.978  1.00  0.00    -0.451 A  
HETATM   10  F   UNL     1      -8.879  11.156  64.711  1.00  0.00    -0.175 F  
HETATM   11  C   UNL     1     -10.750  12.186  63.794  1.00  0.00    -0.488 A  
ENDROOT
BRANCH   6  12
HETATM   12  N   UNL     1      -9.560  12.045  67.378  1.00  0.00    -0.174 NA 
HETATM   13  C   UNL     1      -8.788  10.162  68.777  1.00  0.00    -0.146 C  
HETATM   14  C   UNL     1      -9.019   8.763  69.189  1.00  0.00    -0.137 C  
HETATM   15  C   UNL     1      -7.703  10.989  69.306  1.00  0.00    -0.068 C  
HETATM   16  C   UNL     1      -9.584  10.726  67.856  1.00  0.00    -0.160 C  
HETATM   17  O   UNL     1      -9.895   8.055  68.704  1.00  0.00    -0.165 OA 
HETATM   18  O   UNL     1      -6.935  10.533  70.150  1.00  0.00    -0.157 OA 
HETATM   19  C   UNL     1      -7.577  12.374  68.810  1.00  0.00    -0.033 A  
HETATM   20  O   UNL     1      -8.207   8.319  70.175  1.00  0.00    -0.112 OA 
HETATM   21  C   UNL     1      -6.499  13.120  69.286  1.00  0.00    -0.107 A  
HETATM   22  C   UNL     1      -6.348  14.435  68.885  1.00  0.00    -0.091 A  
HETATM   23  F   UNL     1      -5.272  15.093  69.343  1.00  0.00    -0.092 F  
HETATM   24  C   UNL     1      -7.307  15.088  68.093  1.00  0.00    -0.115 A  
HETATM   25  C   UNL     1      -8.471  14.340  67.753  1.00  0.00    -0.176 A  
HETATM   26 CL   UNL     1      -9.951  15.247  67.485  1.00  0.00    -0.225 Cl 
HETATM   27  C   UNL     1      -8.552  12.928  67.951  1.00  0.00    -0.185 A  
BRANCH  24  28
HETATM   28  N   UNL     1      -7.089  16.440  67.714  1.00  0.00    -0.126 NA 
HETATM   29  C   UNL     1      -7.658  17.658  68.209  1.00  0.00    -0.257 C  
HETATM   30  C   UNL     1      -7.680  18.196  66.772  1.00  0.00    -0.225 C  
HETATM   31  C   UNL     1      -6.832  16.973  66.404  1.00  0.00    -0.213 C  
HETATM   32  O   UNL     1      -8.984  18.297  66.146  1.00  0.00    -0.469 OA 
HETATM   33  H   UNL     1      -8.998  18.630  65.256  1.00  0.00     0.000 HD 
ENDBRANCH  24  28
ENDBRANCH   6  12
TORSDOF 2
ENDMDL
MODEL       74
REMARK 921   NORMALIZED FREE ENERGY PREDICTED BY IDOCK:   -5.79 KCAL/MOL
REMARK 922        TOTAL FREE ENERGY PREDICTED BY IDOCK:   -7.30 KCAL/MOL
REMARK 923 INTER-LIGAND FREE ENERGY PREDICTED BY IDOCK:   -7.96 KCAL/MOL
REMARK 924 INTRA-LIGAND FREE ENERGY PREDICTED BY IDOCK:    0.66 KCAL/MOL
REMARK 927      BINDING AFFINITY PREDICTED BY RF-SCORE:    0.00 PKD
ROOT
HETATM    1  N   UNL     1     -12.271  14.742  70.851  1.00  0.00    -0.295 NA 
HETATM    2  H1  UNL     1     -12.927  15.292  71.405  1.00  0.00     0.000 HD 
HETATM    3  C   UNL     1     -12.408  13.354  70.920  1.00  0.00    -0.353 A  
HETATM    4  H2  UNL     1     -12.307  15.043  69.878  1.00  0.00     0.000 HD 
HETATM    5  N   UNL     1     -11.537  12.625  70.186  1.00  0.00    -0.147 NA 
HETATM    6  C   UNL     1     -11.529  11.268  70.317  1.00  0.00    -0.193 A  
HETATM    7  F   UNL     1     -14.240  13.526  72.430  1.00  0.00    -0.575 F  
HETATM    8  C   UNL     1     -12.516  10.647  71.116  1.00  0.00    -0.418 A  
HETATM    9  C   UNL     1     -13.398  12.772  71.708  1.00  0.00    -0.342 A  
HETATM   10  F   UNL     1     -12.546   9.321  71.312  1.00  0.00    -0.331 F  
HETATM   11  C   UNL     1     -13.470  11.398  71.793  1.00  0.00    -0.218 A  
ENDROOT
BRANCH   6  12
HETATM   12  N   UNL     1     -10.484  10.497  69.660  1.00  0.00    -0.236 NA 
HETATM   13  C   UNL     1      -8.948   8.585  69.956  1.00  0.00    -0.142 C  
HETATM   14  C   UNL     1      -8.251   7.707  70.916  1.00  0.00    -0.108 C  
HETATM   15  C   UNL     1      -8.807   8.463  68.505  1.00  0.00    -0.136 C  
HETATM   16  C   UNL     1      -9.778   9.538  70.404  1.00  0.00    -0.271 C  
HETATM   17  O   UNL     1      -8.414   7.775  72.130  1.00  0.00    -0.111 OA 
HETATM   18  O   UNL     1      -8.066   7.608  68.026  1.00  0.00    -0.120 OA 
HETATM   19  C   UNL     1      -9.562   9.401  67.649  1.00  0.00    -0.163 A  
HETATM   20  O   UNL     1      -7.384   6.831  70.361  1.00  0.00    -0.077 OA 
HETATM   21  C   UNL     1      -9.455   9.224  66.270  1.00  0.00    -0.284 A  
HETATM   22  C   UNL     1     -10.110  10.095  65.417  1.00  0.00    -0.272 A  
HETATM   23  F   UNL     1     -10.005   9.854  64.102  1.00  0.00    -0.340 F  
HETATM   24  C   UNL     1     -10.799  11.223  65.889  1.00  0.00    -0.202 A  
HETATM   25  C   UNL     1     -10.758  11.456  67.295  1.00  0.00    -0.241 A  
HETATM   26 CL   UNL     1     -10.884  13.125  67.830  1.00  0.00    -0.253 Cl 
HETATM   27  C   UNL     1     -10.294  10.468  68.215  1.00  0.00    -0.168 A  
BRANCH  24  28
HETATM   28  N   UNL     1     -11.454  12.076  64.959  1.00  0.00    -0.311 NA 
HETATM   29  C   UNL     1     -10.930  12.930  63.936  1.00  0.00    -0.384 C  
HETATM   30  C   UNL     1     -12.016  13.958  64.280  1.00  0.00    -0.444 C  
HETATM   31  C   UNL     1     -12.644  12.860  65.147  1.00  0.00    -0.471 C  
HETATM   32  O   UNL     1     -11.571  15.155  64.966  1.00  0.00    -0.354 OA 
HETATM   33  H   UNL     1     -12.243  15.791  65.179  1.00  0.00     0.000 HD 
ENDBRANCH  24  28
ENDBRANCH   6  12
TORSDOF 2
ENDMDL
MODEL       75
REMARK 921   NORMALIZED FREE ENERGY PREDICTED BY IDOCK:   -5.78 KCAL/MOL
REMARK 922        TOTAL FREE ENERGY PREDICTED BY IDOCK:   -7.30 KCAL/MOL
REMARK 923 INTER-LIGAND FREE ENERGY PREDICTED BY IDOCK:   -6.30 KCAL/MOL
REMARK 924 INTRA-LIGAND FREE ENERGY PREDICTED BY IDOCK:   -1.00 KCAL/MOL
REMARK 927      BINDING AFFINITY PREDICTED BY RF-SCORE:    0.00 PKD
ROOT
HETATM    1  N   UNL     1      -8.392  15.247  68.598  1.00  0.00    -0.152 NA 
HETATM    2  H1  UNL     1      -8.449  16.228  68.327  1.00  0.00     0.000 HD 
HETATM    3  C   UNL     1      -9.308  14.381  67.995  1.00  0.00    -0.200 A  
HETATM    4  H2  UNL     1      -7.444  14.903  68.448  1.00  0.00     0.000 HD 
HETATM    5  N   UNL     1      -9.233  13.079  68.355  1.00  0.00    -0.175 NA 
HETATM    6  C   UNL     1     -10.184  12.210  67.908  1.00  0.00    -0.198 A  
HETATM    7  F   UNL     1     -10.289  16.153  66.746  1.00  0.00    -0.267 F  
HETATM    8  C   UNL     1     -11.148  12.661  66.978  1.00  0.00    -0.281 A  
HETATM    9  C   UNL     1     -10.238  14.854  67.073  1.00  0.00    -0.256 A  
HETATM   10  F   UNL     1     -12.128  11.867  66.523  1.00  0.00    -0.341 F  
HETATM   11  C   UNL     1     -11.160  13.980  66.538  1.00  0.00    -0.315 A  
ENDROOT
BRANCH   6  12
HETATM   12  N   UNL     1     -10.204  10.850  68.429  1.00  0.00    -0.171 NA 
HETATM   13  C   UNL     1     -11.260   9.391  70.118  1.00  0.00    -0.253 C  
HETATM   14  C   UNL     1     -11.983   9.324  71.404  1.00  0.00    -0.351 C  
HETATM   15  C   UNL     1     -10.890   8.208  69.340  1.00  0.00    -0.086 C  
HETATM   16  C   UNL     1     -10.932  10.583  69.599  1.00  0.00    -0.283 C  
HETATM   17  O   UNL     1     -12.341  10.318  72.027  1.00  0.00    -0.264 OA 
HETATM   18  O   UNL     1     -11.165   7.085  69.756  1.00  0.00    -0.262 OA 
HETATM   19  C   UNL     1     -10.170   8.409  68.066  1.00  0.00    -0.263 A  
HETATM   20  O   UNL     1     -12.200   8.074  71.870  1.00  0.00    -0.292 OA 
HETATM   21  C   UNL     1      -9.883   7.269  67.316  1.00  0.00    -0.224 A  
HETATM   22  C   UNL     1      -9.179   7.391  66.132  1.00  0.00    -0.099 A  
HETATM   23  F   UNL     1      -8.964   6.267  65.432  1.00  0.00    -0.144 F  
HETATM   24  C   UNL     1      -8.645   8.617  65.703  1.00  0.00    -0.168 A  
HETATM   25  C   UNL     1      -8.828   9.732  66.572  1.00  0.00    -0.138 A  
HETATM   26 CL   UNL     1      -7.608  10.994  66.517  1.00  0.00    -0.145 Cl 
HETATM   27  C   UNL     1      -9.735   9.695  67.675  1.00  0.00    -0.149 A  
BRANCH  24  28
HETATM   28  N   UNL     1      -7.935   8.673  64.474  1.00  0.00    -0.136 NA 
HETATM   29  C   UNL     1      -6.567   8.383  64.165  1.00  0.00    -0.071 C  
HETATM   30  C   UNL     1      -6.568   9.565  63.187  1.00  0.00    -0.103 C  
HETATM   31  C   UNL     1      -8.087   9.609  63.394  1.00  0.00    -0.151 C  
HETATM   32  O   UNL     1      -5.821  10.738  63.599  1.00  0.00    -0.357 OA 
HETATM   33  H   UNL     1      -5.822  11.470  62.994  1.00  0.00     0.000 HD 
ENDBRANCH  24  28
ENDBRANCH   6  12
TORSDOF 2
ENDMDL
MODEL       76
REMARK 921   NORMALIZED FREE ENERGY PREDICTED BY IDOCK:   -5.77 KCAL/MOL
REMARK 922        TOTAL FREE ENERGY PREDICTED BY IDOCK:   -7.28 KCAL/MOL
REMARK 923 INTER-LIGAND FREE ENERGY PREDICTED BY IDOCK:   -7.20 KCAL/MOL
REMARK 924 INTRA-LIGAND FREE ENERGY PREDICTED BY IDOCK:   -0.08 KCAL/MOL
REMARK 927      BINDING AFFINITY PREDICTED BY RF-SCORE:    0.00 PKD
ROOT
HETATM    1  N   UNL     1     -10.577  10.241  63.807  1.00  0.00    -0.194 NA 
HETATM    2  H1  UNL     1     -10.270   9.417  63.291  1.00  0.00     0.000 HD 
HETATM    3  C   UNL     1      -9.687  10.749  64.757  1.00  0.00    -0.283 A  
HETATM    4  H2  UNL     1     -10.838  10.978  63.153  1.00  0.00     0.000 HD 
HETATM    5  N   UNL     1     -10.094  11.842  65.441  1.00  0.00    -0.247 NA 
HETATM    6  C   UNL     1      -9.333  12.303  66.474  1.00  0.00    -0.230 A  
HETATM    7  F   UNL     1      -8.081   9.059  64.278  1.00  0.00    -0.120 F  
HETATM    8  C   UNL     1      -8.074  11.708  66.721  1.00  0.00    -0.150 A  
HETATM    9  C   UNL     1      -8.449  10.147  64.969  1.00  0.00    -0.163 A  
HETATM   10  F   UNL     1      -7.291  12.092  67.739  1.00  0.00    -0.086 F  
HETATM   11  C   UNL     1      -7.619  10.645  65.951  1.00  0.00    -0.138 A  
ENDROOT
BRANCH   6  12
HETATM   12  N   UNL     1      -9.851  13.370  67.318  1.00  0.00    -0.229 NA 
HETATM   13  C   UNL     1     -10.420  15.773  67.348  1.00  0.00    -0.297 C  
HETATM   14  C   UNL     1     -10.199  17.096  66.730  1.00  0.00    -0.311 C  
HETATM   15  C   UNL     1     -11.304  15.558  68.493  1.00  0.00    -0.351 C  
HETATM   16  C   UNL     1      -9.811  14.691  66.843  1.00  0.00    -0.249 C  
HETATM   17  O   UNL     1      -9.501  17.265  65.736  1.00  0.00    -0.527 OA 
HETATM   18  O   UNL     1     -11.897  16.506  69.003  1.00  0.00    -0.097 OA 
HETATM   19  C   UNL     1     -11.443  14.184  69.018  1.00  0.00    -0.322 A  
HETATM   20  O   UNL     1     -10.802  18.127  67.362  1.00  0.00    -0.374 OA 
HETATM   21  C   UNL     1     -12.337  13.998  70.072  1.00  0.00    -0.397 A  
HETATM   22  C   UNL     1     -12.483  12.740  70.630  1.00  0.00    -0.246 A  
HETATM   23  F   UNL     1     -13.386  12.611  71.614  1.00  0.00    -0.469 F  
HETATM   24  C   UNL     1     -11.681  11.655  70.242  1.00  0.00    -0.266 A  
HETATM   25  C   UNL     1     -10.673  11.920  69.270  1.00  0.00    -0.045 A  
HETATM   26 CL   UNL     1      -9.231  10.920  69.324  1.00  0.00    -0.077 Cl 
HETATM   27  C   UNL     1     -10.646  13.132  68.515  1.00  0.00    -0.259 A  
BRANCH  24  28
HETATM   28  N   UNL     1     -11.885  10.388  70.853  1.00  0.00    -0.359 NA 
HETATM   29  C   UNL     1     -10.952   9.434  71.372  1.00  0.00    -0.373 C  
HETATM   30  C   UNL     1     -11.840   8.310  70.821  1.00  0.00    -0.162 C  
HETATM   31  C   UNL     1     -12.885   9.400  70.554  1.00  0.00     0.278 C  
HETATM   32  O   UNL     1     -11.331   7.600  69.664  1.00  0.00    -0.453 OA 
HETATM   33  H   UNL     1     -11.881   6.904  69.323  1.00  0.00     0.000 HD 
ENDBRANCH  24  28
ENDBRANCH   6  12
TORSDOF 2
ENDMDL
MODEL       77
REMARK 921   NORMALIZED FREE ENERGY PREDICTED BY IDOCK:   -5.68 KCAL/MOL
REMARK 922        TOTAL FREE ENERGY PREDICTED BY IDOCK:   -7.18 KCAL/MOL
REMARK 923 INTER-LIGAND FREE ENERGY PREDICTED BY IDOCK:   -6.28 KCAL/MOL
REMARK 924 INTRA-LIGAND FREE ENERGY PREDICTED BY IDOCK:   -0.90 KCAL/MOL
REMARK 927      BINDING AFFINITY PREDICTED BY RF-SCORE:    0.00 PKD
ROOT
HETATM    1  N   UNL     1     -12.282  14.865  74.489  1.00  0.00    -0.717 NA 
HETATM    2  H1  UNL     1     -12.788  15.561  75.037  1.00  0.00     0.000 HD 
HETATM    3  C   UNL     1     -12.593  14.798  73.129  1.00  0.00    -0.425 A  
HETATM    4  H2  UNL     1     -11.279  15.000  74.606  1.00  0.00     0.000 HD 
HETATM    5  N   UNL     1     -11.922  13.875  72.403  1.00  0.00     0.553 NA 
HETATM    6  C   UNL     1     -12.276  13.666  71.102  1.00  0.00    -0.239 A  
HETATM    7  F   UNL     1     -14.196  16.546  73.322  1.00  0.00    -0.537 F  
HETATM    8  C   UNL     1     -13.245  14.506  70.508  1.00  0.00    -0.087 A  
HETATM    9  C   UNL     1     -13.544  15.648  72.570  1.00  0.00    -0.552 A  
HETATM   10  F   UNL     1     -13.661  14.335  69.245  1.00  0.00     1.228 F  
HETATM   11  C   UNL     1     -13.862  15.517  71.235  1.00  0.00    -0.440 A  
ENDROOT
BRANCH   6  12
HETATM   12  N   UNL     1     -11.674  12.560  70.371  1.00  0.00    -0.143 NA 
HETATM   13  C   UNL     1     -11.648  10.099  70.170  1.00  0.00    -0.350 C  
HETATM   14  C   UNL     1     -11.923   8.809  70.834  1.00  0.00    -0.201 C  
HETATM   15  C   UNL     1     -11.111  10.207  68.813  1.00  0.00    -0.203 C  
HETATM   16  C   UNL     1     -11.914  11.247  70.808  1.00  0.00    -0.279 C  
HETATM   17  O   UNL     1     -12.426   8.720  71.949  1.00  0.00    -0.325 OA 
HETATM   18  O   UNL     1     -10.848   9.193  68.170  1.00  0.00    -0.172 OA 
HETATM   19  C   UNL     1     -10.881  11.557  68.260  1.00  0.00    -0.257 A  
HETATM   20  O   UNL     1     -11.551   7.716  70.131  1.00  0.00    -0.145 OA 
HETATM   21  C   UNL     1     -10.425  11.631  66.945  1.00  0.00    -0.262 A  
HETATM   22  C   UNL     1     -10.158  12.868  66.383  1.00  0.00    -0.269 A  
HETATM   23  F   UNL     1      -9.759  12.883  65.103  1.00  0.00    -0.224 F  
HETATM   24  C   UNL     1     -10.228  14.056  67.128  1.00  0.00    -0.258 A  
HETATM   25  C   UNL     1     -10.550  13.925  68.511  1.00  0.00    -0.252 A  
HETATM   26 CL   UNL     1      -9.917  15.153  69.595  1.00  0.00    -0.216 Cl 
HETATM   27  C   UNL     1     -11.051  12.707  69.063  1.00  0.00    -0.238 A  
BRANCH  24  28
HETATM   28  N   UNL     1      -9.944  15.293  66.490  1.00  0.00    -0.254 NA 
HETATM   29  C   UNL     1      -8.726  16.038  66.383  1.00  0.00    -0.327 C  
HETATM   30  C   UNL     1      -9.537  17.331  66.542  1.00  0.00    -0.273 C  
HETATM   31  C   UNL     1     -10.784  16.454  66.373  1.00  0.00    -0.161 C  
HETATM   32  O   UNL     1      -9.396  18.024  67.807  1.00  0.00    -0.257 OA 
HETATM   33  H   UNL     1      -9.899  18.825  67.906  1.00  0.00     0.000 HD 
ENDBRANCH  24  28
ENDBRANCH   6  12
TORSDOF 2
ENDMDL
MODEL       78
REMARK 921   NORMALIZED FREE ENERGY PREDICTED BY IDOCK:   -5.65 KCAL/MOL
REMARK 922        TOTAL FREE ENERGY PREDICTED BY IDOCK:   -7.14 KCAL/MOL
REMARK 923 INTER-LIGAND FREE ENERGY PREDICTED BY IDOCK:   -6.12 KCAL/MOL
REMARK 924 INTRA-LIGAND FREE ENERGY PREDICTED BY IDOCK:   -1.02 KCAL/MOL
REMARK 927      BINDING AFFINITY PREDICTED BY RF-SCORE:    0.00 PKD
ROOT
HETATM    1  N   UNL     1      -8.912   4.857  65.917  1.00  0.00    -0.129 NA 
HETATM    2  H1  UNL     1      -8.352   4.031  65.707  1.00  0.00     0.000 HD 
HETATM    3  C   UNL     1      -8.325   6.094  65.642  1.00  0.00    -0.146 A  
HETATM    4  H2  UNL     1      -9.812   4.790  65.442  1.00  0.00     0.000 HD 
HETATM    5  N   UNL     1      -9.069   7.189  65.920  1.00  0.00    -0.076 NA 
HETATM    6  C   UNL     1      -8.503   8.424  65.805  1.00  0.00    -0.156 A  
HETATM    7  F   UNL     1      -6.330   5.066  64.851  1.00  0.00    -0.030 F  
HETATM    8  C   UNL     1      -7.198   8.538  65.273  1.00  0.00    -0.083 A  
HETATM    9  C   UNL     1      -7.042   6.173  65.107  1.00  0.00    -0.064 A  
HETATM   10  F   UNL     1      -6.572   9.718  65.162  1.00  0.00    -0.079 F  
HETATM   11  C   UNL     1      -6.475   7.412  64.898  1.00  0.00    -0.037 A  
ENDROOT
BRANCH   6  12
HETATM   12  N   UNL     1      -9.243   9.590  66.266  1.00  0.00    -0.161 NA 
HETATM   13  C   UNL     1     -10.573  11.524  65.498  1.00  0.00    -0.334 C  
HETATM   14  C   UNL     1     -10.881  12.437  64.378  1.00  0.00    -0.337 C  
HETATM   15  C   UNL     1     -11.192  11.634  66.819  1.00  0.00    -0.308 C  
HETATM   16  C   UNL     1      -9.703  10.520  65.319  1.00  0.00    -0.270 C  
HETATM   17  O   UNL     1     -10.403  12.309  63.256  1.00  0.00    -0.413 OA 
HETATM   18  O   UNL     1     -12.001  12.529  67.049  1.00  0.00    -0.498 OA 
HETATM   19  C   UNL     1     -10.801  10.657  67.855  1.00  0.00    -0.328 A  
HETATM   20  O   UNL     1     -11.714  13.456  64.687  1.00  0.00    -0.343 OA 
HETATM   21  C   UNL     1     -11.450  10.748  69.086  1.00  0.00    -0.368 A  
HETATM   22  C   UNL     1     -11.100   9.883  70.108  1.00  0.00    -0.296 A  
HETATM   23  F   UNL     1     -11.784   9.989  71.257  1.00  0.00    -0.376 F  
HETATM   24  C   UNL     1     -10.035   8.978  69.987  1.00  0.00    -0.188 A  
HETATM   25  C   UNL     1      -9.296   9.019  68.768  1.00  0.00    -0.140 A  
HETATM   26 CL   UNL     1      -7.607   8.543  68.843  1.00  0.00    -0.094 Cl 
HETATM   27  C   UNL     1      -9.765   9.726  67.619  1.00  0.00    -0.156 A  
BRANCH  24  28
HETATM   28  N   UNL     1      -9.730   8.114  71.073  1.00  0.00    -0.160 NA 
HETATM   29  C   UNL     1      -8.700   8.180  72.066  1.00  0.00    -0.164 C  
HETATM   30  C   UNL     1      -8.563   6.653  71.982  1.00  0.00    -0.123 C  
HETATM   31  C   UNL     1      -9.844   6.682  71.139  1.00  0.00    -0.181 C  
HETATM   32  O   UNL     1      -7.368   6.152  71.332  1.00  0.00    -0.084 OA 
HETATM   33  H   UNL     1      -7.284   5.207  71.279  1.00  0.00     0.000 HD 
ENDBRANCH  24  28
ENDBRANCH   6  12
TORSDOF 2
ENDMDL
MODEL       79
REMARK 921   NORMALIZED FREE ENERGY PREDICTED BY IDOCK:   -5.63 KCAL/MOL
REMARK 922        TOTAL FREE ENERGY PREDICTED BY IDOCK:   -7.13 KCAL/MOL
REMARK 923 INTER-LIGAND FREE ENERGY PREDICTED BY IDOCK:   -6.04 KCAL/MOL
REMARK 924 INTRA-LIGAND FREE ENERGY PREDICTED BY IDOCK:   -1.09 KCAL/MOL
REMARK 927      BINDING AFFINITY PREDICTED BY RF-SCORE:    0.00 PKD
ROOT
HETATM    1  N   UNL     1      -9.054   3.396  65.761  1.00  0.00    -0.147 NA 
HETATM    2  H1  UNL     1      -8.418   2.989  65.075  1.00  0.00     0.000 HD 
HETATM    3  C   UNL     1      -8.529   4.396  66.582  1.00  0.00    -0.105 A  
HETATM    4  H2  UNL     1      -9.890   3.742  65.290  1.00  0.00     0.000 HD 
HETATM    5  N   UNL     1      -9.373   4.935  67.491  1.00  0.00    -0.127 NA 
HETATM    6  C   UNL     1      -8.886   5.815  68.412  1.00  0.00    -0.109 A  
HETATM    7  F   UNL     1      -6.392   4.240  65.546  1.00  0.00    -0.031 F  
HETATM    8  C   UNL     1      -7.541   6.241  68.314  1.00  0.00    -0.099 A  
HETATM    9  C   UNL     1      -7.203   4.802  66.454  1.00  0.00    -0.077 A  
HETATM   10  F   UNL     1      -6.992   7.079  69.205  1.00  0.00    -0.065 F  
HETATM   11  C   UNL     1      -6.704   5.755  67.317  1.00  0.00    -0.062 A  
ENDROOT
BRANCH   6  12
HETATM   12  N   UNL     1      -9.752   6.263  69.493  1.00  0.00    -0.145 NA 
HETATM   13  C   UNL     1     -10.486   5.738  71.792  1.00  0.00    -0.281 C  
HETATM   14  C   UNL     1     -10.629   4.695  72.827  1.00  0.00    -0.208 C  
HETATM   15  C   UNL     1     -10.908   7.125  71.983  1.00  0.00    -0.222 C  
HETATM   16  C   UNL     1      -9.924   5.434  70.612  1.00  0.00    -0.214 C  
HETATM   17  O   UNL     1     -10.223   3.546  72.685  1.00  0.00    -0.161 OA 
HETATM   18  O   UNL     1     -11.426   7.472  73.042  1.00  0.00    -0.312 OA 
HETATM   19  C   UNL     1     -10.709   8.075  70.869  1.00  0.00    -0.240 A  
HETATM   20  O   UNL     1     -11.273   5.090  73.948  1.00  0.00    -0.245 OA 
HETATM   21  C   UNL     1     -11.065   9.403  71.100  1.00  0.00    -0.432 A  
HETATM   22  C   UNL     1     -10.935  10.331  70.083  1.00  0.00    -0.314 A  
HETATM   23  F   UNL     1     -11.255  11.602  70.372  1.00  0.00    -0.233 F  
HETATM   24  C   UNL     1     -10.554   9.964  68.782  1.00  0.00    -0.222 A  
HETATM   25  C   UNL     1     -10.345   8.574  68.546  1.00  0.00    -0.198 A  
HETATM   26 CL   UNL     1     -10.639   7.990  66.915  1.00  0.00    -0.394 Cl 
HETATM   27  C   UNL     1     -10.246   7.628  69.611  1.00  0.00    -0.204 A  
BRANCH  24  28
HETATM   28  N   UNL     1     -10.435  10.969  67.783  1.00  0.00    -0.189 NA 
HETATM   29  C   UNL     1     -11.409  11.530  66.896  1.00  0.00    -0.253 C  
HETATM   30  C   UNL     1     -10.337  11.576  65.798  1.00  0.00    -0.248 C  
HETATM   31  C   UNL     1      -9.330  11.230  66.902  1.00  0.00    -0.177 C  
HETATM   32  O   UNL     1     -10.479  10.613  64.723  1.00  0.00    -0.325 OA 
HETATM   33  H   UNL     1      -9.815  10.642  64.044  1.00  0.00     0.000 HD 
ENDBRANCH  24  28
ENDBRANCH   6  12
TORSDOF 2
ENDMDL
MODEL       80
REMARK 921   NORMALIZED FREE ENERGY PREDICTED BY IDOCK:   -5.58 KCAL/MOL
REMARK 922        TOTAL FREE ENERGY PREDICTED BY IDOCK:   -7.07 KCAL/MOL
REMARK 923 INTER-LIGAND FREE ENERGY PREDICTED BY IDOCK:   -6.08 KCAL/MOL
REMARK 924 INTRA-LIGAND FREE ENERGY PREDICTED BY IDOCK:   -0.99 KCAL/MOL
REMARK 927      BINDING AFFINITY PREDICTED BY RF-SCORE:    0.00 PKD
ROOT
HETATM    1  N   UNL     1     -12.516   6.444  72.445  1.00  0.00    -0.547 NA 
HETATM    2  H1  UNL     1     -12.800   6.486  73.423  1.00  0.00     0.000 HD 
HETATM    3  C   UNL     1     -11.142   6.393  72.198  1.00  0.00    -0.263 A  
HETATM    4  H2  UNL     1     -12.976   5.657  71.987  1.00  0.00     0.000 HD 
HETATM    5  N   UNL     1     -10.764   6.337  70.901  1.00  0.00    -0.246 NA 
HETATM    6  C   UNL     1      -9.440   6.425  70.588  1.00  0.00    -0.165 A  
HETATM    7  F   UNL     1     -10.636   6.464  74.522  1.00  0.00    -0.308 F  
HETATM    8  C   UNL     1      -8.485   6.441  71.631  1.00  0.00    -0.128 A  
HETATM    9  C   UNL     1     -10.227   6.399  73.247  1.00  0.00    -0.214 A  
HETATM   10  F   UNL     1      -7.171   6.558  71.395  1.00  0.00    -0.072 F  
HETATM   11  C   UNL     1      -8.877   6.401  72.964  1.00  0.00    -0.129 A  
ENDROOT
BRANCH   6  12
HETATM   12  N   UNL     1      -9.045   6.536  69.191  1.00  0.00    -0.136 NA 
HETATM   13  C   UNL     1      -8.410   5.220  67.200  1.00  0.00    -0.107 C  
HETATM   14  C   UNL     1      -7.880   3.939  66.692  1.00  0.00    -0.089 C  
HETATM   15  C   UNL     1      -8.767   6.344  66.334  1.00  0.00    -0.138 C  
HETATM   16  C   UNL     1      -8.606   5.386  68.516  1.00  0.00    -0.098 C  
HETATM   17  O   UNL     1      -7.634   2.979  67.415  1.00  0.00    -0.065 OA 
HETATM   18  O   UNL     1      -8.617   6.257  65.117  1.00  0.00    -0.121 OA 
HETATM   19  C   UNL     1      -9.290   7.572  66.965  1.00  0.00    -0.186 A  
HETATM   20  O   UNL     1      -7.653   3.905  65.360  1.00  0.00    -0.080 OA 
HETATM   21  C   UNL     1      -9.678   8.605  66.112  1.00  0.00    -0.292 A  
HETATM   22  C   UNL     1     -10.142   9.794  66.646  1.00  0.00    -0.237 A  
HETATM   23  F   UNL     1     -10.539  10.738  65.779  1.00  0.00    -0.304 F  
HETATM   24  C   UNL     1     -10.138  10.043  68.027  1.00  0.00    -0.167 A  
HETATM   25  C   UNL     1      -9.591   9.023  68.859  1.00  0.00    -0.156 A  
HETATM   26 CL   UNL     1      -8.862   9.534  70.373  1.00  0.00    -0.281 Cl 
HETATM   27  C   UNL     1      -9.320   7.708  68.371  1.00  0.00    -0.146 A  
BRANCH  24  28
HETATM   28  N   UNL     1     -10.632  11.285  68.511  1.00  0.00    -0.190 NA 
HETATM   29  C   UNL     1     -11.967  11.723  68.784  1.00  0.00    -0.257 C  
HETATM   30  C   UNL     1     -11.594  13.106  68.235  1.00  0.00    -0.335 C  
HETATM   31  C   UNL     1     -10.143  12.610  68.240  1.00  0.00    -0.233 C  
HETATM   32  O   UNL     1     -12.157  13.457  66.946  1.00  0.00    -0.388 OA 
HETATM   33  H   UNL     1     -11.925  14.314  66.606  1.00  0.00     0.000 HD 
ENDBRANCH  24  28
ENDBRANCH   6  12
TORSDOF 2
ENDMDL
MODEL       81
REMARK 921   NORMALIZED FREE ENERGY PREDICTED BY IDOCK:   -5.57 KCAL/MOL
REMARK 922        TOTAL FREE ENERGY PREDICTED BY IDOCK:   -7.06 KCAL/MOL
REMARK 923 INTER-LIGAND FREE ENERGY PREDICTED BY IDOCK:   -6.56 KCAL/MOL
REMARK 924 INTRA-LIGAND FREE ENERGY PREDICTED BY IDOCK:   -0.50 KCAL/MOL
REMARK 927      BINDING AFFINITY PREDICTED BY RF-SCORE:    0.00 PKD
ROOT
HETATM    1  N   UNL     1      -8.614   7.244  71.874  1.00  0.00    -0.114 NA 
HETATM    2  H1  UNL     1      -9.024   6.920  72.750  1.00  0.00     0.000 HD 
HETATM    3  C   UNL     1      -9.402   7.103  70.728  1.00  0.00    -0.160 A  
HETATM    4  H2  UNL     1      -8.319   8.215  71.971  1.00  0.00     0.000 HD 
HETATM    5  N   UNL     1      -8.858   7.532  69.567  1.00  0.00    -0.137 NA 
HETATM    6  C   UNL     1      -9.517   7.298  68.397  1.00  0.00    -0.142 A  
HETATM    7  F   UNL     1     -11.182   6.128  71.970  1.00  0.00    -0.271 F  
HETATM    8  C   UNL     1     -10.812   6.729  68.437  1.00  0.00    -0.223 A  
HETATM    9  C   UNL     1     -10.677   6.550  70.802  1.00  0.00    -0.241 A  
HETATM   10  F   UNL     1     -11.501   6.444  67.323  1.00  0.00    -0.402 F  
HETATM   11  C   UNL     1     -11.405   6.379  69.644  1.00  0.00    -0.479 A  
ENDROOT
BRANCH   6  12
HETATM   12  N   UNL     1      -8.858   7.604  67.136  1.00  0.00    -0.123 NA 
HETATM   13  C   UNL     1      -7.710   6.584  65.201  1.00  0.00    -0.097 C  
HETATM   14  C   UNL     1      -6.972   5.413  64.688  1.00  0.00    -0.049 C  
HETATM   15  C   UNL     1      -7.986   7.777  64.399  1.00  0.00    -0.126 C  
HETATM   16  C   UNL     1      -8.185   6.577  66.455  1.00  0.00    -0.116 C  
HETATM   17  O   UNL     1      -6.791   4.392  65.343  1.00  0.00    -0.054 OA 
HETATM   18  O   UNL     1      -7.582   7.848  63.240  1.00  0.00    -0.114 OA 
HETATM   19  C   UNL     1      -8.737   8.881  65.028  1.00  0.00    -0.200 A  
HETATM   20  O   UNL     1      -6.475   5.556  63.439  1.00  0.00    -0.025 OA 
HETATM   21  C   UNL     1      -9.037   9.980  64.223  1.00  0.00    -0.296 A  
HETATM   22  C   UNL     1      -9.708  11.062  64.765  1.00  0.00    -0.262 A  
HETATM   23  F   UNL     1     -10.005  12.074  63.936  1.00  0.00    -0.300 F  
HETATM   24  C   UNL     1     -10.009  11.142  66.134  1.00  0.00    -0.229 A  
HETATM   25  C   UNL     1      -9.552  10.069  66.953  1.00  0.00    -0.175 A  
HETATM   26 CL   UNL     1      -9.198  10.442  68.633  1.00  0.00    -0.156 Cl 
HETATM   27  C   UNL     1      -9.067   8.844  66.401  1.00  0.00    -0.174 A  
BRANCH  24  28
HETATM   28  N   UNL     1     -10.704  12.279  66.627  1.00  0.00    -0.239 NA 
HETATM   29  C   UNL     1     -12.036  12.419  67.136  1.00  0.00    -0.177 C  
HETATM   30  C   UNL     1     -12.128  13.782  66.435  1.00  0.00    -0.444 C  
HETATM   31  C   UNL     1     -10.622  13.643  66.179  1.00  0.00    -0.291 C  
HETATM   32  O   UNL     1     -12.983  13.845  65.267  1.00  0.00    -0.747 OA 
HETATM   33  H   UNL     1     -13.040  14.688  64.833  1.00  0.00     0.000 HD 
ENDBRANCH  24  28
ENDBRANCH   6  12
TORSDOF 2
ENDMDL
MODEL       82
REMARK 921   NORMALIZED FREE ENERGY PREDICTED BY IDOCK:   -5.52 KCAL/MOL
REMARK 922        TOTAL FREE ENERGY PREDICTED BY IDOCK:   -7.00 KCAL/MOL
REMARK 923 INTER-LIGAND FREE ENERGY PREDICTED BY IDOCK:   -5.99 KCAL/MOL
REMARK 924 INTRA-LIGAND FREE ENERGY PREDICTED BY IDOCK:   -1.02 KCAL/MOL
REMARK 927      BINDING AFFINITY PREDICTED BY RF-SCORE:    0.00 PKD
ROOT
HETATM    1  N   UNL     1      -6.381   5.918  71.620  1.00  0.00    -0.047 NA 
HETATM    2  H1  UNL     1      -5.867   5.051  71.776  1.00  0.00     0.000 HD 
HETATM    3  C   UNL     1      -7.719   5.787  71.240  1.00  0.00    -0.109 A  
HETATM    4  H2  UNL     1      -6.315   6.510  72.447  1.00  0.00     0.000 HD 
HETATM    5  N   UNL     1      -8.401   6.936  71.032  1.00  0.00    -0.125 NA 
HETATM    6  C   UNL     1      -9.667   6.877  70.528  1.00  0.00    -0.172 A  
HETATM    7  F   UNL     1      -7.592   3.412  71.298  1.00  0.00    -0.044 F  
HETATM    8  C   UNL     1     -10.283   5.616  70.357  1.00  0.00    -0.235 A  
HETATM    9  C   UNL     1      -8.300   4.531  71.091  1.00  0.00    -0.091 A  
HETATM   10  F   UNL     1     -11.512   5.486  69.838  1.00  0.00    -0.281 F  
HETATM   11  C   UNL     1      -9.608   4.440  70.664  1.00  0.00    -0.262 A  
ENDROOT
BRANCH   6  12
HETATM   12  N   UNL     1     -10.337   8.112  70.145  1.00  0.00    -0.211 NA 
HETATM   13  C   UNL     1     -11.867   9.871  70.958  1.00  0.00    -0.463 C  
HETATM   14  C   UNL     1     -12.916  10.233  71.932  1.00  0.00    -0.449 C  
HETATM   15  C   UNL     1     -11.375  10.787  69.929  1.00  0.00    -0.311 C  
HETATM   16  C   UNL     1     -11.301   8.657  71.007  1.00  0.00    -0.274 C  
HETATM   17  O   UNL     1     -13.288   9.483  72.830  1.00  0.00    -0.263 OA 
HETATM   18  O   UNL     1     -11.847  11.917  69.831  1.00  0.00    -0.319 OA 
HETATM   19  C   UNL     1     -10.319  10.306  69.015  1.00  0.00    -0.229 A  
HETATM   20  O   UNL     1     -13.469  11.452  71.748  1.00  0.00    -0.316 OA 
HETATM   21  C   UNL     1      -9.827  11.218  68.082  1.00  0.00    -0.190 A  
HETATM   22  C   UNL     1      -8.862  10.815  67.176  1.00  0.00    -0.134 A  
HETATM   23  F   UNL     1      -8.396  11.744  66.328  1.00  0.00    -0.169 F  
HETATM   24  C   UNL     1      -8.432   9.481  67.088  1.00  0.00    -0.131 A  
HETATM   25  C   UNL     1      -9.069   8.546  67.955  1.00  0.00    -0.140 A  
HETATM   26 CL   UNL     1      -9.171   6.884  67.398  1.00  0.00    -0.124 Cl 
HETATM   27  C   UNL     1      -9.891   8.960  69.048  1.00  0.00    -0.180 A  
BRANCH  24  28
HETATM   28  N   UNL     1      -7.435   9.134  66.136  1.00  0.00    -0.094 NA 
HETATM   29  C   UNL     1      -6.088   9.593  65.978  1.00  0.00    -0.064 C  
HETATM   30  C   UNL     1      -6.284   9.547  64.456  1.00  0.00    -0.084 C  
HETATM   31  C   UNL     1      -7.599   8.812  64.745  1.00  0.00    -0.107 C  
HETATM   32  O   UNL     1      -6.388  10.827  63.784  1.00  0.00    -0.368 OA 
HETATM   33  H   UNL     1      -6.510  10.798  62.842  1.00  0.00     0.000 HD 
ENDBRANCH  24  28
ENDBRANCH   6  12
TORSDOF 2
ENDMDL
MODEL       83
REMARK 921   NORMALIZED FREE ENERGY PREDICTED BY IDOCK:   -5.46 KCAL/MOL
REMARK 922        TOTAL FREE ENERGY PREDICTED BY IDOCK:   -6.93 KCAL/MOL
REMARK 923 INTER-LIGAND FREE ENERGY PREDICTED BY IDOCK:   -7.67 KCAL/MOL
REMARK 924 INTRA-LIGAND FREE ENERGY PREDICTED BY IDOCK:    0.74 KCAL/MOL
REMARK 927      BINDING AFFINITY PREDICTED BY RF-SCORE:    0.00 PKD
ROOT
HETATM    1  N   UNL     1     -13.741  15.591  71.043  1.00  0.00    -0.803 NA 
HETATM    2  H1  UNL     1     -14.314  15.789  71.864  1.00  0.00     0.000 HD 
HETATM    3  C   UNL     1     -13.263  14.284  70.919  1.00  0.00    -0.259 A  
HETATM    4  H2  UNL     1     -14.248  15.853  70.199  1.00  0.00     0.000 HD 
HETATM    5  N   UNL     1     -12.503  14.022  69.832  1.00  0.00    -0.307 NA 
HETATM    6  C   UNL     1     -11.894  12.806  69.723  1.00  0.00    -0.310 A  
HETATM    7  F   UNL     1     -14.318  13.616  72.945  1.00  0.00    -0.381 F  
HETATM    8  C   UNL     1     -12.176  11.806  70.682  1.00  0.00    -0.349 A  
HETATM    9  C   UNL     1     -13.568  13.318  71.874  1.00  0.00    -0.388 A  
HETATM   10  F   UNL     1     -11.588  10.602  70.651  1.00  0.00    -0.352 F  
HETATM   11  C   UNL     1     -13.036  12.053  71.746  1.00  0.00    -0.445 A  
ENDROOT
BRANCH   6  12
HETATM   12  N   UNL     1     -10.942  12.582  68.645  1.00  0.00    -0.245 NA 
HETATM   13  C   UNL     1     -10.239  10.951  66.929  1.00  0.00    -0.272 C  
HETATM   14  C   UNL     1     -10.232   9.535  66.510  1.00  0.00    -0.237 C  
HETATM   15  C   UNL     1      -9.603  12.021  66.160  1.00  0.00    -0.239 C  
HETATM   16  C   UNL     1     -10.871  11.310  68.056  1.00  0.00    -0.218 C  
HETATM   17  O   UNL     1     -10.813   8.649  67.127  1.00  0.00    -0.212 OA 
HETATM   18  O   UNL     1      -9.011  11.762  65.115  1.00  0.00     0.061 OA 
HETATM   19  C   UNL     1      -9.682  13.399  66.686  1.00  0.00    -0.275 A  
HETATM   20  O   UNL     1      -9.506   9.274  65.400  1.00  0.00    -0.254 OA 
HETATM   21  C   UNL     1      -9.119  14.407  65.903  1.00  0.00     0.195 A  
HETATM   22  C   UNL     1      -9.131  15.713  66.360  1.00  0.00    -0.320 A  
HETATM   23  F   UNL     1      -8.612  16.647  65.550  1.00  0.00    -0.135 F  
HETATM   24  C   UNL     1      -9.598  16.051  67.641  1.00  0.00    -0.218 A  
HETATM   25  C   UNL     1     -10.024  14.974  68.471  1.00  0.00    -0.219 A  
HETATM   26 CL   UNL     1      -9.865  15.193  70.206  1.00  0.00     0.046 Cl 
HETATM   27  C   UNL     1     -10.240  13.658  67.958  1.00  0.00    -0.248 A  
BRANCH  24  28
HETATM   28  N   UNL     1      -9.585  17.413  68.047  1.00  0.00    -0.268 NA 
HETATM   29  C   UNL     1     -10.573  18.201  68.722  1.00  0.00     0.028 C  
HETATM   30  C   UNL     1     -10.182  19.393  67.838  1.00  0.00    -0.420 C  
HETATM   31  C   UNL     1      -8.990  18.540  67.383  1.00  0.00    -0.272 C  
HETATM   32  O   UNL     1     -11.137  19.773  66.816  1.00  0.00    -0.354 OA 
HETATM   33  H   UNL     1     -10.894  20.511  66.268  1.00  0.00     0.000 HD 
ENDBRANCH  24  28
ENDBRANCH   6  12
TORSDOF 2
ENDMDL
MODEL       84
REMARK 921   NORMALIZED FREE ENERGY PREDICTED BY IDOCK:   -5.41 KCAL/MOL
REMARK 922        TOTAL FREE ENERGY PREDICTED BY IDOCK:   -6.88 KCAL/MOL
REMARK 923 INTER-LIGAND FREE ENERGY PREDICTED BY IDOCK:   -6.14 KCAL/MOL
REMARK 924 INTRA-LIGAND FREE ENERGY PREDICTED BY IDOCK:   -0.74 KCAL/MOL
REMARK 927      BINDING AFFINITY PREDICTED BY RF-SCORE:    0.00 PKD
ROOT
HETATM    1  N   UNL     1      -9.221   9.015  64.313  1.00  0.00    -0.364 NA 
HETATM    2  H1  UNL     1      -8.661   9.199  63.481  1.00  0.00     0.000 HD 
HETATM    3  C   UNL     1      -8.856   9.702  65.474  1.00  0.00    -0.172 A  
HETATM    4  H2  UNL     1     -10.206   9.184  64.109  1.00  0.00     0.000 HD 
HETATM    5  N   UNL     1      -9.598   9.457  66.577  1.00  0.00    -0.190 NA 
HETATM    6  C   UNL     1      -9.210   9.989  67.772  1.00  0.00    -0.134 A  
HETATM    7  F   UNL     1      -7.063  10.800  64.359  1.00  0.00    -0.009 F  
HETATM    8  C   UNL     1      -8.117  10.886  67.804  1.00  0.00    -0.115 A  
HETATM    9  C   UNL     1      -7.782  10.588  65.471  1.00  0.00    -0.127 A  
HETATM   10  F   UNL     1      -7.665  11.419  68.948  1.00  0.00    -0.119 F  
HETATM   11  C   UNL     1      -7.418  11.208  66.647  1.00  0.00    -0.146 A  
ENDROOT
BRANCH   6  12
HETATM   12  N   UNL     1      -9.905   9.590  68.987  1.00  0.00    -0.170 NA 
HETATM   13  C   UNL     1     -11.660  10.279  70.582  1.00  0.00    -0.435 C  
HETATM   14  C   UNL     1     -12.438  11.401  71.143  1.00  0.00    -0.360 C  
HETATM   15  C   UNL     1     -11.818   8.892  71.020  1.00  0.00    -0.276 C  
HETATM   16  C   UNL     1     -10.771  10.506  69.605  1.00  0.00    -0.259 C  
HETATM   17  O   UNL     1     -12.344  12.555  70.736  1.00  0.00    -0.377 OA 
HETATM   18  O   UNL     1     -12.619   8.613  71.909  1.00  0.00    -0.317 OA 
HETATM   19  C   UNL     1     -10.981   7.858  70.377  1.00  0.00    -0.251 A  
HETATM   20  O   UNL     1     -13.252  11.073  72.171  1.00  0.00    -0.481 OA 
HETATM   21  C   UNL     1     -11.195   6.538  70.772  1.00  0.00    -0.377 A  
HETATM   22  C   UNL     1     -10.416   5.530  70.231  1.00  0.00    -0.295 A  
HETATM   23  F   UNL     1     -10.691   4.274  70.616  1.00  0.00     0.018 F  
HETATM   24  C   UNL     1      -9.339   5.798  69.373  1.00  0.00    -0.126 A  
HETATM   25  C   UNL     1      -9.055   7.171  69.113  1.00  0.00    -0.137 A  
HETATM   26 CL   UNL     1      -7.388   7.585  68.747  1.00  0.00    -0.092 Cl 
HETATM   27  C   UNL     1      -9.966   8.214  69.462  1.00  0.00    -0.187 A  
BRANCH  24  28
HETATM   28  N   UNL     1      -8.581   4.716  68.849  1.00  0.00    -0.084 NA 
HETATM   29  C   UNL     1      -8.533   4.152  67.534  1.00  0.00    -0.099 C  
HETATM   30  C   UNL     1      -8.409   2.760  68.168  1.00  0.00    -0.074 C  
HETATM   31  C   UNL     1      -8.200   3.492  69.500  1.00  0.00    -0.052 C  
HETATM   32  O   UNL     1      -9.576   1.906  68.072  1.00  0.00    -0.329 OA 
HETATM   33  H   UNL     1      -9.500   1.044  68.465  1.00  0.00     0.000 HD 
ENDBRANCH  24  28
ENDBRANCH   6  12
TORSDOF 2
ENDMDL
MODEL       85
REMARK 921   NORMALIZED FREE ENERGY PREDICTED BY IDOCK:   -5.31 KCAL/MOL
REMARK 922        TOTAL FREE ENERGY PREDICTED BY IDOCK:   -6.77 KCAL/MOL
REMARK 923 INTER-LIGAND FREE ENERGY PREDICTED BY IDOCK:   -5.66 KCAL/MOL
REMARK 924 INTRA-LIGAND FREE ENERGY PREDICTED BY IDOCK:   -1.11 KCAL/MOL
REMARK 927      BINDING AFFINITY PREDICTED BY RF-SCORE:    0.00 PKD
ROOT
HETATM    1  N   UNL     1      -8.638   6.634  66.332  1.00  0.00    -0.124 NA 
HETATM    2  H1  UNL     1      -7.910   6.469  65.637  1.00  0.00     0.000 HD 
HETATM    3  C   UNL     1      -8.368   7.606  67.298  1.00  0.00    -0.115 A  
HETATM    4  H2  UNL     1      -9.518   6.849  65.864  1.00  0.00     0.000 HD 
HETATM    5  N   UNL     1      -9.333   7.824  68.220  1.00  0.00    -0.143 NA 
HETATM    6  C   UNL     1      -9.076   8.659  69.268  1.00  0.00    -0.149 A  
HETATM    7  F   UNL     1      -6.225   8.057  66.366  1.00  0.00    -0.042 F  
HETATM    8  C   UNL     1      -7.858   9.376  69.295  1.00  0.00    -0.085 A  
HETATM    9  C   UNL     1      -7.163   8.304  67.291  1.00  0.00    -0.084 A  
HETATM   10  F   UNL     1      -7.530  10.188  70.310  1.00  0.00    -0.149 F  
HETATM   11  C   UNL     1      -6.910   9.219  68.291  1.00  0.00    -0.064 A  
ENDROOT
BRANCH   6  12
HETATM   12  N   UNL     1     -10.046   8.762  70.348  1.00  0.00    -0.186 NA 
HETATM   13  C   UNL     1     -11.927  10.116  71.201  1.00  0.00    -0.480 C  
HETATM   14  C   UNL     1     -12.595  11.433  71.194  1.00  0.00    -0.386 C  
HETATM   15  C   UNL     1     -12.399   8.979  71.991  1.00  0.00    -0.384 C  
HETATM   16  C   UNL     1     -10.844   9.913  70.436  1.00  0.00    -0.319 C  
HETATM   17  O   UNL     1     -12.231  12.368  70.487  1.00  0.00    -0.361 OA 
HETATM   18  O   UNL     1     -13.388   9.095  72.710  1.00  0.00    -0.410 OA 
HETATM   19  C   UNL     1     -11.644   7.712  71.910  1.00  0.00    -0.321 A  
HETATM   20  O   UNL     1     -13.631  11.550  72.053  1.00  0.00    -0.302 OA 
HETATM   21  C   UNL     1     -12.149   6.628  72.627  1.00  0.00     0.101 A  
HETATM   22  C   UNL     1     -11.465   5.425  72.618  1.00  0.00    -0.241 A  
HETATM   23  F   UNL     1     -12.017   4.405  73.293  1.00  0.00    -0.344 F  
HETATM   24  C   UNL     1     -10.216   5.282  71.995  1.00  0.00    -0.203 A  
HETATM   25  C   UNL     1      -9.659   6.453  71.403  1.00  0.00    -0.162 A  
HETATM   26 CL   UNL     1      -7.907   6.553  71.328  1.00  0.00    -0.102 Cl 
HETATM   27  C   UNL     1     -10.428   7.638  71.194  1.00  0.00    -0.208 A  
BRANCH  24  28
HETATM   28  N   UNL     1      -9.568   4.017  72.020  1.00  0.00    -0.135 NA 
HETATM   29  C   UNL     1      -8.655   3.448  72.965  1.00  0.00    -0.082 C  
HETATM   30  C   UNL     1      -7.887   2.815  71.797  1.00  0.00    -0.052 C  
HETATM   31  C   UNL     1      -9.066   3.246  70.916  1.00  0.00    -0.112 C  
HETATM   32  O   UNL     1      -6.597   3.398  71.488  1.00  0.00    -0.021 OA 
HETATM   33  H   UNL     1      -6.121   3.007  70.764  1.00  0.00     0.000 HD 
ENDBRANCH  24  28
ENDBRANCH   6  12
TORSDOF 2
ENDMDL
MODEL       86
REMARK 921   NORMALIZED FREE ENERGY PREDICTED BY IDOCK:   -5.29 KCAL/MOL
REMARK 922        TOTAL FREE ENERGY PREDICTED BY IDOCK:   -6.75 KCAL/MOL
REMARK 923 INTER-LIGAND FREE ENERGY PREDICTED BY IDOCK:   -5.66 KCAL/MOL
REMARK 924 INTRA-LIGAND FREE ENERGY PREDICTED BY IDOCK:   -1.09 KCAL/MOL
REMARK 927      BINDING AFFINITY PREDICTED BY RF-SCORE:    0.00 PKD
ROOT
HETATM    1  N   UNL     1     -12.616  13.422  68.779  1.00  0.00     0.120 NA 
HETATM    2  H1  UNL     1     -13.476  13.068  68.360  1.00  0.00     0.000 HD 
HETATM    3  C   UNL     1     -11.747  14.111  67.929  1.00  0.00    -0.367 A  
HETATM    4  H2  UNL     1     -12.841  14.004  69.586  1.00  0.00     0.000 HD 
HETATM    5  N   UNL     1     -10.607  14.579  68.484  1.00  0.00    -0.245 NA 
HETATM    6  C   UNL     1      -9.656  15.138  67.682  1.00  0.00    -0.206 A  
HETATM    7  F   UNL     1     -13.197  13.810  66.066  1.00  0.00    -0.378 F  
HETATM    8  C   UNL     1      -9.940  15.332  66.310  1.00  0.00    -0.284 A  
HETATM    9  C   UNL     1     -12.060  14.296  66.585  1.00  0.00    -0.420 A  
HETATM   10  F   UNL     1      -9.039  15.847  65.461  1.00  0.00    -0.307 F  
HETATM   11  C   UNL     1     -11.155  14.935  65.765  1.00  0.00    -0.342 A  
ENDROOT
BRANCH   6  12
HETATM   12  N   UNL     1      -8.362  15.486  68.250  1.00  0.00    -0.144 NA 
HETATM   13  C   UNL     1      -7.020  17.369  69.118  1.00  0.00    -0.209 C  
HETATM   14  C   UNL     1      -6.819  18.832  69.129  1.00  0.00    -0.272 C  
HETATM   15  C   UNL     1      -6.169  16.434  69.854  1.00  0.00    -0.163 C  
HETATM   16  C   UNL     1      -8.040  16.841  68.426  1.00  0.00    -0.219 C  
HETATM   17  O   UNL     1      -7.568  19.618  68.558  1.00  0.00    -0.330 OA 
HETATM   18  O   UNL     1      -5.218  16.851  70.512  1.00  0.00    -0.202 OA 
HETATM   19  C   UNL     1      -6.476  14.992  69.763  1.00  0.00    -0.163 A  
HETATM   20  O   UNL     1      -5.721  19.251  69.797  1.00  0.00    -0.224 OA 
HETATM   21  C   UNL     1      -5.685  14.129  70.521  1.00  0.00    -0.159 A  
HETATM   22  C   UNL     1      -5.902  12.764  70.450  1.00  0.00    -0.153 A  
HETATM   23  F   UNL     1      -5.139  11.984  71.230  1.00  0.00    -0.112 F  
HETATM   24  C   UNL     1      -6.827  12.202  69.556  1.00  0.00     0.044 A  
HETATM   25  C   UNL     1      -7.507  13.105  68.688  1.00  0.00    -0.092 A  
HETATM   26 CL   UNL     1      -8.023  12.478  67.130  1.00  0.00    -0.166 Cl 
HETATM   27  C   UNL     1      -7.480  14.519  68.889  1.00  0.00    -0.133 A  
BRANCH  24  28
HETATM   28  N   UNL     1      -7.004  10.792  69.535  1.00  0.00    -0.116 NA 
HETATM   29  C   UNL     1      -6.305   9.768  68.818  1.00  0.00    -0.046 C  
HETATM   30  C   UNL     1      -7.641   9.039  68.619  1.00  0.00    -0.092 C  
HETATM   31  C   UNL     1      -8.226  10.041  69.621  1.00  0.00    -0.175 C  
HETATM   32  O   UNL     1      -8.191   9.063  67.278  1.00  0.00    -0.103 OA 
HETATM   33  H   UNL     1      -9.018   8.612  67.155  1.00  0.00     0.000 HD 
ENDBRANCH  24  28
ENDBRANCH   6  12
TORSDOF 2
ENDMDL
MODEL       87
REMARK 921   NORMALIZED FREE ENERGY PREDICTED BY IDOCK:   -5.26 KCAL/MOL
REMARK 922        TOTAL FREE ENERGY PREDICTED BY IDOCK:   -6.71 KCAL/MOL
REMARK 923 INTER-LIGAND FREE ENERGY PREDICTED BY IDOCK:   -6.78 KCAL/MOL
REMARK 924 INTRA-LIGAND FREE ENERGY PREDICTED BY IDOCK:    0.07 KCAL/MOL
REMARK 927      BINDING AFFINITY PREDICTED BY RF-SCORE:    0.00 PKD
ROOT
HETATM    1  N   UNL     1     -10.960  11.167  62.780  1.00  0.00    -0.628 NA 
HETATM    2  H1  UNL     1     -11.778  10.958  62.208  1.00  0.00     0.000 HD 
HETATM    3  C   UNL     1     -11.186  11.913  63.940  1.00  0.00    -0.420 A  
HETATM    4  H2  UNL     1     -10.476  10.302  63.017  1.00  0.00     0.000 HD 
HETATM    5  N   UNL     1     -10.102  12.191  64.698  1.00  0.00    -0.274 NA 
HETATM    6  C   UNL     1     -10.233  13.028  65.766  1.00  0.00    -0.290 A  
HETATM    7  F   UNL     1     -13.521  12.048  63.499  1.00  0.00    -0.385 F  
HETATM    8  C   UNL     1     -11.522  13.482  66.132  1.00  0.00    -0.325 A  
HETATM    9  C   UNL     1     -12.469  12.335  64.279  1.00  0.00    -0.413 A  
HETATM   10  F   UNL     1     -11.717  14.331  67.151  1.00  0.00    -0.337 F  
HETATM   11  C   UNL     1     -12.646  13.114  65.403  1.00  0.00    -0.512 A  
ENDROOT
BRANCH   6  12
HETATM   12  N   UNL     1      -9.041  13.463  66.479  1.00  0.00    -0.171 NA 
HETATM   13  C   UNL     1      -7.761  15.460  67.167  1.00  0.00    -0.246 C  
HETATM   14  C   UNL     1      -7.476  16.886  66.908  1.00  0.00    -0.219 C  
HETATM   15  C   UNL     1      -7.112  14.689  68.228  1.00  0.00    -0.115 C  
HETATM   16  C   UNL     1      -8.673  14.817  66.424  1.00  0.00    -0.027 C  
HETATM   17  O   UNL     1      -8.061  17.545  66.055  1.00  0.00    -0.483 OA 
HETATM   18  O   UNL     1      -6.270  15.219  68.949  1.00  0.00    -0.092 OA 
HETATM   19  C   UNL     1      -7.487  13.270  68.387  1.00  0.00    -0.124 A  
HETATM   20  O   UNL     1      -6.490  17.416  67.665  1.00  0.00    -0.144 OA 
HETATM   21  C   UNL     1      -6.897  12.575  69.443  1.00  0.00     0.033 A  
HETATM   22  C   UNL     1      -7.181  11.233  69.620  1.00  0.00     0.036 A  
HETATM   23  F   UNL     1      -6.618  10.625  70.675  1.00  0.00    -0.137 F  
HETATM   24  C   UNL     1      -7.966  10.510  68.708  1.00  0.00    -0.127 A  
HETATM   25  C   UNL     1      -8.426  11.217  67.559  1.00  0.00    -0.126 A  
HETATM   26 CL   UNL     1      -8.694  10.277  66.099  1.00  0.00    -0.156 Cl 
HETATM   27  C   UNL     1      -8.347  12.639  67.460  1.00  0.00    -0.177 A  
BRANCH  24  28
HETATM   28  N   UNL     1      -8.223   9.133  68.952  1.00  0.00    -0.110 NA 
HETATM   29  C   UNL     1      -8.340   8.026  68.051  1.00  0.00    -0.126 C  
HETATM   30  C   UNL     1      -9.470   7.470  68.929  1.00  0.00    -0.145 C  
HETATM   31  C   UNL     1      -9.072   8.543  69.950  1.00  0.00    -0.150 C  
HETATM   32  O   UNL     1     -10.809   7.558  68.382  1.00  0.00    -0.391 OA 
HETATM   33  H   UNL     1     -11.508   7.214  68.926  1.00  0.00     0.000 HD 
ENDBRANCH  24  28
ENDBRANCH   6  12
TORSDOF 2
ENDMDL
MODEL       88
REMARK 921   NORMALIZED FREE ENERGY PREDICTED BY IDOCK:   -5.03 KCAL/MOL
REMARK 922        TOTAL FREE ENERGY PREDICTED BY IDOCK:   -6.46 KCAL/MOL
REMARK 923 INTER-LIGAND FREE ENERGY PREDICTED BY IDOCK:   -6.45 KCAL/MOL
REMARK 924 INTRA-LIGAND FREE ENERGY PREDICTED BY IDOCK:   -0.01 KCAL/MOL
REMARK 927      BINDING AFFINITY PREDICTED BY RF-SCORE:    0.00 PKD
ROOT
HETATM    1  N   UNL     1      -8.920  19.897  68.014  1.00  0.00    -0.307 NA 
HETATM    2  H1  UNL     1      -8.350  20.717  68.220  1.00  0.00     0.000 HD 
HETATM    3  C   UNL     1      -8.233  18.702  67.783  1.00  0.00    -0.255 A  
HETATM    4  H2  UNL     1      -9.606  19.760  68.756  1.00  0.00     0.000 HD 
HETATM    5  N   UNL     1      -8.990  17.615  67.510  1.00  0.00    -0.234 NA 
HETATM    6  C   UNL     1      -8.378  16.454  67.140  1.00  0.00    -0.187 A  
HETATM    7  F   UNL     1      -6.124  19.756  68.105  1.00  0.00    -0.228 F  
HETATM    8  C   UNL     1      -6.966  16.377  67.178  1.00  0.00    -0.204 A  
HETATM    9  C   UNL     1      -6.843  18.656  67.839  1.00  0.00    -0.212 A  
HETATM   10  F   UNL     1      -6.301  15.277  66.798  1.00  0.00     0.171 F  
HETATM   11  C   UNL     1      -6.197  17.472  67.554  1.00  0.00    -0.167 A  
ENDROOT
BRANCH   6  12
HETATM   12  N   UNL     1      -9.190  15.337  66.682  1.00  0.00    -0.254 NA 
HETATM   13  C   UNL     1     -10.899  14.678  65.025  1.00  0.00    -0.431 C  
HETATM   14  C   UNL     1     -11.967  15.135  64.114  1.00  0.00    -0.170 C  
HETATM   15  C   UNL     1     -10.530  13.272  65.192  1.00  0.00    -0.333 C  
HETATM   16  C   UNL     1     -10.197  15.575  65.733  1.00  0.00    -0.366 C  
HETATM   17  O   UNL     1     -12.237  16.318  63.934  1.00  0.00    -0.945 OA 
HETATM   18  O   UNL     1     -11.130  12.398  64.570  1.00  0.00    -0.290 OA 
HETATM   19  C   UNL     1      -9.441  12.944  66.133  1.00  0.00    -0.161 A  
HETATM   20  O   UNL     1     -12.659  14.146  63.506  1.00  0.00    -0.834 OA 
HETATM   21  C   UNL     1      -9.070  11.603  66.228  1.00  0.00    -0.219 A  
HETATM   22  C   UNL     1      -8.080  11.229  67.119  1.00  0.00    -0.150 A  
HETATM   23  F   UNL     1      -7.736   9.933  67.140  1.00  0.00    -0.091 F  
HETATM   24  C   UNL     1      -7.501  12.141  68.016  1.00  0.00    -0.116 A  
HETATM   25  C   UNL     1      -8.014  13.471  67.995  1.00  0.00    -0.151 A  
HETATM   26 CL   UNL     1      -7.933  14.380  69.496  1.00  0.00     0.134 Cl 
HETATM   27  C   UNL     1      -8.860  13.943  66.946  1.00  0.00    -0.193 A  
BRANCH  24  28
HETATM   28  N   UNL     1      -6.486  11.693  68.904  1.00  0.00    -0.064 NA 
HETATM   29  C   UNL     1      -5.213  11.088  68.647  1.00  0.00    -0.040 C  
HETATM   30  C   UNL     1      -5.430  10.184  69.868  1.00  0.00    -0.039 C  
HETATM   31  C   UNL     1      -6.632  11.079  70.195  1.00  0.00    -0.088 C  
HETATM   32  O   UNL     1      -5.714   8.790  69.591  1.00  0.00    -0.029 OA 
HETATM   33  H   UNL     1      -5.849   8.230  70.347  1.00  0.00     0.000 HD 
ENDBRANCH  24  28
ENDBRANCH   6  12
TORSDOF 2
ENDMDL
MODEL       89
REMARK 921   NORMALIZED FREE ENERGY PREDICTED BY IDOCK:   -5.02 KCAL/MOL
REMARK 922        TOTAL FREE ENERGY PREDICTED BY IDOCK:   -6.45 KCAL/MOL
REMARK 923 INTER-LIGAND FREE ENERGY PREDICTED BY IDOCK:   -8.21 KCAL/MOL
REMARK 924 INTRA-LIGAND FREE ENERGY PREDICTED BY IDOCK:    1.77 KCAL/MOL
REMARK 927      BINDING AFFINITY PREDICTED BY RF-SCORE:    0.00 PKD
ROOT
HETATM    1  N   UNL     1     -12.250  14.778  70.813  1.00  0.00    -0.290 NA 
HETATM    2  H1  UNL     1     -12.691  15.306  71.565  1.00  0.00     0.000 HD 
HETATM    3  C   UNL     1     -12.435  13.393  70.831  1.00  0.00    -0.359 A  
HETATM    4  H2  UNL     1     -12.545  15.152  69.911  1.00  0.00     0.000 HD 
HETATM    5  N   UNL     1     -11.849  12.693  69.834  1.00  0.00    -0.320 NA 
HETATM    6  C   UNL     1     -11.877  11.330  69.872  1.00  0.00    -0.360 A  
HETATM    7  F   UNL     1     -13.750  13.512  72.811  1.00  0.00    -0.606 F  
HETATM    8  C   UNL     1     -12.628  10.684  70.881  1.00  0.00    -0.407 A  
HETATM    9  C   UNL     1     -13.190  12.787  71.832  1.00  0.00    -0.412 A  
HETATM   10  F   UNL     1     -12.671   9.349  70.994  1.00  0.00    -0.340 F  
HETATM   11  C   UNL     1     -13.308  11.414  71.849  1.00  0.00    -0.409 A  
ENDROOT
BRANCH   6  12
HETATM   12  N   UNL     1     -11.104  10.576  68.895  1.00  0.00    -0.245 NA 
HETATM   13  C   UNL     1     -10.577   8.291  68.122  1.00  0.00    -0.169 C  
HETATM   14  C   UNL     1     -10.536   6.856  68.468  1.00  0.00    -0.212 C  
HETATM   15  C   UNL     1     -10.159   8.818  66.823  1.00  0.00    -0.288 C  
HETATM   16  C   UNL     1     -11.038   9.179  69.015  1.00  0.00     0.093 C  
HETATM   17  O   UNL     1     -10.940   6.410  69.538  1.00  0.00    -0.286 OA 
HETATM   18  O   UNL     1      -9.731   8.057  65.958  1.00  0.00    -0.102 OA 
HETATM   19  C   UNL     1     -10.251  10.274  66.599  1.00  0.00    -0.294 A  
HETATM   20  O   UNL     1      -9.988   6.058  67.525  1.00  0.00    -0.120 OA 
HETATM   21  C   UNL     1      -9.902  10.742  65.333  1.00  0.00    -0.317 A  
HETATM   22  C   UNL     1      -9.934  12.101  65.074  1.00  0.00    -0.220 A  
HETATM   23  F   UNL     1      -9.627  12.492  63.828  1.00  0.00    -0.225 F  
HETATM   24  C   UNL     1     -10.204  13.045  66.077  1.00  0.00    -0.287 A  
HETATM   25  C   UNL     1     -10.406  12.538  67.394  1.00  0.00    -0.216 A  
HETATM   26 CL   UNL     1      -9.978  13.596  68.729  1.00  0.00    -0.151 Cl 
HETATM   27  C   UNL     1     -10.607  11.148  67.651  1.00  0.00    -0.211 A  
BRANCH  24  28
HETATM   28  N   UNL     1     -10.225  14.427  65.743  1.00  0.00    -0.320 NA 
HETATM   29  C   UNL     1      -9.274  15.467  65.993  1.00  0.00    -0.326 C  
HETATM   30  C   UNL     1     -10.440  16.431  66.250  1.00  0.00    -0.293 C  
HETATM   31  C   UNL     1     -11.348  15.322  65.704  1.00  0.00    -0.197 C  
HETATM   32  O   UNL     1     -10.653  16.826  67.628  1.00  0.00    -0.324 OA 
HETATM   33  H   UNL     1     -11.376  17.422  67.788  1.00  0.00     0.000 HD 
ENDBRANCH  24  28
ENDBRANCH   6  12
TORSDOF 2
ENDMDL
MODEL       90
REMARK 921   NORMALIZED FREE ENERGY PREDICTED BY IDOCK:   -4.94 KCAL/MOL
REMARK 922        TOTAL FREE ENERGY PREDICTED BY IDOCK:   -6.35 KCAL/MOL
REMARK 923 INTER-LIGAND FREE ENERGY PREDICTED BY IDOCK:   -6.05 KCAL/MOL
REMARK 924 INTRA-LIGAND FREE ENERGY PREDICTED BY IDOCK:   -0.31 KCAL/MOL
REMARK 927      BINDING AFFINITY PREDICTED BY RF-SCORE:    0.00 PKD
ROOT
HETATM    1  N   UNL     1     -10.715  14.850  69.135  1.00  0.00    -0.245 NA 
HETATM    2  H1  UNL     1     -11.347  15.650  69.107  1.00  0.00     0.000 HD 
HETATM    3  C   UNL     1     -10.668  14.053  67.988  1.00  0.00    -0.246 A  
HETATM    4  H2  UNL     1      -9.774  15.163  69.373  1.00  0.00     0.000 HD 
HETATM    5  N   UNL     1      -9.831  12.993  68.025  1.00  0.00    -0.218 NA 
HETATM    6  C   UNL     1      -9.841  12.100  66.994  1.00  0.00    -0.203 A  
HETATM    7  F   UNL     1     -12.277  15.411  66.878  1.00  0.00     0.045 F  
HETATM    8  C   UNL     1     -10.632  12.374  65.854  1.00  0.00    -0.258 A  
HETATM    9  C   UNL     1     -11.451  14.355  66.877  1.00  0.00    -0.366 A  
HETATM   10  F   UNL     1     -10.711  11.524  64.820  1.00  0.00    -0.315 F  
HETATM   11  C   UNL     1     -11.418  13.517  65.783  1.00  0.00    -0.331 A  
ENDROOT
BRANCH   6  12
HETATM   12  N   UNL     1      -9.067  10.872  67.109  1.00  0.00    -0.144 NA 
HETATM   13  C   UNL     1      -7.042   9.722  66.288  1.00  0.00    -0.095 C  
HETATM   14  C   UNL     1      -6.038   9.622  65.211  1.00  0.00    -0.071 C  
HETATM   15  C   UNL     1      -7.044   8.858  67.470  1.00  0.00    -0.076 C  
HETATM   16  C   UNL     1      -8.002  10.656  66.221  1.00  0.00    -0.149 C  
HETATM   17  O   UNL     1      -6.005  10.383  64.249  1.00  0.00    -0.138 OA 
HETATM   18  O   UNL     1      -6.190   7.984  67.596  1.00  0.00    -0.049 OA 
HETATM   19  C   UNL     1      -8.103   9.060  68.479  1.00  0.00    -0.107 A  
HETATM   20  O   UNL     1      -5.162   8.600  65.342  1.00  0.00    -0.034 OA 
HETATM   21  C   UNL     1      -8.046   8.264  69.622  1.00  0.00    -0.116 A  
HETATM   22  C   UNL     1      -9.031   8.382  70.587  1.00  0.00    -0.152 A  
HETATM   23  F   UNL     1      -8.905   7.620  71.684  1.00  0.00    -0.115 F  
HETATM   24  C   UNL     1     -10.154   9.206  70.409  1.00  0.00    -0.218 A  
HETATM   25  C   UNL     1     -10.255   9.889  69.162  1.00  0.00    -0.205 A  
HETATM   26 CL   UNL     1     -11.872  10.257  68.583  1.00  0.00     0.005 Cl 
HETATM   27  C   UNL     1      -9.159   9.970  68.249  1.00  0.00    -0.122 A  
BRANCH  24  28
HETATM   28  N   UNL     1     -11.128   9.285  71.441  1.00  0.00    -0.341 NA 
HETATM   29  C   UNL     1     -11.745   8.262  72.230  1.00  0.00    -0.388 C  
HETATM   30  C   UNL     1     -13.065   9.043  72.155  1.00  0.00    -0.435 C  
HETATM   31  C   UNL     1     -12.239  10.189  71.556  1.00  0.00    -0.380 C  
HETATM   32  O   UNL     1     -14.098   8.476  71.311  1.00  0.00    -0.581 OA 
HETATM   33  H   UNL     1     -14.914   8.960  71.264  1.00  0.00     0.000 HD 
ENDBRANCH  24  28
ENDBRANCH   6  12
TORSDOF 2
ENDMDL
MODEL       91
REMARK 921   NORMALIZED FREE ENERGY PREDICTED BY IDOCK:   -4.86 KCAL/MOL
REMARK 922        TOTAL FREE ENERGY PREDICTED BY IDOCK:   -6.27 KCAL/MOL
REMARK 923 INTER-LIGAND FREE ENERGY PREDICTED BY IDOCK:   -5.27 KCAL/MOL
REMARK 924 INTRA-LIGAND FREE ENERGY PREDICTED BY IDOCK:   -1.00 KCAL/MOL
REMARK 927      BINDING AFFINITY PREDICTED BY RF-SCORE:    0.00 PKD
ROOT
HETATM    1  N   UNL     1      -7.373   4.388  65.289  1.00  0.00    -0.071 NA 
HETATM    2  H1  UNL     1      -7.577   3.552  64.741  1.00  0.00     0.000 HD 
HETATM    3  C   UNL     1      -8.046   4.515  66.506  1.00  0.00    -0.103 A  
HETATM    4  H2  UNL     1      -6.368   4.460  65.443  1.00  0.00     0.000 HD 
HETATM    5  N   UNL     1      -7.776   5.623  67.232  1.00  0.00    -0.099 NA 
HETATM    6  C   UNL     1      -8.500   5.873  68.360  1.00  0.00    -0.111 A  
HETATM    7  F   UNL     1      -9.193   2.455  66.181  1.00  0.00    -0.142 F  
HETATM    8  C   UNL     1      -9.425   4.905  68.814  1.00  0.00    -0.145 A  
HETATM    9  C   UNL     1      -8.943   3.538  66.931  1.00  0.00    -0.152 A  
HETATM   10  F   UNL     1     -10.191   5.101  69.897  1.00  0.00    -0.276 F  
HETATM   11  C   UNL     1      -9.629   3.722  68.113  1.00  0.00    -0.176 A  
ENDROOT
BRANCH   6  12
HETATM   12  N   UNL     1      -8.329   7.145  69.047  1.00  0.00    -0.125 NA 
HETATM   13  C   UNL     1      -7.237   8.221  70.982  1.00  0.00    -0.061 C  
HETATM   14  C   UNL     1      -6.639   8.030  72.319  1.00  0.00    -0.069 C  
HETATM   15  C   UNL     1      -7.351   9.527  70.332  1.00  0.00    -0.141 C  
HETATM   16  C   UNL     1      -7.686   7.162  70.294  1.00  0.00    -0.095 C  
HETATM   17  O   UNL     1      -6.493   6.928  72.838  1.00  0.00    -0.061 OA 
HETATM   18  O   UNL     1      -6.955  10.539  70.905  1.00  0.00    -0.192 OA 
HETATM   19  C   UNL     1      -7.967   9.586  68.991  1.00  0.00    -0.092 A  
HETATM   20  O   UNL     1      -6.285   9.169  72.954  1.00  0.00    -0.297 OA 
HETATM   21  C   UNL     1      -8.010  10.834  68.370  1.00  0.00    -0.124 A  
HETATM   22  C   UNL     1      -8.607  10.959  67.128  1.00  0.00    -0.130 A  
HETATM   23  F   UNL     1      -8.585  12.173  66.560  1.00  0.00    -0.190 F  
HETATM   24  C   UNL     1      -9.272   9.888  66.510  1.00  0.00    -0.155 A  
HETATM   25  C   UNL     1      -9.340   8.668  67.244  1.00  0.00    -0.152 A  
HETATM   26 CL   UNL     1     -10.722   7.629  66.936  1.00  0.00    -0.384 Cl 
HETATM   27  C   UNL     1      -8.548   8.437  68.409  1.00  0.00    -0.139 A  
BRANCH  24  28
HETATM   28  N   UNL     1      -9.862  10.082  65.231  1.00  0.00    -0.310 NA 
HETATM   29  C   UNL     1      -9.281  10.109  63.923  1.00  0.00    -0.280 C  
HETATM   30  C   UNL     1     -10.250  11.240  63.549  1.00  0.00    -0.403 C  
HETATM   31  C   UNL     1     -10.962  10.935  64.872  1.00  0.00     0.032 C  
HETATM   32  O   UNL     1      -9.670  12.561  63.411  1.00  0.00    -0.624 OA 
HETATM   33  H   UNL     1     -10.270  13.261  63.180  1.00  0.00     0.000 HD 
ENDBRANCH  24  28
ENDBRANCH   6  12
TORSDOF 2
ENDMDL
MODEL       92
REMARK 921   NORMALIZED FREE ENERGY PREDICTED BY IDOCK:   -4.86 KCAL/MOL
REMARK 922        TOTAL FREE ENERGY PREDICTED BY IDOCK:   -6.26 KCAL/MOL
REMARK 923 INTER-LIGAND FREE ENERGY PREDICTED BY IDOCK:   -7.77 KCAL/MOL
REMARK 924 INTRA-LIGAND FREE ENERGY PREDICTED BY IDOCK:    1.50 KCAL/MOL
REMARK 927      BINDING AFFINITY PREDICTED BY RF-SCORE:    0.00 PKD
ROOT
HETATM    1  N   UNL     1      -6.647  11.896  69.762  1.00  0.00    -0.310 NA 
HETATM    2  H1  UNL     1      -6.004  11.620  70.504  1.00  0.00     0.000 HD 
HETATM    3  C   UNL     1      -6.860  13.267  69.602  1.00  0.00     0.151 A  
HETATM    4  H2  UNL     1      -6.345  11.490  68.877  1.00  0.00     0.000 HD 
HETATM    5  N   UNL     1      -7.713  13.634  68.619  1.00  0.00    -0.128 NA 
HETATM    6  C   UNL     1      -8.069  14.945  68.501  1.00  0.00    -0.147 A  
HETATM    7  F   UNL     1      -5.382  13.791  71.392  1.00  0.00    -0.125 F  
HETATM    8  C   UNL     1      -7.440  15.907  69.324  1.00  0.00    -0.219 A  
HETATM    9  C   UNL     1      -6.216  14.191  70.421  1.00  0.00    -0.149 A  
HETATM   10  F   UNL     1      -7.765  17.207  69.281  1.00  0.00    -0.228 F  
HETATM   11  C   UNL     1      -6.491  15.533  70.269  1.00  0.00     0.039 A  
ENDROOT
BRANCH   6  12
HETATM   12  N   UNL     1      -9.114  15.315  67.557  1.00  0.00    -0.182 NA 
HETATM   13  C   UNL     1     -10.014  17.197  66.235  1.00  0.00    -0.316 C  
HETATM   14  C   UNL     1     -10.106  18.664  66.091  1.00  0.00    -0.369 C  
HETATM   15  C   UNL     1     -10.672  16.257  65.328  1.00  0.00    -0.332 C  
HETATM   16  C   UNL     1      -9.279  16.669  67.225  1.00  0.00    -0.221 C  
HETATM   17  O   UNL     1      -9.509  19.450  66.819  1.00  0.00    -0.303 OA 
HETATM   18  O   UNL     1     -11.357  16.673  64.397  1.00  0.00    -1.023 OA 
HETATM   19  C   UNL     1     -10.500  14.811  65.578  1.00  0.00    -0.378 A  
HETATM   20  O   UNL     1     -10.930  19.089  65.107  1.00  0.00    -0.471 OA 
HETATM   21  C   UNL     1     -11.088  13.938  64.664  1.00  0.00    -0.389 A  
HETATM   22  C   UNL     1     -10.992  12.572  64.865  1.00  0.00    -0.300 A  
HETATM   23  F   UNL     1     -11.542  11.778  63.933  1.00  0.00    -0.416 F  
HETATM   24  C   UNL     1     -10.410  12.028  66.020  1.00  0.00    -0.238 A  
HETATM   25  C   UNL     1      -9.956  12.954  67.005  1.00  0.00    -0.244 A  
HETATM   26 CL   UNL     1      -9.964  12.410  68.675  1.00  0.00    -0.166 Cl 
HETATM   27  C   UNL     1      -9.830  14.350  66.734  1.00  0.00    -0.264 A  
BRANCH  24  28
HETATM   28  N   UNL     1     -10.339  10.615  66.163  1.00  0.00    -0.244 NA 
HETATM   29  C   UNL     1     -10.561   9.774  67.301  1.00  0.00    -0.255 C  
HETATM   30  C   UNL     1      -9.400   8.886  66.832  1.00  0.00    -0.168 C  
HETATM   31  C   UNL     1      -9.436   9.695  65.529  1.00  0.00    -0.266 C  
HETATM   32  O   UNL     1      -8.180   8.962  67.611  1.00  0.00    -0.109 OA 
HETATM   33  H   UNL     1      -7.461   8.412  67.320  1.00  0.00     0.000 HD 
ENDBRANCH  24  28
ENDBRANCH   6  12
TORSDOF 2
ENDMDL
MODEL       93
REMARK 921   NORMALIZED FREE ENERGY PREDICTED BY IDOCK:   -4.86 KCAL/MOL
REMARK 922        TOTAL FREE ENERGY PREDICTED BY IDOCK:   -6.26 KCAL/MOL
REMARK 923 INTER-LIGAND FREE ENERGY PREDICTED BY IDOCK:   -5.75 KCAL/MOL
REMARK 924 INTRA-LIGAND FREE ENERGY PREDICTED BY IDOCK:   -0.52 KCAL/MOL
REMARK 927      BINDING AFFINITY PREDICTED BY RF-SCORE:    0.00 PKD
ROOT
HETATM    1  N   UNL     1      -9.333  11.383  63.156  1.00  0.00    -0.478 NA 
HETATM    2  H1  UNL     1      -9.941  11.805  62.454  1.00  0.00     0.000 HD 
HETATM    3  C   UNL     1      -9.812  11.369  64.468  1.00  0.00    -0.260 A  
HETATM    4  H2  UNL     1      -9.085  10.436  62.871  1.00  0.00     0.000 HD 
HETATM    5  N   UNL     1      -9.005  10.811  65.398  1.00  0.00    -0.190 NA 
HETATM    6  C   UNL     1      -9.352  10.889  66.715  1.00  0.00    -0.165 A  
HETATM    7  F   UNL     1     -11.829  12.460  63.832  1.00  0.00    -0.393 F  
HETATM    8  C   UNL     1     -10.608  11.437  67.064  1.00  0.00    -0.248 A  
HETATM    9  C   UNL     1     -11.058  11.906  64.779  1.00  0.00    -0.311 A  
HETATM   10  F   UNL     1     -10.998  11.572  68.340  1.00  0.00    -0.196 F  
HETATM   11  C   UNL     1     -11.475  11.923  66.093  1.00  0.00    -0.352 A  
ENDROOT
BRANCH   6  12
HETATM   12  N   UNL     1      -8.407  10.441  67.727  1.00  0.00    -0.114 NA 
HETATM   13  C   UNL     1      -6.983  11.217  69.590  1.00  0.00    -0.057 C  
HETATM   14  C   UNL     1      -6.280  12.360  70.205  1.00  0.00    -0.037 C  
HETATM   15  C   UNL     1      -6.950   9.862  70.140  1.00  0.00    -0.138 C  
HETATM   16  C   UNL     1      -7.716  11.402  68.483  1.00  0.00    -0.133 C  
HETATM   17  O   UNL     1      -6.354  13.507  69.774  1.00  0.00    -0.122 OA 
HETATM   18  O   UNL     1      -6.301   9.623  71.156  1.00  0.00    -0.159 OA 
HETATM   19  C   UNL     1      -7.698   8.804  69.432  1.00  0.00    -0.093 A  
HETATM   20  O   UNL     1      -5.512  12.049  71.273  1.00  0.00    -0.340 OA 
HETATM   21  C   UNL     1      -7.698   7.535  70.011  1.00  0.00    -0.094 A  
HETATM   22  C   UNL     1      -8.352   6.494  69.375  1.00  0.00    -0.123 A  
HETATM   23  F   UNL     1      -8.354   5.305  69.995  1.00  0.00    -0.091 F  
HETATM   24  C   UNL     1      -8.932   6.643  68.105  1.00  0.00    -0.121 A  
HETATM   25  C   UNL     1      -8.779   7.914  67.477  1.00  0.00    -0.125 A  
HETATM   26 CL   UNL     1      -8.759   7.938  65.721  1.00  0.00    -0.172 Cl 
HETATM   27  C   UNL     1      -8.319   9.063  68.190  1.00  0.00    -0.121 A  
BRANCH  24  28
HETATM   28  N   UNL     1      -9.592   5.534  67.509  1.00  0.00    -0.117 NA 
HETATM   29  C   UNL     1      -9.074   4.319  66.956  1.00  0.00    -0.136 C  
HETATM   30  C   UNL     1     -10.140   4.401  65.855  1.00  0.00    -0.243 C  
HETATM   31  C   UNL     1     -10.767   5.531  66.682  1.00  0.00    -0.261 C  
HETATM   32  O   UNL     1      -9.667   4.751  64.530  1.00  0.00    -0.357 OA 
HETATM   33  H   UNL     1     -10.328   4.802  63.848  1.00  0.00     0.000 HD 
ENDBRANCH  24  28
ENDBRANCH   6  12
TORSDOF 2
ENDMDL
MODEL       94
REMARK 921   NORMALIZED FREE ENERGY PREDICTED BY IDOCK:   -4.84 KCAL/MOL
REMARK 922        TOTAL FREE ENERGY PREDICTED BY IDOCK:   -6.25 KCAL/MOL
REMARK 923 INTER-LIGAND FREE ENERGY PREDICTED BY IDOCK:   -5.24 KCAL/MOL
REMARK 924 INTRA-LIGAND FREE ENERGY PREDICTED BY IDOCK:   -1.00 KCAL/MOL
REMARK 927      BINDING AFFINITY PREDICTED BY RF-SCORE:    0.00 PKD
ROOT
HETATM    1  N   UNL     1     -12.574   8.948  71.335  1.00  0.00    -0.339 NA 
HETATM    2  H1  UNL     1     -12.626   8.989  72.352  1.00  0.00     0.000 HD 
HETATM    3  C   UNL     1     -11.294   8.879  70.779  1.00  0.00    -0.278 A  
HETATM    4  H2  UNL     1     -13.139   8.172  70.992  1.00  0.00     0.000 HD 
HETATM    5  N   UNL     1     -11.225   8.826  69.430  1.00  0.00     0.076 NA 
HETATM    6  C   UNL     1     -10.006   8.895  68.823  1.00  0.00    -0.184 A  
HETATM    7  F   UNL     1     -10.269   8.927  72.926  1.00  0.00    -0.188 F  
HETATM    8  C   UNL     1      -8.838   8.891  69.620  1.00  0.00    -0.142 A  
HETATM    9  C   UNL     1     -10.163   8.864  71.591  1.00  0.00    -0.345 A  
HETATM   10  F   UNL     1      -7.610   8.989  69.088  1.00  0.00    -0.069 F  
HETATM   11  C   UNL     1      -8.915   8.848  71.007  1.00  0.00    -0.298 A  
ENDROOT
BRANCH   6  12
HETATM   12  N   UNL     1      -9.939   9.010  67.373  1.00  0.00    -0.193 NA 
HETATM   13  C   UNL     1     -10.232  10.586  65.494  1.00  0.00    -0.325 C  
HETATM   14  C   UNL     1     -10.855  11.842  65.031  1.00  0.00    -0.300 C  
HETATM   15  C   UNL     1      -9.402   9.737  64.641  1.00  0.00    -0.256 C  
HETATM   16  C   UNL     1     -10.400  10.188  66.764  1.00  0.00    -0.222 C  
HETATM   17  O   UNL     1     -11.504  12.582  65.763  1.00  0.00    -0.328 OA 
HETATM   18  O   UNL     1      -9.204  10.045  63.468  1.00  0.00    -0.257 OA 
HETATM   19  C   UNL     1      -8.834   8.505  65.225  1.00  0.00    -0.144 A  
HETATM   20  O   UNL     1     -10.683  12.112  63.717  1.00  0.00    -0.357 OA 
HETATM   21  C   UNL     1      -7.998   7.745  64.407  1.00  0.00    -0.126 A  
HETATM   22  C   UNL     1      -7.464   6.562  64.887  1.00  0.00    -0.086 A  
HETATM   23  F   UNL     1      -6.636   5.892  64.072  1.00  0.00    -0.033 F  
HETATM   24  C   UNL     1      -7.819   6.038  66.140  1.00  0.00    -0.104 A  
HETATM   25  C   UNL     1      -8.794   6.765  66.884  1.00  0.00    -0.119 A  
HETATM   26 CL   UNL     1      -9.806   5.845  67.986  1.00  0.00    -0.131 Cl 
HETATM   27  C   UNL     1      -9.188   8.091  66.529  1.00  0.00    -0.188 A  
BRANCH  24  28
HETATM   28  N   UNL     1      -7.232   4.819  66.575  1.00  0.00    -0.075 NA 
HETATM   29  C   UNL     1      -7.646   3.460  66.396  1.00  0.00    -0.077 C  
HETATM   30  C   UNL     1      -7.169   3.158  67.823  1.00  0.00    -0.054 C  
HETATM   31  C   UNL     1      -6.527   4.551  67.799  1.00  0.00    -0.045 C  
HETATM   32  O   UNL     1      -8.206   2.937  68.812  1.00  0.00    -0.059 OA 
HETATM   33  H   UNL     1      -7.910   2.751  69.696  1.00  0.00     0.000 HD 
ENDBRANCH  24  28
ENDBRANCH   6  12
TORSDOF 2
ENDMDL
MODEL       95
REMARK 921   NORMALIZED FREE ENERGY PREDICTED BY IDOCK:   -4.83 KCAL/MOL
REMARK 922        TOTAL FREE ENERGY PREDICTED BY IDOCK:   -6.23 KCAL/MOL
REMARK 923 INTER-LIGAND FREE ENERGY PREDICTED BY IDOCK:   -5.39 KCAL/MOL
REMARK 924 INTRA-LIGAND FREE ENERGY PREDICTED BY IDOCK:   -0.84 KCAL/MOL
REMARK 927      BINDING AFFINITY PREDICTED BY RF-SCORE:    0.00 PKD
ROOT
HETATM    1  N   UNL     1      -7.959  10.833  64.253  1.00  0.00    -0.358 NA 
HETATM    2  H1  UNL     1      -7.448  11.686  64.025  1.00  0.00     0.000 HD 
HETATM    3  C   UNL     1      -7.767  10.316  65.536  1.00  0.00    -0.149 A  
HETATM    4  H2  UNL     1      -8.954  10.974  64.085  1.00  0.00     0.000 HD 
HETATM    5  N   UNL     1      -8.444   9.185  65.838  1.00  0.00    -0.135 NA 
HETATM    6  C   UNL     1      -8.195   8.556  67.022  1.00  0.00    -0.107 A  
HETATM    7  F   UNL     1      -6.257  12.066  66.106  1.00  0.00     0.102 F  
HETATM    8  C   UNL     1      -7.333   9.169  67.960  1.00  0.00    -0.083 A  
HETATM    9  C   UNL     1      -6.920  10.950  66.442  1.00  0.00    -0.134 A  
HETATM   10  F   UNL     1      -7.022   8.590  69.129  1.00  0.00    -0.057 F  
HETATM   11  C   UNL     1      -6.714  10.382  67.682  1.00  0.00    -0.074 A  
ENDROOT
BRANCH   6  12
HETATM   12  N   UNL     1      -8.794   7.253  67.274  1.00  0.00    -0.123 NA 
HETATM   13  C   UNL     1      -8.501   4.831  66.894  1.00  0.00    -0.105 C  
HETATM   14  C   UNL     1      -7.870   3.785  66.064  1.00  0.00    -0.090 C  
HETATM   15  C   UNL     1      -9.385   4.538  68.022  1.00  0.00    -0.140 C  
HETATM   16  C   UNL     1      -8.253   6.124  66.640  1.00  0.00    -0.110 C  
HETATM   17  O   UNL     1      -7.086   4.032  65.153  1.00  0.00    -0.060 OA 
HETATM   18  O   UNL     1      -9.650   3.374  68.312  1.00  0.00    -0.169 OA 
HETATM   19  C   UNL     1      -9.951   5.674  68.777  1.00  0.00    -0.221 A  
HETATM   20  O   UNL     1      -8.245   2.521  66.359  1.00  0.00    -0.082 OA 
HETATM   21  C   UNL     1     -10.742   5.366  69.883  1.00  0.00    -0.292 A  
HETATM   22  C   UNL     1     -11.330   6.387  70.608  1.00  0.00    -0.357 A  
HETATM   23  F   UNL     1     -12.048   6.036  71.686  1.00  0.00    -0.332 F  
HETATM   24  C   UNL     1     -11.247   7.730  70.207  1.00  0.00    -0.206 A  
HETATM   25  C   UNL     1     -10.558   7.991  68.987  1.00  0.00    -0.154 A  
HETATM   26 CL   UNL     1     -11.063   9.405  68.074  1.00  0.00    -0.109 Cl 
HETATM   27  C   UNL     1      -9.753   7.004  68.342  1.00  0.00    -0.139 A  
BRANCH  24  28
HETATM   28  N   UNL     1     -11.871   8.732  71.000  1.00  0.00    -0.286 NA 
HETATM   29  C   UNL     1     -11.855   8.956  72.414  1.00  0.00    -0.222 C  
HETATM   30  C   UNL     1     -13.332   9.365  72.335  1.00  0.00    -0.424 C  
HETATM   31  C   UNL     1     -13.154   9.352  70.812  1.00  0.00     0.068 C  
HETATM   32  O   UNL     1     -14.288   8.424  72.885  1.00  0.00    -0.845 OA 
HETATM   33  H   UNL     1     -15.203   8.677  72.836  1.00  0.00     0.000 HD 
ENDBRANCH  24  28
ENDBRANCH   6  12
TORSDOF 2
ENDMDL
MODEL       96
REMARK 921   NORMALIZED FREE ENERGY PREDICTED BY IDOCK:   -4.82 KCAL/MOL
REMARK 922        TOTAL FREE ENERGY PREDICTED BY IDOCK:   -6.22 KCAL/MOL
REMARK 923 INTER-LIGAND FREE ENERGY PREDICTED BY IDOCK:   -5.30 KCAL/MOL
REMARK 924 INTRA-LIGAND FREE ENERGY PREDICTED BY IDOCK:   -0.92 KCAL/MOL
REMARK 927      BINDING AFFINITY PREDICTED BY RF-SCORE:    0.00 PKD
ROOT
HETATM    1  N   UNL     1     -10.558   6.478  67.100  1.00  0.00    -0.283 NA 
HETATM    2  H1  UNL     1     -11.110   5.621  67.136  1.00  0.00     0.000 HD 
HETATM    3  C   UNL     1     -10.439   7.194  68.294  1.00  0.00    -0.198 A  
HETATM    4  H2  UNL     1      -9.631   6.274  66.728  1.00  0.00     0.000 HD 
HETATM    5  N   UNL     1      -9.708   8.330  68.246  1.00  0.00    -0.154 NA 
HETATM    6  C   UNL     1      -9.668   9.143  69.340  1.00  0.00    -0.170 A  
HETATM    7  F   UNL     1     -11.773   5.613  69.471  1.00  0.00    -0.090 F  
HETATM    8  C   UNL     1     -10.284   8.716  70.539  1.00  0.00    -0.197 A  
HETATM    9  C   UNL     1     -11.048   6.740  69.461  1.00  0.00    -0.273 A  
HETATM   10  F   UNL     1     -10.308   9.479  71.640  1.00  0.00    -0.394 F  
HETATM   11  C   UNL     1     -10.953   7.500  70.609  1.00  0.00    -0.263 A  
ENDROOT
BRANCH   6  12
HETATM   12  N   UNL     1      -9.025  10.445  69.235  1.00  0.00    -0.179 NA 
HETATM   13  C   UNL     1      -7.020  11.724  69.901  1.00  0.00     0.310 C  
HETATM   14  C   UNL     1      -5.901  11.844  70.856  1.00  0.00     0.096 C  
HETATM   15  C   UNL     1      -7.246  12.665  68.803  1.00  0.00    -0.083 C  
HETATM   16  C   UNL     1      -7.879  10.700  70.004  1.00  0.00     0.333 C  
HETATM   17  O   UNL     1      -5.681  11.024  71.741  1.00  0.00    -0.291 OA 
HETATM   18  O   UNL     1      -6.494  13.624  68.648  1.00  0.00    -0.081 OA 
HETATM   19  C   UNL     1      -8.402  12.434  67.913  1.00  0.00    -0.165 A  
HETATM   20  O   UNL     1      -5.140  12.952  70.706  1.00  0.00    -0.106 OA 
HETATM   21  C   UNL     1      -8.558  13.311  66.840  1.00  0.00    -0.116 A  
HETATM   22  C   UNL     1      -9.643  13.166  65.993  1.00  0.00    -0.157 A  
HETATM   23  F   UNL     1      -9.722  14.012  64.955  1.00  0.00    -0.290 F  
HETATM   24  C   UNL     1     -10.658  12.228  66.235  1.00  0.00    -0.251 A  
HETATM   25  C   UNL     1     -10.542  11.452  67.425  1.00  0.00    -0.218 A  
HETATM   26 CL   UNL     1     -12.035  10.890  68.159  1.00  0.00    -0.131 Cl 
HETATM   27  C   UNL     1      -9.337  11.412  68.191  1.00  0.00    -0.181 A  
BRANCH  24  28
HETATM   28  N   UNL     1     -11.744  12.128  65.322  1.00  0.00    -0.337 NA 
HETATM   29  C   UNL     1     -11.777  11.759  63.939  1.00  0.00    -0.365 C  
HETATM   30  C   UNL     1     -12.852  12.830  63.711  1.00  0.00    -0.038 C  
HETATM   31  C   UNL     1     -12.921  12.948  65.238  1.00  0.00     0.069 C  
HETATM   32  O   UNL     1     -12.434  14.013  62.985  1.00  0.00    -1.101 OA 
HETATM   33  H   UNL     1     -13.100  14.676  62.844  1.00  0.00     0.000 HD 
ENDBRANCH  24  28
ENDBRANCH   6  12
TORSDOF 2
ENDMDL
MODEL       97
REMARK 921   NORMALIZED FREE ENERGY PREDICTED BY IDOCK:   -4.78 KCAL/MOL
REMARK 922        TOTAL FREE ENERGY PREDICTED BY IDOCK:   -6.18 KCAL/MOL
REMARK 923 INTER-LIGAND FREE ENERGY PREDICTED BY IDOCK:   -6.80 KCAL/MOL
REMARK 924 INTRA-LIGAND FREE ENERGY PREDICTED BY IDOCK:    0.62 KCAL/MOL
REMARK 927      BINDING AFFINITY PREDICTED BY RF-SCORE:    0.00 PKD
ROOT
HETATM    1  N   UNL     1     -13.530  14.186  65.373  1.00  0.00    -0.541 NA 
HETATM    2  H1  UNL     1     -14.184  14.019  64.608  1.00  0.00     0.000 HD 
HETATM    3  C   UNL     1     -12.234  13.695  65.203  1.00  0.00    -0.433 A  
HETATM    4  H2  UNL     1     -13.495  15.183  65.583  1.00  0.00     0.000 HD 
HETATM    5  N   UNL     1     -11.368  13.916  66.218  1.00  0.00    -0.317 NA 
HETATM    6  C   UNL     1     -10.131  13.344  66.174  1.00  0.00    -0.302 A  
HETATM    7  F   UNL     1     -12.760  12.810  63.058  1.00  0.00    -0.431 F  
HETATM    8  C   UNL     1      -9.737  12.643  65.011  1.00  0.00     0.031 A  
HETATM    9  C   UNL     1     -11.873  13.018  64.041  1.00  0.00    -0.445 A  
HETATM   10  F   UNL     1      -8.548  12.031  64.915  1.00  0.00     0.431 F  
HETATM   11  C   UNL     1     -10.599  12.502  63.931  1.00  0.00    -0.472 A  
ENDROOT
BRANCH   6  12
HETATM   12  N   UNL     1      -9.263  13.438  67.339  1.00  0.00    -0.204 NA 
HETATM   13  C   UNL     1      -7.680  12.161  68.740  1.00  0.00    -0.034 C  
HETATM   14  C   UNL     1      -7.230  10.825  69.179  1.00  0.00    -0.107 C  
HETATM   15  C   UNL     1      -7.087  13.409  69.222  1.00  0.00     0.060 C  
HETATM   16  C   UNL     1      -8.665  12.270  67.836  1.00  0.00    -0.177 C  
HETATM   17  O   UNL     1      -7.691   9.780  68.731  1.00  0.00    -0.078 OA 
HETATM   18  O   UNL     1      -6.178  13.381  70.048  1.00  0.00    -0.138 OA 
HETATM   19  C   UNL     1      -7.625  14.682  68.704  1.00  0.00    -0.129 A  
HETATM   20  O   UNL     1      -6.284  10.831  70.144  1.00  0.00    -0.105 OA 
HETATM   21  C   UNL     1      -7.003  15.853  69.135  1.00  0.00    -0.176 A  
HETATM   22  C   UNL     1      -7.485  17.079  68.711  1.00  0.00    -0.242 A  
HETATM   23  F   UNL     1      -6.824  18.170  69.125  1.00  0.00    -0.246 F  
HETATM   24  C   UNL     1      -8.652  17.195  67.941  1.00  0.00    -0.214 A  
HETATM   25  C   UNL     1      -9.347  15.986  67.647  1.00  0.00    -0.214 A  
HETATM   26 CL   UNL     1     -11.084  16.101  67.413  1.00  0.00    -0.204 Cl 
HETATM   27  C   UNL     1      -8.764  14.701  67.868  1.00  0.00    -0.169 A  
BRANCH  24  28
HETATM   28  N   UNL     1      -9.092  18.485  67.536  1.00  0.00    -0.277 NA 
HETATM   29  C   UNL     1     -10.345  19.152  67.722  1.00  0.00    -0.421 C  
HETATM   30  C   UNL     1     -10.208  19.739  66.311  1.00  0.00    -0.509 C  
HETATM   31  C   UNL     1      -8.772  19.203  66.333  1.00  0.00    -0.328 C  
HETATM   32  O   UNL     1     -11.091  19.190  65.300  1.00  0.00    -0.406 OA 
HETATM   33  H   UNL     1     -11.007  19.554  64.426  1.00  0.00     0.000 HD 
ENDBRANCH  24  28
ENDBRANCH   6  12
TORSDOF 2
ENDMDL
MODEL       98
REMARK 921   NORMALIZED FREE ENERGY PREDICTED BY IDOCK:   -4.77 KCAL/MOL
REMARK 922        TOTAL FREE ENERGY PREDICTED BY IDOCK:   -6.16 KCAL/MOL
REMARK 923 INTER-LIGAND FREE ENERGY PREDICTED BY IDOCK:   -5.23 KCAL/MOL
REMARK 924 INTRA-LIGAND FREE ENERGY PREDICTED BY IDOCK:   -0.94 KCAL/MOL
REMARK 927      BINDING AFFINITY PREDICTED BY RF-SCORE:    0.00 PKD
ROOT
HETATM    1  N   UNL     1     -10.646  11.103  66.784  1.00  0.00    -0.252 NA 
HETATM    2  H1  UNL     1     -10.441  12.095  66.903  1.00  0.00     0.000 HD 
HETATM    3  C   UNL     1      -9.841  10.211  67.497  1.00  0.00    -0.177 A  
HETATM    4  H2  UNL     1     -11.627  10.927  66.998  1.00  0.00     0.000 HD 
HETATM    5  N   UNL     1     -10.113   8.896  67.338  1.00  0.00    -0.208 NA 
HETATM    6  C   UNL     1      -9.280   7.972  67.896  1.00  0.00    -0.131 A  
HETATM    7  F   UNL     1      -8.573  11.985  68.449  1.00  0.00    -0.156 F  
HETATM    8  C   UNL     1      -8.227   8.410  68.734  1.00  0.00    -0.119 A  
HETATM    9  C   UNL     1      -8.820  10.674  68.322  1.00  0.00    -0.139 A  
HETATM   10  F   UNL     1      -7.354   7.557  69.288  1.00  0.00    -0.078 F  
HETATM   11  C   UNL     1      -8.013   9.762  68.969  1.00  0.00    -0.096 A  
ENDROOT
BRANCH   6  12
HETATM   12  N   UNL     1      -9.471   6.563  67.586  1.00  0.00    -0.124 NA 
HETATM   13  C   UNL     1      -9.171   4.864  65.820  1.00  0.00    -0.155 C  
HETATM   14  C   UNL     1      -9.011   4.610  64.374  1.00  0.00    -0.142 C  
HETATM   15  C   UNL     1      -9.211   3.800  66.824  1.00  0.00    -0.177 C  
HETATM   16  C   UNL     1      -9.264   6.123  66.269  1.00  0.00    -0.147 C  
HETATM   17  O   UNL     1      -8.922   5.505  63.540  1.00  0.00     0.133 OA 
HETATM   18  O   UNL     1      -9.126   2.623  66.480  1.00  0.00    -0.150 OA 
HETATM   19  C   UNL     1      -9.372   4.185  68.240  1.00  0.00    -0.214 A  
HETATM   20  O   UNL     1      -9.001   3.305  64.023  1.00  0.00    -0.096 OA 
HETATM   21  C   UNL     1      -9.347   3.156  69.181  1.00  0.00    -0.228 A  
HETATM   22  C   UNL     1      -9.529   3.451  70.521  1.00  0.00    -0.177 A  
HETATM   23  F   UNL     1      -9.456   2.428  71.386  1.00  0.00    -0.161 F  
HETATM   24  C   UNL     1      -9.845   4.745  70.963  1.00  0.00    -0.197 A  
HETATM   25  C   UNL     1     -10.013   5.741  69.958  1.00  0.00    -0.191 A  
HETATM   26 CL   UNL     1     -11.107   7.066  70.322  1.00  0.00    -0.303 Cl 
HETATM   27  C   UNL     1      -9.612   5.529  68.603  1.00  0.00    -0.135 A  
BRANCH  24  28
HETATM   28  N   UNL     1     -10.016   4.981  72.355  1.00  0.00    -0.172 NA 
HETATM   29  C   UNL     1     -11.202   5.117  73.146  1.00  0.00    -0.330 C  
HETATM   30  C   UNL     1     -10.497   6.212  73.958  1.00  0.00    -0.258 C  
HETATM   31  C   UNL     1      -9.215   5.792  73.230  1.00  0.00    -0.135 C  
HETATM   32  O   UNL     1     -10.955   7.570  73.737  1.00  0.00    -0.514 OA 
HETATM   33  H   UNL     1     -10.519   8.248  74.239  1.00  0.00     0.000 HD 
ENDBRANCH  24  28
ENDBRANCH   6  12
TORSDOF 2
ENDMDL
MODEL       99
REMARK 921   NORMALIZED FREE ENERGY PREDICTED BY IDOCK:   -4.76 KCAL/MOL
REMARK 922        TOTAL FREE ENERGY PREDICTED BY IDOCK:   -6.16 KCAL/MOL
REMARK 923 INTER-LIGAND FREE ENERGY PREDICTED BY IDOCK:   -5.15 KCAL/MOL
REMARK 924 INTRA-LIGAND FREE ENERGY PREDICTED BY IDOCK:   -1.01 KCAL/MOL
REMARK 927      BINDING AFFINITY PREDICTED BY RF-SCORE:    0.00 PKD
ROOT
HETATM    1  N   UNL     1      -8.363  11.285  69.120  1.00  0.00    -0.376 NA 
HETATM    2  H1  UNL     1      -8.543  12.180  68.665  1.00  0.00     0.000 HD 
HETATM    3  C   UNL     1      -9.050  10.180  68.612  1.00  0.00    -0.143 A  
HETATM    4  H2  UNL     1      -7.361  11.097  69.121  1.00  0.00     0.000 HD 
HETATM    5  N   UNL     1      -8.811   8.993  69.215  1.00  0.00    -0.137 NA 
HETATM    6  C   UNL     1      -9.550   7.904  68.858  1.00  0.00    -0.155 A  
HETATM    7  F   UNL     1     -10.146  11.509  66.970  1.00  0.00    -0.213 F  
HETATM    8  C   UNL     1     -10.456   8.011  67.778  1.00  0.00    -0.214 A  
HETATM    9  C   UNL     1      -9.927  10.315  67.539  1.00  0.00    -0.189 A  
HETATM   10  F   UNL     1     -11.235   6.988  67.396  1.00  0.00    -0.347 F  
HETATM   11  C   UNL     1     -10.627   9.211  67.099  1.00  0.00    -0.286 A  
ENDROOT
BRANCH   6  12
HETATM   12  N   UNL     1      -9.414   6.672  69.621  1.00  0.00    -0.143 NA 
HETATM   13  C   UNL     1     -10.039   5.577  71.744  1.00  0.00    -0.247 C  
HETATM   14  C   UNL     1     -10.471   5.766  73.143  1.00  0.00    -0.226 C  
HETATM   15  C   UNL     1      -9.802   4.263  71.145  1.00  0.00    -0.180 C  
HETATM   16  C   UNL     1      -9.868   6.643  70.949  1.00  0.00    -0.183 C  
HETATM   17  O   UNL     1     -10.723   6.865  73.626  1.00  0.00    -0.343 OA 
HETATM   18  O   UNL     1      -9.945   3.244  71.817  1.00  0.00    -0.170 OA 
HETATM   19  C   UNL     1      -9.375   4.207  69.733  1.00  0.00    -0.237 A  
HETATM   20  O   UNL     1     -10.542   4.632  73.876  1.00  0.00    -0.223 OA 
HETATM   21  C   UNL     1      -9.214   2.940  69.171  1.00  0.00    -0.220 A  
HETATM   22  C   UNL     1      -8.781   2.824  67.863  1.00  0.00    -0.106 A  
HETATM   23  F   UNL     1      -8.681   1.584  67.361  1.00  0.00    -0.083 F  
HETATM   24  C   UNL     1      -8.391   3.939  67.104  1.00  0.00    -0.099 A  
HETATM   25  C   UNL     1      -8.424   5.203  67.762  1.00  0.00    -0.104 A  
HETATM   26 CL   UNL     1      -7.287   6.421  67.207  1.00  0.00    -0.085 Cl 
HETATM   27  C   UNL     1      -9.076   5.389  69.019  1.00  0.00    -0.115 A  
BRANCH  24  28
HETATM   28  N   UNL     1      -7.959   3.750  65.763  1.00  0.00    -0.093 NA 
HETATM   29  C   UNL     1      -6.654   3.519  65.221  1.00  0.00    -0.040 C  
HETATM   30  C   UNL     1      -7.024   4.413  64.029  1.00  0.00    -0.046 C  
HETATM   31  C   UNL     1      -8.460   4.366  64.565  1.00  0.00    -0.119 C  
HETATM   32  O   UNL     1      -6.389   5.715  63.983  1.00  0.00    -0.024 OA 
HETATM   33  H   UNL     1      -6.618   6.269  63.246  1.00  0.00     0.000 HD 
ENDBRANCH  24  28
ENDBRANCH   6  12
TORSDOF 2
ENDMDL
MODEL      100
REMARK 921   NORMALIZED FREE ENERGY PREDICTED BY IDOCK:   -4.74 KCAL/MOL
REMARK 922        TOTAL FREE ENERGY PREDICTED BY IDOCK:   -6.13 KCAL/MOL
REMARK 923 INTER-LIGAND FREE ENERGY PREDICTED BY IDOCK:   -5.55 KCAL/MOL
REMARK 924 INTRA-LIGAND FREE ENERGY PREDICTED BY IDOCK:   -0.58 KCAL/MOL
REMARK 927      BINDING AFFINITY PREDICTED BY RF-SCORE:    0.00 PKD
ROOT
HETATM    1  N   UNL     1     -11.820  12.318  69.649  1.00  0.00    -0.328 NA 
HETATM    2  H1  UNL     1     -12.367  12.770  70.381  1.00  0.00     0.000 HD 
HETATM    3  C   UNL     1     -11.490  10.976  69.856  1.00  0.00    -0.320 A  
HETATM    4  H2  UNL     1     -12.294  12.420  68.752  1.00  0.00     0.000 HD 
HETATM    5  N   UNL     1     -10.764  10.377  68.886  1.00  0.00    -0.209 NA 
HETATM    6  C   UNL     1     -10.294   9.113  69.090  1.00  0.00    -0.212 A  
HETATM    7  F   UNL     1     -12.614  10.938  71.954  1.00  0.00    -0.454 F  
HETATM    8  C   UNL     1     -10.685   8.413  70.254  1.00  0.00    -0.234 A  
HETATM    9  C   UNL     1     -11.901  10.310  71.008  1.00  0.00    -0.377 A  
HETATM   10  F   UNL     1     -10.235   7.180  70.531  1.00  0.00    -0.193 F  
HETATM   11  C   UNL     1     -11.512   9.002  71.203  1.00  0.00    -0.376 A  
ENDROOT
BRANCH   6  12
HETATM   12  N   UNL     1      -9.372   8.533  68.124  1.00  0.00    -0.137 NA 
HETATM   13  C   UNL     1      -9.137   6.745  66.437  1.00  0.00    -0.175 C  
HETATM   14  C   UNL     1      -9.620   5.433  65.961  1.00  0.00    -0.131 C  
HETATM   15  C   UNL     1      -8.048   7.483  65.795  1.00  0.00    -0.127 C  
HETATM   16  C   UNL     1      -9.720   7.327  67.495  1.00  0.00    -0.145 C  
HETATM   17  O   UNL     1     -10.569   4.843  66.467  1.00  0.00    -0.280 OA 
HETATM   18  O   UNL     1      -7.473   7.009  64.818  1.00  0.00    -0.082 OA 
HETATM   19  C   UNL     1      -7.660   8.788  66.365  1.00  0.00    -0.091 A  
HETATM   20  O   UNL     1      -8.916   4.905  64.936  1.00  0.00    -0.153 OA 
HETATM   21  C   UNL     1      -6.660   9.496  65.699  1.00  0.00    -0.072 A  
HETATM   22  C   UNL     1      -6.228  10.709  66.206  1.00  0.00    -0.119 A  
HETATM   23  F   UNL     1      -5.293  11.366  65.504  1.00  0.00    -0.121 F  
HETATM   24  C   UNL     1      -6.687  11.209  67.435  1.00  0.00    -0.084 A  
HETATM   25  C   UNL     1      -7.595  10.385  68.162  1.00  0.00    -0.091 A  
HETATM   26 CL   UNL     1      -7.584  10.538  69.912  1.00  0.00    -0.120 Cl 
HETATM   27  C   UNL     1      -8.231   9.251  67.572  1.00  0.00    -0.114 A  
BRANCH  24  28
HETATM   28  N   UNL     1      -6.206  12.464  67.898  1.00  0.00    -0.080 NA 
HETATM   29  C   UNL     1      -5.544  12.825  69.115  1.00  0.00    -0.073 C  
HETATM   30  C   UNL     1      -6.338  14.139  69.121  1.00  0.00    -0.106 C  
HETATM   31  C   UNL     1      -6.772  13.770  67.697  1.00  0.00    -0.176 C  
HETATM   32  O   UNL     1      -7.389  14.249  70.113  1.00  0.00    -0.372 OA 
HETATM   33  H   UNL     1      -7.880  15.062  70.117  1.00  0.00     0.000 HD 
ENDBRANCH  24  28
ENDBRANCH   6  12
TORSDOF 2
ENDMDL
MODEL      101
REMARK 921   NORMALIZED FREE ENERGY PREDICTED BY IDOCK:   -4.73 KCAL/MOL
REMARK 922        TOTAL FREE ENERGY PREDICTED BY IDOCK:   -6.12 KCAL/MOL
REMARK 923 INTER-LIGAND FREE ENERGY PREDICTED BY IDOCK:   -6.02 KCAL/MOL
REMARK 924 INTRA-LIGAND FREE ENERGY PREDICTED BY IDOCK:   -0.10 KCAL/MOL
REMARK 927      BINDING AFFINITY PREDICTED BY RF-SCORE:    0.00 PKD
ROOT
HETATM    1  N   UNL     1     -12.684  12.060  71.382  1.00  0.00    -0.335 NA 
HETATM    2  H1  UNL     1     -13.566  11.977  71.890  1.00  0.00     0.000 HD 
HETATM    3  C   UNL     1     -12.369  13.327  70.886  1.00  0.00    -0.329 A  
HETATM    4  H2  UNL     1     -11.920  11.720  71.965  1.00  0.00     0.000 HD 
HETATM    5  N   UNL     1     -11.201  13.437  70.213  1.00  0.00     0.255 NA 
HETATM    6  C   UNL     1     -10.902  14.611  69.587  1.00  0.00    -0.186 A  
HETATM    7  F   UNL     1     -14.381  14.259  71.751  1.00  0.00    -0.469 F  
HETATM    8  C   UNL     1     -11.756  15.724  69.763  1.00  0.00    -0.348 A  
HETATM    9  C   UNL     1     -13.226  14.406  71.086  1.00  0.00    -0.350 A  
HETATM   10  F   UNL     1     -11.537  16.896  69.151  1.00  0.00    -0.085 F  
HETATM   11  C   UNL     1     -12.907  15.630  70.536  1.00  0.00    -0.334 A  
ENDROOT
BRANCH   6  12
HETATM   12  N   UNL     1      -9.731  14.677  68.724  1.00  0.00    -0.218 NA 
HETATM   13  C   UNL     1      -7.695  15.990  68.243  1.00  0.00    -0.142 C  
HETATM   14  C   UNL     1      -7.022  17.299  68.357  1.00  0.00    -0.202 C  
HETATM   15  C   UNL     1      -7.091  14.829  67.588  1.00  0.00    -0.184 C  
HETATM   16  C   UNL     1      -8.914  15.818  68.775  1.00  0.00    -0.214 C  
HETATM   17  O   UNL     1      -7.507  18.254  68.955  1.00  0.00    -0.286 OA 
HETATM   18  O   UNL     1      -5.975  14.917  67.083  1.00  0.00    -0.236 OA 
HETATM   19  C   UNL     1      -7.867  13.573  67.542  1.00  0.00    -0.184 A  
HETATM   20  O   UNL     1      -5.831  17.385  67.724  1.00  0.00    -0.123 OA 
HETATM   21  C   UNL     1      -7.244  12.467  66.965  1.00  0.00    -0.013 A  
HETATM   22  C   UNL     1      -7.934  11.272  66.860  1.00  0.00    -0.155 A  
HETATM   23  F   UNL     1      -7.273  10.230  66.333  1.00  0.00    -0.094 F  
HETATM   24  C   UNL     1      -9.286  11.158  67.219  1.00  0.00    -0.160 A  
HETATM   25  C   UNL     1      -9.933  12.349  67.662  1.00  0.00    -0.200 A  
HETATM   26 CL   UNL     1     -11.662  12.470  67.377  1.00  0.00    -0.433 Cl 
HETATM   27  C   UNL     1      -9.204  13.530  67.997  1.00  0.00    -0.209 A  
BRANCH  24  28
HETATM   28  N   UNL     1      -9.935   9.900  67.090  1.00  0.00    -0.189 NA 
HETATM   29  C   UNL     1      -9.976   8.769  67.968  1.00  0.00    -0.182 C  
HETATM   30  C   UNL     1      -9.908   7.852  66.740  1.00  0.00    -0.248 C  
HETATM   31  C   UNL     1     -10.141   9.116  65.904  1.00  0.00    -0.048 C  
HETATM   32  O   UNL     1      -8.654   7.154  66.529  1.00  0.00    -0.118 OA 
HETATM   33  H   UNL     1      -8.612   6.586  65.769  1.00  0.00     0.000 HD 
ENDBRANCH  24  28
ENDBRANCH   6  12
TORSDOF 2
ENDMDL
MODEL      102
REMARK 921   NORMALIZED FREE ENERGY PREDICTED BY IDOCK:   -4.72 KCAL/MOL
REMARK 922        TOTAL FREE ENERGY PREDICTED BY IDOCK:   -6.12 KCAL/MOL
REMARK 923 INTER-LIGAND FREE ENERGY PREDICTED BY IDOCK:   -6.47 KCAL/MOL
REMARK 924 INTRA-LIGAND FREE ENERGY PREDICTED BY IDOCK:    0.35 KCAL/MOL
REMARK 927      BINDING AFFINITY PREDICTED BY RF-SCORE:    0.00 PKD
ROOT
HETATM    1  N   UNL     1     -13.057  12.909  71.742  1.00  0.00    -0.394 NA 
HETATM    2  H1  UNL     1     -13.319  12.302  72.518  1.00  0.00     0.000 HD 
HETATM    3  C   UNL     1     -12.386  12.305  70.677  1.00  0.00    -0.286 A  
HETATM    4  H2  UNL     1     -13.882  13.398  71.395  1.00  0.00     0.000 HD 
HETATM    5  N   UNL     1     -12.039  13.110  69.648  1.00  0.00    -0.287 NA 
HETATM    6  C   UNL     1     -11.263  12.611  68.644  1.00  0.00    -0.282 A  
HETATM    7  F   UNL     1     -12.455  10.173  71.734  1.00  0.00    -0.432 F  
HETATM    8  C   UNL     1     -10.950  11.232  68.636  1.00  0.00    -0.218 A  
HETATM    9  C   UNL     1     -12.102  10.942  70.693  1.00  0.00    -0.371 A  
HETATM   10  F   UNL     1     -10.167  10.683  67.696  1.00  0.00    -0.193 F  
HETATM   11  C   UNL     1     -11.392  10.389  69.648  1.00  0.00    -0.333 A  
ENDROOT
BRANCH   6  12
HETATM   12  N   UNL     1     -10.747  13.516  67.627  1.00  0.00    -0.246 NA 
HETATM   13  C   UNL     1     -11.410  14.944  65.724  1.00  0.00    -0.314 C  
HETATM   14  C   UNL     1     -12.425  15.214  64.687  1.00  0.00    -0.050 C  
HETATM   15  C   UNL     1     -10.177  15.718  65.864  1.00  0.00    -0.355 C  
HETATM   16  C   UNL     1     -11.610  13.959  66.612  1.00  0.00    -0.374 C  
HETATM   17  O   UNL     1     -13.484  14.600  64.606  1.00  0.00     0.327 OA 
HETATM   18  O   UNL     1      -9.933  16.638  65.086  1.00  0.00    -0.473 OA 
HETATM   19  C   UNL     1      -9.241  15.349  66.946  1.00  0.00    -0.254 A  
HETATM   20  O   UNL     1     -12.091  16.179  63.800  1.00  0.00    -0.946 OA 
HETATM   21  C   UNL     1      -8.103  16.141  67.094  1.00  0.00    -0.223 A  
HETATM   22  C   UNL     1      -7.171  15.823  68.066  1.00  0.00    -0.130 A  
HETATM   23  F   UNL     1      -6.116  16.641  68.190  1.00  0.00    -0.114 F  
HETATM   24  C   UNL     1      -7.277  14.662  68.848  1.00  0.00    -0.124 A  
HETATM   25  C   UNL     1      -8.373  13.797  68.564  1.00  0.00    -0.120 A  
HETATM   26 CL   UNL     1      -8.147  12.087  68.897  1.00  0.00     0.023 Cl 
HETATM   27  C   UNL     1      -9.466  14.201  67.738  1.00  0.00    -0.207 A  
BRANCH  24  28
HETATM   28  N   UNL     1      -6.287  14.396  69.833  1.00  0.00    -0.146 NA 
HETATM   29  C   UNL     1      -6.073  13.249  70.664  1.00  0.00     0.007 C  
HETATM   30  C   UNL     1      -5.678  14.191  71.810  1.00  0.00    -0.173 C  
HETATM   31  C   UNL     1      -5.678  15.309  70.761  1.00  0.00    -0.042 C  
HETATM   32  O   UNL     1      -6.632  14.315  72.894  1.00  0.00     0.261 OA 
HETATM   33  H   UNL     1      -6.388  14.898  73.603  1.00  0.00     0.000 HD 
ENDBRANCH  24  28
ENDBRANCH   6  12
TORSDOF 2
ENDMDL
MODEL      103
REMARK 921   NORMALIZED FREE ENERGY PREDICTED BY IDOCK:   -4.63 KCAL/MOL
REMARK 922        TOTAL FREE ENERGY PREDICTED BY IDOCK:   -6.01 KCAL/MOL
REMARK 923 INTER-LIGAND FREE ENERGY PREDICTED BY IDOCK:   -5.65 KCAL/MOL
REMARK 924 INTRA-LIGAND FREE ENERGY PREDICTED BY IDOCK:   -0.36 KCAL/MOL
REMARK 927      BINDING AFFINITY PREDICTED BY RF-SCORE:    0.00 PKD
ROOT
HETATM    1  N   UNL     1      -8.665   3.646  67.487  1.00  0.00    -0.101 NA 
HETATM    2  H1  UNL     1      -8.068   2.860  67.231  1.00  0.00     0.000 HD 
HETATM    3  C   UNL     1      -8.132   4.923  67.292  1.00  0.00    -0.106 A  
HETATM    4  H2  UNL     1      -9.559   3.570  67.002  1.00  0.00     0.000 HD 
HETATM    5  N   UNL     1      -8.924   5.965  67.631  1.00  0.00    -0.109 NA 
HETATM    6  C   UNL     1      -8.413   7.229  67.595  1.00  0.00    -0.116 A  
HETATM    7  F   UNL     1      -6.089   4.033  66.456  1.00  0.00    -0.027 F  
HETATM    8  C   UNL     1      -7.111   7.431  67.082  1.00  0.00    -0.084 A  
HETATM    9  C   UNL     1      -6.851   5.090  66.774  1.00  0.00    -0.063 A  
HETATM   10  F   UNL     1      -6.538   8.643  67.047  1.00  0.00    -0.055 F  
HETATM   11  C   UNL     1      -6.337   6.363  66.645  1.00  0.00    -0.042 A  
ENDROOT
BRANCH   6  12
HETATM   12  N   UNL     1      -9.206   8.331  68.121  1.00  0.00    -0.134 NA 
HETATM   13  C   UNL     1     -10.600  10.260  67.461  1.00  0.00    -0.320 C  
HETATM   14  C   UNL     1     -10.926  11.234  66.401  1.00  0.00    -0.227 C  
HETATM   15  C   UNL     1     -11.243  10.255  68.776  1.00  0.00    -0.206 C  
HETATM   16  C   UNL     1      -9.688   9.304  67.231  1.00  0.00    -0.167 C  
HETATM   17  O   UNL     1     -10.427  11.202  65.281  1.00  0.00    -0.267 OA 
HETATM   18  O   UNL     1     -12.091  11.101  69.051  1.00  0.00    -0.416 OA 
HETATM   19  C   UNL     1     -10.830   9.225  69.750  1.00  0.00    -0.239 A  
HETATM   20  O   UNL     1     -11.804  12.196  66.762  1.00  0.00    -0.561 OA 
HETATM   21  C   UNL     1     -11.500   9.207  70.973  1.00  0.00    -0.372 A  
HETATM   22  C   UNL     1     -11.133   8.288  71.940  1.00  0.00    -0.292 A  
HETATM   23  F   UNL     1     -11.838   8.289  73.081  1.00  0.00    -0.398 F  
HETATM   24  C   UNL     1     -10.030   7.435  71.776  1.00  0.00    -0.171 A  
HETATM   25  C   UNL     1      -9.275   7.588  70.577  1.00  0.00    -0.157 A  
HETATM   26 CL   UNL     1      -7.570   7.174  70.650  1.00  0.00    -0.091 Cl 
HETATM   27  C   UNL     1      -9.753   8.354  69.471  1.00  0.00    -0.177 A  
BRANCH  24  28
HETATM   28  N   UNL     1      -9.708   6.511  72.808  1.00  0.00    -0.157 NA 
HETATM   29  C   UNL     1      -8.498   5.799  73.086  1.00  0.00    -0.117 C  
HETATM   30  C   UNL     1      -9.342   4.583  73.492  1.00  0.00    -0.117 C  
HETATM   31  C   UNL     1     -10.552   5.522  73.420  1.00  0.00    -0.258 C  
HETATM   32  O   UNL     1      -9.334   3.462  72.573  1.00  0.00    -0.101 OA 
HETATM   33  H   UNL     1      -9.857   2.709  72.824  1.00  0.00     0.000 HD 
ENDBRANCH  24  28
ENDBRANCH   6  12
TORSDOF 2
ENDMDL
MODEL      104
REMARK 921   NORMALIZED FREE ENERGY PREDICTED BY IDOCK:   -4.62 KCAL/MOL
REMARK 922        TOTAL FREE ENERGY PREDICTED BY IDOCK:   -6.00 KCAL/MOL
REMARK 923 INTER-LIGAND FREE ENERGY PREDICTED BY IDOCK:   -5.09 KCAL/MOL
REMARK 924 INTRA-LIGAND FREE ENERGY PREDICTED BY IDOCK:   -0.91 KCAL/MOL
REMARK 927      BINDING AFFINITY PREDICTED BY RF-SCORE:    0.00 PKD
ROOT
HETATM    1  N   UNL     1     -10.740   5.070  66.802  1.00  0.00    -0.324 NA 
HETATM    2  H1  UNL     1     -10.850   4.225  66.241  1.00  0.00     0.000 HD 
HETATM    3  C   UNL     1      -9.685   5.917  66.454  1.00  0.00    -0.134 A  
HETATM    4  H2  UNL     1     -11.615   5.595  66.806  1.00  0.00     0.000 HD 
HETATM    5  N   UNL     1      -9.540   7.036  67.199  1.00  0.00    -0.142 NA 
HETATM    6  C   UNL     1      -8.451   7.832  66.999  1.00  0.00    -0.124 A  
HETATM    7  F   UNL     1      -9.008   4.482  64.680  1.00  0.00    -0.133 F  
HETATM    8  C   UNL     1      -7.569   7.539  65.934  1.00  0.00    -0.088 A  
HETATM    9  C   UNL     1      -8.841   5.606  65.392  1.00  0.00    -0.106 A  
HETATM   10  F   UNL     1      -6.464   8.261  65.702  1.00  0.00    -0.049 F  
HETATM   11  C   UNL     1      -7.778   6.438  65.111  1.00  0.00    -0.100 A  
ENDROOT
BRANCH   6  12
HETATM   12  N   UNL     1      -8.205   8.940  67.910  1.00  0.00    -0.110 NA 
HETATM   13  C   UNL     1      -6.926   9.612  69.913  1.00  0.00    -0.081 C  
HETATM   14  C   UNL     1      -6.208   9.159  71.121  1.00  0.00    -0.070 C  
HETATM   15  C   UNL     1      -7.088  11.021  69.554  1.00  0.00    -0.113 C  
HETATM   16  C   UNL     1      -7.448   8.710  69.070  1.00  0.00    -0.089 C  
HETATM   17  O   UNL     1      -6.025   7.976  71.391  1.00  0.00    -0.034 OA 
HETATM   18  O   UNL     1      -6.629  11.900  70.281  1.00  0.00    -0.082 OA 
HETATM   19  C   UNL     1      -7.825  11.345  68.317  1.00  0.00    -0.132 A  
HETATM   20  O   UNL     1      -5.785  10.150  71.938  1.00  0.00    -0.291 OA 
HETATM   21  C   UNL     1      -7.914  12.692  67.968  1.00  0.00    -0.155 A  
HETATM   22  C   UNL     1      -8.623  13.060  66.839  1.00  0.00    -0.119 A  
HETATM   23  F   UNL     1      -8.642  14.365  66.529  1.00  0.00    -0.220 F  
HETATM   24  C   UNL     1      -9.353  12.131  66.081  1.00  0.00    -0.195 A  
HETATM   25  C   UNL     1      -9.364  10.787  66.556  1.00  0.00    -0.168 A  
HETATM   26 CL   UNL     1     -10.779   9.819  66.174  1.00  0.00    -0.009 Cl 
HETATM   27  C   UNL     1      -8.469  10.332  67.571  1.00  0.00    -0.118 A  
BRANCH  24  28
HETATM   28  N   UNL     1     -10.058  12.575  64.929  1.00  0.00    -0.257 NA 
HETATM   29  C   UNL     1     -11.272  13.324  64.801  1.00  0.00    -0.331 C  
HETATM   30  C   UNL     1     -11.645  12.454  63.593  1.00  0.00    -0.499 C  
HETATM   31  C   UNL     1     -10.212  11.912  63.663  1.00  0.00    -0.438 C  
HETATM   32  O   UNL     1     -12.714  11.496  63.799  1.00  0.00    -0.375 OA 
HETATM   33  H   UNL     1     -12.945  10.957  63.051  1.00  0.00     0.000 HD 
ENDBRANCH  24  28
ENDBRANCH   6  12
TORSDOF 2
ENDMDL
MODEL      105
REMARK 921   NORMALIZED FREE ENERGY PREDICTED BY IDOCK:   -4.51 KCAL/MOL
REMARK 922        TOTAL FREE ENERGY PREDICTED BY IDOCK:   -5.88 KCAL/MOL
REMARK 923 INTER-LIGAND FREE ENERGY PREDICTED BY IDOCK:   -4.85 KCAL/MOL
REMARK 924 INTRA-LIGAND FREE ENERGY PREDICTED BY IDOCK:   -1.03 KCAL/MOL
REMARK 927      BINDING AFFINITY PREDICTED BY RF-SCORE:    0.00 PKD
ROOT
HETATM    1  N   UNL     1     -12.384   9.202  70.880  1.00  0.00    -0.472 NA 
HETATM    2  H1  UNL     1     -12.768   9.520  71.769  1.00  0.00     0.000 HD 
HETATM    3  C   UNL     1     -11.424   8.190  70.943  1.00  0.00    -0.271 A  
HETATM    4  H2  UNL     1     -13.142   8.918  70.260  1.00  0.00     0.000 HD 
HETATM    5  N   UNL     1     -10.914   7.768  69.763  1.00  0.00    -0.206 NA 
HETATM    6  C   UNL     1      -9.877   6.883  69.764  1.00  0.00    -0.171 A  
HETATM    7  F   UNL     1     -11.549   8.104  73.318  1.00  0.00    -0.380 F  
HETATM    8  C   UNL     1      -9.446   6.328  70.992  1.00  0.00    -0.175 A  
HETATM    9  C   UNL     1     -11.028   7.656  72.166  1.00  0.00    -0.257 A  
HETATM   10  F   UNL     1      -8.413   5.477  71.067  1.00  0.00    -0.115 F  
HETATM   11  C   UNL     1     -10.040   6.695  72.193  1.00  0.00    -0.194 A  
ENDROOT
BRANCH   6  12
HETATM   12  N   UNL     1      -9.217   6.560  68.508  1.00  0.00    -0.127 NA 
HETATM   13  C   UNL     1      -9.054   4.845  66.738  1.00  0.00    -0.118 C  
HETATM   14  C   UNL     1      -9.256   3.427  66.380  1.00  0.00    -0.163 C  
HETATM   15  C   UNL     1      -8.528   5.843  65.807  1.00  0.00    -0.148 C  
HETATM   16  C   UNL     1      -9.382   5.276  67.965  1.00  0.00    -0.117 C  
HETATM   17  O   UNL     1      -9.749   2.603  67.144  1.00  0.00     0.042 OA 
HETATM   18  O   UNL     1      -8.212   5.517  64.666  1.00  0.00    -0.122 OA 
HETATM   19  C   UNL     1      -8.376   7.232  66.287  1.00  0.00    -0.129 A  
HETATM   20  O   UNL     1      -8.825   3.085  65.145  1.00  0.00    -0.116 OA 
HETATM   21  C   UNL     1      -7.928   8.174  65.362  1.00  0.00    -0.126 A  
HETATM   22  C   UNL     1      -7.732   9.484  65.762  1.00  0.00    -0.100 A  
HETATM   23  F   UNL     1      -7.339  10.357  64.821  1.00  0.00    -0.140 F  
HETATM   24  C   UNL     1      -7.867   9.883  67.101  1.00  0.00    -0.099 A  
HETATM   25  C   UNL     1      -8.176   8.860  68.044  1.00  0.00    -0.110 A  
HETATM   26 CL   UNL     1      -7.609   9.096  69.690  1.00  0.00    -0.075 Cl 
HETATM   27  C   UNL     1      -8.607   7.560  67.642  1.00  0.00    -0.119 A  
BRANCH  24  28
HETATM   28  N   UNL     1      -7.654  11.246  67.445  1.00  0.00    -0.113 NA 
HETATM   29  C   UNL     1      -6.445  11.981  67.668  1.00  0.00    -0.108 C  
HETATM   30  C   UNL     1      -7.150  12.736  68.803  1.00  0.00    -0.089 C  
HETATM   31  C   UNL     1      -8.446  12.088  68.299  1.00  0.00    -0.167 C  
HETATM   32  O   UNL     1      -6.736  12.398  70.151  1.00  0.00    -0.364 OA 
HETATM   33  H   UNL     1      -7.173  12.865  70.854  1.00  0.00     0.000 HD 
ENDBRANCH  24  28
ENDBRANCH   6  12
TORSDOF 2
ENDMDL
MODEL      106
REMARK 921   NORMALIZED FREE ENERGY PREDICTED BY IDOCK:   -4.49 KCAL/MOL
REMARK 922        TOTAL FREE ENERGY PREDICTED BY IDOCK:   -5.85 KCAL/MOL
REMARK 923 INTER-LIGAND FREE ENERGY PREDICTED BY IDOCK:   -4.80 KCAL/MOL
REMARK 924 INTRA-LIGAND FREE ENERGY PREDICTED BY IDOCK:   -1.05 KCAL/MOL
REMARK 927      BINDING AFFINITY PREDICTED BY RF-SCORE:    0.00 PKD
ROOT
HETATM    1  N   UNL     1     -12.678   7.469  72.150  1.00  0.00    -0.494 NA 
HETATM    2  H1  UNL     1     -13.208   7.062  72.921  1.00  0.00     0.000 HD 
HETATM    3  C   UNL     1     -11.569   6.745  71.705  1.00  0.00    -0.297 A  
HETATM    4  H2  UNL     1     -13.302   7.658  71.366  1.00  0.00     0.000 HD 
HETATM    5  N   UNL     1     -10.867   7.285  70.684  1.00  0.00    -0.236 NA 
HETATM    6  C   UNL     1      -9.698   6.698  70.296  1.00  0.00    -0.171 A  
HETATM    7  F   UNL     1     -11.941   5.029  73.312  1.00  0.00    -0.376 F  
HETATM    8  C   UNL     1      -9.316   5.470  70.882  1.00  0.00    -0.156 A  
HETATM    9  C   UNL     1     -11.226   5.531  72.295  1.00  0.00    -0.220 A  
HETATM   10  F   UNL     1      -8.166   4.856  70.569  1.00  0.00    -0.086 F  
HETATM   11  C   UNL     1     -10.095   4.870  71.865  1.00  0.00    -0.262 A  
ENDROOT
BRANCH   6  12
HETATM   12  N   UNL     1      -8.857   7.370  69.316  1.00  0.00    -0.137 NA 
HETATM   13  C   UNL     1      -7.068   9.054  69.063  1.00  0.00    -0.064 C  
HETATM   14  C   UNL     1      -6.387  10.222  69.657  1.00  0.00    -0.062 C  
HETATM   15  C   UNL     1      -6.705   8.485  67.765  1.00  0.00    -0.066 C  
HETATM   16  C   UNL     1      -8.060   8.448  69.732  1.00  0.00    -0.117 C  
HETATM   17  O   UNL     1      -6.656  10.663  70.770  1.00  0.00    -0.343 OA 
HETATM   18  O   UNL     1      -5.802   8.989  67.101  1.00  0.00    -0.045 OA 
HETATM   19  C   UNL     1      -7.462   7.313  67.281  1.00  0.00    -0.099 A  
HETATM   20  O   UNL     1      -5.454  10.799  68.868  1.00  0.00    -0.041 OA 
HETATM   21  C   UNL     1      -7.056   6.755  66.069  1.00  0.00    -0.069 A  
HETATM   22  C   UNL     1      -7.749   5.677  65.547  1.00  0.00    -0.089 A  
HETATM   23  F   UNL     1      -7.291   5.155  64.400  1.00  0.00    -0.054 F  
HETATM   24  C   UNL     1      -8.921   5.185  66.143  1.00  0.00    -0.135 A  
HETATM   25  C   UNL     1      -9.392   5.878  67.297  1.00  0.00    -0.113 A  
HETATM   26 CL   UNL     1     -11.122   5.847  67.595  1.00  0.00    -0.240 Cl 
HETATM   27  C   UNL     1      -8.589   6.836  67.988  1.00  0.00    -0.122 A  
BRANCH  24  28
HETATM   28  N   UNL     1      -9.584   4.072  65.558  1.00  0.00    -0.177 NA 
HETATM   29  C   UNL     1      -9.217   2.690  65.490  1.00  0.00    -0.099 C  
HETATM   30  C   UNL     1      -9.789   2.639  64.066  1.00  0.00    -0.145 C  
HETATM   31  C   UNL     1     -10.370   4.029  64.355  1.00  0.00    -0.201 C  
HETATM   32  O   UNL     1      -8.823   2.549  62.990  1.00  0.00    -0.085 OA 
HETATM   33  H   UNL     1      -9.177   2.518  62.109  1.00  0.00     0.000 HD 
ENDBRANCH  24  28
ENDBRANCH   6  12
TORSDOF 2
ENDMDL
MODEL      107
REMARK 921   NORMALIZED FREE ENERGY PREDICTED BY IDOCK:   -4.44 KCAL/MOL
REMARK 922        TOTAL FREE ENERGY PREDICTED BY IDOCK:   -5.79 KCAL/MOL
REMARK 923 INTER-LIGAND FREE ENERGY PREDICTED BY IDOCK:   -4.81 KCAL/MOL
REMARK 924 INTRA-LIGAND FREE ENERGY PREDICTED BY IDOCK:   -0.98 KCAL/MOL
REMARK 927      BINDING AFFINITY PREDICTED BY RF-SCORE:    0.00 PKD
ROOT
HETATM    1  N   UNL     1      -7.639  13.674  68.202  1.00  0.00    -0.122 NA 
HETATM    2  H1  UNL     1      -7.528  14.582  67.750  1.00  0.00     0.000 HD 
HETATM    3  C   UNL     1      -8.499  12.768  67.575  1.00  0.00    -0.181 A  
HETATM    4  H2  UNL     1      -6.725  13.243  68.336  1.00  0.00     0.000 HD 
HETATM    5  N   UNL     1      -8.647  11.565  68.174  1.00  0.00    -0.149 NA 
HETATM    6  C   UNL     1      -9.574  10.690  67.690  1.00  0.00    -0.161 A  
HETATM    7  F   UNL     1      -8.993  14.313  65.834  1.00  0.00    -0.123 F  
HETATM    8  C   UNL     1     -10.266  11.008  66.498  1.00  0.00    -0.234 A  
HETATM    9  C   UNL     1      -9.157  13.107  66.396  1.00  0.00    -0.056 A  
HETATM   10  F   UNL     1     -11.211  10.208  65.986  1.00  0.00     0.100 F  
HETATM   11  C   UNL     1     -10.038  12.208  65.834  1.00  0.00    -0.270 A  
ENDROOT
BRANCH   6  12
HETATM   12  N   UNL     1      -9.854   9.469  68.432  1.00  0.00    -0.154 NA 
HETATM   13  C   UNL     1     -11.213   8.535  70.270  1.00  0.00    -0.185 C  
HETATM   14  C   UNL     1     -11.983   8.822  71.497  1.00  0.00    -0.324 C  
HETATM   15  C   UNL     1     -11.031   7.187  69.731  1.00  0.00    -0.231 C  
HETATM   16  C   UNL     1     -10.660   9.542  69.579  1.00  0.00    -0.221 C  
HETATM   17  O   UNL     1     -12.182   9.958  71.916  1.00  0.00    -0.372 OA 
HETATM   18  O   UNL     1     -11.516   6.219  70.313  1.00  0.00    -0.378 OA 
HETATM   19  C   UNL     1     -10.241   7.033  68.493  1.00  0.00    -0.183 A  
HETATM   20  O   UNL     1     -12.435   7.731  72.154  1.00  0.00    -0.296 OA 
HETATM   21  C   UNL     1     -10.133   5.744  67.970  1.00  0.00    -0.198 A  
HETATM   22  C   UNL     1      -9.376   5.531  66.832  1.00  0.00    -0.127 A  
HETATM   23  F   UNL     1      -9.339   4.280  66.349  1.00  0.00    -0.128 F  
HETATM   24  C   UNL     1      -8.618   6.553  66.238  1.00  0.00    -0.141 A  
HETATM   25  C   UNL     1      -8.632   7.820  66.890  1.00  0.00    -0.130 A  
HETATM   26 CL   UNL     1      -7.206   8.829  66.703  1.00  0.00    -0.080 Cl 
HETATM   27  C   UNL     1      -9.570   8.135  67.919  1.00  0.00    -0.155 A  
BRANCH  24  28
HETATM   28  N   UNL     1      -7.864   6.268  65.067  1.00  0.00    -0.105 NA 
HETATM   29  C   UNL     1      -8.263   5.735  63.799  1.00  0.00    -0.074 C  
HETATM   30  C   UNL     1      -6.951   4.940  63.754  1.00  0.00    -0.048 C  
HETATM   31  C   UNL     1      -6.518   5.773  64.967  1.00  0.00    -0.042 C  
HETATM   32  O   UNL     1      -7.061   3.509  63.955  1.00  0.00    -0.048 OA 
HETATM   33  H   UNL     1      -6.248   3.017  63.927  1.00  0.00     0.000 HD 
ENDBRANCH  24  28
ENDBRANCH   6  12
TORSDOF 2
ENDMDL
MODEL      108
REMARK 921   NORMALIZED FREE ENERGY PREDICTED BY IDOCK:   -4.41 KCAL/MOL
REMARK 922        TOTAL FREE ENERGY PREDICTED BY IDOCK:   -5.76 KCAL/MOL
REMARK 923 INTER-LIGAND FREE ENERGY PREDICTED BY IDOCK:   -4.78 KCAL/MOL
REMARK 924 INTRA-LIGAND FREE ENERGY PREDICTED BY IDOCK:   -0.98 KCAL/MOL
REMARK 927      BINDING AFFINITY PREDICTED BY RF-SCORE:    0.00 PKD
ROOT
HETATM    1  N   UNL     1     -11.368  10.738  67.484  1.00  0.00    -0.456 NA 
HETATM    2  H1  UNL     1     -11.387  11.547  66.863  1.00  0.00     0.000 HD 
HETATM    3  C   UNL     1     -10.130  10.413  68.044  1.00  0.00    -0.163 A  
HETATM    4  H2  UNL     1     -12.059  10.857  68.224  1.00  0.00     0.000 HD 
HETATM    5  N   UNL     1     -10.104   9.340  68.867  1.00  0.00    -0.189 NA 
HETATM    6  C   UNL     1      -8.905   8.889  69.335  1.00  0.00    -0.143 A  
HETATM    7  F   UNL     1      -9.057  12.222  66.930  1.00  0.00    -0.181 F  
HETATM    8  C   UNL     1      -7.733   9.629  69.055  1.00  0.00    -0.078 A  
HETATM    9  C   UNL     1      -8.996  11.169  67.758  1.00  0.00    -0.139 A  
HETATM   10  F   UNL     1      -6.520   9.225  69.458  1.00  0.00    -0.041 F  
HETATM   11  C   UNL     1      -7.781  10.787  68.287  1.00  0.00    -0.109 A  
ENDROOT
BRANCH   6  12
HETATM   12  N   UNL     1      -8.858   7.639  70.079  1.00  0.00    -0.142 NA 
HETATM   13  C   UNL     1      -9.140   6.659  72.328  1.00  0.00    -0.138 C  
HETATM   14  C   UNL     1      -9.138   6.905  73.784  1.00  0.00    -0.168 C  
HETATM   15  C   UNL     1      -9.371   5.342  71.735  1.00  0.00    -0.146 C  
HETATM   16  C   UNL     1      -8.945   7.679  71.479  1.00  0.00    -0.131 C  
HETATM   17  O   UNL     1      -9.000   8.019  74.278  1.00  0.00    -0.136 OA 
HETATM   18  O   UNL     1      -9.560   4.365  72.455  1.00  0.00    -0.136 OA 
HETATM   19  C   UNL     1      -9.350   5.227  70.263  1.00  0.00    -0.207 A  
HETATM   20  O   UNL     1      -9.271   5.798  74.549  1.00  0.00    -0.125 OA 
HETATM   21  C   UNL     1      -9.631   3.973  69.722  1.00  0.00    -0.280 A  
HETATM   22  C   UNL     1      -9.592   3.795  68.351  1.00  0.00    -0.105 A  
HETATM   23  F   UNL     1      -9.910   2.578  67.884  1.00  0.00    -0.224 F  
HETATM   24  C   UNL     1      -9.172   4.812  67.479  1.00  0.00    -0.127 A  
HETATM   25  C   UNL     1      -8.745   6.033  68.079  1.00  0.00    -0.112 A  
HETATM   26 CL   UNL     1      -7.546   6.974  67.206  1.00  0.00    -0.105 Cl 
HETATM   27  C   UNL     1      -8.988   6.329  69.455  1.00  0.00    -0.134 A  
BRANCH  24  28
HETATM   28  N   UNL     1      -9.157   4.565  66.079  1.00  0.00    -0.124 NA 
HETATM   29  C   UNL     1     -10.228   4.398  65.144  1.00  0.00    -0.179 C  
HETATM   30  C   UNL     1      -9.401   3.315  64.437  1.00  0.00    -0.140 C  
HETATM   31  C   UNL     1      -8.232   3.769  65.320  1.00  0.00    -0.097 C  
HETATM   32  O   UNL     1      -9.854   1.949  64.609  1.00  0.00    -0.320 OA 
HETATM   33  H   UNL     1      -9.342   1.279  64.171  1.00  0.00     0.000 HD 
ENDBRANCH  24  28
ENDBRANCH   6  12
TORSDOF 2
ENDMDL
MODEL      109
REMARK 921   NORMALIZED FREE ENERGY PREDICTED BY IDOCK:   -4.37 KCAL/MOL
REMARK 922        TOTAL FREE ENERGY PREDICTED BY IDOCK:   -5.72 KCAL/MOL
REMARK 923 INTER-LIGAND FREE ENERGY PREDICTED BY IDOCK:   -7.02 KCAL/MOL
REMARK 924 INTRA-LIGAND FREE ENERGY PREDICTED BY IDOCK:    1.30 KCAL/MOL
REMARK 927      BINDING AFFINITY PREDICTED BY RF-SCORE:    0.00 PKD
ROOT
HETATM    1  N   UNL     1     -13.272  11.631  71.009  1.00  0.00     0.036 NA 
HETATM    2  H1  UNL     1     -13.949  11.420  71.743  1.00  0.00     0.000 HD 
HETATM    3  C   UNL     1     -12.721  12.915  71.020  1.00  0.00    -0.251 A  
HETATM    4  H2  UNL     1     -12.526  10.937  71.020  1.00  0.00     0.000 HD 
HETATM    5  N   UNL     1     -11.825  13.194  70.047  1.00  0.00    -0.315 NA 
HETATM    6  C   UNL     1     -11.356  14.468  69.920  1.00  0.00    -0.241 A  
HETATM    7  F   UNL     1     -13.986  13.532  72.939  1.00  0.00    -0.544 F  
HETATM    8  C   UNL     1     -11.716  15.435  70.887  1.00  0.00    -0.354 A  
HETATM    9  C   UNL     1     -13.088  13.841  71.993  1.00  0.00    -0.396 A  
HETATM   10  F   UNL     1     -11.316  16.712  70.804  1.00  0.00    -0.390 F  
HETATM   11  C   UNL     1     -12.563  15.115  71.942  1.00  0.00    -0.417 A  
ENDROOT
BRANCH   6  12
HETATM   12  N   UNL     1     -10.526  14.809  68.773  1.00  0.00    -0.243 NA 
HETATM   13  C   UNL     1      -9.779  16.689  67.358  1.00  0.00    -0.251 C  
HETATM   14  C   UNL     1     -10.063  18.058  66.883  1.00  0.00    -0.348 C  
HETATM   15  C   UNL     1      -8.617  15.912  66.925  1.00  0.00    -0.241 C  
HETATM   16  C   UNL     1     -10.596  16.109  68.248  1.00  0.00    -0.288 C  
HETATM   17  O   UNL     1     -11.006  18.729  67.289  1.00  0.00    -0.412 OA 
HETATM   18  O   UNL     1      -7.825  16.386  66.114  1.00  0.00    -0.261 OA 
HETATM   19  C   UNL     1      -8.443  14.553  67.476  1.00  0.00    -0.201 A  
HETATM   20  O   UNL     1      -9.218  18.519  65.934  1.00  0.00    -0.486 OA 
HETATM   21  C   UNL     1      -7.296  13.858  67.093  1.00  0.00     0.152 A  
HETATM   22  C   UNL     1      -7.096  12.567  67.548  1.00  0.00    -0.151 A  
HETATM   23  F   UNL     1      -5.957  11.960  67.180  1.00  0.00    -0.091 F  
HETATM   24  C   UNL     1      -8.062  11.884  68.303  1.00  0.00    -0.154 A  
HETATM   25  C   UNL     1      -9.287  12.572  68.546  1.00  0.00    -0.082 A  
HETATM   26 CL   UNL     1     -10.726  11.588  68.756  1.00  0.00    -0.230 Cl 
HETATM   27  C   UNL     1      -9.436  13.970  68.294  1.00  0.00    -0.216 A  
BRANCH  24  28
HETATM   28  N   UNL     1      -7.792  10.560  68.743  1.00  0.00    -0.108 NA 
HETATM   29  C   UNL     1      -7.976   9.298  68.091  1.00  0.00    -0.099 C  
HETATM   30  C   UNL     1      -8.405   8.700  69.438  1.00  0.00    -0.114 C  
HETATM   31  C   UNL     1      -7.918  10.012  70.065  1.00  0.00    -0.150 C  
HETATM   32  O   UNL     1      -9.814   8.392  69.583  1.00  0.00    -0.179 OA 
HETATM   33  H   UNL     1     -10.079   8.022  70.418  1.00  0.00     0.000 HD 
ENDBRANCH  24  28
ENDBRANCH   6  12
TORSDOF 2
ENDMDL
MODEL      110
REMARK 921   NORMALIZED FREE ENERGY PREDICTED BY IDOCK:   -4.28 KCAL/MOL
REMARK 922        TOTAL FREE ENERGY PREDICTED BY IDOCK:   -5.62 KCAL/MOL
REMARK 923 INTER-LIGAND FREE ENERGY PREDICTED BY IDOCK:   -4.56 KCAL/MOL
REMARK 924 INTRA-LIGAND FREE ENERGY PREDICTED BY IDOCK:   -1.06 KCAL/MOL
REMARK 927      BINDING AFFINITY PREDICTED BY RF-SCORE:    0.00 PKD
ROOT
HETATM    1  N   UNL     1      -6.632   3.548  68.416  1.00  0.00    -0.040 NA 
HETATM    2  H1  UNL     1      -6.253   2.720  67.956  1.00  0.00     0.000 HD 
HETATM    3  C   UNL     1      -7.877   3.995  67.966  1.00  0.00    -0.077 A  
HETATM    4  H2  UNL     1      -6.666   3.397  69.424  1.00  0.00     0.000 HD 
HETATM    5  N   UNL     1      -8.380   5.093  68.574  1.00  0.00    -0.089 NA 
HETATM    6  C   UNL     1      -9.522   5.658  68.090  1.00  0.00    -0.110 A  
HETATM    7  F   UNL     1      -8.015   2.247  66.356  1.00  0.00    -0.072 F  
HETATM    8  C   UNL     1     -10.223   5.011  67.047  1.00  0.00    -0.208 A  
HETATM    9  C   UNL     1      -8.548   3.328  66.944  1.00  0.00    -0.115 A  
HETATM   10  F   UNL     1     -11.334   5.529  66.504  1.00  0.00    -0.196 F  
HETATM   11  C   UNL     1      -9.750   3.829  66.489  1.00  0.00    -0.147 A  
ENDROOT
BRANCH   6  12
HETATM   12  N   UNL     1      -9.970   6.932  68.634  1.00  0.00    -0.145 NA 
HETATM   13  C   UNL     1     -11.290   7.956  70.453  1.00  0.00    -0.201 C  
HETATM   14  C   UNL     1     -12.353   7.762  71.458  1.00  0.00    -0.320 C  
HETATM   15  C   UNL     1     -10.583   9.224  70.263  1.00  0.00    -0.235 C  
HETATM   16  C   UNL     1     -10.913   6.932  69.673  1.00  0.00    -0.259 C  
HETATM   17  O   UNL     1     -12.905   6.684  71.654  1.00  0.00    -0.323 OA 
HETATM   18  O   UNL     1     -10.876  10.202  70.947  1.00  0.00    -0.290 OA 
HETATM   19  C   UNL     1      -9.536   9.289  69.224  1.00  0.00    -0.160 A  
HETATM   20  O   UNL     1     -12.704   8.876  72.138  1.00  0.00    -0.358 OA 
HETATM   21  C   UNL     1      -8.838  10.491  69.105  1.00  0.00    -0.161 A  
HETATM   22  C   UNL     1      -7.870  10.624  68.126  1.00  0.00    -0.110 A  
HETATM   23  F   UNL     1      -7.203  11.787  68.082  1.00  0.00    -0.071 F  
HETATM   24  C   UNL     1      -7.633   9.624  67.170  1.00  0.00    -0.091 A  
HETATM   25  C   UNL     1      -8.471   8.472  67.229  1.00  0.00    -0.123 A  
HETATM   26 CL   UNL     1      -8.767   7.623  65.720  1.00  0.00    -0.168 Cl 
HETATM   27  C   UNL     1      -9.313   8.201  68.350  1.00  0.00    -0.135 A  
BRANCH  24  28
HETATM   28  N   UNL     1      -6.621   9.823  66.192  1.00  0.00    -0.078 NA 
HETATM   29  C   UNL     1      -6.695  10.319  64.850  1.00  0.00    -0.099 C  
HETATM   30  C   UNL     1      -5.632   9.289  64.444  1.00  0.00    -0.068 C  
HETATM   31  C   UNL     1      -5.447   9.031  65.944  1.00  0.00    -0.041 C  
HETATM   32  O   UNL     1      -6.095   8.172  63.644  1.00  0.00    -0.069 OA 
HETATM   33  H   UNL     1      -5.437   7.534  63.393  1.00  0.00     0.000 HD 
ENDBRANCH  24  28
ENDBRANCH   6  12
TORSDOF 2
ENDMDL
MODEL      111
REMARK 921   NORMALIZED FREE ENERGY PREDICTED BY IDOCK:   -4.24 KCAL/MOL
REMARK 922        TOTAL FREE ENERGY PREDICTED BY IDOCK:   -5.58 KCAL/MOL
REMARK 923 INTER-LIGAND FREE ENERGY PREDICTED BY IDOCK:   -7.71 KCAL/MOL
REMARK 924 INTRA-LIGAND FREE ENERGY PREDICTED BY IDOCK:    2.13 KCAL/MOL
REMARK 927      BINDING AFFINITY PREDICTED BY RF-SCORE:    0.00 PKD
ROOT
HETATM    1  N   UNL     1     -12.439  12.438  69.823  1.00  0.00     0.030 NA 
HETATM    2  H1  UNL     1     -12.939  12.783  70.642  1.00  0.00     0.000 HD 
HETATM    3  C   UNL     1     -11.942  11.135  69.899  1.00  0.00    -0.363 A  
HETATM    4  H2  UNL     1     -13.029  12.533  68.996  1.00  0.00     0.000 HD 
HETATM    5  N   UNL     1     -11.279  10.678  68.813  1.00  0.00    -0.262 NA 
HETATM    6  C   UNL     1     -10.653   9.469  68.875  1.00  0.00    -0.216 A  
HETATM    7  F   UNL     1     -12.789  10.852  72.105  1.00  0.00    -0.519 F  
HETATM    8  C   UNL     1     -10.820   8.664  70.026  1.00  0.00    -0.221 A  
HETATM    9  C   UNL     1     -12.133  10.364  71.043  1.00  0.00    -0.385 A  
HETATM   10  F   UNL     1     -10.207   7.480  70.165  1.00  0.00    -0.195 F  
HETATM   11  C   UNL     1     -11.583   9.101  71.102  1.00  0.00    -0.386 A  
ENDROOT
BRANCH   6  12
HETATM   12  N   UNL     1      -9.799   9.053  67.772  1.00  0.00    -0.160 NA 
HETATM   13  C   UNL     1      -8.608   7.116  66.808  1.00  0.00    -0.124 C  
HETATM   14  C   UNL     1      -8.020   5.786  67.062  1.00  0.00    -0.102 C  
HETATM   15  C   UNL     1      -8.576   7.774  65.502  1.00  0.00    -0.105 C  
HETATM   16  C   UNL     1      -9.230   7.770  67.800  1.00  0.00    -0.136 C  
HETATM   17  O   UNL     1      -8.096   5.211  68.143  1.00  0.00    -0.093 OA 
HETATM   18  O   UNL     1      -8.026   7.228  64.549  1.00  0.00    -0.128 OA 
HETATM   19  C   UNL     1      -9.204   9.105  65.377  1.00  0.00    -0.266 A  
HETATM   20  O   UNL     1      -7.354   5.248  66.015  1.00  0.00    -0.078 OA 
HETATM   21  C   UNL     1      -9.211   9.683  64.108  1.00  0.00    -0.218 A  
HETATM   22  C   UNL     1      -9.753  10.944  63.935  1.00  0.00    -0.303 A  
HETATM   23  F   UNL     1      -9.769  11.435  62.687  1.00  0.00    -0.328 F  
HETATM   24  C   UNL     1     -10.204  11.717  65.017  1.00  0.00    -0.275 A  
HETATM   25  C   UNL     1     -10.040  11.154  66.316  1.00  0.00    -0.232 A  
HETATM   26 CL   UNL     1      -9.840  12.278  67.652  1.00  0.00    -0.193 Cl 
HETATM   27  C   UNL     1      -9.703   9.780  66.513  1.00  0.00    -0.209 A  
BRANCH  24  28
HETATM   28  N   UNL     1     -10.754  13.004  64.770  1.00  0.00    -0.332 NA 
HETATM   29  C   UNL     1     -10.940  14.128  65.638  1.00  0.00    -0.308 C  
HETATM   30  C   UNL     1     -12.276  14.410  64.937  1.00  0.00    -0.433 C  
HETATM   31  C   UNL     1     -11.843  13.362  63.904  1.00  0.00    -0.439 C  
HETATM   32  O   UNL     1     -13.473  14.115  65.699  1.00  0.00    -0.725 OA 
HETATM   33  H   UNL     1     -14.301  14.289  65.265  1.00  0.00     0.000 HD 
ENDBRANCH  24  28
ENDBRANCH   6  12
TORSDOF 2
ENDMDL
MODEL      112
REMARK 921   NORMALIZED FREE ENERGY PREDICTED BY IDOCK:   -4.17 KCAL/MOL
REMARK 922        TOTAL FREE ENERGY PREDICTED BY IDOCK:   -5.50 KCAL/MOL
REMARK 923 INTER-LIGAND FREE ENERGY PREDICTED BY IDOCK:   -4.52 KCAL/MOL
REMARK 924 INTRA-LIGAND FREE ENERGY PREDICTED BY IDOCK:   -0.98 KCAL/MOL
REMARK 927      BINDING AFFINITY PREDICTED BY RF-SCORE:    0.00 PKD
ROOT
HETATM    1  N   UNL     1     -11.189  15.034  74.274  1.00  0.00     1.107 NA 
HETATM    2  H1  UNL     1     -11.577  15.373  75.155  1.00  0.00     0.000 HD 
HETATM    3  C   UNL     1     -11.984  15.204  73.138  1.00  0.00    -0.360 A  
HETATM    4  H2  UNL     1     -10.273  15.453  74.118  1.00  0.00     0.000 HD 
HETATM    5  N   UNL     1     -11.471  14.754  71.971  1.00  0.00    -0.135 NA 
HETATM    6  C   UNL     1     -12.251  14.764  70.852  1.00  0.00    -0.318 A  
HETATM    7  F   UNL     1     -13.717  16.236  74.401  1.00  0.00     0.389 F  
HETATM    8  C   UNL     1     -13.530  15.364  70.910  1.00  0.00    -0.367 A  
HETATM    9  C   UNL     1     -13.235  15.809  73.225  1.00  0.00    -0.581 A  
HETATM   10  F   UNL     1     -14.359  15.380  69.856  1.00  0.00     1.028 F  
HETATM   11  C   UNL     1     -14.014  15.912  72.092  1.00  0.00    -0.234 A  
ENDROOT
BRANCH   6  12
HETATM   12  N   UNL     1     -11.762  14.126  69.639  1.00  0.00    -0.297 NA 
HETATM   13  C   UNL     1     -10.735  14.575  67.439  1.00  0.00    -0.282 C  
HETATM   14  C   UNL     1     -10.507  15.567  66.369  1.00  0.00    -0.306 C  
HETATM   15  C   UNL     1     -10.246  13.198  67.376  1.00  0.00    -0.232 C  
HETATM   16  C   UNL     1     -11.401  14.930  68.547  1.00  0.00    -0.298 C  
HETATM   17  O   UNL     1     -10.869  16.737  66.448  1.00  0.00    -0.157 OA 
HETATM   18  O   UNL     1      -9.624  12.808  66.391  1.00  0.00    -0.251 OA 
HETATM   19  C   UNL     1     -10.537  12.302  68.513  1.00  0.00    -0.254 A  
HETATM   20  O   UNL     1      -9.889  15.085  65.267  1.00  0.00    -0.323 OA 
HETATM   21  C   UNL     1     -10.009  11.013  68.454  1.00  0.00    -0.194 A  
HETATM   22  C   UNL     1     -10.278  10.117  69.473  1.00  0.00    -0.236 A  
HETATM   23  F   UNL     1      -9.712   8.904  69.385  1.00  0.00    -0.160 F  
HETATM   24  C   UNL     1     -11.158  10.424  70.523  1.00  0.00    -0.265 A  
HETATM   25  C   UNL     1     -11.798  11.697  70.469  1.00  0.00    -0.231 A  
HETATM   26 CL   UNL     1     -13.380  11.826  71.222  1.00  0.00    -0.054 Cl 
HETATM   27  C   UNL     1     -11.375  12.723  69.570  1.00  0.00    -0.154 A  
BRANCH  24  28
HETATM   28  N   UNL     1     -11.389   9.459  71.541  1.00  0.00    -0.379 NA 
HETATM   29  C   UNL     1     -10.484   8.809  72.442  1.00  0.00    -0.150 C  
HETATM   30  C   UNL     1     -11.299   7.519  72.280  1.00  0.00    -0.292 C  
HETATM   31  C   UNL     1     -12.339   8.382  71.555  1.00  0.00    -0.309 C  
HETATM   32  O   UNL     1     -10.678   6.461  71.507  1.00  0.00    -0.225 OA 
HETATM   33  H   UNL     1     -11.183   5.662  71.407  1.00  0.00     0.000 HD 
ENDBRANCH  24  28
ENDBRANCH   6  12
TORSDOF 2
ENDMDL
MODEL      113
REMARK 921   NORMALIZED FREE ENERGY PREDICTED BY IDOCK:   -4.10 KCAL/MOL
REMARK 922        TOTAL FREE ENERGY PREDICTED BY IDOCK:   -5.42 KCAL/MOL
REMARK 923 INTER-LIGAND FREE ENERGY PREDICTED BY IDOCK:   -4.36 KCAL/MOL
REMARK 924 INTRA-LIGAND FREE ENERGY PREDICTED BY IDOCK:   -1.06 KCAL/MOL
REMARK 927      BINDING AFFINITY PREDICTED BY RF-SCORE:    0.00 PKD
ROOT
HETATM    1  N   UNL     1      -6.893  14.589  69.062  1.00  0.00    -0.103 NA 
HETATM    2  H1  UNL     1      -7.112  15.582  68.985  1.00  0.00     0.000 HD 
HETATM    3  C   UNL     1      -7.843  13.700  68.554  1.00  0.00    -0.131 A  
HETATM    4  H2  UNL     1      -5.986  14.403  68.634  1.00  0.00     0.000 HD 
HETATM    5  N   UNL     1      -7.553  12.384  68.656  1.00  0.00    -0.108 NA 
HETATM    6  C   UNL     1      -8.497  11.464  68.305  1.00  0.00    -0.154 A  
HETATM    7  F   UNL     1      -9.279  15.481  67.897  1.00  0.00    -0.182 F  
HETATM    8  C   UNL     1      -9.707  11.907  67.722  1.00  0.00    -0.189 A  
HETATM    9  C   UNL     1      -9.020  14.168  67.974  1.00  0.00    -0.183 A  
HETATM   10  F   UNL     1     -10.689  11.059  67.383  1.00  0.00    -0.232 F  
HETATM   11  C   UNL     1      -9.959  13.261  67.531  1.00  0.00    -0.223 A  
ENDROOT
BRANCH   6  12
HETATM   12  N   UNL     1      -8.251  10.055  68.573  1.00  0.00    -0.105 NA 
HETATM   13  C   UNL     1      -8.642   8.253  70.217  1.00  0.00    -0.127 C  
HETATM   14  C   UNL     1      -8.949   7.917  71.621  1.00  0.00    -0.138 C  
HETATM   15  C   UNL     1      -8.418   7.247  69.178  1.00  0.00    -0.133 C  
HETATM   16  C   UNL     1      -8.579   9.537  69.836  1.00  0.00    -0.204 C  
HETATM   17  O   UNL     1      -9.191   8.762  72.477  1.00  0.00    -0.347 OA 
HETATM   18  O   UNL     1      -8.465   6.051  69.458  1.00  0.00    -0.116 OA 
HETATM   19  C   UNL     1      -8.121   7.712  67.809  1.00  0.00    -0.118 A  
HETATM   20  O   UNL     1      -8.915   6.597  71.911  1.00  0.00    -0.137 OA 
HETATM   21  C   UNL     1      -7.971   6.732  66.827  1.00  0.00    -0.108 A  
HETATM   22  C   UNL     1      -7.657   7.105  65.533  1.00  0.00    -0.098 A  
HETATM   23  F   UNL     1      -7.564   6.125  64.621  1.00  0.00    -0.070 F  
HETATM   24  C   UNL     1      -7.376   8.437  65.188  1.00  0.00    -0.081 A  
HETATM   25  C   UNL     1      -7.390   9.389  66.248  1.00  0.00    -0.096 A  
HETATM   26 CL   UNL     1      -6.349  10.792  66.073  1.00  0.00    -0.131 Cl 
HETATM   27  C   UNL     1      -7.928   9.084  67.536  1.00  0.00    -0.101 A  
BRANCH  24  28
HETATM   28  N   UNL     1      -7.063   8.753  63.838  1.00  0.00    -0.090 NA 
HETATM   29  C   UNL     1      -5.805   8.827  63.158  1.00  0.00    -0.081 C  
HETATM   30  C   UNL     1      -6.331  10.041  62.380  1.00  0.00    -0.113 C  
HETATM   31  C   UNL     1      -7.706   9.699  62.967  1.00  0.00    -0.125 C  
HETATM   32  O   UNL     1      -5.770  11.327  62.745  1.00  0.00    -0.338 OA 
HETATM   33  H   UNL     1      -6.095  12.079  62.264  1.00  0.00     0.000 HD 
ENDBRANCH  24  28
ENDBRANCH   6  12
TORSDOF 2
ENDMDL
MODEL      114
REMARK 921   NORMALIZED FREE ENERGY PREDICTED BY IDOCK:   -4.08 KCAL/MOL
REMARK 922        TOTAL FREE ENERGY PREDICTED BY IDOCK:   -5.40 KCAL/MOL
REMARK 923 INTER-LIGAND FREE ENERGY PREDICTED BY IDOCK:   -6.36 KCAL/MOL
REMARK 924 INTRA-LIGAND FREE ENERGY PREDICTED BY IDOCK:    0.96 KCAL/MOL
REMARK 927      BINDING AFFINITY PREDICTED BY RF-SCORE:    0.00 PKD
ROOT
HETATM    1  N   UNL     1     -13.325  11.323  71.623  1.00  0.00    -0.295 NA 
HETATM    2  H1  UNL     1     -13.748  11.943  72.315  1.00  0.00     0.000 HD 
HETATM    3  C   UNL     1     -12.475  11.921  70.689  1.00  0.00    -0.257 A  
HETATM    4  H2  UNL     1     -12.836  10.564  72.096  1.00  0.00     0.000 HD 
HETATM    5  N   UNL     1     -11.914  11.099  69.773  1.00  0.00    -0.329 NA 
HETATM    6  C   UNL     1     -11.187  11.638  68.753  1.00  0.00    -0.245 A  
HETATM    7  F   UNL     1     -12.809  14.077  71.639  1.00  0.00    -0.364 F  
HETATM    8  C   UNL     1     -10.927  13.028  68.751  1.00  0.00    -0.258 A  
HETATM    9  C   UNL     1     -12.230  13.291  70.721  1.00  0.00    -0.308 A  
HETATM   10  F   UNL     1     -10.246  13.625  67.763  1.00  0.00    -0.226 F  
HETATM   11  C   UNL     1     -11.427  13.853  69.751  1.00  0.00    -0.281 A  
ENDROOT
BRANCH   6  12
HETATM   12  N   UNL     1     -10.728  10.775  67.674  1.00  0.00    -0.238 NA 
HETATM   13  C   UNL     1     -10.354  10.680  65.235  1.00  0.00    -0.321 C  
HETATM   14  C   UNL     1     -10.702  11.244  63.916  1.00  0.00    -0.384 C  
HETATM   15  C   UNL     1      -9.416   9.571  65.414  1.00  0.00    -0.269 C  
HETATM   16  C   UNL     1     -10.890  11.202  66.347  1.00  0.00    -0.225 C  
HETATM   17  O   UNL     1     -11.444  12.210  63.773  1.00  0.00    -0.389 OA 
HETATM   18  O   UNL     1      -8.885   9.048  64.437  1.00  0.00    -0.170 OA 
HETATM   19  C   UNL     1      -9.149   9.098  66.787  1.00  0.00    -0.176 A  
HETATM   20  O   UNL     1     -10.162  10.597  62.859  1.00  0.00    -0.177 OA 
HETATM   21  C   UNL     1      -8.207   8.079  66.933  1.00  0.00    -0.115 A  
HETATM   22  C   UNL     1      -7.941   7.570  68.192  1.00  0.00    -0.123 A  
HETATM   23  F   UNL     1      -6.998   6.620  68.278  1.00  0.00    -0.065 F  
HETATM   24  C   UNL     1      -8.666   7.969  69.326  1.00  0.00    -0.137 A  
HETATM   25  C   UNL     1      -9.725   8.900  69.113  1.00  0.00    -0.168 A  
HETATM   26 CL   UNL     1     -11.079   8.835  70.230  1.00  0.00    -0.254 Cl 
HETATM   27  C   UNL     1      -9.876   9.612  67.884  1.00  0.00    -0.154 A  
BRANCH  24  28
HETATM   28  N   UNL     1      -8.340   7.409  70.591  1.00  0.00    -0.126 NA 
HETATM   29  C   UNL     1      -7.722   7.991  71.744  1.00  0.00    -0.094 C  
HETATM   30  C   UNL     1      -6.971   6.672  71.970  1.00  0.00    -0.072 C  
HETATM   31  C   UNL     1      -7.887   6.079  70.892  1.00  0.00    -0.107 C  
HETATM   32  O   UNL     1      -5.551   6.685  71.681  1.00  0.00    -0.031 OA 
HETATM   33  H   UNL     1      -5.086   5.868  71.820  1.00  0.00     0.000 HD 
ENDBRANCH  24  28
ENDBRANCH   6  12
TORSDOF 2
ENDMDL
MODEL      115
REMARK 921   NORMALIZED FREE ENERGY PREDICTED BY IDOCK:   -4.01 KCAL/MOL
REMARK 922        TOTAL FREE ENERGY PREDICTED BY IDOCK:   -5.32 KCAL/MOL
REMARK 923 INTER-LIGAND FREE ENERGY PREDICTED BY IDOCK:   -4.84 KCAL/MOL
REMARK 924 INTRA-LIGAND FREE ENERGY PREDICTED BY IDOCK:   -0.48 KCAL/MOL
REMARK 927      BINDING AFFINITY PREDICTED BY RF-SCORE:    0.00 PKD
ROOT
HETATM    1  N   UNL     1      -8.472   2.588  68.031  1.00  0.00    -0.071 NA 
HETATM    2  H1  UNL     1      -8.025   1.689  68.210  1.00  0.00     0.000 HD 
HETATM    3  C   UNL     1      -7.741   3.508  67.275  1.00  0.00    -0.079 A  
HETATM    4  H2  UNL     1      -9.384   2.438  67.601  1.00  0.00     0.000 HD 
HETATM    5  N   UNL     1      -8.334   4.699  67.037  1.00  0.00    -0.106 NA 
HETATM    6  C   UNL     1      -7.621   5.688  66.425  1.00  0.00    -0.091 A  
HETATM    7  F   UNL     1      -5.910   2.002  67.061  1.00  0.00    -0.017 F  
HETATM    8  C   UNL     1      -6.325   5.401  65.938  1.00  0.00    -0.035 A  
HETATM    9  C   UNL     1      -6.471   3.192  66.799  1.00  0.00    -0.036 A  
HETATM   10  F   UNL     1      -5.559   6.335  65.356  1.00  0.00    -0.016 F  
HETATM   11  C   UNL     1      -5.758   4.143  66.101  1.00  0.00    -0.018 A  
ENDROOT
BRANCH   6  12
HETATM   12  N   UNL     1      -8.197   7.020  66.322  1.00  0.00    -0.114 NA 
HETATM   13  C   UNL     1      -8.848   8.779  64.716  1.00  0.00    -0.089 C  
HETATM   14  C   UNL     1      -8.656   9.340  63.364  1.00  0.00    -0.197 C  
HETATM   15  C   UNL     1      -9.755   9.360  65.706  1.00  0.00    -0.284 C  
HETATM   16  C   UNL     1      -8.190   7.669  65.077  1.00  0.00    -0.113 C  
HETATM   17  O   UNL     1      -7.938   8.820  62.516  1.00  0.00    -0.132 OA 
HETATM   18  O   UNL     1     -10.393  10.376  65.439  1.00  0.00    -0.275 OA 
HETATM   19  C   UNL     1      -9.861   8.703  67.024  1.00  0.00    -0.284 A  
HETATM   20  O   UNL     1      -9.310  10.499  63.129  1.00  0.00    -0.258 OA 
HETATM   21  C   UNL     1     -10.777   9.242  67.928  1.00  0.00    -0.248 A  
HETATM   22  C   UNL     1     -10.895   8.691  69.191  1.00  0.00    -0.039 A  
HETATM   23  F   UNL     1     -11.818   9.224  70.005  1.00  0.00    -0.159 F  
HETATM   24  C   UNL     1     -10.046   7.667  69.641  1.00  0.00    -0.194 A  
HETATM   25  C   UNL     1      -9.022   7.245  68.743  1.00  0.00    -0.129 A  
HETATM   26 CL   UNL     1      -7.548   6.610  69.457  1.00  0.00    -0.093 Cl 
HETATM   27  C   UNL     1      -9.016   7.624  67.366  1.00  0.00    -0.126 A  
BRANCH  24  28
HETATM   28  N   UNL     1     -10.223   7.143  70.950  1.00  0.00    -0.197 NA 
HETATM   29  C   UNL     1     -11.263   6.328  71.503  1.00  0.00    -0.290 C  
HETATM   30  C   UNL     1     -11.155   7.129  72.808  1.00  0.00    -0.300 C  
HETATM   31  C   UNL     1      -9.884   7.745  72.210  1.00  0.00    -0.192 C  
HETATM   32  O   UNL     1     -12.246   8.039  73.094  1.00  0.00    -0.659 OA 
HETATM   33  H   UNL     1     -12.179   8.536  73.902  1.00  0.00     0.000 HD 
ENDBRANCH  24  28
ENDBRANCH   6  12
TORSDOF 2
ENDMDL
MODEL      116
REMARK 921   NORMALIZED FREE ENERGY PREDICTED BY IDOCK:   -3.97 KCAL/MOL
REMARK 922        TOTAL FREE ENERGY PREDICTED BY IDOCK:   -5.28 KCAL/MOL
REMARK 923 INTER-LIGAND FREE ENERGY PREDICTED BY IDOCK:   -5.29 KCAL/MOL
REMARK 924 INTRA-LIGAND FREE ENERGY PREDICTED BY IDOCK:    0.01 KCAL/MOL
REMARK 927      BINDING AFFINITY PREDICTED BY RF-SCORE:    0.00 PKD
ROOT
HETATM    1  N   UNL     1      -9.321   4.619  71.610  1.00  0.00    -0.138 NA 
HETATM    2  H1  UNL     1      -9.084   3.969  72.360  1.00  0.00     0.000 HD 
HETATM    3  C   UNL     1      -8.248   5.201  70.930  1.00  0.00    -0.110 A  
HETATM    4  H2  UNL     1      -9.944   4.164  70.944  1.00  0.00     0.000 HD 
HETATM    5  N   UNL     1      -8.562   6.064  69.937  1.00  0.00    -0.129 NA 
HETATM    6  C   UNL     1      -7.565   6.768  69.328  1.00  0.00    -0.096 A  
HETATM    7  F   UNL     1      -6.660   4.038  72.268  1.00  0.00    -0.018 F  
HETATM    8  C   UNL     1      -6.220   6.484  69.658  1.00  0.00    -0.037 A  
HETATM    9  C   UNL     1      -6.934   4.893  71.271  1.00  0.00    -0.047 A  
HETATM   10  F   UNL     1      -5.195   7.161  69.120  1.00  0.00    -0.013 F  
HETATM   11  C   UNL     1      -5.901   5.526  70.613  1.00  0.00    -0.021 A  
ENDROOT
BRANCH   6  12
HETATM   12  N   UNL     1      -7.913   7.817  68.381  1.00  0.00    -0.121 NA 
HETATM   13  C   UNL     1      -7.688   8.513  66.022  1.00  0.00    -0.093 C  
HETATM   14  C   UNL     1      -6.917   8.378  64.770  1.00  0.00    -0.072 C  
HETATM   15  C   UNL     1      -8.849   9.392  66.162  1.00  0.00    -0.151 C  
HETATM   16  C   UNL     1      -7.345   7.790  67.098  1.00  0.00    -0.091 C  
HETATM   17  O   UNL     1      -5.979   7.599  64.638  1.00  0.00    -0.037 OA 
HETATM   18  O   UNL     1      -9.220  10.080  65.213  1.00  0.00    -0.183 OA 
HETATM   19  C   UNL     1      -9.537   9.436  67.468  1.00  0.00    -0.174 A  
HETATM   20  O   UNL     1      -7.302   9.205  63.772  1.00  0.00    -0.098 OA 
HETATM   21  C   UNL     1     -10.675  10.237  67.555  1.00  0.00    -0.348 A  
HETATM   22  C   UNL     1     -11.342  10.347  68.763  1.00  0.00    -0.214 A  
HETATM   23  F   UNL     1     -12.453  11.098  68.780  1.00  0.00    -0.331 F  
HETATM   24  C   UNL     1     -10.852   9.761  69.941  1.00  0.00    -0.272 A  
HETATM   25  C   UNL     1      -9.605   9.078  69.844  1.00  0.00    -0.183 A  
HETATM   26 CL   UNL     1      -8.610   9.027  71.291  1.00  0.00    -0.254 Cl 
HETATM   27  C   UNL     1      -9.012   8.751  68.586  1.00  0.00    -0.138 A  
BRANCH  24  28
HETATM   28  N   UNL     1     -11.587   9.909  71.148  1.00  0.00    -0.370 NA 
HETATM   29  C   UNL     1     -11.883   8.971  72.189  1.00  0.00    -0.313 C  
HETATM   30  C   UNL     1     -13.280   9.594  72.313  1.00  0.00    -0.404 C  
HETATM   31  C   UNL     1     -12.760  10.704  71.391  1.00  0.00    -0.440 C  
HETATM   32  O   UNL     1     -14.383   8.797  71.813  1.00  0.00    -0.387 OA 
HETATM   33  H   UNL     1     -15.248   9.183  71.889  1.00  0.00     0.000 HD 
ENDBRANCH  24  28
ENDBRANCH   6  12
TORSDOF 2
ENDMDL
MODEL      117
REMARK 921   NORMALIZED FREE ENERGY PREDICTED BY IDOCK:   -3.75 KCAL/MOL
REMARK 922        TOTAL FREE ENERGY PREDICTED BY IDOCK:   -5.03 KCAL/MOL
REMARK 923 INTER-LIGAND FREE ENERGY PREDICTED BY IDOCK:   -4.80 KCAL/MOL
REMARK 924 INTRA-LIGAND FREE ENERGY PREDICTED BY IDOCK:   -0.23 KCAL/MOL
REMARK 927      BINDING AFFINITY PREDICTED BY RF-SCORE:    0.00 PKD
ROOT
HETATM    1  N   UNL     1     -12.020   4.677  72.766  1.00  0.00     0.180 NA 
HETATM    2  H1  UNL     1     -12.301   4.134  73.582  1.00  0.00     0.000 HD 
HETATM    3  C   UNL     1     -10.646   4.830  72.562  1.00  0.00    -0.200 A  
HETATM    4  H2  UNL     1     -12.450   4.286  71.928  1.00  0.00     0.000 HD 
HETATM    5  N   UNL     1     -10.274   5.550  71.481  1.00  0.00    -0.205 NA 
HETATM    6  C   UNL     1      -8.956   5.852  71.303  1.00  0.00    -0.140 A  
HETATM    7  F   UNL     1     -10.132   3.558  74.507  1.00  0.00    -0.149 F  
HETATM    8  C   UNL     1      -7.997   5.295  72.181  1.00  0.00    -0.110 A  
HETATM    9  C   UNL     1      -9.727   4.260  73.439  1.00  0.00    -0.121 A  
HETATM   10  F   UNL     1      -6.690   5.576  72.082  1.00  0.00    -0.056 F  
HETATM   11  C   UNL     1      -8.380   4.476  73.236  1.00  0.00    -0.099 A  
ENDROOT
BRANCH   6  12
HETATM   12  N   UNL     1      -8.573   6.767  70.237  1.00  0.00    -0.139 NA 
HETATM   13  C   UNL     1      -7.119   7.004  68.256  1.00  0.00    -0.082 C  
HETATM   14  C   UNL     1      -5.904   6.535  67.560  1.00  0.00    -0.016 C  
HETATM   15  C   UNL     1      -7.979   8.071  67.742  1.00  0.00    -0.127 C  
HETATM   16  C   UNL     1      -7.492   6.429  69.408  1.00  0.00    -0.094 C  
HETATM   17  O   UNL     1      -5.216   5.603  67.964  1.00  0.00    -0.003 OA 
HETATM   18  O   UNL     1      -7.696   8.638  66.689  1.00  0.00    -0.094 OA 
HETATM   19  C   UNL     1      -9.168   8.448  68.531  1.00  0.00    -0.135 A  
HETATM   20  O   UNL     1      -5.579   7.231  66.448  1.00  0.00    -0.023 OA 
HETATM   21  C   UNL     1     -10.002   9.426  67.989  1.00  0.00    -0.209 A  
HETATM   22  C   UNL     1     -11.113   9.846  68.699  1.00  0.00    -0.134 A  
HETATM   23  F   UNL     1     -11.901  10.760  68.113  1.00  0.00    -0.365 F  
HETATM   24  C   UNL     1     -11.378   9.399  70.003  1.00  0.00    -0.141 A  
HETATM   25  C   UNL     1     -10.421   8.516  70.583  1.00  0.00    -0.201 A  
HETATM   26 CL   UNL     1     -10.260   8.551  72.332  1.00  0.00    -0.387 Cl 
HETATM   27  C   UNL     1      -9.399   7.888  69.808  1.00  0.00    -0.153 A  
BRANCH  24  28
HETATM   28  N   UNL     1     -12.539   9.868  70.676  1.00  0.00    -0.223 NA 
HETATM   29  C   UNL     1     -12.683  10.654  71.864  1.00  0.00    -0.305 C  
HETATM   30  C   UNL     1     -13.900   9.800  72.245  1.00  0.00    -0.146 C  
HETATM   31  C   UNL     1     -13.809   9.214  70.831  1.00  0.00     0.170 C  
HETATM   32  O   UNL     1     -13.714   8.875  73.346  1.00  0.00    -1.094 OA 
HETATM   33  H   UNL     1     -14.467   8.346  73.582  1.00  0.00     0.000 HD 
ENDBRANCH  24  28
ENDBRANCH   6  12
TORSDOF 2
ENDMDL
MODEL      118
REMARK 921   NORMALIZED FREE ENERGY PREDICTED BY IDOCK:   -3.75 KCAL/MOL
REMARK 922        TOTAL FREE ENERGY PREDICTED BY IDOCK:   -5.03 KCAL/MOL
REMARK 923 INTER-LIGAND FREE ENERGY PREDICTED BY IDOCK:   -5.12 KCAL/MOL
REMARK 924 INTRA-LIGAND FREE ENERGY PREDICTED BY IDOCK:    0.09 KCAL/MOL
REMARK 927      BINDING AFFINITY PREDICTED BY RF-SCORE:    0.00 PKD
ROOT
HETATM    1  N   UNL     1     -13.114  13.539  66.402  1.00  0.00    -0.030 NA 
HETATM    2  H1  UNL     1     -13.798  13.468  65.649  1.00  0.00     0.000 HD 
HETATM    3  C   UNL     1     -11.832  13.056  66.128  1.00  0.00    -0.409 A  
HETATM    4  H2  UNL     1     -13.056  14.505  66.722  1.00  0.00     0.000 HD 
HETATM    5  N   UNL     1     -10.926  13.151  67.127  1.00  0.00    -0.264 NA 
HETATM    6  C   UNL     1      -9.700  12.575  66.970  1.00  0.00    -0.213 A  
HETATM    7  F   UNL     1     -12.452  12.427  63.918  1.00  0.00    -0.481 F  
HETATM    8  C   UNL     1      -9.360  12.006  65.721  1.00  0.00    -0.125 A  
HETATM    9  C   UNL     1     -11.525  12.513  64.883  1.00  0.00    -0.325 A  
HETATM   10  F   UNL     1      -8.185  11.397  65.510  1.00  0.00    -0.057 F  
HETATM   11  C   UNL     1     -10.265  11.998  64.666  1.00  0.00    -0.313 A  
ENDROOT
BRANCH   6  12
HETATM   12  N   UNL     1      -8.787  12.527  68.103  1.00  0.00    -0.188 NA 
HETATM   13  C   UNL     1      -7.516  10.991  69.561  1.00  0.00    -0.031 C  
HETATM   14  C   UNL     1      -7.397   9.618  70.091  1.00  0.00    -0.139 C  
HETATM   15  C   UNL     1      -6.611  12.079  69.932  1.00  0.00     0.048 C  
HETATM   16  C   UNL     1      -8.480  11.282  68.675  1.00  0.00    -0.143 C  
HETATM   17  O   UNL     1      -8.122   8.695  69.736  1.00  0.00    -0.108 OA 
HETATM   18  O   UNL     1      -5.703  11.880  70.736  1.00  0.00    -0.253 OA 
HETATM   19  C   UNL     1      -6.835  13.409  69.329  1.00  0.00    -0.036 A  
HETATM   20  O   UNL     1      -6.439   9.452  71.030  1.00  0.00    -0.082 OA 
HETATM   21  C   UNL     1      -5.922  14.412  69.655  1.00  0.00    -0.111 A  
HETATM   22  C   UNL     1      -6.101  15.687  69.149  1.00  0.00    -0.112 A  
HETATM   23  F   UNL     1      -5.171  16.602  69.462  1.00  0.00    -0.123 F  
HETATM   24  C   UNL     1      -7.234  16.041  68.400  1.00  0.00    -0.126 A  
HETATM   25  C   UNL     1      -8.220  15.029  68.216  1.00  0.00    -0.146 A  
HETATM   26 CL   UNL     1      -9.882  15.562  68.015  1.00  0.00    -0.212 Cl 
HETATM   27  C   UNL     1      -7.967  13.657  68.521  1.00  0.00    -0.127 A  
BRANCH  24  28
HETATM   28  N   UNL     1      -7.354  17.369  67.907  1.00  0.00    -0.186 NA 
HETATM   29  C   UNL     1      -7.522  17.864  66.574  1.00  0.00    -0.246 C  
HETATM   30  C   UNL     1      -6.592  19.034  66.924  1.00  0.00    -0.195 C  
HETATM   31  C   UNL     1      -6.705  18.561  68.378  1.00  0.00    -0.241 C  
HETATM   32  O   UNL     1      -5.270  19.001  66.330  1.00  0.00    -0.142 OA 
HETATM   33  H   UNL     1      -4.694  19.725  66.548  1.00  0.00     0.000 HD 
ENDBRANCH  24  28
ENDBRANCH   6  12
TORSDOF 2
ENDMDL
MODEL      119
REMARK 921   NORMALIZED FREE ENERGY PREDICTED BY IDOCK:   -3.65 KCAL/MOL
REMARK 922        TOTAL FREE ENERGY PREDICTED BY IDOCK:   -4.92 KCAL/MOL
REMARK 923 INTER-LIGAND FREE ENERGY PREDICTED BY IDOCK:   -4.00 KCAL/MOL
REMARK 924 INTRA-LIGAND FREE ENERGY PREDICTED BY IDOCK:   -0.91 KCAL/MOL
REMARK 927      BINDING AFFINITY PREDICTED BY RF-SCORE:    0.00 PKD
ROOT
HETATM    1  N   UNL     1      -9.206   8.970  68.435  1.00  0.00    -0.136 NA 
HETATM    2  H1  UNL     1      -9.231   8.325  69.225  1.00  0.00     0.000 HD 
HETATM    3  C   UNL     1      -9.866  10.189  68.605  1.00  0.00    -0.162 A  
HETATM    4  H2  UNL     1      -8.239   9.139  68.159  1.00  0.00     0.000 HD 
HETATM    5  N   UNL     1      -9.834  11.044  67.558  1.00  0.00    -0.168 NA 
HETATM    6  C   UNL     1     -10.572  12.189  67.610  1.00  0.00    -0.210 A  
HETATM    7  F   UNL     1     -10.534   9.613  70.816  1.00  0.00    -0.304 F  
HETATM    8  C   UNL     1     -11.250  12.518  68.807  1.00  0.00    -0.273 A  
HETATM    9  C   UNL     1     -10.515  10.489  69.801  1.00  0.00    -0.200 A  
HETATM   10  F   UNL     1     -12.019  13.611  68.915  1.00  0.00    -0.334 F  
HETATM   11  C   UNL     1     -11.200  11.680  69.914  1.00  0.00    -0.140 A  
ENDROOT
BRANCH   6  12
HETATM   12  N   UNL     1     -10.674  13.024  66.422  1.00  0.00    -0.280 NA 
HETATM   13  C   UNL     1     -12.016  13.418  64.386  1.00  0.00    -0.460 C  
HETATM   14  C   UNL     1     -12.972  12.849  63.416  1.00  0.00     0.456 C  
HETATM   15  C   UNL     1     -11.487  14.779  64.292  1.00  0.00    -0.146 C  
HETATM   16  C   UNL     1     -11.610  12.684  65.432  1.00  0.00    -0.363 C  
HETATM   17  O   UNL     1     -13.457  11.728  63.528  1.00  0.00    -0.416 OA 
HETATM   18  O   UNL     1     -11.821  15.508  63.360  1.00  0.00     0.191 OA 
HETATM   19  C   UNL     1     -10.538  15.232  65.328  1.00  0.00    -0.438 A  
HETATM   20  O   UNL     1     -13.257  13.647  62.363  1.00  0.00     1.335 OA 
HETATM   21  C   UNL     1     -10.095  16.552  65.247  1.00  0.00     0.055 A  
HETATM   22  C   UNL     1      -9.178  17.023  66.169  1.00  0.00    -0.210 A  
HETATM   23  F   UNL     1      -8.817  18.311  66.067  1.00  0.00    -0.261 F  
HETATM   24  C   UNL     1      -8.589  16.186  67.129  1.00  0.00    -0.187 A  
HETATM   25  C   UNL     1      -8.951  14.808  67.085  1.00  0.00    -0.224 A  
HETATM   26 CL   UNL     1      -7.760  13.651  67.660  1.00  0.00    -0.165 Cl 
HETATM   27  C   UNL     1     -10.053  14.337  66.308  1.00  0.00    -0.298 A  
BRANCH  24  28
HETATM   28  N   UNL     1      -7.655  16.734  68.050  1.00  0.00    -0.165 NA 
HETATM   29  C   UNL     1      -7.843  17.310  69.348  1.00  0.00     0.247 C  
HETATM   30  C   UNL     1      -6.760  18.345  69.012  1.00  0.00    -0.267 C  
HETATM   31  C   UNL     1      -6.463  17.488  67.775  1.00  0.00    -0.154 C  
HETATM   32  O   UNL     1      -7.220  19.698  68.770  1.00  0.00    -0.328 OA 
HETATM   33  H   UNL     1      -6.549  20.338  68.562  1.00  0.00     0.000 HD 
ENDBRANCH  24  28
ENDBRANCH   6  12
TORSDOF 2
ENDMDL
MODEL      120
REMARK 921   NORMALIZED FREE ENERGY PREDICTED BY IDOCK:   -3.58 KCAL/MOL
REMARK 922        TOTAL FREE ENERGY PREDICTED BY IDOCK:   -4.83 KCAL/MOL
REMARK 923 INTER-LIGAND FREE ENERGY PREDICTED BY IDOCK:   -4.13 KCAL/MOL
REMARK 924 INTRA-LIGAND FREE ENERGY PREDICTED BY IDOCK:   -0.70 KCAL/MOL
REMARK 927      BINDING AFFINITY PREDICTED BY RF-SCORE:    0.00 PKD
ROOT
HETATM    1  N   UNL     1      -9.974   7.260  74.044  1.00  0.00    -0.415 NA 
HETATM    2  H1  UNL     1      -9.575   7.164  74.978  1.00  0.00     0.000 HD 
HETATM    3  C   UNL     1      -9.081   7.169  72.973  1.00  0.00    -0.136 A  
HETATM    4  H2  UNL     1     -10.727   6.583  73.922  1.00  0.00     0.000 HD 
HETATM    5  N   UNL     1      -9.610   7.296  71.736  1.00  0.00    -0.151 NA 
HETATM    6  C   UNL     1      -8.776   7.354  70.658  1.00  0.00    -0.142 A  
HETATM    7  F   UNL     1      -7.231   6.843  74.435  1.00  0.00    -0.095 F  
HETATM    8  C   UNL     1      -7.390   7.151  70.848  1.00  0.00    -0.075 A  
HETATM    9  C   UNL     1      -7.723   6.956  73.193  1.00  0.00    -0.091 A  
HETATM   10  F   UNL     1      -6.512   7.226  69.837  1.00  0.00    -0.032 F  
HETATM   11  C   UNL     1      -6.864   6.925  72.114  1.00  0.00    -0.058 A  
ENDROOT
BRANCH   6  12
HETATM   12  N   UNL     1      -9.330   7.661  69.347  1.00  0.00    -0.153 NA 
HETATM   13  C   UNL     1     -10.016   9.518  67.871  1.00  0.00    -0.209 C  
HETATM   14  C   UNL     1     -10.443  10.929  67.790  1.00  0.00    -0.203 C  
HETATM   15  C   UNL     1      -9.889   8.647  66.702  1.00  0.00    -0.266 C  
HETATM   16  C   UNL     1      -9.701   8.984  69.060  1.00  0.00    -0.167 C  
HETATM   17  O   UNL     1     -10.495  11.673  68.764  1.00  0.00    -0.209 OA 
HETATM   18  O   UNL     1     -10.159   9.074  65.582  1.00  0.00    -0.082 OA 
HETATM   19  C   UNL     1      -9.450   7.253  66.916  1.00  0.00    -0.208 A  
HETATM   20  O   UNL     1     -10.807  11.344  66.556  1.00  0.00    -0.271 OA 
HETATM   21  C   UNL     1      -9.280   6.463  65.779  1.00  0.00     0.032 A  
HETATM   22  C   UNL     1      -8.904   5.139  65.918  1.00  0.00    -0.142 A  
HETATM   23  F   UNL     1      -8.717   4.437  64.791  1.00  0.00    -0.119 F  
HETATM   24  C   UNL     1      -8.789   4.524  67.175  1.00  0.00    -0.109 A  
HETATM   25  C   UNL     1      -9.119   5.322  68.309  1.00  0.00    -0.110 A  
HETATM   26 CL   UNL     1      -9.736   4.481  69.723  1.00  0.00    -0.271 Cl 
HETATM   27  C   UNL     1      -9.284   6.738  68.221  1.00  0.00    -0.122 A  
BRANCH  24  28
HETATM   28  N   UNL     1      -8.395   3.160  67.248  1.00  0.00    -0.083 NA 
HETATM   29  C   UNL     1      -7.189   2.555  67.726  1.00  0.00    -0.049 C  
HETATM   30  C   UNL     1      -7.283   1.537  66.581  1.00  0.00    -0.051 C  
HETATM   31  C   UNL     1      -8.690   2.093  66.331  1.00  0.00    -0.120 C  
HETATM   32  O   UNL     1      -6.322   1.690  65.507  1.00  0.00    -0.022 OA 
HETATM   33  H   UNL     1      -6.380   1.059  64.798  1.00  0.00     0.000 HD 
ENDBRANCH  24  28
ENDBRANCH   6  12
TORSDOF 2
ENDMDL
MODEL      121
REMARK 921   NORMALIZED FREE ENERGY PREDICTED BY IDOCK:   -3.57 KCAL/MOL
REMARK 922        TOTAL FREE ENERGY PREDICTED BY IDOCK:   -4.83 KCAL/MOL
REMARK 923 INTER-LIGAND FREE ENERGY PREDICTED BY IDOCK:   -4.78 KCAL/MOL
REMARK 924 INTRA-LIGAND FREE ENERGY PREDICTED BY IDOCK:   -0.05 KCAL/MOL
REMARK 927      BINDING AFFINITY PREDICTED BY RF-SCORE:    0.00 PKD
ROOT
HETATM    1  N   UNL     1     -13.617  13.133  65.487  1.00  0.00     0.122 NA 
HETATM    2  H1  UNL     1     -14.384  13.048  64.819  1.00  0.00     0.000 HD 
HETATM    3  C   UNL     1     -12.330  12.927  64.986  1.00  0.00    -0.485 A  
HETATM    4  H2  UNL     1     -13.665  14.041  65.949  1.00  0.00     0.000 HD 
HETATM    5  N   UNL     1     -11.314  13.040  65.871  1.00  0.00    -0.303 NA 
HETATM    6  C   UNL     1     -10.049  12.716  65.478  1.00  0.00    -0.265 A  
HETATM    7  F   UNL     1     -13.158  12.511  62.794  1.00  0.00    -0.086 F  
HETATM    8  C   UNL     1      -9.810  12.395  64.122  1.00  0.00    -0.118 A  
HETATM    9  C   UNL     1     -12.126  12.623  63.643  1.00  0.00    -0.547 A  
HETATM   10  F   UNL     1      -8.597  12.037  63.676  1.00  0.00     0.502 F  
HETATM   11  C   UNL     1     -10.846  12.374  63.195  1.00  0.00    -0.090 A  
ENDROOT
BRANCH   6  12
HETATM   12  N   UNL     1      -8.985  12.672  66.471  1.00  0.00    -0.164 NA 
HETATM   13  C   UNL     1      -7.526  14.086  67.874  1.00  0.00    -0.153 C  
HETATM   14  C   UNL     1      -6.915  15.418  68.060  1.00  0.00    -0.133 C  
HETATM   15  C   UNL     1      -7.296  12.962  68.782  1.00  0.00    -0.066 C  
HETATM   16  C   UNL     1      -8.356  13.871  66.844  1.00  0.00    -0.004 C  
HETATM   17  O   UNL     1      -7.154  16.374  67.330  1.00  0.00    -0.145 OA 
HETATM   18  O   UNL     1      -6.549  13.092  69.749  1.00  0.00    -0.058 OA 
HETATM   19  C   UNL     1      -7.967  11.680  68.488  1.00  0.00    -0.144 A  
HETATM   20  O   UNL     1      -6.040  15.505  69.086  1.00  0.00    -0.104 OA 
HETATM   21  C   UNL     1      -7.778  10.644  69.402  1.00  0.00    -0.132 A  
HETATM   22  C   UNL     1      -8.353   9.408  69.162  1.00  0.00    -0.125 A  
HETATM   23  F   UNL     1      -8.170   8.460  70.093  1.00  0.00    -0.105 F  
HETATM   24  C   UNL     1      -9.039   9.124  67.971  1.00  0.00    -0.131 A  
HETATM   25  C   UNL     1      -9.081  10.161  66.994  1.00  0.00    -0.139 A  
HETATM   26 CL   UNL     1      -9.195   9.668  65.312  1.00  0.00    -0.272 Cl 
HETATM   27  C   UNL     1      -8.705  11.505  67.296  1.00  0.00    -0.151 A  
BRANCH  24  28
HETATM   28  N   UNL     1      -9.609   7.834  67.789  1.00  0.00    -0.143 NA 
HETATM   29  C   UNL     1     -10.883   7.436  67.271  1.00  0.00    -0.256 C  
HETATM   30  C   UNL     1     -10.930   6.323  68.327  1.00  0.00    -0.321 C  
HETATM   31  C   UNL     1      -9.463   6.666  68.613  1.00  0.00    -0.128 C  
HETATM   32  O   UNL     1     -11.867   6.513  69.417  1.00  0.00    -0.636 OA 
HETATM   33  H   UNL     1     -11.895   5.824  70.071  1.00  0.00     0.000 HD 
ENDBRANCH  24  28
ENDBRANCH   6  12
TORSDOF 2
ENDMDL
MODEL      122
REMARK 921   NORMALIZED FREE ENERGY PREDICTED BY IDOCK:   -3.41 KCAL/MOL
REMARK 922        TOTAL FREE ENERGY PREDICTED BY IDOCK:   -4.64 KCAL/MOL
REMARK 923 INTER-LIGAND FREE ENERGY PREDICTED BY IDOCK:   -3.97 KCAL/MOL
REMARK 924 INTRA-LIGAND FREE ENERGY PREDICTED BY IDOCK:   -0.67 KCAL/MOL
REMARK 927      BINDING AFFINITY PREDICTED BY RF-SCORE:    0.00 PKD
ROOT
HETATM    1  N   UNL     1     -13.093   6.087  72.507  1.00  0.00    -0.228 NA 
HETATM    2  H1  UNL     1     -13.792   5.516  72.983  1.00  0.00     0.000 HD 
HETATM    3  C   UNL     1     -11.817   5.534  72.379  1.00  0.00    -0.051 A  
HETATM    4  H2  UNL     1     -13.442   6.361  71.589  1.00  0.00     0.000 HD 
HETATM    5  N   UNL     1     -10.892   6.292  71.748  1.00  0.00    -0.239 NA 
HETATM    6  C   UNL     1      -9.596   5.868  71.713  1.00  0.00    -0.151 A  
HETATM    7  F   UNL     1     -12.476   3.545  73.509  1.00  0.00    -0.028 F  
HETATM    8  C   UNL     1      -9.275   4.589  72.222  1.00  0.00    -0.126 A  
HETATM    9  C   UNL     1     -11.535   4.266  72.881  1.00  0.00     0.102 A  
HETATM   10  F   UNL     1      -8.018   4.125  72.247  1.00  0.00    -0.077 F  
HETATM   11  C   UNL     1     -10.251   3.774  72.784  1.00  0.00    -0.236 A  
ENDROOT
BRANCH   6  12
HETATM   12  N   UNL     1      -8.572   6.759  71.187  1.00  0.00    -0.132 NA 
HETATM   13  C   UNL     1      -6.763   8.306  71.844  1.00  0.00    -0.076 C  
HETATM   14  C   UNL     1      -6.212   9.172  72.906  1.00  0.00     0.188 C  
HETATM   15  C   UNL     1      -6.147   8.159  70.525  1.00  0.00    -0.032 C  
HETATM   16  C   UNL     1      -7.871   7.588  72.077  1.00  0.00    -0.090 C  
HETATM   17  O   UNL     1      -6.699   9.250  74.029  1.00  0.00    -0.334 OA 
HETATM   18  O   UNL     1      -5.127   8.786  70.247  1.00  0.00    -0.022 OA 
HETATM   19  C   UNL     1      -6.794   7.259  69.550  1.00  0.00    -0.050 A  
HETATM   20  O   UNL     1      -5.137   9.905  72.542  1.00  0.00    -0.121 OA 
HETATM   21  C   UNL     1      -6.153   7.092  68.322  1.00  0.00    -0.034 A  
HETATM   22  C   UNL     1      -6.730   6.290  67.354  1.00  0.00    -0.061 A  
HETATM   23  F   UNL     1      -6.052   6.133  66.208  1.00  0.00    -0.025 F  
HETATM   24  C   UNL     1      -8.001   5.716  67.522  1.00  0.00    -0.102 A  
HETATM   25  C   UNL     1      -8.692   6.034  68.727  1.00  0.00    -0.111 A  
HETATM   26 CL   UNL     1     -10.447   6.029  68.664  1.00  0.00    -0.262 Cl 
HETATM   27  C   UNL     1      -8.042   6.661  69.833  1.00  0.00    -0.125 A  
BRANCH  24  28
HETATM   28  N   UNL     1      -8.535   4.898  66.489  1.00  0.00    -0.110 NA 
HETATM   29  C   UNL     1      -8.905   5.209  65.141  1.00  0.00    -0.146 C  
HETATM   30  C   UNL     1     -10.103   4.261  65.283  1.00  0.00    -0.218 C  
HETATM   31  C   UNL     1      -9.463   3.807  66.601  1.00  0.00    -0.192 C  
HETATM   32  O   UNL     1     -11.408   4.886  65.375  1.00  0.00    -0.881 OA 
HETATM   33  H   UNL     1     -12.150   4.299  65.464  1.00  0.00     0.000 HD 
ENDBRANCH  24  28
ENDBRANCH   6  12
TORSDOF 2
ENDMDL
MODEL      123
REMARK 921   NORMALIZED FREE ENERGY PREDICTED BY IDOCK:   -3.40 KCAL/MOL
REMARK 922        TOTAL FREE ENERGY PREDICTED BY IDOCK:   -4.64 KCAL/MOL
REMARK 923 INTER-LIGAND FREE ENERGY PREDICTED BY IDOCK:   -4.26 KCAL/MOL
REMARK 924 INTRA-LIGAND FREE ENERGY PREDICTED BY IDOCK:   -0.38 KCAL/MOL
REMARK 927      BINDING AFFINITY PREDICTED BY RF-SCORE:    0.00 PKD
ROOT
HETATM    1  N   UNL     1     -10.840  10.768  63.540  1.00  0.00    -0.423 NA 
HETATM    2  H1  UNL     1     -10.767  11.161  62.602  1.00  0.00     0.000 HD 
HETATM    3  C   UNL     1      -9.638  10.501  64.199  1.00  0.00    -0.313 A  
HETATM    4  H2  UNL     1     -11.423  11.371  64.120  1.00  0.00     0.000 HD 
HETATM    5  N   UNL     1      -9.735   9.980  65.442  1.00  0.00    -0.282 NA 
HETATM    6  C   UNL     1      -8.603   9.569  66.082  1.00  0.00    -0.131 A  
HETATM    7  F   UNL     1      -8.356  11.277  62.350  1.00  0.00    -0.277 F  
HETATM    8  C   UNL     1      -7.345   9.817  65.485  1.00  0.00    -0.112 A  
HETATM    9  C   UNL     1      -8.415  10.767  63.588  1.00  0.00    -0.005 A  
HETATM   10  F   UNL     1      -6.196   9.412  66.046  1.00  0.00    -0.061 F  
HETATM   11  C   UNL     1      -7.248  10.442  64.247  1.00  0.00     0.013 A  
ENDROOT
BRANCH   6  12
HETATM   12  N   UNL     1      -8.720   8.854  67.345  1.00  0.00    -0.125 NA 
HETATM   13  C   UNL     1      -9.367   6.691  68.344  1.00  0.00    -0.123 C  
HETATM   14  C   UNL     1     -10.145   5.446  68.182  1.00  0.00    -0.166 C  
HETATM   15  C   UNL     1      -8.575   6.995  69.536  1.00  0.00    -0.134 C  
HETATM   16  C   UNL     1      -9.348   7.599  67.358  1.00  0.00    -0.141 C  
HETATM   17  O   UNL     1     -10.763   5.168  67.159  1.00  0.00    -0.170 OA 
HETATM   18  O   UNL     1      -8.546   6.204  70.476  1.00  0.00    -0.134 OA 
HETATM   19  C   UNL     1      -7.839   8.274  69.576  1.00  0.00    -0.103 A  
HETATM   20  O   UNL     1     -10.154   4.635  69.263  1.00  0.00    -0.193 OA 
HETATM   21  C   UNL     1      -7.045   8.512  70.698  1.00  0.00    -0.047 A  
HETATM   22  C   UNL     1      -6.360   9.709  70.809  1.00  0.00    -0.097 A  
HETATM   23  F   UNL     1      -5.581   9.867  71.889  1.00  0.00    -0.078 F  
HETATM   24  C   UNL     1      -6.517  10.747  69.878  1.00  0.00    -0.135 A  
HETATM   25  C   UNL     1      -7.454  10.526  68.826  1.00  0.00    -0.097 A  
HETATM   26 CL   UNL     1      -8.246  11.942  68.153  1.00  0.00    -0.151 Cl 
HETATM   27  C   UNL     1      -7.999   9.235  68.553  1.00  0.00    -0.101 A  
BRANCH  24  28
HETATM   28  N   UNL     1      -5.781  11.951  70.048  1.00  0.00    -0.122 NA 
HETATM   29  C   UNL     1      -5.636  12.810  71.184  1.00  0.00    -0.068 C  
HETATM   30  C   UNL     1      -5.666  14.017  70.237  1.00  0.00    -0.137 C  
HETATM   31  C   UNL     1      -5.547  13.001  69.095  1.00  0.00    -0.073 C  
HETATM   32  O   UNL     1      -6.870  14.825  70.266  1.00  0.00    -0.271 OA 
HETATM   33  H   UNL     1      -6.888  15.572  69.679  1.00  0.00     0.000 HD 
ENDBRANCH  24  28
ENDBRANCH   6  12
TORSDOF 2
ENDMDL
MODEL      124
REMARK 921   NORMALIZED FREE ENERGY PREDICTED BY IDOCK:   -3.39 KCAL/MOL
REMARK 922        TOTAL FREE ENERGY PREDICTED BY IDOCK:   -4.63 KCAL/MOL
REMARK 923 INTER-LIGAND FREE ENERGY PREDICTED BY IDOCK:   -3.97 KCAL/MOL
REMARK 924 INTRA-LIGAND FREE ENERGY PREDICTED BY IDOCK:   -0.66 KCAL/MOL
REMARK 927      BINDING AFFINITY PREDICTED BY RF-SCORE:    0.00 PKD
ROOT
HETATM    1  N   UNL     1     -10.402   4.685  72.333  1.00  0.00    -0.198 NA 
HETATM    2  H1  UNL     1     -10.461   4.647  73.350  1.00  0.00     0.000 HD 
HETATM    3  C   UNL     1      -9.118   4.708  71.783  1.00  0.00    -0.135 A  
HETATM    4  H2  UNL     1     -10.935   3.916  71.929  1.00  0.00     0.000 HD 
HETATM    5  N   UNL     1      -9.041   4.760  70.434  1.00  0.00    -0.114 NA 
HETATM    6  C   UNL     1      -7.823   4.923  69.843  1.00  0.00    -0.066 A  
HETATM    7  F   UNL     1      -8.105   4.634  73.935  1.00  0.00    -0.099 F  
HETATM    8  C   UNL     1      -6.659   4.903  70.645  1.00  0.00    -0.031 A  
HETATM    9  C   UNL     1      -7.991   4.676  72.600  1.00  0.00    -0.092 A  
HETATM   10  F   UNL     1      -5.435   5.089  70.132  1.00  0.00    -0.008 F  
HETATM   11  C   UNL     1      -6.741   4.753  72.025  1.00  0.00    -0.047 A  
ENDROOT
BRANCH   6  12
HETATM   12  N   UNL     1      -7.755   5.149  68.406  1.00  0.00    -0.079 NA 
HETATM   13  C   UNL     1      -7.539   4.006  66.228  1.00  0.00    -0.089 C  
HETATM   14  C   UNL     1      -7.095   2.790  65.517  1.00  0.00    -0.061 C  
HETATM   15  C   UNL     1      -8.119   5.167  65.552  1.00  0.00    -0.117 C  
HETATM   16  C   UNL     1      -7.441   4.071  67.564  1.00  0.00    -0.068 C  
HETATM   17  O   UNL     1      -6.661   1.796  66.091  1.00  0.00    -0.029 OA 
HETATM   18  O   UNL     1      -8.242   5.171  64.329  1.00  0.00    -0.119 OA 
HETATM   19  C   UNL     1      -8.527   6.322  66.376  1.00  0.00    -0.125 A  
HETATM   20  O   UNL     1      -7.171   2.858  64.169  1.00  0.00    -0.054 OA 
HETATM   21  C   UNL     1      -9.131   7.390  65.713  1.00  0.00    -0.006 A  
HETATM   22  C   UNL     1      -9.503   8.515  66.427  1.00  0.00    -0.232 A  
HETATM   23  F   UNL     1     -10.115   9.495  65.746  1.00  0.00    -0.347 F  
HETATM   24  C   UNL     1      -9.197   8.668  67.789  1.00  0.00    -0.134 A  
HETATM   25  C   UNL     1      -8.445   7.622  68.397  1.00  0.00    -0.125 A  
HETATM   26 CL   UNL     1      -7.412   8.064  69.748  1.00  0.00    -0.087 Cl 
HETATM   27  C   UNL     1      -8.247   6.359  67.760  1.00  0.00    -0.118 A  
BRANCH  24  28
HETATM   28  N   UNL     1      -9.611   9.849  68.465  1.00  0.00    -0.151 NA 
HETATM   29  C   UNL     1     -10.551  10.042  69.528  1.00  0.00    -0.244 C  
HETATM   30  C   UNL     1     -10.999  11.345  68.854  1.00  0.00    -0.226 C  
HETATM   31  C   UNL     1      -9.787  11.171  67.931  1.00  0.00    -0.174 C  
HETATM   32  O   UNL     1     -12.305  11.325  68.224  1.00  0.00    -0.594 OA 
HETATM   33  H   UNL     1     -12.582  12.132  67.806  1.00  0.00     0.000 HD 
ENDBRANCH  24  28
ENDBRANCH   6  12
TORSDOF 2
ENDMDL
MODEL      125
REMARK 921   NORMALIZED FREE ENERGY PREDICTED BY IDOCK:   -3.35 KCAL/MOL
REMARK 922        TOTAL FREE ENERGY PREDICTED BY IDOCK:   -4.58 KCAL/MOL
REMARK 923 INTER-LIGAND FREE ENERGY PREDICTED BY IDOCK:   -3.50 KCAL/MOL
REMARK 924 INTRA-LIGAND FREE ENERGY PREDICTED BY IDOCK:   -1.08 KCAL/MOL
REMARK 927      BINDING AFFINITY PREDICTED BY RF-SCORE:    0.00 PKD
ROOT
HETATM    1  N   UNL     1      -9.796   5.748  72.350  1.00  0.00    -0.163 NA 
HETATM    2  H1  UNL     1      -9.629   5.200  73.194  1.00  0.00     0.000 HD 
HETATM    3  C   UNL     1      -8.815   5.677  71.358  1.00  0.00    -0.136 A  
HETATM    4  H2  UNL     1     -10.703   5.503  71.955  1.00  0.00     0.000 HD 
HETATM    5  N   UNL     1      -9.036   6.404  70.239  1.00  0.00    -0.154 NA 
HETATM    6  C   UNL     1      -8.057   6.487  69.294  1.00  0.00    -0.112 A  
HETATM    7  F   UNL     1      -7.489   4.190  72.658  1.00  0.00    -0.064 F  
HETATM    8  C   UNL     1      -6.886   5.707  69.445  1.00  0.00    -0.061 A  
HETATM    9  C   UNL     1      -7.679   4.892  71.532  1.00  0.00    -0.096 A  
HETATM   10  F   UNL     1      -5.872   5.765  68.570  1.00  0.00    -0.015 F  
HETATM   11  C   UNL     1      -6.708   4.887  70.553  1.00  0.00    -0.036 A  
ENDROOT
BRANCH   6  12
HETATM   12  N   UNL     1      -8.224   7.402  68.175  1.00  0.00    -0.124 NA 
HETATM   13  C   UNL     1      -7.921   9.750  67.472  1.00  0.00    -0.106 C  
HETATM   14  C   UNL     1      -7.783  11.154  67.907  1.00  0.00    -0.105 C  
HETATM   15  C   UNL     1      -7.919   9.338  66.068  1.00  0.00    -0.110 C  
HETATM   16  C   UNL     1      -8.032   8.776  68.387  1.00  0.00    -0.109 C  
HETATM   17  O   UNL     1      -7.729  11.491  69.085  1.00  0.00    -0.080 OA 
HETATM   18  O   UNL     1      -7.816  10.179  65.178  1.00  0.00    -0.132 OA 
HETATM   19  C   UNL     1      -8.061   7.900  65.763  1.00  0.00    -0.123 A  
HETATM   20  O   UNL     1      -7.751  12.060  66.904  1.00  0.00    -0.146 OA 
HETATM   21  C   UNL     1      -7.997   7.530  64.420  1.00  0.00    -0.117 A  
HETATM   22  C   UNL     1      -8.160   6.201  64.070  1.00  0.00    -0.074 A  
HETATM   23  F   UNL     1      -8.049   5.896  62.768  1.00  0.00    -0.089 F  
HETATM   24  C   UNL     1      -8.495   5.217  65.013  1.00  0.00    -0.148 A  
HETATM   25  C   UNL     1      -8.703   5.659  66.352  1.00  0.00    -0.126 A  
HETATM   26 CL   UNL     1      -9.819   4.725  67.335  1.00  0.00    -0.210 Cl 
HETATM   27  C   UNL     1      -8.324   6.964  66.789  1.00  0.00    -0.116 A  
BRANCH  24  28
HETATM   28  N   UNL     1      -8.645   3.869  64.587  1.00  0.00    -0.108 NA 
HETATM   29  C   UNL     1      -9.816   3.107  64.273  1.00  0.00    -0.158 C  
HETATM   30  C   UNL     1      -9.161   1.885  64.931  1.00  0.00    -0.126 C  
HETATM   31  C   UNL     1      -7.873   2.718  64.969  1.00  0.00    -0.081 C  
HETATM   32  O   UNL     1      -9.708   1.475  66.209  1.00  0.00    -0.272 OA 
HETATM   33  H   UNL     1      -9.302   0.719  66.616  1.00  0.00     0.000 HD 
ENDBRANCH  24  28
ENDBRANCH   6  12
TORSDOF 2
ENDMDL
MODEL      126
REMARK 921   NORMALIZED FREE ENERGY PREDICTED BY IDOCK:   -3.27 KCAL/MOL
REMARK 922        TOTAL FREE ENERGY PREDICTED BY IDOCK:   -4.49 KCAL/MOL
REMARK 923 INTER-LIGAND FREE ENERGY PREDICTED BY IDOCK:   -4.04 KCAL/MOL
REMARK 924 INTRA-LIGAND FREE ENERGY PREDICTED BY IDOCK:   -0.45 KCAL/MOL
REMARK 927      BINDING AFFINITY PREDICTED BY RF-SCORE:    0.00 PKD
ROOT
HETATM    1  N   UNL     1     -10.538   7.617  73.491  1.00  0.00    -0.295 NA 
HETATM    2  H1  UNL     1     -10.671   7.026  74.312  1.00  0.00     0.000 HD 
HETATM    3  C   UNL     1      -9.495   7.263  72.632  1.00  0.00    -0.150 A  
HETATM    4  H2  UNL     1     -11.410   7.676  72.966  1.00  0.00     0.000 HD 
HETATM    5  N   UNL     1      -9.319   8.046  71.544  1.00  0.00    -0.146 NA 
HETATM    6  C   UNL     1      -8.236   7.838  70.741  1.00  0.00    -0.107 A  
HETATM    7  F   UNL     1      -8.890   5.408  73.994  1.00  0.00    -0.119 F  
HETATM    8  C   UNL     1      -7.396   6.728  70.993  1.00  0.00    -0.078 A  
HETATM    9  C   UNL     1      -8.692   6.158  72.901  1.00  0.00    -0.122 A  
HETATM   10  F   UNL     1      -6.299   6.484  70.262  1.00  0.00    -0.034 F  
HETATM   11  C   UNL     1      -7.639   5.870  72.058  1.00  0.00    -0.097 A  
ENDROOT
BRANCH   6  12
HETATM   12  N   UNL     1      -7.952   8.782  69.671  1.00  0.00    -0.093 NA 
HETATM   13  C   UNL     1      -6.725  10.857  69.133  1.00  0.00    -0.079 C  
HETATM   14  C   UNL     1      -6.102  12.087  69.660  1.00  0.00    -0.129 C  
HETATM   15  C   UNL     1      -6.764  10.521  67.710  1.00  0.00    -0.069 C  
HETATM   16  C   UNL     1      -7.272   9.971  69.978  1.00  0.00    -0.156 C  
HETATM   17  O   UNL     1      -6.021  12.340  70.858  1.00  0.00    -0.319 OA 
HETATM   18  O   UNL     1      -6.278  11.287  66.881  1.00  0.00    -0.095 OA 
HETATM   19  C   UNL     1      -7.415   9.257  67.309  1.00  0.00    -0.091 A  
HETATM   20  O   UNL     1      -5.647  12.944  68.718  1.00  0.00    -0.068 OA 
HETATM   21  C   UNL     1      -7.386   8.933  65.953  1.00  0.00    -0.093 A  
HETATM   22  C   UNL     1      -8.010   7.780  65.513  1.00  0.00    -0.121 A  
HETATM   23  F   UNL     1      -7.917   7.497  64.205  1.00  0.00    -0.121 F  
HETATM   24  C   UNL     1      -8.770   6.969  66.371  1.00  0.00    -0.142 A  
HETATM   25  C   UNL     1      -8.904   7.414  67.719  1.00  0.00    -0.128 A  
HETATM   26 CL   UNL     1     -10.367   6.946  68.571  1.00  0.00    -0.185 Cl 
HETATM   27  C   UNL     1      -8.096   8.461  68.257  1.00  0.00    -0.120 A  
BRANCH  24  28
HETATM   28  N   UNL     1      -9.383   5.795  65.855  1.00  0.00    -0.123 NA 
HETATM   29  C   UNL     1     -10.498   5.031  66.330  1.00  0.00    -0.300 C  
HETATM   30  C   UNL     1      -9.762   3.752  65.907  1.00  0.00    -0.129 C  
HETATM   31  C   UNL     1      -8.765   4.677  65.198  1.00  0.00    -0.140 C  
HETATM   32  O   UNL     1      -9.237   2.930  66.979  1.00  0.00    -0.186 OA 
HETATM   33  H   UNL     1      -8.782   2.138  66.717  1.00  0.00     0.000 HD 
ENDBRANCH  24  28
ENDBRANCH   6  12
TORSDOF 2
ENDMDL
MODEL      127
REMARK 921   NORMALIZED FREE ENERGY PREDICTED BY IDOCK:   -3.24 KCAL/MOL
REMARK 922        TOTAL FREE ENERGY PREDICTED BY IDOCK:   -4.46 KCAL/MOL
REMARK 923 INTER-LIGAND FREE ENERGY PREDICTED BY IDOCK:   -5.21 KCAL/MOL
REMARK 924 INTRA-LIGAND FREE ENERGY PREDICTED BY IDOCK:    0.75 KCAL/MOL
REMARK 927      BINDING AFFINITY PREDICTED BY RF-SCORE:    0.00 PKD
ROOT
HETATM    1  N   UNL     1     -10.873  10.576  63.581  1.00  0.00    -0.120 NA 
HETATM    2  H1  UNL     1     -11.181   9.604  63.539  1.00  0.00     0.000 HD 
HETATM    3  C   UNL     1     -10.449  11.042  64.828  1.00  0.00    -0.316 A  
HETATM    4  H2  UNL     1     -10.142  10.734  62.888  1.00  0.00     0.000 HD 
HETATM    5  N   UNL     1     -10.041  12.330  64.883  1.00  0.00    -0.271 NA 
HETATM    6  C   UNL     1      -9.746  12.884  66.093  1.00  0.00    -0.248 A  
HETATM    7  F   UNL     1     -10.872   8.936  65.852  1.00  0.00     0.248 F  
HETATM    8  C   UNL     1      -9.749  12.064  67.245  1.00  0.00    -0.185 A  
HETATM    9  C   UNL     1     -10.453  10.206  65.941  1.00  0.00    -0.071 A  
HETATM   10  F   UNL     1      -9.500  12.551  68.469  1.00  0.00    -0.205 F  
HETATM   11  C   UNL     1     -10.077  10.715  67.166  1.00  0.00    -0.248 A  
ENDROOT
BRANCH   6  12
HETATM   12  N   UNL     1      -9.473  14.311  66.174  1.00  0.00    -0.260 NA 
HETATM   13  C   UNL     1     -10.370  16.537  65.591  1.00  0.00    -0.342 C  
HETATM   14  C   UNL     1     -11.281  17.304  64.718  1.00  0.00     0.690 C  
HETATM   15  C   UNL     1      -9.527  17.154  66.615  1.00  0.00    -0.264 C  
HETATM   16  C   UNL     1     -10.307  15.202  65.480  1.00  0.00    -0.375 C  
HETATM   17  O   UNL     1     -12.029  16.779  63.899  1.00  0.00    -0.676 OA 
HETATM   18  O   UNL     1      -9.540  18.373  66.772  1.00  0.00    -0.284 OA 
HETATM   19  C   UNL     1      -8.660  16.276  67.426  1.00  0.00    -0.194 A  
HETATM   20  O   UNL     1     -11.213  18.646  64.863  1.00  0.00    -0.314 OA 
HETATM   21  C   UNL     1      -7.911  16.884  68.434  1.00  0.00    -0.232 A  
HETATM   22  C   UNL     1      -7.054  16.119  69.204  1.00  0.00    -0.209 A  
HETATM   23  F   UNL     1      -6.388  16.748  70.184  1.00  0.00    -0.218 F  
HETATM   24  C   UNL     1      -6.826  14.759  68.938  1.00  0.00    -0.105 A  
HETATM   25  C   UNL     1      -7.493  14.208  67.805  1.00  0.00    -0.165 A  
HETATM   26 CL   UNL     1      -6.707  12.864  66.993  1.00  0.00     0.104 Cl 
HETATM   27  C   UNL     1      -8.549  14.898  67.136  1.00  0.00    -0.225 A  
BRANCH  24  28
HETATM   28  N   UNL     1      -5.935  14.029  69.770  1.00  0.00    -0.114 NA 
HETATM   29  C   UNL     1      -5.175  12.841  69.519  1.00  0.00    -0.077 C  
HETATM   30  C   UNL     1      -5.464  12.388  70.957  1.00  0.00    -0.116 C  
HETATM   31  C   UNL     1      -6.015  13.801  71.187  1.00  0.00    -0.094 C  
HETATM   32  O   UNL     1      -6.401  11.293  71.108  1.00  0.00    -0.318 OA 
HETATM   33  H   UNL     1      -6.580  11.013  71.998  1.00  0.00     0.000 HD 
ENDBRANCH  24  28
ENDBRANCH   6  12
TORSDOF 2
ENDMDL
MODEL      128
REMARK 921   NORMALIZED FREE ENERGY PREDICTED BY IDOCK:   -3.16 KCAL/MOL
REMARK 922        TOTAL FREE ENERGY PREDICTED BY IDOCK:   -4.36 KCAL/MOL
REMARK 923 INTER-LIGAND FREE ENERGY PREDICTED BY IDOCK:   -3.42 KCAL/MOL
REMARK 924 INTRA-LIGAND FREE ENERGY PREDICTED BY IDOCK:   -0.95 KCAL/MOL
REMARK 927      BINDING AFFINITY PREDICTED BY RF-SCORE:    0.00 PKD
ROOT
HETATM    1  N   UNL     1      -9.386   8.108  73.012  1.00  0.00    -0.267 NA 
HETATM    2  H1  UNL     1      -9.153   8.382  73.966  1.00  0.00     0.000 HD 
HETATM    3  C   UNL     1      -8.553   7.158  72.416  1.00  0.00    -0.119 A  
HETATM    4  H2  UNL     1     -10.354   7.789  72.972  1.00  0.00     0.000 HD 
HETATM    5  N   UNL     1      -8.862   6.795  71.151  1.00  0.00    -0.137 NA 
HETATM    6  C   UNL     1      -8.011   5.978  70.466  1.00  0.00    -0.111 A  
HETATM    7  F   UNL     1      -7.188   7.014  74.360  1.00  0.00    -0.097 F  
HETATM    8  C   UNL     1      -6.896   5.426  71.138  1.00  0.00    -0.052 A  
HETATM    9  C   UNL     1      -7.469   6.625  73.108  1.00  0.00    -0.088 A  
HETATM   10  F   UNL     1      -6.004   4.641  70.517  1.00  0.00    -0.014 F  
HETATM   11  C   UNL     1      -6.638   5.728  72.470  1.00  0.00    -0.067 A  
ENDROOT
BRANCH   6  12
HETATM   12  N   UNL     1      -8.252   5.724  69.053  1.00  0.00    -0.101 NA 
HETATM   13  C   UNL     1      -9.011   4.006  67.450  1.00  0.00    -0.146 C  
HETATM   14  C   UNL     1      -9.201   2.565  67.192  1.00  0.00    -0.109 C  
HETATM   15  C   UNL     1      -9.327   5.047  66.471  1.00  0.00    -0.141 C  
HETATM   16  C   UNL     1      -8.549   4.416  68.640  1.00  0.00    -0.092 C  
HETATM   17  O   UNL     1      -8.989   1.698  68.033  1.00  0.00    -0.101 OA 
HETATM   18  O   UNL     1      -9.758   4.741  65.362  1.00  0.00    -0.165 OA 
HETATM   19  C   UNL     1      -9.094   6.455  66.852  1.00  0.00    -0.138 A  
HETATM   20  O   UNL     1      -9.602   2.259  65.938  1.00  0.00     0.109 OA 
HETATM   21  C   UNL     1      -9.459   7.429  65.922  1.00  0.00     0.109 A  
HETATM   22  C   UNL     1      -9.232   8.764  66.208  1.00  0.00    -0.207 A  
HETATM   23  F   UNL     1      -9.639   9.660  65.296  1.00  0.00    -0.288 F  
HETATM   24  C   UNL     1      -8.546   9.174  67.362  1.00  0.00    -0.115 A  
HETATM   25  C   UNL     1      -8.054   8.142  68.213  1.00  0.00    -0.128 A  
HETATM   26 CL   UNL     1      -6.616   8.504  69.155  1.00  0.00    -0.046 Cl 
HETATM   27  C   UNL     1      -8.463   6.781  68.073  1.00  0.00    -0.120 A  
BRANCH  24  28
HETATM   28  N   UNL     1      -8.350  10.562  67.597  1.00  0.00    -0.114 NA 
HETATM   29  C   UNL     1      -7.201  11.394  67.401  1.00  0.00    -0.115 C  
HETATM   30  C   UNL     1      -7.558  12.140  68.694  1.00  0.00    -0.097 C  
HETATM   31  C   UNL     1      -8.888  11.377  68.652  1.00  0.00    -0.125 C  
HETATM   32  O   UNL     1      -6.701  11.890  69.835  1.00  0.00    -0.333 OA 
HETATM   33  H   UNL     1      -6.922  12.352  70.636  1.00  0.00     0.000 HD 
ENDBRANCH  24  28
ENDBRANCH   6  12
TORSDOF 2
ENDMDL
MODEL      129
REMARK 921   NORMALIZED FREE ENERGY PREDICTED BY IDOCK:   -3.11 KCAL/MOL
REMARK 922        TOTAL FREE ENERGY PREDICTED BY IDOCK:   -4.31 KCAL/MOL
REMARK 923 INTER-LIGAND FREE ENERGY PREDICTED BY IDOCK:   -6.21 KCAL/MOL
REMARK 924 INTRA-LIGAND FREE ENERGY PREDICTED BY IDOCK:    1.90 KCAL/MOL
REMARK 927      BINDING AFFINITY PREDICTED BY RF-SCORE:    0.00 PKD
ROOT
HETATM    1  N   UNL     1     -12.846  14.382  72.920  1.00  0.00    -0.438 NA 
HETATM    2  H1  UNL     1     -13.295  15.294  73.014  1.00  0.00     0.000 HD 
HETATM    3  C   UNL     1     -12.605  13.939  71.617  1.00  0.00    -0.298 A  
HETATM    4  H2  UNL     1     -11.978  14.371  73.453  1.00  0.00     0.000 HD 
HETATM    5  N   UNL     1     -12.010  12.731  71.493  1.00  0.00     0.712 NA 
HETATM    6  C   UNL     1     -11.872  12.182  70.252  1.00  0.00    -0.254 A  
HETATM    7  F   UNL     1     -13.559  15.907  70.680  1.00  0.00    -0.365 F  
HETATM    8  C   UNL     1     -12.235  12.943  69.117  1.00  0.00    -0.037 A  
HETATM    9  C   UNL     1     -12.964  14.717  70.520  1.00  0.00    -0.286 A  
HETATM   10  F   UNL     1     -12.154  12.452  67.872  1.00  0.00    -0.401 F  
HETATM   11  C   UNL     1     -12.757  14.224  69.249  1.00  0.00     0.359 A  
ENDROOT
BRANCH   6  12
HETATM   12  N   UNL     1     -11.390  10.814  70.130  1.00  0.00    -0.308 NA 
HETATM   13  C   UNL     1     -11.588   8.549  71.096  1.00  0.00    -0.325 C  
HETATM   14  C   UNL     1     -11.960   7.746  72.278  1.00  0.00    -0.309 C  
HETATM   15  C   UNL     1     -11.078   7.966  69.855  1.00  0.00    -0.120 C  
HETATM   16  C   UNL     1     -11.735   9.882  71.122  1.00  0.00    -0.396 C  
HETATM   17  O   UNL     1     -12.441   8.232  73.297  1.00  0.00     0.113 OA 
HETATM   18  O   UNL     1     -10.923   6.751  69.762  1.00  0.00    -0.257 OA 
HETATM   19  C   UNL     1     -10.743   8.878  68.742  1.00  0.00    -0.123 A  
HETATM   20  O   UNL     1     -11.705   6.423  72.171  1.00  0.00    -0.303 OA 
HETATM   21  C   UNL     1     -10.315   8.291  67.552  1.00  0.00    -0.333 A  
HETATM   22  C   UNL     1      -9.953   9.096  66.486  1.00  0.00    -0.288 A  
HETATM   23  F   UNL     1      -9.587   8.478  65.352  1.00  0.00    -0.175 F  
HETATM   24  C   UNL     1      -9.899  10.494  66.592  1.00  0.00    -0.199 A  
HETATM   25  C   UNL     1     -10.196  11.051  67.870  1.00  0.00    -0.182 A  
HETATM   26 CL   UNL     1      -9.428  12.579  68.272  1.00  0.00    -0.212 Cl 
HETATM   27  C   UNL     1     -10.789  10.279  68.915  1.00  0.00    -0.228 A  
BRANCH  24  28
HETATM   28  N   UNL     1      -9.522  11.263  65.457  1.00  0.00    -0.225 NA 
HETATM   29  C   UNL     1     -10.015  12.513  64.963  1.00  0.00    -0.176 C  
HETATM   30  C   UNL     1      -9.858  11.977  63.534  1.00  0.00    -0.289 C  
HETATM   31  C   UNL     1      -9.099  10.802  64.163  1.00  0.00    -0.196 C  
HETATM   32  O   UNL     1     -11.084  11.657  62.831  1.00  0.00    -0.673 OA 
HETATM   33  H   UNL     1     -10.987  11.324  61.946  1.00  0.00     0.000 HD 
ENDBRANCH  24  28
ENDBRANCH   6  12
TORSDOF 2
ENDMDL
MODEL      130
REMARK 921   NORMALIZED FREE ENERGY PREDICTED BY IDOCK:   -3.02 KCAL/MOL
REMARK 922        TOTAL FREE ENERGY PREDICTED BY IDOCK:   -4.21 KCAL/MOL
REMARK 923 INTER-LIGAND FREE ENERGY PREDICTED BY IDOCK:   -6.03 KCAL/MOL
REMARK 924 INTRA-LIGAND FREE ENERGY PREDICTED BY IDOCK:    1.82 KCAL/MOL
REMARK 927      BINDING AFFINITY PREDICTED BY RF-SCORE:    0.00 PKD
ROOT
HETATM    1  N   UNL     1      -6.493  11.536  65.871  1.00  0.00    -0.351 NA 
HETATM    2  H1  UNL     1      -5.728  12.125  65.544  1.00  0.00     0.000 HD 
HETATM    3  C   UNL     1      -7.320  12.080  66.857  1.00  0.00    -0.042 A  
HETATM    4  H2  UNL     1      -7.057  11.233  65.078  1.00  0.00     0.000 HD 
HETATM    5  N   UNL     1      -8.335  11.299  67.291  1.00  0.00    -0.140 NA 
HETATM    6  C   UNL     1      -9.092  11.716  68.345  1.00  0.00    -0.180 A  
HETATM    7  F   UNL     1      -6.074  14.107  66.901  1.00  0.00     0.371 F  
HETATM    8  C   UNL     1      -8.883  13.011  68.875  1.00  0.00     0.325 A  
HETATM    9  C   UNL     1      -7.095  13.363  67.349  1.00  0.00    -0.094 A  
HETATM   10  F   UNL     1      -9.571  13.470  69.929  1.00  0.00     0.918 F  
HETATM   11  C   UNL     1      -7.900  13.847  68.359  1.00  0.00    -0.138 A  
ENDROOT
BRANCH   6  12
HETATM   12  N   UNL     1     -10.070  10.805  68.922  1.00  0.00    -0.197 NA 
HETATM   13  C   UNL     1     -10.447   8.451  69.568  1.00  0.00    -0.225 C  
HETATM   14  C   UNL     1     -10.047   7.044  69.370  1.00  0.00    -0.169 C  
HETATM   15  C   UNL     1     -11.515   8.864  70.480  1.00  0.00    -0.200 C  
HETATM   16  C   UNL     1      -9.804   9.427  68.910  1.00  0.00    -0.171 C  
HETATM   17  O   UNL     1      -9.115   6.706  68.648  1.00  0.00    -0.128 OA 
HETATM   18  O   UNL     1     -12.142   8.021  71.117  1.00  0.00    -0.300 OA 
HETATM   19  C   UNL     1     -11.819  10.305  70.591  1.00  0.00    -0.439 A  
HETATM   20  O   UNL     1     -10.807   6.138  70.024  1.00  0.00    -0.275 OA 
HETATM   21  C   UNL     1     -12.800  10.674  71.510  1.00  0.00    -0.567 A  
HETATM   22  C   UNL     1     -13.154  12.006  71.633  1.00  0.00    -0.318 A  
HETATM   23  F   UNL     1     -14.074  12.309  72.561  1.00  0.00    -0.384 F  
HETATM   24  C   UNL     1     -12.634  12.997  70.786  1.00  0.00    -0.241 A  
HETATM   25  C   UNL     1     -11.749  12.559  69.758  1.00  0.00    -0.285 A  
HETATM   26 CL   UNL     1     -11.700  13.518  68.287  1.00  0.00    -0.374 Cl 
HETATM   27  C   UNL     1     -11.189  11.245  69.746  1.00  0.00    -0.220 A  
BRANCH  24  28
HETATM   28  N   UNL     1     -13.036  14.348  70.968  1.00  0.00    -0.359 NA 
HETATM   29  C   UNL     1     -12.303  15.495  71.414  1.00  0.00    -0.400 C  
HETATM   30  C   UNL     1     -13.551  15.959  72.176  1.00  0.00    -0.233 C  
HETATM   31  C   UNL     1     -14.302  14.852  71.426  1.00  0.00    -0.468 C  
HETATM   32  O   UNL     1     -13.499  15.847  73.620  1.00  0.00    -0.750 OA 
HETATM   33  H   UNL     1     -14.273  16.134  74.092  1.00  0.00     0.000 HD 
ENDBRANCH  24  28
ENDBRANCH   6  12
TORSDOF 2
ENDMDL
MODEL      131
REMARK 921   NORMALIZED FREE ENERGY PREDICTED BY IDOCK:   -3.01 KCAL/MOL
REMARK 922        TOTAL FREE ENERGY PREDICTED BY IDOCK:   -4.20 KCAL/MOL
REMARK 923 INTER-LIGAND FREE ENERGY PREDICTED BY IDOCK:   -3.95 KCAL/MOL
REMARK 924 INTRA-LIGAND FREE ENERGY PREDICTED BY IDOCK:   -0.25 KCAL/MOL
REMARK 927      BINDING AFFINITY PREDICTED BY RF-SCORE:    0.00 PKD
ROOT
HETATM    1  N   UNL     1     -11.888   6.795  69.882  1.00  0.00    -0.657 NA 
HETATM    2  H1  UNL     1     -12.324   6.305  70.664  1.00  0.00     0.000 HD 
HETATM    3  C   UNL     1     -10.511   7.011  69.972  1.00  0.00    -0.215 A  
HETATM    4  H2  UNL     1     -12.104   6.311  69.011  1.00  0.00     0.000 HD 
HETATM    5  N   UNL     1      -9.934   7.660  68.936  1.00  0.00    -0.172 NA 
HETATM    6  C   UNL     1      -8.623   8.023  69.025  1.00  0.00    -0.137 A  
HETATM    7  F   UNL     1     -10.396   5.936  72.092  1.00  0.00    -0.208 F  
HETATM    8  C   UNL     1      -7.864   7.598  70.140  1.00  0.00    -0.097 A  
HETATM    9  C   UNL     1      -9.790   6.570  71.079  1.00  0.00    -0.179 A  
HETATM   10  F   UNL     1      -6.580   7.946  70.304  1.00  0.00    -0.036 F  
HETATM   11  C   UNL     1      -8.442   6.847  71.157  1.00  0.00    -0.123 A  
ENDROOT
BRANCH   6  12
HETATM   12  N   UNL     1      -8.047   8.868  67.988  1.00  0.00    -0.106 NA 
HETATM   13  C   UNL     1      -6.979  11.057  67.583  1.00  0.00    -0.083 C  
HETATM   14  C   UNL     1      -6.785  12.438  68.069  1.00  0.00    -0.081 C  
HETATM   15  C   UNL     1      -6.391  10.550  66.343  1.00  0.00    -0.100 C  
HETATM   16  C   UNL     1      -7.707  10.192  68.304  1.00  0.00    -0.088 C  
HETATM   17  O   UNL     1      -7.232  12.844  69.136  1.00  0.00    -0.037 OA 
HETATM   18  O   UNL     1      -5.709  11.288  65.636  1.00  0.00    -0.142 OA 
HETATM   19  C   UNL     1      -6.657   9.146  65.968  1.00  0.00    -0.069 A  
HETATM   20  O   UNL     1      -6.097  13.245  67.231  1.00  0.00    -0.328 OA 
HETATM   21  C   UNL     1      -6.037   8.672  64.813  1.00  0.00    -0.064 A  
HETATM   22  C   UNL     1      -6.277   7.377  64.391  1.00  0.00    -0.041 A  
HETATM   23  F   UNL     1      -5.623   6.961  63.296  1.00  0.00    -0.032 F  
HETATM   24  C   UNL     1      -7.212   6.546  65.028  1.00  0.00    -0.067 A  
HETATM   25  C   UNL     1      -7.940   7.118  66.113  1.00  0.00    -0.112 A  
HETATM   26 CL   UNL     1      -9.552   6.487  66.412  1.00  0.00    -0.181 Cl 
HETATM   27  C   UNL     1      -7.560   8.356  66.714  1.00  0.00    -0.090 A  
BRANCH  24  28
HETATM   28  N   UNL     1      -7.409   5.224  64.546  1.00  0.00    -0.058 NA 
HETATM   29  C   UNL     1      -7.930   4.745  63.301  1.00  0.00    -0.086 C  
HETATM   30  C   UNL     1      -8.629   3.612  64.064  1.00  0.00    -0.091 C  
HETATM   31  C   UNL     1      -7.805   4.053  65.280  1.00  0.00    -0.089 C  
HETATM   32  O   UNL     1     -10.070   3.714  64.184  1.00  0.00    -0.181 OA 
HETATM   33  H   UNL     1     -10.503   3.013  64.657  1.00  0.00     0.000 HD 
ENDBRANCH  24  28
ENDBRANCH   6  12
TORSDOF 2
ENDMDL
MODEL      132
REMARK 921   NORMALIZED FREE ENERGY PREDICTED BY IDOCK:   -2.98 KCAL/MOL
REMARK 922        TOTAL FREE ENERGY PREDICTED BY IDOCK:   -4.17 KCAL/MOL
REMARK 923 INTER-LIGAND FREE ENERGY PREDICTED BY IDOCK:   -3.47 KCAL/MOL
REMARK 924 INTRA-LIGAND FREE ENERGY PREDICTED BY IDOCK:   -0.70 KCAL/MOL
REMARK 927      BINDING AFFINITY PREDICTED BY RF-SCORE:    0.00 PKD
ROOT
HETATM    1  N   UNL     1      -6.667   9.307  71.859  1.00  0.00    -0.301 NA 
HETATM    2  H1  UNL     1      -6.587  10.322  71.801  1.00  0.00     0.000 HD 
HETATM    3  C   UNL     1      -7.487   8.693  70.909  1.00  0.00    -0.083 A  
HETATM    4  H2  UNL     1      -5.738   8.888  71.833  1.00  0.00     0.000 HD 
HETATM    5  N   UNL     1      -7.593   7.347  70.985  1.00  0.00    -0.085 NA 
HETATM    6  C   UNL     1      -8.483   6.702  70.177  1.00  0.00    -0.136 A  
HETATM    7  F   UNL     1      -8.027  10.780  69.902  1.00  0.00    -0.104 F  
HETATM    8  C   UNL     1      -9.177   7.440  69.191  1.00  0.00    -0.147 A  
HETATM    9  C   UNL     1      -8.149   9.446  69.943  1.00  0.00    -0.138 A  
HETATM   10  F   UNL     1     -10.088   6.874  68.386  1.00  0.00    -0.149 F  
HETATM   11  C   UNL     1      -8.991   8.810  69.055  1.00  0.00    -0.137 A  
ENDROOT
BRANCH   6  12
HETATM   12  N   UNL     1      -8.721   5.280  70.375  1.00  0.00    -0.124 NA 
HETATM   13  C   UNL     1      -9.810   3.643  71.870  1.00  0.00    -0.241 C  
HETATM   14  C   UNL     1     -10.334   3.374  73.223  1.00  0.00    -0.160 C  
HETATM   15  C   UNL     1      -9.824   2.655  70.790  1.00  0.00     0.092 C  
HETATM   16  C   UNL     1      -9.310   4.851  71.576  1.00  0.00    -0.149 C  
HETATM   17  O   UNL     1     -10.372   4.221  74.110  1.00  0.00    -0.183 OA 
HETATM   18  O   UNL     1     -10.272   1.528  70.991  1.00  0.00     0.011 OA 
HETATM   19  C   UNL     1      -9.272   3.048  69.478  1.00  0.00    -0.217 A  
HETATM   20  O   UNL     1     -10.747   2.104  73.433  1.00  0.00    -0.126 OA 
HETATM   21  C   UNL     1      -9.352   2.107  68.452  1.00  0.00    -0.250 A  
HETATM   22  C   UNL     1      -8.819   2.404  67.210  1.00  0.00    -0.135 A  
HETATM   23  F   UNL     1      -8.959   1.479  66.249  1.00  0.00    -0.112 F  
HETATM   24  C   UNL     1      -8.101   3.587  66.970  1.00  0.00    -0.087 A  
HETATM   25  C   UNL     1      -7.908   4.454  68.084  1.00  0.00    -0.079 A  
HETATM   26 CL   UNL     1      -6.465   5.455  68.075  1.00  0.00    -0.046 Cl 
HETATM   27  C   UNL     1      -8.630   4.294  69.306  1.00  0.00    -0.081 A  
BRANCH  24  28
HETATM   28  N   UNL     1      -7.583   3.833  65.670  1.00  0.00    -0.081 NA 
HETATM   29  C   UNL     1      -6.246   4.091  65.225  1.00  0.00    -0.027 C  
HETATM   30  C   UNL     1      -6.810   5.101  64.215  1.00  0.00    -0.048 C  
HETATM   31  C   UNL     1      -8.193   4.549  64.583  1.00  0.00    -0.109 C  
HETATM   32  O   UNL     1      -6.570   6.500  64.507  1.00  0.00    -0.036 OA 
HETATM   33  H   UNL     1      -6.920   7.125  63.882  1.00  0.00     0.000 HD 
ENDBRANCH  24  28
ENDBRANCH   6  12
TORSDOF 2
ENDMDL
MODEL      133
REMARK 921   NORMALIZED FREE ENERGY PREDICTED BY IDOCK:   -2.95 KCAL/MOL
REMARK 922        TOTAL FREE ENERGY PREDICTED BY IDOCK:   -4.13 KCAL/MOL
REMARK 923 INTER-LIGAND FREE ENERGY PREDICTED BY IDOCK:   -3.09 KCAL/MOL
REMARK 924 INTRA-LIGAND FREE ENERGY PREDICTED BY IDOCK:   -1.04 KCAL/MOL
REMARK 927      BINDING AFFINITY PREDICTED BY RF-SCORE:    0.00 PKD
ROOT
HETATM    1  N   UNL     1     -11.989  15.554  72.653  1.00  0.00    -0.419 NA 
HETATM    2  H1  UNL     1     -12.971  15.614  72.923  1.00  0.00     0.000 HD 
HETATM    3  C   UNL     1     -11.721  15.521  71.282  1.00  0.00    -0.401 A  
HETATM    4  H2  UNL     1     -11.467  16.315  73.087  1.00  0.00     0.000 HD 
HETATM    5  N   UNL     1     -10.420  15.442  70.925  1.00  0.00    -0.008 NA 
HETATM    6  C   UNL     1     -10.100  15.268  69.611  1.00  0.00    -0.237 A  
HETATM    7  F   UNL     1     -14.036  15.641  70.742  1.00  0.00    -0.444 F  
HETATM    8  C   UNL     1     -11.128  15.305  68.640  1.00  0.00    -0.279 A  
HETATM    9  C   UNL     1     -12.755  15.571  70.351  1.00  0.00    -0.338 A  
HETATM   10  F   UNL     1     -10.886  15.110  67.336  1.00  0.00    -0.273 F  
HETATM   11  C   UNL     1     -12.456  15.484  69.008  1.00  0.00     0.147 A  
ENDROOT
BRANCH   6  12
HETATM   12  N   UNL     1      -8.714  15.013  69.244  1.00  0.00    -0.191 NA 
HETATM   13  C   UNL     1      -7.040  13.221  68.954  1.00  0.00    -0.079 C  
HETATM   14  C   UNL     1      -6.642  11.843  69.305  1.00  0.00    -0.110 C  
HETATM   15  C   UNL     1      -6.246  14.092  68.087  1.00  0.00    -0.133 C  
HETATM   16  C   UNL     1      -8.194  13.721  69.419  1.00  0.00     0.635 C  
HETATM   17  O   UNL     1      -7.336  11.095  69.986  1.00  0.00     0.040 OA 
HETATM   18  O   UNL     1      -5.180  13.695  67.623  1.00  0.00    -0.278 OA 
HETATM   19  C   UNL     1      -6.755  15.450  67.809  1.00  0.00    -0.187 A  
HETATM   20  O   UNL     1      -5.429  11.466  68.843  1.00  0.00    -0.040 OA 
HETATM   21  C   UNL     1      -6.008  16.238  66.933  1.00  0.00     0.073 A  
HETATM   22  C   UNL     1      -6.416  17.532  66.662  1.00  0.00    -0.217 A  
HETATM   23  F   UNL     1      -5.683  18.230  65.782  1.00  0.00    -0.174 F  
HETATM   24  C   UNL     1      -7.503  18.125  67.323  1.00  0.00    -0.211 A  
HETATM   25  C   UNL     1      -8.148  17.341  68.323  1.00  0.00    -0.246 A  
HETATM   26 CL   UNL     1      -8.916  18.209  69.643  1.00  0.00     0.701 Cl 
HETATM   27  C   UNL     1      -7.906  15.941  68.465  1.00  0.00    -0.142 A  
BRANCH  24  28
HETATM   28  N   UNL     1      -7.872  19.458  66.995  1.00  0.00    -0.247 NA 
HETATM   29  C   UNL     1      -8.562  19.990  65.858  1.00  0.00    -0.104 C  
HETATM   30  C   UNL     1      -7.631  21.209  65.902  1.00  0.00     0.891 C  
HETATM   31  C   UNL     1      -7.155  20.676  67.259  1.00  0.00    -0.333 C  
HETATM   32  O   UNL     1      -6.636  21.294  64.851  1.00  0.00    -0.482 OA 
HETATM   33  H   UNL     1      -6.060  22.049  64.878  1.00  0.00     0.000 HD 
ENDBRANCH  24  28
ENDBRANCH   6  12
TORSDOF 2
ENDMDL
MODEL      134
REMARK 921   NORMALIZED FREE ENERGY PREDICTED BY IDOCK:   -2.87 KCAL/MOL
REMARK 922        TOTAL FREE ENERGY PREDICTED BY IDOCK:   -4.05 KCAL/MOL
REMARK 923 INTER-LIGAND FREE ENERGY PREDICTED BY IDOCK:   -3.08 KCAL/MOL
REMARK 924 INTRA-LIGAND FREE ENERGY PREDICTED BY IDOCK:   -0.97 KCAL/MOL
REMARK 927      BINDING AFFINITY PREDICTED BY RF-SCORE:    0.00 PKD
ROOT
HETATM    1  N   UNL     1      -9.658  13.801  67.812  1.00  0.00    -0.213 NA 
HETATM    2  H1  UNL     1     -10.391  14.488  67.631  1.00  0.00     0.000 HD 
HETATM    3  C   UNL     1     -10.081  12.514  68.153  1.00  0.00    -0.225 A  
HETATM    4  H2  UNL     1      -9.027  13.754  67.012  1.00  0.00     0.000 HD 
HETATM    5  N   UNL     1      -9.110  11.605  68.392  1.00  0.00    -0.185 NA 
HETATM    6  C   UNL     1      -9.453  10.372  68.863  1.00  0.00    -0.186 A  
HETATM    7  F   UNL     1     -12.373  13.136  67.999  1.00  0.00    -0.326 F  
HETATM    8  C   UNL     1     -10.822  10.031  68.966  1.00  0.00    -0.222 A  
HETATM    9  C   UNL     1     -11.436  12.206  68.235  1.00  0.00    -0.305 A  
HETATM   10  F   UNL     1     -11.228   8.848  69.451  1.00  0.00    -0.171 F  
HETATM   11  C   UNL     1     -11.816  10.940  68.627  1.00  0.00    -0.269 A  
ENDROOT
BRANCH   6  12
HETATM   12  N   UNL     1      -8.405   9.453  69.282  1.00  0.00    -0.124 NA 
HETATM   13  C   UNL     1      -6.844   8.935  71.124  1.00  0.00    -0.085 C  
HETATM   14  C   UNL     1      -6.127   9.449  72.308  1.00  0.00     0.181 C  
HETATM   15  C   UNL     1      -6.715   7.560  70.639  1.00  0.00    -0.043 C  
HETATM   16  C   UNL     1      -7.681   9.737  70.451  1.00  0.00    -0.137 C  
HETATM   17  O   UNL     1      -6.280  10.584  72.746  1.00  0.00     0.889 OA 
HETATM   18  O   UNL     1      -5.967   6.771  71.212  1.00  0.00    -0.035 OA 
HETATM   19  C   UNL     1      -7.488   7.168  69.444  1.00  0.00    -0.096 A  
HETATM   20  O   UNL     1      -5.255   8.580  72.868  1.00  0.00    -0.042 OA 
HETATM   21  C   UNL     1      -7.392   5.837  69.039  1.00  0.00    -0.083 A  
HETATM   22  C   UNL     1      -8.065   5.418  67.905  1.00  0.00    -0.100 A  
HETATM   23  F   UNL     1      -7.969   4.119  67.584  1.00  0.00    -0.087 F  
HETATM   24  C   UNL     1      -8.763   6.313  67.079  1.00  0.00    -0.108 A  
HETATM   25  C   UNL     1      -8.712   7.690  67.442  1.00  0.00    -0.124 A  
HETATM   26 CL   UNL     1      -8.853   8.862  66.141  1.00  0.00    -0.175 Cl 
HETATM   27  C   UNL     1      -8.228   8.124  68.713  1.00  0.00    -0.125 A  
BRANCH  24  28
HETATM   28  N   UNL     1      -9.437   5.816  65.930  1.00  0.00    -0.092 NA 
HETATM   29  C   UNL     1     -10.706   5.166  65.792  1.00  0.00     0.010 C  
HETATM   30  C   UNL     1     -10.090   4.258  64.720  1.00  0.00    -0.144 C  
HETATM   31  C   UNL     1      -8.876   5.194  64.762  1.00  0.00    -0.100 C  
HETATM   32  O   UNL     1      -9.861   2.878  65.103  1.00  0.00    -0.356 OA 
HETATM   33  H   UNL     1      -9.480   2.316  64.439  1.00  0.00     0.000 HD 
ENDBRANCH  24  28
ENDBRANCH   6  12
TORSDOF 2
ENDMDL
MODEL      135
REMARK 921   NORMALIZED FREE ENERGY PREDICTED BY IDOCK:   -2.83 KCAL/MOL
REMARK 922        TOTAL FREE ENERGY PREDICTED BY IDOCK:   -4.00 KCAL/MOL
REMARK 923 INTER-LIGAND FREE ENERGY PREDICTED BY IDOCK:   -3.24 KCAL/MOL
REMARK 924 INTRA-LIGAND FREE ENERGY PREDICTED BY IDOCK:   -0.77 KCAL/MOL
REMARK 927      BINDING AFFINITY PREDICTED BY RF-SCORE:    0.00 PKD
ROOT
HETATM    1  N   UNL     1     -11.324   4.035  65.866  1.00  0.00     0.782 NA 
HETATM    2  H1  UNL     1     -11.435   3.394  65.080  1.00  0.00     0.000 HD 
HETATM    3  C   UNL     1     -10.119   4.739  65.928  1.00  0.00    -0.242 A  
HETATM    4  H2  UNL     1     -12.105   4.689  65.889  1.00  0.00     0.000 HD 
HETATM    5  N   UNL     1      -9.971   5.589  66.970  1.00  0.00    -0.155 NA 
HETATM    6  C   UNL     1      -8.768   6.201  67.164  1.00  0.00    -0.106 A  
HETATM    7  F   UNL     1      -9.314   3.704  63.942  1.00  0.00    -0.115 F  
HETATM    8  C   UNL     1      -7.747   6.034  66.200  1.00  0.00    -0.102 A  
HETATM    9  C   UNL     1      -9.137   4.562  64.957  1.00  0.00    -0.152 A  
HETATM   10  F   UNL     1      -6.531   6.582  66.346  1.00  0.00    -0.037 F  
HETATM   11  C   UNL     1      -7.940   5.234  65.080  1.00  0.00    -0.108 A  
ENDROOT
BRANCH   6  12
HETATM   12  N   UNL     1      -8.554   6.979  68.375  1.00  0.00    -0.126 NA 
HETATM   13  C   UNL     1      -7.370   6.986  70.543  1.00  0.00    -0.076 C  
HETATM   14  C   UNL     1      -6.719   6.174  71.590  1.00  0.00    -0.059 C  
HETATM   15  C   UNL     1      -7.496   8.442  70.616  1.00  0.00    -0.065 C  
HETATM   16  C   UNL     1      -7.860   6.392  69.445  1.00  0.00    -0.105 C  
HETATM   17  O   UNL     1      -6.565   4.960  71.500  1.00  0.00    -0.032 OA 
HETATM   18  O   UNL     1      -7.064   9.051  71.592  1.00  0.00    -0.242 OA 
HETATM   19  C   UNL     1      -8.166   9.141  69.501  1.00  0.00    -0.120 A  
HETATM   20  O   UNL     1      -6.327   6.863  72.684  1.00  0.00    -0.053 OA 
HETATM   21  C   UNL     1      -8.219  10.533  69.568  1.00  0.00    -0.092 A  
HETATM   22  C   UNL     1      -8.866  11.241  68.571  1.00  0.00    -0.159 A  
HETATM   23  F   UNL     1      -8.853  12.579  68.666  1.00  0.00    -0.163 F  
HETATM   24  C   UNL     1      -9.568  10.600  67.538  1.00  0.00    -0.161 A  
HETATM   25  C   UNL     1      -9.620   9.177  67.586  1.00  0.00    -0.149 A  
HETATM   26 CL   UNL     1     -11.026   8.405  66.870  1.00  0.00     0.020 Cl 
HETATM   27  C   UNL     1      -8.783   8.415  68.458  1.00  0.00    -0.136 A  
BRANCH  24  28
HETATM   28  N   UNL     1     -10.208  11.387  66.542  1.00  0.00    -0.214 NA 
HETATM   29  C   UNL     1      -9.669  12.267  65.549  1.00  0.00    -0.161 C  
HETATM   30  C   UNL     1     -10.856  13.211  65.783  1.00  0.00    -0.273 C  
HETATM   31  C   UNL     1     -11.467  12.077  66.617  1.00  0.00    -0.346 C  
HETATM   32  O   UNL     1     -10.564  14.447  66.481  1.00  0.00    -0.289 OA 
HETATM   33  H   UNL     1     -11.300  15.031  66.627  1.00  0.00     0.000 HD 
ENDBRANCH  24  28
ENDBRANCH   6  12
TORSDOF 2
ENDMDL
MODEL      136
REMARK 921   NORMALIZED FREE ENERGY PREDICTED BY IDOCK:   -2.61 KCAL/MOL
REMARK 922        TOTAL FREE ENERGY PREDICTED BY IDOCK:   -3.75 KCAL/MOL
REMARK 923 INTER-LIGAND FREE ENERGY PREDICTED BY IDOCK:   -3.03 KCAL/MOL
REMARK 924 INTRA-LIGAND FREE ENERGY PREDICTED BY IDOCK:   -0.72 KCAL/MOL
REMARK 927      BINDING AFFINITY PREDICTED BY RF-SCORE:    0.00 PKD
ROOT
HETATM    1  N   UNL     1      -8.473   7.303  62.894  1.00  0.00    -0.361 NA 
HETATM    2  H1  UNL     1      -8.092   7.301  61.948  1.00  0.00     0.000 HD 
HETATM    3  C   UNL     1      -7.643   6.804  63.900  1.00  0.00    -0.105 A  
HETATM    4  H2  UNL     1      -8.782   8.243  63.138  1.00  0.00     0.000 HD 
HETATM    5  N   UNL     1      -8.148   6.806  65.154  1.00  0.00    -0.131 NA 
HETATM    6  C   UNL     1      -7.443   6.207  66.157  1.00  0.00    -0.085 A  
HETATM    7  F   UNL     1      -5.899   6.343  62.348  1.00  0.00    -0.024 F  
HETATM    8  C   UNL     1      -6.145   5.715  65.888  1.00  0.00    -0.029 A  
HETATM    9  C   UNL     1      -6.365   6.337  63.605  1.00  0.00    -0.029 A  
HETATM   10  F   UNL     1      -5.412   5.088  66.819  1.00  0.00    -0.011 F  
HETATM   11  C   UNL     1      -5.593   5.803  64.616  1.00  0.00    -0.017 A  
ENDROOT
BRANCH   6  12
HETATM   12  N   UNL     1      -8.060   6.057  67.467  1.00  0.00    -0.102 NA 
HETATM   13  C   UNL     1      -8.950   4.393  69.060  1.00  0.00    -0.154 C  
HETATM   14  C   UNL     1      -9.502   3.035  69.237  1.00  0.00    -0.097 C  
HETATM   15  C   UNL     1      -8.780   5.343  70.160  1.00  0.00    -0.126 C  
HETATM   16  C   UNL     1      -8.554   4.799  67.845  1.00  0.00    -0.103 C  
HETATM   17  O   UNL     1      -9.592   2.221  68.323  1.00  0.00    -0.211 OA 
HETATM   18  O   UNL     1      -9.119   5.034  71.300  1.00  0.00    -0.137 OA 
HETATM   19  C   UNL     1      -8.213   6.671  69.853  1.00  0.00    -0.127 A  
HETATM   20  O   UNL     1      -9.937   2.756  70.486  1.00  0.00     0.040 OA 
HETATM   21  C   UNL     1      -8.008   7.534  70.929  1.00  0.00    -0.096 A  
HETATM   22  C   UNL     1      -7.512   8.806  70.699  1.00  0.00    -0.079 A  
HETATM   23  F   UNL     1      -7.297   9.579  71.774  1.00  0.00     0.074 F  
HETATM   24  C   UNL     1      -7.306   9.303  69.403  1.00  0.00    -0.077 A  
HETATM   25  C   UNL     1      -7.673   8.447  68.324  1.00  0.00    -0.106 A  
HETATM   26 CL   UNL     1      -8.172   9.219  66.827  1.00  0.00    -0.115 Cl 
HETATM   27  C   UNL     1      -7.965   7.062  68.518  1.00  0.00    -0.123 A  
BRANCH  24  28
HETATM   28  N   UNL     1      -6.792  10.618  69.236  1.00  0.00    -0.074 NA 
HETATM   29  C   UNL     1      -7.452  11.855  68.948  1.00  0.00    -0.060 C  
HETATM   30  C   UNL     1      -6.267  12.244  68.053  1.00  0.00    -0.073 C  
HETATM   31  C   UNL     1      -5.548  11.024  68.643  1.00  0.00    -0.043 C  
HETATM   32  O   UNL     1      -6.511  12.227  66.624  1.00  0.00    -0.452 OA 
HETATM   33  H   UNL     1      -5.777  12.467  66.070  1.00  0.00     0.000 HD 
ENDBRANCH  24  28
ENDBRANCH   6  12
TORSDOF 2
ENDMDL
MODEL      137
REMARK 921   NORMALIZED FREE ENERGY PREDICTED BY IDOCK:   -2.54 KCAL/MOL
REMARK 922        TOTAL FREE ENERGY PREDICTED BY IDOCK:   -3.68 KCAL/MOL
REMARK 923 INTER-LIGAND FREE ENERGY PREDICTED BY IDOCK:   -5.31 KCAL/MOL
REMARK 924 INTRA-LIGAND FREE ENERGY PREDICTED BY IDOCK:    1.64 KCAL/MOL
REMARK 927      BINDING AFFINITY PREDICTED BY RF-SCORE:    0.00 PKD
ROOT
HETATM    1  N   UNL     1      -9.836   6.863  67.933  1.00  0.00    -0.132 NA 
HETATM    2  H1  UNL     1      -9.997   5.867  68.088  1.00  0.00     0.000 HD 
HETATM    3  C   UNL     1     -10.347   7.733  68.899  1.00  0.00    -0.213 A  
HETATM    4  H2  UNL     1      -8.839   7.034  67.809  1.00  0.00     0.000 HD 
HETATM    5  N   UNL     1     -10.135   9.052  68.694  1.00  0.00    -0.184 NA 
HETATM    6  C   UNL     1     -10.724   9.959  69.525  1.00  0.00    -0.242 A  
HETATM    7  F   UNL     1     -11.232   5.930  70.176  1.00  0.00    -0.387 F  
HETATM    8  C   UNL     1     -11.436   9.496  70.656  1.00  0.00    -0.297 A  
HETATM    9  C   UNL     1     -11.033   7.246  70.009  1.00  0.00    -0.253 A  
HETATM   10  F   UNL     1     -12.065  10.332  71.495  1.00  0.00    -0.422 F  
HETATM   11  C   UNL     1     -11.568   8.137  70.914  1.00  0.00    -0.283 A  
ENDROOT
BRANCH   6  12
HETATM   12  N   UNL     1     -10.638  11.377  69.206  1.00  0.00    -0.159 NA 
HETATM   13  C   UNL     1     -11.571  13.594  69.764  1.00  0.00    -0.322 C  
HETATM   14  C   UNL     1     -12.711  14.339  70.334  1.00  0.00    -0.295 C  
HETATM   15  C   UNL     1     -10.375  14.242  69.224  1.00  0.00    -0.057 C  
HETATM   16  C   UNL     1     -11.591  12.253  69.747  1.00  0.00    -0.243 C  
HETATM   17  O   UNL     1     -13.688  13.792  70.837  1.00  0.00     0.007 OA 
HETATM   18  O   UNL     1     -10.290  15.468  69.213  1.00  0.00    -0.220 OA 
HETATM   19  C   UNL     1      -9.301  13.385  68.685  1.00  0.00    -0.010 A  
HETATM   20  O   UNL     1     -12.620  15.684  70.234  1.00  0.00    -0.407 OA 
HETATM   21  C   UNL     1      -8.149  14.026  68.231  1.00  0.00    -0.148 A  
HETATM   22  C   UNL     1      -7.122  13.278  67.682  1.00  0.00    -0.159 A  
HETATM   23  F   UNL     1      -6.022  13.942  67.298  1.00  0.00    -0.088 F  
HETATM   24  C   UNL     1      -7.240  11.896  67.465  1.00  0.00    -0.125 A  
HETATM   25  C   UNL     1      -8.490  11.301  67.801  1.00  0.00    -0.126 A  
HETATM   26 CL   UNL     1      -8.965   9.876  66.889  1.00  0.00    -0.150 Cl 
HETATM   27  C   UNL     1      -9.476  11.987  68.573  1.00  0.00    -0.133 A  
BRANCH  24  28
HETATM   28  N   UNL     1      -6.146  11.186  66.900  1.00  0.00    -0.090 NA 
HETATM   29  C   UNL     1      -5.840  10.860  65.539  1.00  0.00    -0.051 C  
HETATM   30  C   UNL     1      -5.319   9.497  66.015  1.00  0.00    -0.039 C  
HETATM   31  C   UNL     1      -5.436  10.058  67.437  1.00  0.00    -0.042 C  
HETATM   32  O   UNL     1      -6.145   8.349  65.698  1.00  0.00    -0.044 OA 
HETATM   33  H   UNL     1      -5.822   7.505  65.993  1.00  0.00     0.000 HD 
ENDBRANCH  24  28
ENDBRANCH   6  12
TORSDOF 2
ENDMDL
MODEL      138
REMARK 921   NORMALIZED FREE ENERGY PREDICTED BY IDOCK:   -2.52 KCAL/MOL
REMARK 922        TOTAL FREE ENERGY PREDICTED BY IDOCK:   -3.65 KCAL/MOL
REMARK 923 INTER-LIGAND FREE ENERGY PREDICTED BY IDOCK:   -2.77 KCAL/MOL
REMARK 924 INTRA-LIGAND FREE ENERGY PREDICTED BY IDOCK:   -0.89 KCAL/MOL
REMARK 927      BINDING AFFINITY PREDICTED BY RF-SCORE:    0.00 PKD
ROOT
HETATM    1  N   UNL     1      -7.743   5.200  73.842  1.00  0.00    -0.098 NA 
HETATM    2  H1  UNL     1      -7.435   4.487  74.503  1.00  0.00     0.000 HD 
HETATM    3  C   UNL     1      -7.173   5.155  72.567  1.00  0.00    -0.092 A  
HETATM    4  H2  UNL     1      -8.759   5.181  73.765  1.00  0.00     0.000 HD 
HETATM    5  N   UNL     1      -7.581   6.101  71.691  1.00  0.00    -0.094 NA 
HETATM    6  C   UNL     1      -6.963   6.195  70.479  1.00  0.00    -0.063 A  
HETATM    7  F   UNL     1      -5.851   3.258  73.134  1.00  0.00    -0.003 F  
HETATM    8  C   UNL     1      -6.003   5.223  70.117  1.00  0.00    -0.018 A  
HETATM    9  C   UNL     1      -6.239   4.177  72.237  1.00  0.00    -0.020 A  
HETATM   10  F   UNL     1      -5.337   5.275  68.954  1.00  0.00    -0.003 F  
HETATM   11  C   UNL     1      -5.659   4.195  70.986  1.00  0.00    -0.012 A  
ENDROOT
BRANCH   6  12
HETATM   12  N   UNL     1      -7.281   7.316  69.605  1.00  0.00    -0.076 NA 
HETATM   13  C   UNL     1      -6.911   9.734  69.269  1.00  0.00    -0.055 C  
HETATM   14  C   UNL     1      -6.545  11.019  69.896  1.00  0.00    -0.142 C  
HETATM   15  C   UNL     1      -7.256   9.599  67.854  1.00  0.00    -0.081 C  
HETATM   16  C   UNL     1      -6.914   8.611  70.002  1.00  0.00    -0.043 C  
HETATM   17  O   UNL     1      -6.201  11.122  71.070  1.00  0.00    -0.339 OA 
HETATM   18  O   UNL     1      -7.268  10.587  67.124  1.00  0.00    -0.088 OA 
HETATM   19  C   UNL     1      -7.602   8.256  67.346  1.00  0.00    -0.098 A  
HETATM   20  O   UNL     1      -6.645  12.097  69.087  1.00  0.00    -0.094 OA 
HETATM   21  C   UNL     1      -7.869   8.146  65.981  1.00  0.00    -0.093 A  
HETATM   22  C   UNL     1      -8.233   6.920  65.454  1.00  0.00    -0.134 A  
HETATM   23  F   UNL     1      -8.440   6.863  64.129  1.00  0.00    -0.040 F  
HETATM   24  C   UNL     1      -8.449   5.794  66.264  1.00  0.00    -0.126 A  
HETATM   25  C   UNL     1      -8.315   5.983  67.670  1.00  0.00    -0.108 A  
HETATM   26 CL   UNL     1      -9.275   4.941  68.709  1.00  0.00    -0.148 Cl 
HETATM   27  C   UNL     1      -7.724   7.157  68.226  1.00  0.00    -0.120 A  
BRANCH  24  28
HETATM   28  N   UNL     1      -8.819   4.562  65.657  1.00  0.00    -0.123 NA 
HETATM   29  C   UNL     1      -8.024   3.539  65.048  1.00  0.00    -0.090 C  
HETATM   30  C   UNL     1      -9.121   3.359  63.989  1.00  0.00    -0.110 C  
HETATM   31  C   UNL     1      -9.987   4.265  64.874  1.00  0.00    -0.168 C  
HETATM   32  O   UNL     1      -8.815   3.849  62.660  1.00  0.00    -0.090 OA 
HETATM   33  H   UNL     1      -9.494   3.738  62.005  1.00  0.00     0.000 HD 
ENDBRANCH  24  28
ENDBRANCH   6  12
TORSDOF 2
ENDMDL
MODEL      139
REMARK 921   NORMALIZED FREE ENERGY PREDICTED BY IDOCK:   -2.51 KCAL/MOL
REMARK 922        TOTAL FREE ENERGY PREDICTED BY IDOCK:   -3.64 KCAL/MOL
REMARK 923 INTER-LIGAND FREE ENERGY PREDICTED BY IDOCK:   -2.93 KCAL/MOL
REMARK 924 INTRA-LIGAND FREE ENERGY PREDICTED BY IDOCK:   -0.72 KCAL/MOL
REMARK 927      BINDING AFFINITY PREDICTED BY RF-SCORE:    0.00 PKD
ROOT
HETATM    1  N   UNL     1     -11.704   6.758  69.468  1.00  0.00    -0.637 NA 
HETATM    2  H1  UNL     1     -12.187   5.867  69.350  1.00  0.00     0.000 HD 
HETATM    3  C   UNL     1     -10.954   7.209  68.379  1.00  0.00    -0.021 A  
HETATM    4  H2  UNL     1     -12.373   7.475  69.746  1.00  0.00     0.000 HD 
HETATM    5  N   UNL     1     -10.315   8.390  68.537  1.00  0.00    -0.209 NA 
HETATM    6  C   UNL     1      -9.458   8.818  67.566  1.00  0.00    -0.141 A  
HETATM    7  F   UNL     1     -11.526   5.296  67.085  1.00  0.00     0.315 F  
HETATM    8  C   UNL     1      -9.359   8.083  66.362  1.00  0.00    -0.200 A  
HETATM    9  C   UNL     1     -10.885   6.468  67.203  1.00  0.00    -0.401 A  
HETATM   10  F   UNL     1      -8.514   8.430  65.381  1.00  0.00    -0.141 F  
HETATM   11  C   UNL     1     -10.093   6.919  66.169  1.00  0.00     0.248 A  
ENDROOT
BRANCH   6  12
HETATM   12  N   UNL     1      -8.642   9.999  67.808  1.00  0.00    -0.118 NA 
HETATM   13  C   UNL     1      -8.525  12.437  67.433  1.00  0.00    -0.179 C  
HETATM   14  C   UNL     1      -8.982  13.578  66.614  1.00  0.00    -0.117 C  
HETATM   15  C   UNL     1      -7.585  12.571  68.546  1.00  0.00    -0.119 C  
HETATM   16  C   UNL     1      -8.994  11.206  67.183  1.00  0.00    -0.145 C  
HETATM   17  O   UNL     1      -9.812  13.472  65.717  1.00  0.00    -0.268 OA 
HETATM   18  O   UNL     1      -7.120  13.672  68.832  1.00  0.00    -0.108 OA 
HETATM   19  C   UNL     1      -7.207  11.353  69.291  1.00  0.00    -0.075 A  
HETATM   20  O   UNL     1      -8.392  14.759  66.904  1.00  0.00    -0.208 OA 
HETATM   21  C   UNL     1      -6.357  11.518  70.384  1.00  0.00     0.087 A  
HETATM   22  C   UNL     1      -5.940  10.409  71.098  1.00  0.00     0.074 A  
HETATM   23  F   UNL     1      -5.155  10.630  72.163  1.00  0.00    -0.097 F  
HETATM   24  C   UNL     1      -6.257   9.102  70.698  1.00  0.00    -0.051 A  
HETATM   25  C   UNL     1      -7.001   8.966  69.489  1.00  0.00    -0.051 A  
HETATM   26 CL   UNL     1      -6.760   7.490  68.568  1.00  0.00    -0.056 Cl 
HETATM   27  C   UNL     1      -7.637  10.078  68.859  1.00  0.00    -0.086 A  
BRANCH  24  28
HETATM   28  N   UNL     1      -5.800   8.006  71.479  1.00  0.00    -0.034 NA 
HETATM   29  C   UNL     1      -5.222   6.754  71.093  1.00  0.00    -0.023 C  
HETATM   30  C   UNL     1      -6.004   6.078  72.227  1.00  0.00    -0.037 C  
HETATM   31  C   UNL     1      -6.341   7.494  72.708  1.00  0.00    -0.059 C  
HETATM   32  O   UNL     1      -7.120   5.244  71.827  1.00  0.00    -0.070 OA 
HETATM   33  H   UNL     1      -7.605   4.825  72.530  1.00  0.00     0.000 HD 
ENDBRANCH  24  28
ENDBRANCH   6  12
TORSDOF 2
ENDMDL
MODEL      140
REMARK 921   NORMALIZED FREE ENERGY PREDICTED BY IDOCK:   -2.25 KCAL/MOL
REMARK 922        TOTAL FREE ENERGY PREDICTED BY IDOCK:   -3.35 KCAL/MOL
REMARK 923 INTER-LIGAND FREE ENERGY PREDICTED BY IDOCK:   -2.73 KCAL/MOL
REMARK 924 INTRA-LIGAND FREE ENERGY PREDICTED BY IDOCK:   -0.62 KCAL/MOL
REMARK 927      BINDING AFFINITY PREDICTED BY RF-SCORE:    0.00 PKD
ROOT
HETATM    1  N   UNL     1      -8.054  10.613  65.766  1.00  0.00    -0.162 NA 
HETATM    2  H1  UNL     1      -7.601  11.527  65.779  1.00  0.00     0.000 HD 
HETATM    3  C   UNL     1      -7.412   9.589  66.467  1.00  0.00    -0.093 A  
HETATM    4  H2  UNL     1      -9.016  10.702  66.092  1.00  0.00     0.000 HD 
HETATM    5  N   UNL     1      -8.013   8.378  66.448  1.00  0.00    -0.098 NA 
HETATM    6  C   UNL     1      -7.369   7.307  66.995  1.00  0.00    -0.093 A  
HETATM    7  F   UNL     1      -5.646  11.039  67.133  1.00  0.00    -0.040 F  
HETATM    8  C   UNL     1      -6.150   7.513  67.682  1.00  0.00    -0.047 A  
HETATM    9  C   UNL     1      -6.218   9.826  67.143  1.00  0.00    -0.064 A  
HETATM   10  F   UNL     1      -5.451   6.501  68.215  1.00  0.00    -0.009 F  
HETATM   11  C   UNL     1      -5.586   8.779  67.780  1.00  0.00    -0.035 A  
ENDROOT
BRANCH   6  12
HETATM   12  N   UNL     1      -7.934   5.976  66.826  1.00  0.00    -0.101 NA 
HETATM   13  C   UNL     1      -8.145   4.101  65.233  1.00  0.00    -0.101 C  
HETATM   14  C   UNL     1      -8.103   3.680  63.819  1.00  0.00    -0.089 C  
HETATM   15  C   UNL     1      -8.432   3.185  66.338  1.00  0.00    -0.109 C  
HETATM   16  C   UNL     1      -7.890   5.377  65.558  1.00  0.00    -0.098 C  
HETATM   17  O   UNL     1      -7.808   4.437  62.900  1.00  0.00    -0.064 OA 
HETATM   18  O   UNL     1      -8.671   2.001  66.111  1.00  0.00    -0.109 OA 
HETATM   19  C   UNL     1      -8.442   3.729  67.710  1.00  0.00    -0.105 A  
HETATM   20  O   UNL     1      -8.447   2.391  63.598  1.00  0.00    -0.084 OA 
HETATM   21  C   UNL     1      -8.660   2.822  68.748  1.00  0.00    -0.112 A  
HETATM   22  C   UNL     1      -8.716   3.279  70.053  1.00  0.00    -0.073 A  
HETATM   23  F   UNL     1      -8.887   2.359  71.014  1.00  0.00    -0.089 F  
HETATM   24  C   UNL     1      -8.667   4.646  70.367  1.00  0.00    -0.089 A  
HETATM   25  C   UNL     1      -8.599   5.553  69.270  1.00  0.00    -0.104 A  
HETATM   26 CL   UNL     1      -9.295   7.148  69.508  1.00  0.00    -0.149 Cl 
HETATM   27  C   UNL     1      -8.310   5.116  67.941  1.00  0.00    -0.097 A  
BRANCH  24  28
HETATM   28  N   UNL     1      -8.726   5.048  71.730  1.00  0.00    -0.128 NA 
HETATM   29  C   UNL     1      -7.768   5.723  72.552  1.00  0.00    -0.102 C  
HETATM   30  C   UNL     1      -8.196   4.834  73.728  1.00  0.00    -0.106 C  
HETATM   31  C   UNL     1      -9.356   4.378  72.834  1.00  0.00    -0.126 C  
HETATM   32  O   UNL     1      -7.251   3.814  74.136  1.00  0.00    -0.054 OA 
HETATM   33  H   UNL     1      -7.515   3.263  74.864  1.00  0.00     0.000 HD 
ENDBRANCH  24  28
ENDBRANCH   6  12
TORSDOF 2
ENDMDL
MODEL      141
REMARK 921   NORMALIZED FREE ENERGY PREDICTED BY IDOCK:   -2.23 KCAL/MOL
REMARK 922        TOTAL FREE ENERGY PREDICTED BY IDOCK:   -3.33 KCAL/MOL
REMARK 923 INTER-LIGAND FREE ENERGY PREDICTED BY IDOCK:   -3.56 KCAL/MOL
REMARK 924 INTRA-LIGAND FREE ENERGY PREDICTED BY IDOCK:    0.23 KCAL/MOL
REMARK 927      BINDING AFFINITY PREDICTED BY RF-SCORE:    0.00 PKD
ROOT
HETATM    1  N   UNL     1     -11.076  10.899  65.107  1.00  0.00     0.039 NA 
HETATM    2  H1  UNL     1     -11.058  11.823  64.676  1.00  0.00     0.000 HD 
HETATM    3  C   UNL     1      -9.870  10.195  65.121  1.00  0.00    -0.325 A  
HETATM    4  H2  UNL     1     -11.444  10.970  66.056  1.00  0.00     0.000 HD 
HETATM    5  N   UNL     1      -9.894   8.969  65.692  1.00  0.00    -0.148 NA 
HETATM    6  C   UNL     1      -8.787   8.177  65.616  1.00  0.00    -0.120 A  
HETATM    7  F   UNL     1      -8.729  11.961  64.006  1.00  0.00     0.356 F  
HETATM    8  C   UNL     1      -7.600   8.704  65.056  1.00  0.00    -0.098 A  
HETATM    9  C   UNL     1      -8.715  10.746  64.572  1.00  0.00    -0.089 A  
HETATM   10  F   UNL     1      -6.486   7.970  64.922  1.00  0.00    -0.047 F  
HETATM   11  C   UNL     1      -7.555  10.001  64.557  1.00  0.00    -0.142 A  
ENDROOT
BRANCH   6  12
HETATM   12  N   UNL     1      -8.866   6.799  66.077  1.00  0.00    -0.153 NA 
HETATM   13  C   UNL     1      -8.274   4.475  65.488  1.00  0.00    -0.110 C  
HETATM   14  C   UNL     1      -7.938   3.530  64.405  1.00  0.00    -0.086 C  
HETATM   15  C   UNL     1      -8.371   4.085  66.895  1.00  0.00    -0.100 C  
HETATM   16  C   UNL     1      -8.486   5.768  65.204  1.00  0.00    -0.138 C  
HETATM   17  O   UNL     1      -7.802   3.870  63.234  1.00  0.00    -0.072 OA 
HETATM   18  O   UNL     1      -8.185   2.916  67.226  1.00  0.00    -0.080 OA 
HETATM   19  C   UNL     1      -8.713   5.126  67.885  1.00  0.00    -0.102 A  
HETATM   20  O   UNL     1      -7.817   2.240  64.791  1.00  0.00    -0.072 OA 
HETATM   21  C   UNL     1      -8.740   4.739  69.225  1.00  0.00    -0.106 A  
HETATM   22  C   UNL     1      -9.089   5.662  70.195  1.00  0.00    -0.138 A  
HETATM   23  F   UNL     1      -9.060   5.246  71.470  1.00  0.00    -0.141 F  
HETATM   24  C   UNL     1      -9.523   6.957  69.871  1.00  0.00    -0.156 A  
HETATM   25  C   UNL     1      -9.629   7.267  68.484  1.00  0.00    -0.140 A  
HETATM   26 CL   UNL     1     -10.828   8.466  68.024  1.00  0.00    -0.094 Cl 
HETATM   27  C   UNL     1      -9.065   6.430  67.473  1.00  0.00    -0.114 A  
BRANCH  24  28
HETATM   28  N   UNL     1      -9.864   7.857  70.917  1.00  0.00    -0.178 NA 
HETATM   29  C   UNL     1      -9.072   8.414  71.972  1.00  0.00    -0.227 C  
HETATM   30  C   UNL     1     -10.280   8.278  72.909  1.00  0.00    -0.190 C  
HETATM   31  C   UNL     1     -11.095   7.952  71.651  1.00  0.00    -0.244 C  
HETATM   32  O   UNL     1     -10.196   7.240  73.917  1.00  0.00    -0.344 OA 
HETATM   33  H   UNL     1     -10.945   7.156  74.496  1.00  0.00     0.000 HD 
ENDBRANCH  24  28
ENDBRANCH   6  12
TORSDOF 2
ENDMDL
MODEL      142
REMARK 921   NORMALIZED FREE ENERGY PREDICTED BY IDOCK:   -2.14 KCAL/MOL
REMARK 922        TOTAL FREE ENERGY PREDICTED BY IDOCK:   -3.23 KCAL/MOL
REMARK 923 INTER-LIGAND FREE ENERGY PREDICTED BY IDOCK:   -2.47 KCAL/MOL
REMARK 924 INTRA-LIGAND FREE ENERGY PREDICTED BY IDOCK:   -0.76 KCAL/MOL
REMARK 927      BINDING AFFINITY PREDICTED BY RF-SCORE:    0.00 PKD
ROOT
HETATM    1  N   UNL     1     -13.305   9.297  71.063  1.00  0.00    -0.564 NA 
HETATM    2  H1  UNL     1     -13.380   8.730  71.908  1.00  0.00     0.000 HD 
HETATM    3  C   UNL     1     -12.017   9.496  70.560  1.00  0.00    -0.134 A  
HETATM    4  H2  UNL     1     -13.901   8.907  70.334  1.00  0.00     0.000 HD 
HETATM    5  N   UNL     1     -11.917  10.247  69.440  1.00  0.00    -0.064 NA 
HETATM    6  C   UNL     1     -10.681  10.593  68.978  1.00  0.00    -0.221 A  
HETATM    7  F   UNL     1     -11.044   8.207  72.308  1.00  0.00    -0.300 F  
HETATM    8  C   UNL     1      -9.535  10.051  69.605  1.00  0.00    -0.223 A  
HETATM    9  C   UNL     1     -10.909   8.940  71.194  1.00  0.00    -0.281 A  
HETATM   10  F   UNL     1      -8.292  10.375  69.221  1.00  0.00    -0.124 F  
HETATM   11  C   UNL     1      -9.649   9.202  70.699  1.00  0.00    -0.312 A  
ENDROOT
BRANCH   6  12
HETATM   12  N   UNL     1     -10.573  11.539  67.877  1.00  0.00    -0.184 NA 
HETATM   13  C   UNL     1     -10.242  11.708  65.435  1.00  0.00    -0.306 C  
HETATM   14  C   UNL     1      -9.730  11.050  64.217  1.00  0.00    -0.284 C  
HETATM   15  C   UNL     1     -10.841  13.043  65.439  1.00  0.00    -0.284 C  
HETATM   16  C   UNL     1     -10.192  11.066  66.612  1.00  0.00    -0.235 C  
HETATM   17  O   UNL     1      -9.280   9.909  64.207  1.00  0.00    -0.245 OA 
HETATM   18  O   UNL     1     -10.923  13.685  64.394  1.00  0.00    -0.386 OA 
HETATM   19  C   UNL     1     -11.319  13.590  66.725  1.00  0.00    -0.351 A  
HETATM   20  O   UNL     1      -9.763  11.813  63.101  1.00  0.00    -0.394 OA 
HETATM   21  C   UNL     1     -11.938  14.839  66.689  1.00  0.00    -0.199 A  
HETATM   22  C   UNL     1     -12.374  15.419  67.867  1.00  0.00     0.680 A  
HETATM   23  F   UNL     1     -12.998  16.602  67.769  1.00  0.00     1.958 F  
HETATM   24  C   UNL     1     -12.121  14.841  69.121  1.00  0.00    -0.243 A  
HETATM   25  C   UNL     1     -11.351  13.641  69.128  1.00  0.00    -0.285 A  
HETATM   26 CL   UNL     1     -10.382  13.325  70.558  1.00  0.00     2.723 Cl 
HETATM   27  C   UNL     1     -11.086  12.901  67.936  1.00  0.00    -0.252 A  
BRANCH  24  28
HETATM   28  N   UNL     1     -12.600  15.487  70.293  1.00  0.00    -0.381 NA 
HETATM   29  C   UNL     1     -11.943  15.805  71.525  1.00  0.00    -0.440 C  
HETATM   30  C   UNL     1     -13.239  15.457  72.270  1.00  0.00    -0.421 C  
HETATM   31  C   UNL     1     -13.905  15.408  70.889  1.00  0.00    -0.163 C  
HETATM   32  O   UNL     1     -13.229  14.223  73.031  1.00  0.00    -0.554 OA 
HETATM   33  H   UNL     1     -14.032  14.007  73.492  1.00  0.00     0.000 HD 
ENDBRANCH  24  28
ENDBRANCH   6  12
TORSDOF 2
ENDMDL
MODEL      143
REMARK 921   NORMALIZED FREE ENERGY PREDICTED BY IDOCK:   -0.50 KCAL/MOL
REMARK 922        TOTAL FREE ENERGY PREDICTED BY IDOCK:   -1.39 KCAL/MOL
REMARK 923 INTER-LIGAND FREE ENERGY PREDICTED BY IDOCK:   -3.76 KCAL/MOL
REMARK 924 INTRA-LIGAND FREE ENERGY PREDICTED BY IDOCK:    2.36 KCAL/MOL
REMARK 927      BINDING AFFINITY PREDICTED BY RF-SCORE:    0.00 PKD
ROOT
HETATM    1  N   UNL     1     -11.484  16.742  73.210  1.00  0.00     0.339 NA 
HETATM    2  H1  UNL     1     -12.100  16.875  74.012  1.00  0.00     0.000 HD 
HETATM    3  C   UNL     1     -11.990  15.977  72.156  1.00  0.00    -0.538 A  
HETATM    4  H2  UNL     1     -11.177  17.649  72.859  1.00  0.00     0.000 HD 
HETATM    5  N   UNL     1     -11.173  15.801  71.093  1.00  0.00    -0.353 NA 
HETATM    6  C   UNL     1     -11.553  14.953  70.095  1.00  0.00    -0.289 A  
HETATM    7  F   UNL     1     -14.051  15.623  73.293  1.00  0.00    -0.465 F  
HETATM    8  C   UNL     1     -12.845  14.379  70.133  1.00  0.00    -0.103 A  
HETATM    9  C   UNL     1     -13.271  15.435  72.218  1.00  0.00    -0.421 A  
HETATM   10  F   UNL     1     -13.269  13.513  69.201  1.00  0.00     0.709 F  
HETATM   11  C   UNL     1     -13.717  14.641  71.183  1.00  0.00    -0.374 A  
ENDROOT
BRANCH   6  12
HETATM   12  N   UNL     1     -10.606  14.631  69.037  1.00  0.00    -0.243 NA 
HETATM   13  C   UNL     1      -9.041  15.628  67.407  1.00  0.00    -0.203 C  
HETATM   14  C   UNL     1      -8.670  16.833  66.640  1.00  0.00    -0.248 C  
HETATM   15  C   UNL     1      -8.323  14.357  67.308  1.00  0.00    -0.209 C  
HETATM   16  C   UNL     1     -10.071  15.674  68.265  1.00  0.00    -0.218 C  
HETATM   17  O   UNL     1      -9.239  17.912  66.766  1.00  0.00    -0.256 OA 
HETATM   18  O   UNL     1      -7.366  14.247  66.544  1.00  0.00     0.747 OA 
HETATM   19  C   UNL     1      -8.791  13.224  68.132  1.00  0.00    -0.187 A  
HETATM   20  O   UNL     1      -7.666  16.656  65.752  1.00  0.00    -0.041 OA 
HETATM   21  C   UNL     1      -8.052  12.044  68.062  1.00  0.00    -0.153 A  
HETATM   22  C   UNL     1      -8.463  10.937  68.783  1.00  0.00    -0.150 A  
HETATM   23  F   UNL     1      -7.694   9.841  68.710  1.00  0.00    -0.075 F  
HETATM   24  C   UNL     1      -9.666  10.924  69.507  1.00  0.00     0.111 A  
HETATM   25  C   UNL     1     -10.471  12.097  69.432  1.00  0.00     0.290 A  
HETATM   26 CL   UNL     1     -12.205  11.888  69.616  1.00  0.00    -0.263 Cl 
HETATM   27  C   UNL     1      -9.977  13.324  68.893  1.00  0.00     0.067 A  
BRANCH  24  28
HETATM   28  N   UNL     1     -10.028   9.755  70.231  1.00  0.00    -0.261 NA 
HETATM   29  C   UNL     1     -10.890   9.579  71.361  1.00  0.00    -0.312 C  
HETATM   30  C   UNL     1      -9.914   8.526  71.903  1.00  0.00    -0.294 C  
HETATM   31  C   UNL     1      -9.222   8.605  70.536  1.00  0.00    -0.175 C  
HETATM   32  O   UNL     1      -9.125   8.916  73.054  1.00  0.00    -0.184 OA 
HETATM   33  H   UNL     1      -8.520   8.264  73.389  1.00  0.00     0.000 HD 
ENDBRANCH  24  28
ENDBRANCH   6  12
TORSDOF 2
ENDMDL
MODEL      144
REMARK 921   NORMALIZED FREE ENERGY PREDICTED BY IDOCK:   -0.30 KCAL/MOL
REMARK 922        TOTAL FREE ENERGY PREDICTED BY IDOCK:   -1.18 KCAL/MOL
REMARK 923 INTER-LIGAND FREE ENERGY PREDICTED BY IDOCK:   -0.29 KCAL/MOL
REMARK 924 INTRA-LIGAND FREE ENERGY PREDICTED BY IDOCK:   -0.89 KCAL/MOL
REMARK 927      BINDING AFFINITY PREDICTED BY RF-SCORE:    0.00 PKD
ROOT
HETATM    1  N   UNL     1      -6.693  16.258  66.377  1.00  0.00    -0.028 NA 
HETATM    2  H1  UNL     1      -7.161  17.115  66.083  1.00  0.00     0.000 HD 
HETATM    3  C   UNL     1      -7.503  15.266  66.935  1.00  0.00     0.048 A  
HETATM    4  H2  UNL     1      -6.165  15.870  65.596  1.00  0.00     0.000 HD 
HETATM    5  N   UNL     1      -6.883  14.130  67.325  1.00  0.00    -0.188 NA 
HETATM    6  C   UNL     1      -7.593  13.182  68.001  1.00  0.00    -0.144 A  
HETATM    7  F   UNL     1      -9.457  16.602  66.681  1.00  0.00    -0.221 F  
HETATM    8  C   UNL     1      -8.987  13.351  68.164  1.00  0.00    -0.188 A  
HETATM    9  C   UNL     1      -8.876  15.458  67.072  1.00  0.00    -0.228 A  
HETATM   10  F   UNL     1      -9.738  12.473  68.845  1.00  0.00    -0.133 F  
HETATM   11  C   UNL     1      -9.636  14.479  67.675  1.00  0.00    -0.214 A  
ENDROOT
BRANCH   6  12
HETATM   12  N   UNL     1      -6.891  12.040  68.569  1.00  0.00    -0.072 NA 
HETATM   13  C   UNL     1      -6.051  11.082  70.685  1.00  0.00    -0.034 C  
HETATM   14  C   UNL     1      -5.629  11.353  72.073  1.00  0.00     0.760 C  
HETATM   15  C   UNL     1      -6.033   9.748  70.084  1.00  0.00    -0.053 C  
HETATM   16  C   UNL     1      -6.500  12.085  69.916  1.00  0.00    -0.029 C  
HETATM   17  O   UNL     1      -5.697  12.462  72.593  1.00  0.00     0.377 OA 
HETATM   18  O   UNL     1      -5.637   8.784  70.734  1.00  0.00    -0.027 OA 
HETATM   19  C   UNL     1      -6.483   9.608  68.684  1.00  0.00    -0.047 A  
HETATM   20  O   UNL     1      -5.126  10.287  72.734  1.00  0.00    -0.275 OA 
HETATM   21  C   UNL     1      -6.512   8.318  68.156  1.00  0.00    -0.056 A  
HETATM   22  C   UNL     1      -6.890   8.127  66.839  1.00  0.00    -0.069 A  
HETATM   23  F   UNL     1      -6.938   6.862  66.395  1.00  0.00    -0.061 F  
HETATM   24  C   UNL     1      -7.148   9.203  65.974  1.00  0.00    -0.090 A  
HETATM   25  C   UNL     1      -6.960  10.511  66.507  1.00  0.00    -0.115 A  
HETATM   26 CL   UNL     1      -6.507  11.776  65.376  1.00  0.00     1.650 Cl 
HETATM   27  C   UNL     1      -6.797  10.745  67.907  1.00  0.00    -0.072 A  
BRANCH  24  28
HETATM   28  N   UNL     1      -7.536   8.938  64.633  1.00  0.00    -0.104 NA 
HETATM   29  C   UNL     1      -6.782   8.956  63.415  1.00  0.00    -0.089 C  
HETATM   30  C   UNL     1      -8.003   9.556  62.704  1.00  0.00    -0.124 C  
HETATM   31  C   UNL     1      -8.784   9.238  63.985  1.00  0.00    -0.171 C  
HETATM   32  O   UNL     1      -7.905  10.954  62.332  1.00  0.00    -0.290 OA 
HETATM   33  H   UNL     1      -8.661  11.325  61.892  1.00  0.00     0.000 HD 
ENDBRANCH  24  28
ENDBRANCH   6  12
TORSDOF 2
ENDMDL
MODEL      145
REMARK 921   NORMALIZED FREE ENERGY PREDICTED BY IDOCK:    0.15 KCAL/MOL
REMARK 922        TOTAL FREE ENERGY PREDICTED BY IDOCK:   -0.67 KCAL/MOL
REMARK 923 INTER-LIGAND FREE ENERGY PREDICTED BY IDOCK:   -2.24 KCAL/MOL
REMARK 924 INTRA-LIGAND FREE ENERGY PREDICTED BY IDOCK:    1.57 KCAL/MOL
REMARK 927      BINDING AFFINITY PREDICTED BY RF-SCORE:    0.00 PKD
ROOT
HETATM    1  N   UNL     1     -10.252  12.719  65.567  1.00  0.00    -0.279 NA 
HETATM    2  H1  UNL     1     -10.801  13.528  65.274  1.00  0.00     0.000 HD 
HETATM    3  C   UNL     1     -10.375  12.335  66.904  1.00  0.00    -0.216 A  
HETATM    4  H2  UNL     1     -10.460  11.926  64.961  1.00  0.00     0.000 HD 
HETATM    5  N   UNL     1      -9.648  11.263  67.293  1.00  0.00    -0.173 NA 
HETATM    6  C   UNL     1      -9.617  10.922  68.613  1.00  0.00    -0.190 A  
HETATM    7  F   UNL     1     -11.911  14.096  67.356  1.00  0.00    -0.374 F  
HETATM    8  C   UNL     1     -10.448  11.616  69.523  1.00  0.00     0.221 A  
HETATM    9  C   UNL     1     -11.210  13.032  67.773  1.00  0.00    -0.279 A  
HETATM   10  F   UNL     1     -10.443  11.353  70.837  1.00  0.00     1.324 F  
HETATM   11  C   UNL     1     -11.267  12.656  69.099  1.00  0.00    -0.300 A  
ENDROOT
BRANCH   6  12
HETATM   12  N   UNL     1      -8.704   9.879  69.056  1.00  0.00    -0.141 NA 
HETATM   13  C   UNL     1      -8.119   8.444  70.979  1.00  0.00    -0.132 C  
HETATM   14  C   UNL     1      -8.187   8.264  72.443  1.00  0.00    -0.155 C  
HETATM   15  C   UNL     1      -7.456   7.497  70.081  1.00  0.00    -0.086 C  
HETATM   16  C   UNL     1      -8.705   9.507  70.410  1.00  0.00    -0.223 C  
HETATM   17  O   UNL     1      -8.791   9.029  73.187  1.00  0.00    -0.047 OA 
HETATM   18  O   UNL     1      -6.902   6.499  70.536  1.00  0.00    -0.059 OA 
HETATM   19  C   UNL     1      -7.460   7.790  68.634  1.00  0.00    -0.100 A  
HETATM   20  O   UNL     1      -7.502   7.199  72.918  1.00  0.00    -0.076 OA 
HETATM   21  C   UNL     1      -6.872   6.842  67.796  1.00  0.00    -0.081 A  
HETATM   22  C   UNL     1      -6.814   7.077  66.434  1.00  0.00    -0.061 A  
HETATM   23  F   UNL     1      -6.274   6.115  65.671  1.00  0.00    -0.032 F  
HETATM   24  C   UNL     1      -7.232   8.292  65.868  1.00  0.00    -0.072 A  
HETATM   25  C   UNL     1      -7.685   9.296  66.773  1.00  0.00    -0.094 A  
HETATM   26 CL   UNL     1      -7.472  10.969  66.280  1.00  0.00    -0.133 Cl 
HETATM   27  C   UNL     1      -7.973   9.011  68.143  1.00  0.00    -0.101 A  
BRANCH  24  28
HETATM   28  N   UNL     1      -7.148   8.468  64.460  1.00  0.00    -0.077 NA 
HETATM   29  C   UNL     1      -7.944   7.931  63.398  1.00  0.00    -0.125 C  
HETATM   30  C   UNL     1      -6.669   7.791  62.555  1.00  0.00    -0.080 C  
HETATM   31  C   UNL     1      -5.974   8.617  63.645  1.00  0.00    -0.072 C  
HETATM   32  O   UNL     1      -6.180   6.442  62.351  1.00  0.00    -0.030 OA 
HETATM   33  H   UNL     1      -5.391   6.355  61.829  1.00  0.00     0.000 HD 
ENDBRANCH  24  28
ENDBRANCH   6  12
TORSDOF 2
ENDMDL
MODEL      146
REMARK 921   NORMALIZED FREE ENERGY PREDICTED BY IDOCK:    1.41 KCAL/MOL
REMARK 922        TOTAL FREE ENERGY PREDICTED BY IDOCK:    0.73 KCAL/MOL
REMARK 923 INTER-LIGAND FREE ENERGY PREDICTED BY IDOCK:    0.01 KCAL/MOL
REMARK 924 INTRA-LIGAND FREE ENERGY PREDICTED BY IDOCK:    0.72 KCAL/MOL
REMARK 927      BINDING AFFINITY PREDICTED BY RF-SCORE:    0.00 PKD
ROOT
HETATM    1  N   UNL     1      -8.456  15.867  65.863  1.00  0.00    -0.171 NA 
HETATM    2  H1  UNL     1      -8.630  16.682  65.276  1.00  0.00     0.000 HD 
HETATM    3  C   UNL     1      -7.775  16.095  67.061  1.00  0.00    -0.221 A  
HETATM    4  H2  UNL     1      -9.335  15.387  66.053  1.00  0.00     0.000 HD 
HETATM    5  N   UNL     1      -7.545  15.013  67.839  1.00  0.00    -0.126 NA 
HETATM    6  C   UNL     1      -6.768  15.147  68.951  1.00  0.00    -0.110 A  
HETATM    7  F   UNL     1      -7.606  18.427  66.617  1.00  0.00    -0.213 F  
HETATM    8  C   UNL     1      -6.330  16.435  69.335  1.00  0.00    -0.200 A  
HETATM    9  C   UNL     1      -7.367  17.378  67.417  1.00  0.00    -0.168 A  
HETATM   10  F   UNL     1      -5.538  16.632  70.399  1.00  0.00    -0.187 F  
HETATM   11  C   UNL     1      -6.652  17.557  68.582  1.00  0.00    -0.206 A  
ENDROOT
BRANCH   6  12
HETATM   12  N   UNL     1      -6.378  13.956  69.693  1.00  0.00    -0.122 NA 
HETATM   13  C   UNL     1      -5.849  13.114  71.954  1.00  0.00     0.658 C  
HETATM   14  C   UNL     1      -5.411  13.458  73.321  1.00  0.00     0.142 C  
HETATM   15  C   UNL     1      -6.139  11.747  71.521  1.00  0.00     1.468 C  
HETATM   16  C   UNL     1      -6.023  14.085  71.045  1.00  0.00    -0.172 C  
HETATM   17  O   UNL     1      -5.223  14.611  73.697  1.00  0.00    -0.269 OA 
HETATM   18  O   UNL     1      -6.005  10.810  72.306  1.00  0.00     0.301 OA 
HETATM   19  C   UNL     1      -6.573  11.534  70.126  1.00  0.00     0.099 A  
HETATM   20  O   UNL     1      -5.198  12.400  74.134  1.00  0.00    -0.372 OA 
HETATM   21  C   UNL     1      -6.899  10.229  69.758  1.00  0.00    -0.120 A  
HETATM   22  C   UNL     1      -7.278   9.962  68.454  1.00  0.00    -0.073 A  
HETATM   23  F   UNL     1      -7.618   8.697  68.165  1.00  0.00    -0.090 F  
HETATM   24  C   UNL     1      -7.245  10.944  67.452  1.00  0.00    -0.094 A  
HETATM   25  C   UNL     1      -6.760  12.229  67.832  1.00  0.00    -0.093 A  
HETATM   26 CL   UNL     1      -5.986  13.191  66.583  1.00  0.00     1.437 Cl 
HETATM   27  C   UNL     1      -6.582  12.601  69.199  1.00  0.00    -0.099 A  
BRANCH  24  28
HETATM   28  N   UNL     1      -7.651  10.604  66.133  1.00  0.00    -0.135 NA 
HETATM   29  C   UNL     1      -8.954  10.501  65.548  1.00  0.00    -0.183 C  
HETATM   30  C   UNL     1      -8.467   9.284  64.750  1.00  0.00    -0.175 C  
HETATM   31  C   UNL     1      -7.058   9.656  65.230  1.00  0.00    -0.109 C  
HETATM   32  O   UNL     1      -8.978   7.995  65.171  1.00  0.00    -0.388 OA 
HETATM   33  H   UNL     1      -8.676   7.242  64.677  1.00  0.00     0.000 HD 
ENDBRANCH  24  28
ENDBRANCH   6  12
TORSDOF 2
ENDMDL
MODEL      147
REMARK 921   NORMALIZED FREE ENERGY PREDICTED BY IDOCK:    2.12 KCAL/MOL
REMARK 922        TOTAL FREE ENERGY PREDICTED BY IDOCK:    1.53 KCAL/MOL
REMARK 923 INTER-LIGAND FREE ENERGY PREDICTED BY IDOCK:    2.58 KCAL/MOL
REMARK 924 INTRA-LIGAND FREE ENERGY PREDICTED BY IDOCK:   -1.04 KCAL/MOL
REMARK 927      BINDING AFFINITY PREDICTED BY RF-SCORE:    0.00 PKD
ROOT
HETATM    1  N   UNL     1     -12.708  10.909  68.710  1.00  0.00    -0.259 NA 
HETATM    2  H1  UNL     1     -13.556  10.834  68.148  1.00  0.00     0.000 HD 
HETATM    3  C   UNL     1     -11.620  11.552  68.115  1.00  0.00    -0.308 A  
HETATM    4  H2  UNL     1     -12.925  11.355  69.601  1.00  0.00     0.000 HD 
HETATM    5  N   UNL     1     -10.497  11.650  68.860  1.00  0.00    -0.203 NA 
HETATM    6  C   UNL     1      -9.360  12.142  68.290  1.00  0.00    -0.198 A  
HETATM    7  F   UNL     1     -12.840  11.937  66.107  1.00  0.00     0.754 F  
HETATM    8  C   UNL     1      -9.417  12.658  66.974  1.00  0.00    -0.220 A  
HETATM    9  C   UNL     1     -11.711  12.059  66.821  1.00  0.00    -0.264 A  
HETATM   10  F   UNL     1      -8.331  13.127  66.344  1.00  0.00     0.018 F  
HETATM   11  C   UNL     1     -10.601  12.641  66.247  1.00  0.00    -0.274 A  
ENDROOT
BRANCH   6  12
HETATM   12  N   UNL     1      -8.111  12.090  69.035  1.00  0.00     0.114 NA 
HETATM   13  C   UNL     1      -6.742  13.302  70.696  1.00  0.00     1.055 C  
HETATM   14  C   UNL     1      -6.446  14.602  71.330  1.00  0.00     0.483 C  
HETATM   15  C   UNL     1      -6.036  12.064  71.029  1.00  0.00     0.674 C  
HETATM   16  C   UNL     1      -7.719  13.213  69.781  1.00  0.00     1.288 C  
HETATM   17  O   UNL     1      -7.076  15.627  71.090  1.00  0.00     1.526 OA 
HETATM   18  O   UNL     1      -5.133  12.074  71.863  1.00  0.00    -0.326 OA 
HETATM   19  C   UNL     1      -6.429  10.827  70.326  1.00  0.00    -0.128 A  
HETATM   20  O   UNL     1      -5.397  14.594  72.182  1.00  0.00    -0.136 OA 
HETATM   21  C   UNL     1      -5.781   9.652  70.705  1.00  0.00    -0.066 A  
HETATM   22  C   UNL     1      -6.081   8.467  70.057  1.00  0.00    -0.031 A  
HETATM   23  F   UNL     1      -5.456   7.361  70.489  1.00  0.00    -0.023 F  
HETATM   24  C   UNL     1      -6.944   8.419  68.951  1.00  0.00    -0.062 A  
HETATM   25  C   UNL     1      -7.469   9.664  68.496  1.00  0.00    -0.079 A  
HETATM   26 CL   UNL     1      -7.861   9.787  66.788  1.00  0.00    -0.102 Cl 
HETATM   27  C   UNL     1      -7.367  10.860  69.270  1.00  0.00    -0.125 A  
BRANCH  24  28
HETATM   28  N   UNL     1      -7.212   7.168  68.333  1.00  0.00    -0.088 NA 
HETATM   29  C   UNL     1      -6.662   6.564  67.157  1.00  0.00    -0.060 C  
HETATM   30  C   UNL     1      -8.055   6.013  66.824  1.00  0.00    -0.105 C  
HETATM   31  C   UNL     1      -8.465   6.470  68.230  1.00  0.00    -0.116 C  
HETATM   32  O   UNL     1      -8.742   6.638  65.711  1.00  0.00    -0.162 OA 
HETATM   33  H   UNL     1      -9.605   6.298  65.505  1.00  0.00     0.000 HD 
ENDBRANCH  24  28
ENDBRANCH   6  12
TORSDOF 2
ENDMDL
MODEL      148
REMARK 921   NORMALIZED FREE ENERGY PREDICTED BY IDOCK:    2.31 KCAL/MOL
REMARK 922        TOTAL FREE ENERGY PREDICTED BY IDOCK:    1.74 KCAL/MOL
REMARK 923 INTER-LIGAND FREE ENERGY PREDICTED BY IDOCK:    1.32 KCAL/MOL
REMARK 924 INTRA-LIGAND FREE ENERGY PREDICTED BY IDOCK:    0.42 KCAL/MOL
REMARK 927      BINDING AFFINITY PREDICTED BY RF-SCORE:    0.00 PKD
ROOT
HETATM    1  N   UNL     1      -9.330   7.195  74.048  1.00  0.00    -0.236 NA 
HETATM    2  H1  UNL     1      -9.116   6.558  74.816  1.00  0.00     0.000 HD 
HETATM    3  C   UNL     1      -8.251   7.616  73.268  1.00  0.00    -0.138 A  
HETATM    4  H2  UNL     1     -10.045   6.782  73.450  1.00  0.00     0.000 HD 
HETATM    5  N   UNL     1      -8.535   8.459  72.250  1.00  0.00    -0.223 NA 
HETATM    6  C   UNL     1      -7.512   9.014  71.540  1.00  0.00     0.006 A  
HETATM    7  F   UNL     1      -6.711   6.345  74.564  1.00  0.00    -0.081 F  
HETATM    8  C   UNL     1      -6.187   8.595  71.798  1.00  0.00    -0.069 A  
HETATM    9  C   UNL     1      -6.958   7.176  73.541  1.00  0.00    -0.069 A  
HETATM   10  F   UNL     1      -5.133   9.122  71.158  1.00  0.00    -0.027 F  
HETATM   11  C   UNL     1      -5.910   7.654  72.783  1.00  0.00    -0.044 A  
ENDROOT
BRANCH   6  12
HETATM   12  N   UNL     1      -7.807  10.050  70.560  1.00  0.00    -0.202 NA 
HETATM   13  C   UNL     1      -7.228  12.349  69.871  1.00  0.00     0.872 C  
HETATM   14  C   UNL     1      -6.664  13.650  70.284  1.00  0.00     0.321 C  
HETATM   15  C   UNL     1      -7.740  12.085  68.526  1.00  0.00    -0.127 C  
HETATM   16  C   UNL     1      -7.266  11.332  70.744  1.00  0.00     2.399 C  
HETATM   17  O   UNL     1      -6.184  13.853  71.395  1.00  0.00    -0.190 OA 
HETATM   18  O   UNL     1      -7.730  12.972  67.677  1.00  0.00    -0.134 OA 
HETATM   19  C   UNL     1      -8.277  10.740  68.237  1.00  0.00    -0.124 A  
HETATM   20  O   UNL     1      -6.740  14.626  69.352  1.00  0.00    -0.126 OA 
HETATM   21  C   UNL     1      -8.703  10.497  66.932  1.00  0.00    -0.130 A  
HETATM   22  C   UNL     1      -9.248   9.267  66.609  1.00  0.00    -0.148 A  
HETATM   23  F   UNL     1      -9.605   9.075  65.330  1.00  0.00    -0.303 F  
HETATM   24  C   UNL     1      -9.489   8.281  67.578  1.00  0.00    -0.149 A  
HETATM   25  C   UNL     1      -9.181   8.622  68.928  1.00  0.00    -0.145 A  
HETATM   26 CL   UNL     1     -10.122   7.833  70.184  1.00  0.00    -0.194 Cl 
HETATM   27  C   UNL     1      -8.413   9.778  69.263  1.00  0.00    -0.152 A  
BRANCH  24  28
HETATM   28  N   UNL     1     -10.049   7.037  67.179  1.00  0.00    -0.195 NA 
HETATM   29  C   UNL     1      -9.666   5.692  67.488  1.00  0.00    -0.124 C  
HETATM   30  C   UNL     1     -10.020   5.293  66.049  1.00  0.00    -0.124 C  
HETATM   31  C   UNL     1     -10.647   6.686  65.920  1.00  0.00     1.325 C  
HETATM   32  O   UNL     1      -8.904   4.999  65.172  1.00  0.00    -0.150 OA 
HETATM   33  H   UNL     1      -9.123   4.752  64.281  1.00  0.00     0.000 HD 
ENDBRANCH  24  28
ENDBRANCH   6  12
TORSDOF 2
ENDMDL
MODEL      149
REMARK 921   NORMALIZED FREE ENERGY PREDICTED BY IDOCK:    2.55 KCAL/MOL
REMARK 922        TOTAL FREE ENERGY PREDICTED BY IDOCK:    2.01 KCAL/MOL
REMARK 923 INTER-LIGAND FREE ENERGY PREDICTED BY IDOCK:    2.15 KCAL/MOL
REMARK 924 INTRA-LIGAND FREE ENERGY PREDICTED BY IDOCK:   -0.14 KCAL/MOL
REMARK 927      BINDING AFFINITY PREDICTED BY RF-SCORE:    0.00 PKD
ROOT
HETATM    1  N   UNL     1      -8.154  10.799  66.275  1.00  0.00    -0.155 NA 
HETATM    2  H1  UNL     1      -8.293   9.804  66.451  1.00  0.00     0.000 HD 
HETATM    3  C   UNL     1      -8.811  11.682  67.135  1.00  0.00    -0.172 A  
HETATM    4  H2  UNL     1      -7.157  11.010  66.263  1.00  0.00     0.000 HD 
HETATM    5  N   UNL     1      -8.627  13.001  66.901  1.00  0.00    -0.166 NA 
HETATM    6  C   UNL     1      -9.348  13.911  67.616  1.00  0.00    -0.205 A  
HETATM    7  F   UNL     1      -9.774   9.891  68.372  1.00  0.00    -0.144 F  
HETATM    8  C   UNL     1     -10.173  13.460  68.673  1.00  0.00    -0.182 A  
HETATM    9  C   UNL     1      -9.607  11.207  68.174  1.00  0.00    -0.179 A  
HETATM   10  F   UNL     1     -10.931  14.298  69.394  1.00  0.00    -0.244 F  
HETATM   11  C   UNL     1     -10.283  12.107  68.970  1.00  0.00     0.039 A  
ENDROOT
BRANCH   6  12
HETATM   12  N   UNL     1      -9.279  15.318  67.251  1.00  0.00    -0.194 NA 
HETATM   13  C   UNL     1     -10.485  17.120  66.069  1.00  0.00    -0.271 C  
HETATM   14  C   UNL     1     -11.500  17.457  65.051  1.00  0.00     1.213 C  
HETATM   15  C   UNL     1      -9.731  18.127  66.817  1.00  0.00    -0.324 C  
HETATM   16  C   UNL     1     -10.234  15.836  66.362  1.00  0.00    -0.293 C  
HETATM   17  O   UNL     1     -12.170  16.613  64.465  1.00  0.00     0.266 OA 
HETATM   18  O   UNL     1      -9.915  19.322  66.601  1.00  0.00    -0.327 OA 
HETATM   19  C   UNL     1      -8.744  17.661  67.813  1.00  0.00    -0.232 A  
HETATM   20  O   UNL     1     -11.621  18.776  64.781  1.00  0.00     1.060 OA 
HETATM   21  C   UNL     1      -8.084  18.641  68.553  1.00  0.00    -0.370 A  
HETATM   22  C   UNL     1      -7.122  18.268  69.475  1.00  0.00     0.072 A  
HETATM   23  F   UNL     1      -6.547  19.248  70.187  1.00  0.00    -0.250 F  
HETATM   24  C   UNL     1      -6.706  16.935  69.621  1.00  0.00    -0.081 A  
HETATM   25  C   UNL     1      -7.295  15.982  68.740  1.00  0.00    -0.165 A  
HETATM   26 CL   UNL     1      -6.331  14.571  68.332  1.00  0.00    -0.092 Cl 
HETATM   27  C   UNL     1      -8.442  16.288  67.945  1.00  0.00    -0.164 A  
BRANCH  24  28
HETATM   28  N   UNL     1      -5.716  16.618  70.590  1.00  0.00    -0.054 NA 
HETATM   29  C   UNL     1      -5.419  15.389  71.262  1.00  0.00     0.056 C  
HETATM   30  C   UNL     1      -5.128  16.192  72.537  1.00  0.00     1.251 C  
HETATM   31  C   UNL     1      -5.206  17.442  71.651  1.00  0.00     0.271 C  
HETATM   32  O   UNL     1      -6.110  16.086  73.599  1.00  0.00     2.188 OA 
HETATM   33  H   UNL     1      -5.930  16.583  74.389  1.00  0.00     0.000 HD 
ENDBRANCH  24  28
ENDBRANCH   6  12
TORSDOF 2
ENDMDL
MODEL      150
REMARK 921   NORMALIZED FREE ENERGY PREDICTED BY IDOCK:    5.32 KCAL/MOL
REMARK 922        TOTAL FREE ENERGY PREDICTED BY IDOCK:    5.10 KCAL/MOL
REMARK 923 INTER-LIGAND FREE ENERGY PREDICTED BY IDOCK:    4.75 KCAL/MOL
REMARK 924 INTRA-LIGAND FREE ENERGY PREDICTED BY IDOCK:    0.35 KCAL/MOL
REMARK 927      BINDING AFFINITY PREDICTED BY RF-SCORE:    0.00 PKD
ROOT
HETATM    1  N   UNL     1     -10.123  11.057  68.966  1.00  0.00    -0.286 NA 
HETATM    2  H1  UNL     1     -10.500  11.421  69.841  1.00  0.00     0.000 HD 
HETATM    3  C   UNL     1     -10.036   9.667  68.856  1.00  0.00    -0.187 A  
HETATM    4  H2  UNL     1     -10.655  11.431  68.181  1.00  0.00     0.000 HD 
HETATM    5  N   UNL     1      -9.536   9.185  67.696  1.00  0.00    -0.146 NA 
HETATM    6  C   UNL     1      -9.298   7.847  67.579  1.00  0.00    -0.143 A  
HETATM    7  F   UNL     1     -10.935   9.354  71.037  1.00  0.00    -0.296 F  
HETATM    8  C   UNL     1      -9.699   6.982  68.623  1.00  0.00    -0.139 A  
HETATM    9  C   UNL     1     -10.451   8.841  69.897  1.00  0.00    -0.221 A  
HETATM   10  F   UNL     1      -9.467   5.662  68.585  1.00  0.00    -0.118 F  
HETATM   11  C   UNL     1     -10.302   7.476  69.774  1.00  0.00    -0.221 A  
ENDROOT
BRANCH   6  12
HETATM   12  N   UNL     1      -8.603   7.350  66.400  1.00  0.00    -0.127 NA 
HETATM   13  C   UNL     1      -8.717   5.667  64.596  1.00  0.00     0.028 C  
HETATM   14  C   UNL     1      -9.271   4.370  64.160  1.00  0.00    -0.140 C  
HETATM   15  C   UNL     1      -7.810   6.472  63.777  1.00  0.00    -0.107 C  
HETATM   16  C   UNL     1      -9.061   6.171  65.790  1.00  0.00    -0.040 C  
HETATM   17  O   UNL     1     -10.074   3.724  64.824  1.00  0.00    -0.191 OA 
HETATM   18  O   UNL     1      -7.457   6.070  62.671  1.00  0.00    -0.052 OA 
HETATM   19  C   UNL     1      -7.327   7.754  64.327  1.00  0.00    -0.089 A  
HETATM   20  O   UNL     1      -8.802   3.921  62.974  1.00  0.00    -0.096 OA 
HETATM   21  C   UNL     1      -6.511   8.528  63.502  1.00  0.00    -0.085 A  
HETATM   22  C   UNL     1      -5.999   9.723  63.975  1.00  0.00    -0.111 A  
HETATM   23  F   UNL     1      -5.253  10.446  63.126  1.00  0.00    -0.092 F  
HETATM   24  C   UNL     1      -6.183  10.140  65.303  1.00  0.00    -0.118 A  
HETATM   25  C   UNL     1      -6.893   9.249  66.160  1.00  0.00    -0.085 A  
HETATM   26 CL   UNL     1      -6.498   9.304  67.871  1.00  0.00    -0.059 Cl 
HETATM   27  C   UNL     1      -7.625   8.131  65.656  1.00  0.00    -0.083 A  
BRANCH  24  28
HETATM   28  N   UNL     1      -5.632  11.381  65.724  1.00  0.00    -0.164 NA 
HETATM   29  C   UNL     1      -5.197  11.826  67.014  1.00  0.00    -0.115 C  
HETATM   30  C   UNL     1      -5.774  13.212  66.696  1.00  0.00     1.864 C  
HETATM   31  C   UNL     1      -5.947  12.704  65.260  1.00  0.00     6.616 C  
HETATM   32  O   UNL     1      -6.983  13.581  67.405  1.00  0.00    -0.244 OA 
HETATM   33  H   UNL     1      -7.341  14.439  67.208  1.00  0.00     0.000 HD 
ENDBRANCH  24  28
ENDBRANCH   6  12
TORSDOF 2
ENDMDL
MODEL      151
REMARK 921   NORMALIZED FREE ENERGY PREDICTED BY IDOCK:    5.75 KCAL/MOL
REMARK 922        TOTAL FREE ENERGY PREDICTED BY IDOCK:    5.58 KCAL/MOL
REMARK 923 INTER-LIGAND FREE ENERGY PREDICTED BY IDOCK:    0.93 KCAL/MOL
REMARK 924 INTRA-LIGAND FREE ENERGY PREDICTED BY IDOCK:    4.65 KCAL/MOL
REMARK 927      BINDING AFFINITY PREDICTED BY RF-SCORE:    0.00 PKD
ROOT
HETATM    1  N   UNL     1     -12.010  15.662  74.484  1.00  0.00    -0.370 NA 
HETATM    2  H1  UNL     1     -12.227  16.325  75.228  1.00  0.00     0.000 HD 
HETATM    3  C   UNL     1     -11.721  16.206  73.230  1.00  0.00    -0.159 A  
HETATM    4  H2  UNL     1     -11.247  15.053  74.778  1.00  0.00     0.000 HD 
HETATM    5  N   UNL     1     -11.434  15.327  72.244  1.00  0.00    -0.440 NA 
HETATM    6  C   UNL     1     -11.279  15.785  70.968  1.00  0.00    -0.350 A  
HETATM    7  F   UNL     1     -12.029  18.426  74.029  1.00  0.00     0.513 F  
HETATM    8  C   UNL     1     -11.293  17.178  70.730  1.00  0.00     1.169 A  
HETATM    9  C   UNL     1     -11.732  17.584  73.030  1.00  0.00     1.311 A  
HETATM   10  F   UNL     1     -11.177  17.693  69.498  1.00  0.00     0.357 F  
HETATM   11  C   UNL     1     -11.493  18.082  71.767  1.00  0.00     3.588 A  
ENDROOT
BRANCH   6  12
HETATM   12  N   UNL     1     -11.139  14.826  69.881  1.00  0.00    -0.253 NA 
HETATM   13  C   UNL     1     -11.523  12.468  69.258  1.00  0.00    -0.353 C  
HETATM   14  C   UNL     1     -11.711  11.085  69.739  1.00  0.00    -0.335 C  
HETATM   15  C   UNL     1     -11.505  12.831  67.840  1.00  0.00    -0.317 C  
HETATM   16  C   UNL     1     -11.381  13.468  70.140  1.00  0.00     0.109 C  
HETATM   17  O   UNL     1     -11.782  10.790  70.928  1.00  0.00    -0.320 OA 
HETATM   18  O   UNL     1     -11.635  11.964  66.979  1.00  0.00    -0.460 OA 
HETATM   19  C   UNL     1     -11.311  14.252  67.487  1.00  0.00    -0.346 A  
HETATM   20  O   UNL     1     -11.771  10.147  68.768  1.00  0.00    -0.060 OA 
HETATM   21  C   UNL     1     -11.358  14.578  66.132  1.00  0.00    -0.348 A  
HETATM   22  C   UNL     1     -11.147  15.887  65.737  1.00  0.00    -0.076 A  
HETATM   23  F   UNL     1     -11.243  16.152  64.426  1.00  0.00    -0.485 F  
HETATM   24  C   UNL     1     -10.780  16.891  66.648  1.00  0.00    -0.094 A  
HETATM   25  C   UNL     1     -10.593  16.488  68.002  1.00  0.00    -0.328 A  
HETATM   26 CL   UNL     1      -9.449  17.416  68.959  1.00  0.00    -0.177 Cl 
HETATM   27  C   UNL     1     -11.020  15.212  68.482  1.00  0.00    -0.262 A  
BRANCH  24  28
HETATM   28  N   UNL     1     -10.582  18.218  66.177  1.00  0.00    -0.371 NA 
HETATM   29  C   UNL     1      -9.389  18.908  65.790  1.00  0.00     0.371 C  
HETATM   30  C   UNL     1      -9.951  20.180  66.441  1.00  0.00    -0.448 C  
HETATM   31  C   UNL     1     -11.275  19.417  66.560  1.00  0.00     0.189 C  
HETATM   32  O   UNL     1      -9.325  20.595  67.681  1.00  0.00    -0.324 OA 
HETATM   33  H   UNL     1      -9.673  21.382  68.084  1.00  0.00     0.000 HD 
ENDBRANCH  24  28
ENDBRANCH   6  12
TORSDOF 2
ENDMDL
MODEL      152
REMARK 921   NORMALIZED FREE ENERGY PREDICTED BY IDOCK:    6.12 KCAL/MOL
REMARK 922        TOTAL FREE ENERGY PREDICTED BY IDOCK:    6.00 KCAL/MOL
REMARK 923 INTER-LIGAND FREE ENERGY PREDICTED BY IDOCK:    5.13 KCAL/MOL
REMARK 924 INTRA-LIGAND FREE ENERGY PREDICTED BY IDOCK:    0.86 KCAL/MOL
REMARK 927      BINDING AFFINITY PREDICTED BY RF-SCORE:    0.00 PKD
ROOT
HETATM    1  N   UNL     1     -11.823  17.829  63.551  1.00  0.00     5.498 NA 
HETATM    2  H1  UNL     1     -12.713  17.601  63.108  1.00  0.00     0.000 HD 
HETATM    3  C   UNL     1     -11.437  17.022  64.624  1.00  0.00     0.733 A  
HETATM    4  H2  UNL     1     -11.084  17.843  62.849  1.00  0.00     0.000 HD 
HETATM    5  N   UNL     1     -10.258  17.324  65.212  1.00  0.00    -0.443 NA 
HETATM    6  C   UNL     1      -9.891  16.664  66.347  1.00  0.00    -0.292 A  
HETATM    7  F   UNL     1     -13.408  15.699  64.447  1.00  0.00     0.415 F  
HETATM    8  C   UNL     1     -10.689  15.592  66.809  1.00  0.00    -0.305 A  
HETATM    9  C   UNL     1     -12.240  15.966  65.048  1.00  0.00     0.749 A  
HETATM   10  F   UNL     1     -10.403  14.922  67.934  1.00  0.00    -0.230 F  
HETATM   11  C   UNL     1     -11.852  15.224  66.143  1.00  0.00     0.214 A  
ENDROOT
BRANCH   6  12
HETATM   12  N   UNL     1      -8.709  17.103  67.075  1.00  0.00    -0.218 NA 
HETATM   13  C   UNL     1      -7.648  19.068  68.129  1.00  0.00    -0.311 C  
HETATM   14  C   UNL     1      -7.576  20.542  68.187  1.00  0.00    -0.023 C  
HETATM   15  C   UNL     1      -6.815  18.188  68.949  1.00  0.00    -0.258 C  
HETATM   16  C   UNL     1      -8.528  18.476  67.310  1.00  0.00    -0.258 C  
HETATM   17  O   UNL     1      -8.314  21.278  67.540  1.00  0.00    -0.077 OA 
HETATM   18  O   UNL     1      -5.990  18.666  69.725  1.00  0.00    -0.247 OA 
HETATM   19  C   UNL     1      -6.984  16.729  68.800  1.00  0.00    -0.197 A  
HETATM   20  O   UNL     1      -6.606  21.033  68.991  1.00  0.00     0.109 OA 
HETATM   21  C   UNL     1      -6.220  15.915  69.635  1.00  0.00    -0.177 A  
HETATM   22  C   UNL     1      -6.309  14.540  69.517  1.00  0.00    -0.128 A  
HETATM   23  F   UNL     1      -5.582  13.806  70.373  1.00  0.00    -0.100 F  
HETATM   24  C   UNL     1      -7.068  13.926  68.508  1.00  0.00    -0.104 A  
HETATM   25  C   UNL     1      -7.713  14.791  67.578  1.00  0.00    -0.194 A  
HETATM   26 CL   UNL     1      -7.981  14.164  65.959  1.00  0.00     1.913 Cl 
HETATM   27  C   UNL     1      -7.831  16.196  67.802  1.00  0.00    -0.143 A  
BRANCH  24  28
HETATM   28  N   UNL     1      -7.120  12.507  68.444  1.00  0.00    -0.099 NA 
HETATM   29  C   UNL     1      -7.910  11.631  67.633  1.00  0.00    -0.135 C  
HETATM   30  C   UNL     1      -8.047  10.688  68.836  1.00  0.00    -0.139 C  
HETATM   31  C   UNL     1      -6.980  11.557  69.514  1.00  0.00    -0.034 C  
HETATM   32  O   UNL     1      -9.349  10.644  69.471  1.00  0.00    -0.388 OA 
HETATM   33  H   UNL     1      -9.434  10.060  70.216  1.00  0.00     0.000 HD 
ENDBRANCH  24  28
ENDBRANCH   6  12
TORSDOF 2
ENDMDL
MODEL      153
REMARK 921   NORMALIZED FREE ENERGY PREDICTED BY IDOCK:    6.34 KCAL/MOL
REMARK 922        TOTAL FREE ENERGY PREDICTED BY IDOCK:    6.24 KCAL/MOL
REMARK 923 INTER-LIGAND FREE ENERGY PREDICTED BY IDOCK:    0.10 KCAL/MOL
REMARK 924 INTRA-LIGAND FREE ENERGY PREDICTED BY IDOCK:    6.14 KCAL/MOL
REMARK 927      BINDING AFFINITY PREDICTED BY RF-SCORE:    0.00 PKD
ROOT
HETATM    1  N   UNL     1      -8.825  17.536  65.836  1.00  0.00    -0.529 NA 
HETATM    2  H1  UNL     1      -8.155  17.944  65.184  1.00  0.00     0.000 HD 
HETATM    3  C   UNL     1      -8.315  16.625  66.764  1.00  0.00    -0.235 A  
HETATM    4  H2  UNL     1      -9.327  18.278  66.322  1.00  0.00     0.000 HD 
HETATM    5  N   UNL     1      -9.204  16.084  67.628  1.00  0.00    -0.204 NA 
HETATM    6  C   UNL     1      -8.795  15.089  68.466  1.00  0.00    -0.181 A  
HETATM    7  F   UNL     1      -6.108  16.858  65.906  1.00  0.00    -0.050 F  
HETATM    8  C   UNL     1      -7.426  14.737  68.503  1.00  0.00    -0.117 A  
HETATM    9  C   UNL     1      -6.959  16.308  66.783  1.00  0.00    -0.130 A  
HETATM   10  F   UNL     1      -6.964  13.747  69.281  1.00  0.00    -0.105 F  
HETATM   11  C   UNL     1      -6.501  15.366  67.679  1.00  0.00    -0.190 A  
ENDROOT
BRANCH   6  12
HETATM   12  N   UNL     1      -9.785  14.389  69.274  1.00  0.00    -0.001 NA 
HETATM   13  C   UNL     1     -12.043  14.589  70.253  1.00  0.00    -0.386 C  
HETATM   14  C   UNL     1     -13.114  15.504  70.695  1.00  0.00    -0.310 C  
HETATM   15  C   UNL     1     -12.135  13.132  70.358  1.00  0.00    -0.317 C  
HETATM   16  C   UNL     1     -10.926  15.085  69.702  1.00  0.00    -0.279 C  
HETATM   17  O   UNL     1     -13.058  16.722  70.554  1.00  0.00     2.696 OA 
HETATM   18  O   UNL     1     -13.133  12.611  70.850  1.00  0.00    -0.060 OA 
HETATM   19  C   UNL     1     -10.995  12.325  69.878  1.00  0.00     0.365 A  
HETATM   20  O   UNL     1     -14.162  14.904  71.302  1.00  0.00    -0.431 OA 
HETATM   21  C   UNL     1     -11.134  10.939  69.935  1.00  0.00    -0.311 A  
HETATM   22  C   UNL     1     -10.087  10.130  69.532  1.00  0.00    -0.235 A  
HETATM   23  F   UNL     1     -10.289   8.805  69.572  1.00  0.00    -0.192 F  
HETATM   24  C   UNL     1      -8.838  10.656  69.163  1.00  0.00    -0.122 A  
HETATM   25  C   UNL     1      -8.685  12.069  69.263  1.00  0.00     0.767 A  
HETATM   26 CL   UNL     1      -7.067  12.676  69.579  1.00  0.00     0.173 Cl 
HETATM   27  C   UNL     1      -9.799  12.943  69.450  1.00  0.00     0.913 A  
BRANCH  24  28
HETATM   28  N   UNL     1      -7.804   9.769  68.756  1.00  0.00    -0.080 NA 
HETATM   29  C   UNL     1      -7.547   9.144  67.494  1.00  0.00    -0.088 C  
HETATM   30  C   UNL     1      -7.107   7.879  68.245  1.00  0.00    -0.088 C  
HETATM   31  C   UNL     1      -7.161   8.734  69.517  1.00  0.00    -0.055 C  
HETATM   32  O   UNL     1      -8.013   6.749  68.182  1.00  0.00    -0.111 OA 
HETATM   33  H   UNL     1      -7.741   5.967  68.647  1.00  0.00     0.000 HD 
ENDBRANCH  24  28
ENDBRANCH   6  12
TORSDOF 2
ENDMDL
MODEL      154
REMARK 921   NORMALIZED FREE ENERGY PREDICTED BY IDOCK:    9.27 KCAL/MOL
REMARK 922        TOTAL FREE ENERGY PREDICTED BY IDOCK:    9.51 KCAL/MOL
REMARK 923 INTER-LIGAND FREE ENERGY PREDICTED BY IDOCK:    7.48 KCAL/MOL
REMARK 924 INTRA-LIGAND FREE ENERGY PREDICTED BY IDOCK:    2.03 KCAL/MOL
REMARK 927      BINDING AFFINITY PREDICTED BY RF-SCORE:    0.00 PKD
ROOT
HETATM    1  N   UNL     1     -10.879  13.815  65.470  1.00  0.00    -0.292 NA 
HETATM    2  H1  UNL     1     -11.265  14.686  65.105  1.00  0.00     0.000 HD 
HETATM    3  C   UNL     1     -11.595  13.201  66.501  1.00  0.00    -0.356 A  
HETATM    4  H2  UNL     1     -10.740  13.154  64.707  1.00  0.00     0.000 HD 
HETATM    5  N   UNL     1     -11.083  12.047  66.985  1.00  0.00    -0.280 NA 
HETATM    6  C   UNL     1     -11.657  11.472  68.080  1.00  0.00    -0.308 A  
HETATM    7  F   UNL     1     -13.248  14.914  66.487  1.00  0.00     0.552 F  
HETATM    8  C   UNL     1     -12.850  12.024  68.603  1.00  0.00     2.032 A  
HETATM    9  C   UNL     1     -12.773  13.763  66.986  1.00  0.00     0.360 A  
HETATM   10  F   UNL     1     -13.448  11.526  69.695  1.00  0.00     0.751 F  
HETATM   11  C   UNL     1     -13.424  13.156  68.039  1.00  0.00     5.948 A  
ENDROOT
BRANCH   6  12
HETATM   12  N   UNL     1     -11.008  10.328  68.704  1.00  0.00    -0.238 NA 
HETATM   13  C   UNL     1     -11.389   8.421  70.227  1.00  0.00    -0.131 C  
HETATM   14  C   UNL     1     -12.223   7.861  71.309  1.00  0.00    -0.294 C  
HETATM   15  C   UNL     1     -10.224   7.733  69.669  1.00  0.00    -0.206 C  
HETATM   16  C   UNL     1     -11.701   9.610  69.692  1.00  0.00     0.173 C  
HETATM   17  O   UNL     1     -13.231   8.414  71.736  1.00  0.00    -0.335 OA 
HETATM   18  O   UNL     1      -9.885   6.637  70.111  1.00  0.00    -0.167 OA 
HETATM   19  C   UNL     1      -9.473   8.399  68.587  1.00  0.00    -0.147 A  
HETATM   20  O   UNL     1     -11.777   6.693  71.825  1.00  0.00    -0.286 OA 
HETATM   21  C   UNL     1      -8.404   7.695  68.033  1.00  0.00    -0.124 A  
HETATM   22  C   UNL     1      -7.641   8.282  67.040  1.00  0.00    -0.092 A  
HETATM   23  F   UNL     1      -6.650   7.544  66.516  1.00  0.00    -0.048 F  
HETATM   24  C   UNL     1      -7.836   9.612  66.637  1.00  0.00    -0.105 A  
HETATM   25  C   UNL     1      -8.838  10.350  67.333  1.00  0.00    -0.132 A  
HETATM   26 CL   UNL     1      -8.613  12.088  67.448  1.00  0.00    -0.163 Cl 
HETATM   27  C   UNL     1      -9.789   9.718  68.191  1.00  0.00    -0.148 A  
BRANCH  24  28
HETATM   28  N   UNL     1      -7.019  10.154  65.608  1.00  0.00    -0.118 NA 
HETATM   29  C   UNL     1      -6.971  11.468  65.040  1.00  0.00     1.738 C  
HETATM   30  C   UNL     1      -6.728  10.831  63.665  1.00  0.00     0.341 C  
HETATM   31  C   UNL     1      -6.532   9.510  64.419  1.00  0.00    -0.095 C  
HETATM   32  O   UNL     1      -7.834  10.888  62.729  1.00  0.00    -0.351 OA 
HETATM   33  H   UNL     1      -7.684  10.494  61.877  1.00  0.00     0.000 HD 
ENDBRANCH  24  28
ENDBRANCH   6  12
TORSDOF 2
ENDMDL
MODEL      155
REMARK 921   NORMALIZED FREE ENERGY PREDICTED BY IDOCK:   11.22 KCAL/MOL
REMARK 922        TOTAL FREE ENERGY PREDICTED BY IDOCK:   11.69 KCAL/MOL
REMARK 923 INTER-LIGAND FREE ENERGY PREDICTED BY IDOCK:   12.13 KCAL/MOL
REMARK 924 INTRA-LIGAND FREE ENERGY PREDICTED BY IDOCK:   -0.44 KCAL/MOL
REMARK 927      BINDING AFFINITY PREDICTED BY RF-SCORE:    0.00 PKD
ROOT
HETATM    1  N   UNL     1      -5.628  17.600  64.696  1.00  0.00     0.594 NA 
HETATM    2  H1  UNL     1      -6.039  18.261  64.036  1.00  0.00     0.000 HD 
HETATM    3  C   UNL     1      -6.519  16.905  65.517  1.00  0.00     1.765 A  
HETATM    4  H2  UNL     1      -5.035  16.939  64.195  1.00  0.00     0.000 HD 
HETATM    5  N   UNL     1      -5.975  16.030  66.391  1.00  0.00     0.522 NA 
HETATM    6  C   UNL     1      -6.777  15.423  67.312  1.00  0.00    -0.061 A  
HETATM    7  F   UNL     1      -8.397  17.999  64.546  1.00  0.00     3.399 F  
HETATM    8  C   UNL     1      -8.175  15.624  67.247  1.00  0.00    -0.191 A  
HETATM    9  C   UNL     1      -7.892  17.117  65.420  1.00  0.00     1.611 A  
HETATM   10  F   UNL     1      -9.016  15.083  68.140  1.00  0.00    -0.161 F  
HETATM   11  C   UNL     1      -8.738  16.451  66.283  1.00  0.00    -0.369 A  
ENDROOT
BRANCH   6  12
HETATM   12  N   UNL     1      -6.170  14.615  68.360  1.00  0.00    -0.094 NA 
HETATM   13  C   UNL     1      -5.696  14.542  70.783  1.00  0.00    -0.177 C  
HETATM   14  C   UNL     1      -5.524  15.322  72.025  1.00  0.00     0.276 C  
HETATM   15  C   UNL     1      -5.559  13.087  70.721  1.00  0.00    -0.183 C  
HETATM   16  C   UNL     1      -6.018  15.168  69.641  1.00  0.00    -0.117 C  
HETATM   17  O   UNL     1      -5.695  16.535  72.086  1.00  0.00     0.833 OA 
HETATM   18  O   UNL     1      -5.269  12.451  71.732  1.00  0.00    -0.349 OA 
HETATM   19  C   UNL     1      -5.759  12.423  69.417  1.00  0.00    -0.085 A  
HETATM   20  O   UNL     1      -5.129  14.603  73.099  1.00  0.00    -0.280 OA 
HETATM   21  C   UNL     1      -5.680  11.030  69.399  1.00  0.00    -0.043 A  
HETATM   22  C   UNL     1      -5.823  10.354  68.200  1.00  0.00    -0.044 A  
HETATM   23  F   UNL     1      -5.778   9.014  68.247  1.00  0.00    -0.037 F  
HETATM   24  C   UNL     1      -5.941  11.027  66.974  1.00  0.00    -0.077 A  
HETATM   25  C   UNL     1      -5.864  12.450  67.015  1.00  0.00     0.033 A  
HETATM   26 CL   UNL     1      -5.237  13.256  65.586  1.00  0.00     5.881 Cl 
HETATM   27  C   UNL     1      -5.947  13.180  68.240  1.00  0.00    -0.090 A  
BRANCH  24  28
HETATM   28  N   UNL     1      -6.088  10.272  65.779  1.00  0.00    -0.097 NA 
HETATM   29  C   UNL     1      -7.228  10.054  64.940  1.00  0.00    -0.140 C  
HETATM   30  C   UNL     1      -6.764   8.605  64.736  1.00  0.00    -0.069 C  
HETATM   31  C   UNL     1      -5.458   9.031  65.420  1.00  0.00    -0.038 C  
HETATM   32  O   UNL     1      -7.544   7.582  65.403  1.00  0.00    -0.084 OA 
HETATM   33  H   UNL     1      -7.256   6.685  65.277  1.00  0.00     0.000 HD 
ENDBRANCH  24  28
ENDBRANCH   6  12
TORSDOF 2
ENDMDL
MODEL      156
REMARK 921   NORMALIZED FREE ENERGY PREDICTED BY IDOCK:   13.51 KCAL/MOL
REMARK 922        TOTAL FREE ENERGY PREDICTED BY IDOCK:   14.25 KCAL/MOL
REMARK 923 INTER-LIGAND FREE ENERGY PREDICTED BY IDOCK:   13.85 KCAL/MOL
REMARK 924 INTRA-LIGAND FREE ENERGY PREDICTED BY IDOCK:    0.41 KCAL/MOL
REMARK 927      BINDING AFFINITY PREDICTED BY RF-SCORE:    0.00 PKD
ROOT
HETATM    1  N   UNL     1     -13.430  11.895  69.086  1.00  0.00     2.901 NA 
HETATM    2  H1  UNL     1     -13.824  10.960  68.981  1.00  0.00     0.000 HD 
HETATM    3  C   UNL     1     -12.244  12.153  68.395  1.00  0.00     0.203 A  
HETATM    4  H2  UNL     1     -14.131  12.593  68.838  1.00  0.00     0.000 HD 
HETATM    5  N   UNL     1     -11.722  13.392  68.535  1.00  0.00    -0.336 NA 
HETATM    6  C   UNL     1     -10.498  13.663  67.998  1.00  0.00    -0.248 A  
HETATM    7  F   UNL     1     -12.192   9.950  67.496  1.00  0.00     1.393 F  
HETATM    8  C   UNL     1      -9.864  12.684  67.199  1.00  0.00    -0.212 A  
HETATM    9  C   UNL     1     -11.650  11.171  67.606  1.00  0.00    -0.183 A  
HETATM   10  F   UNL     1      -8.647  12.874  66.669  1.00  0.00    -0.192 F  
HETATM   11  C   UNL     1     -10.452  11.444  66.980  1.00  0.00    -0.271 A  
ENDROOT
BRANCH   6  12
HETATM   12  N   UNL     1      -9.859  14.938  68.292  1.00  0.00    -0.214 NA 
HETATM   13  C   UNL     1      -8.717  16.868  67.258  1.00  0.00    -0.207 C  
HETATM   14  C   UNL     1      -7.964  17.368  66.091  1.00  0.00    -0.240 C  
HETATM   15  C   UNL     1      -9.025  17.688  68.429  1.00  0.00    -0.280 C  
HETATM   16  C   UNL     1      -9.177  15.608  67.265  1.00  0.00    -0.204 C  
HETATM   17  O   UNL     1      -7.755  16.695  65.086  1.00  0.00     1.718 OA 
HETATM   18  O   UNL     1      -8.637  18.853  68.486  1.00  0.00    -0.329 OA 
HETATM   19  C   UNL     1      -9.789  17.071  69.532  1.00  0.00     0.084 A  
HETATM   20  O   UNL     1      -7.485  18.625  66.218  1.00  0.00    -0.239 OA 
HETATM   21  C   UNL     1     -10.119  17.893  70.609  1.00  0.00     2.406 A  
HETATM   22  C   UNL     1     -10.803  17.362  71.688  1.00  0.00     2.196 A  
HETATM   23  F   UNL     1     -11.129  18.206  72.679  1.00  0.00     0.477 F  
HETATM   24  C   UNL     1     -11.089  15.991  71.789  1.00  0.00     0.203 A  
HETATM   25  C   UNL     1     -10.602  15.158  70.740  1.00  0.00     0.034 A  
HETATM   26 CL   UNL     1     -10.234  13.490  71.152  1.00  0.00     4.942 Cl 
HETATM   27  C   UNL     1     -10.101  15.693  69.515  1.00  0.00    -0.277 A  
BRANCH  24  28
HETATM   28  N   UNL     1     -11.799  15.511  72.923  1.00  0.00    -0.450 NA 
HETATM   29  C   UNL     1     -11.769  14.239  73.581  1.00  0.00     0.978 C  
HETATM   30  C   UNL     1     -13.284  14.350  73.798  1.00  0.00     1.160 C  
HETATM   31  C   UNL     1     -13.148  15.802  73.325  1.00  0.00    -0.584 C  
HETATM   32  O   UNL     1     -14.112  13.477  72.990  1.00  0.00    -0.388 OA 
HETATM   33  H   UNL     1     -15.051  13.546  73.124  1.00  0.00     0.000 HD 
ENDBRANCH  24  28
ENDBRANCH   6  12
TORSDOF 2
ENDMDL
MODEL      157
REMARK 921   NORMALIZED FREE ENERGY PREDICTED BY IDOCK:   18.90 KCAL/MOL
REMARK 922        TOTAL FREE ENERGY PREDICTED BY IDOCK:   20.27 KCAL/MOL
REMARK 923 INTER-LIGAND FREE ENERGY PREDICTED BY IDOCK:   20.23 KCAL/MOL
REMARK 924 INTRA-LIGAND FREE ENERGY PREDICTED BY IDOCK:    0.04 KCAL/MOL
REMARK 927      BINDING AFFINITY PREDICTED BY RF-SCORE:    0.00 PKD
ROOT
HETATM    1  N   UNL     1      -5.654  17.602  64.686  1.00  0.00     0.594 NA 
HETATM    2  H1  UNL     1      -5.896  18.238  63.926  1.00  0.00     0.000 HD 
HETATM    3  C   UNL     1      -6.722  17.008  65.363  1.00  0.00     1.800 A  
HETATM    4  H2  UNL     1      -5.022  16.880  64.341  1.00  0.00     0.000 HD 
HETATM    5  N   UNL     1      -6.402  16.165  66.371  1.00  0.00     0.159 NA 
HETATM    6  C   UNL     1      -7.395  15.661  67.158  1.00  0.00    -0.212 A  
HETATM    7  F   UNL     1      -8.319  18.130  64.002  1.00  0.00     6.500 F  
HETATM    8  C   UNL     1      -8.742  15.928  66.823  1.00  0.00    -0.269 A  
HETATM    9  C   UNL     1      -8.038  17.282  65.002  1.00  0.00     3.545 A  
HETATM   10  F   UNL     1      -9.764  15.490  67.572  1.00  0.00    -0.211 F  
HETATM   11  C   UNL     1      -9.067  16.718  65.727  1.00  0.00     0.035 A  
ENDROOT
BRANCH   6  12
HETATM   12  N   UNL     1      -7.041  14.893  68.343  1.00  0.00    -0.107 NA 
HETATM   13  C   UNL     1      -6.206  12.698  69.106  1.00  0.00    -0.098 C  
HETATM   14  C   UNL     1      -6.044  11.266  68.785  1.00  0.00    -0.044 C  
HETATM   15  C   UNL     1      -5.771  13.293  70.370  1.00  0.00    -0.171 C  
HETATM   16  C   UNL     1      -6.755  13.526  68.206  1.00  0.00    -0.107 C  
HETATM   17  O   UNL     1      -6.358  10.780  67.703  1.00  0.00    -0.055 OA 
HETATM   18  O   UNL     1      -5.256  12.592  71.238  1.00  0.00    -0.159 OA 
HETATM   19  C   UNL     1      -5.987  14.741  70.570  1.00  0.00    -0.156 A  
HETATM   20  O   UNL     1      -5.547  10.510  69.789  1.00  0.00    -0.038 OA 
HETATM   21  C   UNL     1      -5.510  15.292  71.759  1.00  0.00     0.189 A  
HETATM   22  C   UNL     1      -5.715  16.636  72.018  1.00  0.00     1.337 A  
HETATM   23  F   UNL     1      -5.201  17.122  73.158  1.00  0.00     1.646 F  
HETATM   24  C   UNL     1      -6.484  17.450  71.172  1.00  0.00     2.459 A  
HETATM   25  C   UNL     1      -7.083  16.815  70.045  1.00  0.00     0.755 A  
HETATM   26 CL   UNL     1      -8.583  17.505  69.446  1.00  0.00     0.285 Cl 
HETATM   27  C   UNL     1      -6.710  15.502  69.625  1.00  0.00    -0.180 A  
BRANCH  24  28
HETATM   28  N   UNL     1      -6.652  18.824  71.495  1.00  0.00     1.844 NA 
HETATM   29  C   UNL     1      -7.255  19.895  70.759  1.00  0.00     0.745 C  
HETATM   30  C   UNL     1      -6.156  20.831  71.280  1.00  0.00     0.387 C  
HETATM   31  C   UNL     1      -5.765  19.688  72.225  1.00  0.00     0.305 C  
HETATM   32  O   UNL     1      -5.157  21.246  70.314  1.00  0.00    -0.554 OA 
HETATM   33  H   UNL     1      -4.476  21.826  70.637  1.00  0.00     0.000 HD 
ENDBRANCH  24  28
ENDBRANCH   6  12
TORSDOF 2
ENDMDL
MODEL      158
REMARK 921   NORMALIZED FREE ENERGY PREDICTED BY IDOCK:   31.11 KCAL/MOL
REMARK 922        TOTAL FREE ENERGY PREDICTED BY IDOCK:   33.91 KCAL/MOL
REMARK 923 INTER-LIGAND FREE ENERGY PREDICTED BY IDOCK:   34.34 KCAL/MOL
REMARK 924 INTRA-LIGAND FREE ENERGY PREDICTED BY IDOCK:   -0.43 KCAL/MOL
REMARK 927      BINDING AFFINITY PREDICTED BY RF-SCORE:    0.00 PKD
ROOT
HETATM    1  N   UNL     1      -9.467   9.502  68.115  1.00  0.00    -0.133 NA 
HETATM    2  H1  UNL     1      -9.725   8.708  68.701  1.00  0.00     0.000 HD 
HETATM    3  C   UNL     1      -9.871  10.763  68.560  1.00  0.00    -0.177 A  
HETATM    4  H2  UNL     1      -8.460   9.500  67.958  1.00  0.00     0.000 HD 
HETATM    5  N   UNL     1      -9.530  11.815  67.782  1.00  0.00    -0.176 NA 
HETATM    6  C   UNL     1     -10.011  13.053  68.088  1.00  0.00    -0.231 A  
HETATM    7  F   UNL     1     -10.915   9.840  70.489  1.00  0.00    -0.274 F  
HETATM    8  C   UNL     1     -10.747  13.231  69.282  1.00  0.00     0.047 A  
HETATM    9  C   UNL     1     -10.586  10.906  69.746  1.00  0.00    -0.074 A  
HETATM   10  F   UNL     1     -11.275  14.415  69.626  1.00  0.00    -0.252 F  
HETATM   11  C   UNL     1     -11.013  12.161  70.127  1.00  0.00     0.732 A  
ENDROOT
BRANCH   6  12
HETATM   12  N   UNL     1      -9.786  14.152  67.160  1.00  0.00    -0.241 NA 
HETATM   13  C   UNL     1     -10.254  14.935  64.865  1.00  0.00    -0.286 C  
HETATM   14  C   UNL     1     -10.618  14.552  63.486  1.00  0.00     3.250 C  
HETATM   15  C   UNL     1      -9.997  16.316  65.275  1.00  0.00     0.093 C  
HETATM   16  C   UNL     1     -10.167  13.996  65.818  1.00  0.00    -0.328 C  
HETATM   17  O   UNL     1     -10.887  13.401  63.157  1.00  0.00     0.599 OA 
HETATM   18  O   UNL     1     -10.063  17.227  64.452  1.00  0.00     1.646 OA 
HETATM   19  C   UNL     1      -9.643  16.570  66.686  1.00  0.00    -0.275 A  
HETATM   20  O   UNL     1     -10.605  15.564  62.591  1.00  0.00     6.284 OA 
HETATM   21  C   UNL     1      -9.462  17.901  67.062  1.00  0.00    -0.272 A  
HETATM   22  C   UNL     1      -9.095  18.199  68.362  1.00  0.00    -0.307 A  
HETATM   23  F   UNL     1      -8.973  19.497  68.679  1.00  0.00    -0.373 F  
HETATM   24  C   UNL     1      -8.791  17.199  69.299  1.00  0.00     0.144 A  
HETATM   25  C   UNL     1      -8.839  15.852  68.835  1.00  0.00    -0.225 A  
HETATM   26 CL   UNL     1      -7.781  14.696  69.630  1.00  0.00    -0.014 Cl 
HETATM   27  C   UNL     1      -9.430  15.500  67.583  1.00  0.00    -0.208 A  
BRANCH  24  28
HETATM   28  N   UNL     1      -8.423  17.573  70.620  1.00  0.00     4.404 NA 
HETATM   29  C   UNL     1      -9.194  18.139  71.685  1.00  0.00     9.569 C  
HETATM   30  C   UNL     1      -7.982  19.002  72.064  1.00  0.00     6.751 C  
HETATM   31  C   UNL     1      -7.184  18.140  71.078  1.00  0.00     4.037 C  
HETATM   32  O   UNL     1      -8.082  20.415  71.759  1.00  0.00     0.626 OA 
HETATM   33  H   UNL     1      -7.331  20.949  71.993  1.00  0.00     0.000 HD 
ENDBRANCH  24  28
ENDBRANCH   6  12
TORSDOF 2
ENDMDL
MODEL      159
REMARK 921   NORMALIZED FREE ENERGY PREDICTED BY IDOCK:   34.77 KCAL/MOL
REMARK 922        TOTAL FREE ENERGY PREDICTED BY IDOCK:   38.00 KCAL/MOL
REMARK 923 INTER-LIGAND FREE ENERGY PREDICTED BY IDOCK:   36.23 KCAL/MOL
REMARK 924 INTRA-LIGAND FREE ENERGY PREDICTED BY IDOCK:    1.77 KCAL/MOL
REMARK 927      BINDING AFFINITY PREDICTED BY RF-SCORE:    0.00 PKD
ROOT
HETATM    1  N   UNL     1     -12.320  12.298  63.932  1.00  0.00    -0.509 NA 
HETATM    2  H1  UNL     1     -12.568  12.077  62.967  1.00  0.00     0.000 HD 
HETATM    3  C   UNL     1     -11.458  11.406  64.573  1.00  0.00    -0.051 A  
HETATM    4  H2  UNL     1     -11.936  13.241  63.980  1.00  0.00     0.000 HD 
HETATM    5  N   UNL     1     -11.130  11.699  65.852  1.00  0.00    -0.292 NA 
HETATM    6  C   UNL     1     -10.405  10.799  66.577  1.00  0.00    -0.244 A  
HETATM    7  F   UNL     1     -11.325  10.017  62.645  1.00  0.00     1.970 F  
HETATM    8  C   UNL     1      -9.904   9.642  65.936  1.00  0.00    -0.288 A  
HETATM    9  C   UNL     1     -10.972  10.281  63.912  1.00  0.00     1.975 A  
HETATM   10  F   UNL     1      -9.212   8.703  66.597  1.00  0.00    -0.162 F  
HETATM   11  C   UNL     1     -10.165   9.395  64.594  1.00  0.00     1.447 A  
ENDROOT
BRANCH   6  12
HETATM   12  N   UNL     1     -10.197  11.034  67.998  1.00  0.00    -0.174 NA 
HETATM   13  C   UNL     1      -9.072  10.147  70.009  1.00  0.00    -0.031 C  
HETATM   14  C   UNL     1      -8.477   8.965  70.664  1.00  0.00    -0.184 C  
HETATM   15  C   UNL     1      -9.151  11.464  70.644  1.00  0.00     5.044 C  
HETATM   16  C   UNL     1      -9.552  10.048  68.762  1.00  0.00    -0.168 C  
HETATM   17  O   UNL     1      -8.361   7.877  70.109  1.00  0.00    -0.123 OA 
HETATM   18  O   UNL     1      -8.725  11.625  71.785  1.00  0.00    11.539 OA 
HETATM   19  C   UNL     1      -9.767  12.569  69.883  1.00  0.00     2.464 A  
HETATM   20  O   UNL     1      -8.091   9.157  71.945  1.00  0.00    -0.330 OA 
HETATM   21  C   UNL     1      -9.776  13.825  70.488  1.00  0.00     3.563 A  
HETATM   22  C   UNL     1     -10.372  14.892  69.839  1.00  0.00    -0.037 A  
HETATM   23  F   UNL     1     -10.316  16.085  70.449  1.00  0.00    -0.258 F  
HETATM   24  C   UNL     1     -11.068  14.734  68.629  1.00  0.00    -0.262 A  
HETATM   25  C   UNL     1     -11.168  13.408  68.118  1.00  0.00    -0.273 A  
HETATM   26 CL   UNL     1     -12.580  13.035  67.141  1.00  0.00     0.290 Cl 
HETATM   27  C   UNL     1     -10.381  12.333  68.632  1.00  0.00    -0.188 A  
BRANCH  24  28
HETATM   28  N   UNL     1     -11.654  15.872  68.012  1.00  0.00    -0.242 NA 
HETATM   29  C   UNL     1     -13.021  16.288  67.914  1.00  0.00     3.531 C  
HETATM   30  C   UNL     1     -12.739  16.774  66.485  1.00  0.00     5.249 C  
HETATM   31  C   UNL     1     -11.257  16.540  66.803  1.00  0.00     0.335 C  
HETATM   32  O   UNL     1     -13.307  15.980  65.414  1.00  0.00     2.637 OA 
HETATM   33  H   UNL     1     -13.132  16.280  64.530  1.00  0.00     0.000 HD 
ENDBRANCH  24  28
ENDBRANCH   6  12
TORSDOF 2
ENDMDL
MODEL      160
REMARK 921   NORMALIZED FREE ENERGY PREDICTED BY IDOCK:   41.12 KCAL/MOL
REMARK 922        TOTAL FREE ENERGY PREDICTED BY IDOCK:   45.09 KCAL/MOL
REMARK 923 INTER-LIGAND FREE ENERGY PREDICTED BY IDOCK:   43.68 KCAL/MOL
REMARK 924 INTRA-LIGAND FREE ENERGY PREDICTED BY IDOCK:    1.41 KCAL/MOL
REMARK 927      BINDING AFFINITY PREDICTED BY RF-SCORE:    0.00 PKD
ROOT
HETATM    1  N   UNL     1     -12.689   9.875  66.026  1.00  0.00     9.089 NA 
HETATM    2  H1  UNL     1     -13.640   9.893  65.657  1.00  0.00     0.000 HD 
HETATM    3  C   UNL     1     -12.155   8.617  66.314  1.00  0.00     8.613 A  
HETATM    4  H2  UNL     1     -12.066  10.376  65.393  1.00  0.00     0.000 HD 
HETATM    5  N   UNL     1     -10.895   8.594  66.803  1.00  0.00    -0.017 NA 
HETATM    6  C   UNL     1     -10.368   7.412  67.232  1.00  0.00    -0.286 A  
HETATM    7  F   UNL     1     -14.150   7.520  65.619  1.00  0.00    11.308 F  
HETATM    8  C   UNL     1     -11.102   6.219  67.035  1.00  0.00    -0.297 A  
HETATM    9  C   UNL     1     -12.899   7.460  66.098  1.00  0.00    12.814 A  
HETATM   10  F   UNL     1     -10.657   5.028  67.461  1.00  0.00    -0.211 F  
HETATM   11  C   UNL     1     -12.359   6.239  66.443  1.00  0.00     4.802 A  
ENDROOT
BRANCH   6  12
HETATM   12  N   UNL     1      -9.082   7.412  67.914  1.00  0.00    -0.130 NA 
HETATM   13  C   UNL     1      -7.115   6.013  68.435  1.00  0.00    -0.082 C  
HETATM   14  C   UNL     1      -6.585   4.642  68.573  1.00  0.00    -0.046 C  
HETATM   15  C   UNL     1      -6.314   7.214  68.676  1.00  0.00    -0.035 C  
HETATM   16  C   UNL     1      -8.385   6.201  68.049  1.00  0.00    -0.117 C  
HETATM   17  O   UNL     1      -7.241   3.638  68.317  1.00  0.00    -0.051 OA 
HETATM   18  O   UNL     1      -5.142   7.113  69.029  1.00  0.00    -0.013 OA 
HETATM   19  C   UNL     1      -6.961   8.530  68.501  1.00  0.00    -0.065 A  
HETATM   20  O   UNL     1      -5.318   4.565  69.038  1.00  0.00    -0.010 OA 
HETATM   21  C   UNL     1      -6.159   9.656  68.680  1.00  0.00    -0.043 A  
HETATM   22  C   UNL     1      -6.717  10.917  68.564  1.00  0.00    -0.057 A  
HETATM   23  F   UNL     1      -5.892  11.965  68.706  1.00  0.00    -0.049 F  
HETATM   24  C   UNL     1      -8.096  11.108  68.376  1.00  0.00    -0.141 A  
HETATM   25  C   UNL     1      -8.906   9.936  68.351  1.00  0.00    -0.120 A  
HETATM   26 CL   UNL     1     -10.568  10.104  68.892  1.00  0.00    -0.220 Cl 
HETATM   27  C   UNL     1      -8.346   8.627  68.237  1.00  0.00    -0.127 A  
BRANCH  24  28
HETATM   28  N   UNL     1      -8.604  12.430  68.262  1.00  0.00    -0.181 NA 
HETATM   29  C   UNL     1      -9.275  13.089  67.181  1.00  0.00    -0.226 C  
HETATM   30  C   UNL     1      -8.510  14.373  67.529  1.00  0.00    -0.192 C  
HETATM   31  C   UNL     1      -8.066  13.647  68.805  1.00  0.00     0.001 C  
HETATM   32  O   UNL     1      -7.463  14.764  66.606  1.00  0.00    -0.234 OA 
HETATM   33  H   UNL     1      -6.989  15.559  66.821  1.00  0.00     0.000 HD 
ENDBRANCH  24  28
ENDBRANCH   6  12
TORSDOF 2
ENDMDL
MODEL      161
REMARK 921   NORMALIZED FREE ENERGY PREDICTED BY IDOCK:   51.27 KCAL/MOL
REMARK 922        TOTAL FREE ENERGY PREDICTED BY IDOCK:   56.43 KCAL/MOL
REMARK 923 INTER-LIGAND FREE ENERGY PREDICTED BY IDOCK:   49.41 KCAL/MOL
REMARK 924 INTRA-LIGAND FREE ENERGY PREDICTED BY IDOCK:    7.02 KCAL/MOL
REMARK 927      BINDING AFFINITY PREDICTED BY RF-SCORE:    0.00 PKD
ROOT
HETATM    1  N   UNL     1     -12.775   8.046  66.381  1.00  0.00     9.602 NA 
HETATM    2  H1  UNL     1     -12.632   7.596  65.477  1.00  0.00     0.000 HD 
HETATM    3  C   UNL     1     -12.587   9.430  66.425  1.00  0.00    11.888 A  
HETATM    4  H2  UNL     1     -13.702   7.815  66.737  1.00  0.00     0.000 HD 
HETATM    5  N   UNL     1     -12.776  10.026  67.623  1.00  0.00     5.311 NA 
HETATM    6  C   UNL     1     -12.475  11.349  67.764  1.00  0.00     1.568 A  
HETATM    7  F   UNL     1     -12.038   9.512  64.110  1.00  0.00     6.704 F  
HETATM    8  C   UNL     1     -12.097  12.094  66.624  1.00  0.00     0.104 A  
HETATM    9  C   UNL     1     -12.225  10.138  65.282  1.00  0.00     6.632 A  
HETATM   10  F   UNL     1     -11.758  13.389  66.698  1.00  0.00    -0.332 F  
HETATM   11  C   UNL     1     -11.997  11.494  65.374  1.00  0.00     0.485 A  
ENDROOT
BRANCH   6  12
HETATM   12  N   UNL     1     -12.515  11.950  69.089  1.00  0.00    -0.003 NA 
HETATM   13  C   UNL     1     -12.921  11.460  71.476  1.00  0.00    -0.505 C  
HETATM   14  C   UNL     1     -13.554  10.553  72.453  1.00  0.00     0.223 C  
HETATM   15  C   UNL     1     -12.171  12.657  71.857  1.00  0.00     0.859 C  
HETATM   16  C   UNL     1     -13.000  11.189  70.165  1.00  0.00     0.110 C  
HETATM   17  O   UNL     1     -14.134   9.520  72.134  1.00  0.00    -0.291 OA 
HETATM   18  O   UNL     1     -12.056  12.962  73.042  1.00  0.00     1.938 OA 
HETATM   19  C   UNL     1     -11.582  13.483  70.783  1.00  0.00     0.267 A  
HETATM   20  O   UNL     1     -13.476  10.958  73.740  1.00  0.00     5.218 OA 
HETATM   21  C   UNL     1     -10.823  14.584  71.178  1.00  0.00     0.760 A  
HETATM   22  C   UNL     1     -10.275  15.415  70.216  1.00  0.00    -0.111 A  
HETATM   23  F   UNL     1      -9.522  16.437  70.651  1.00  0.00     1.023 F  
HETATM   24  C   UNL     1     -10.545  15.252  68.848  1.00  0.00    -0.242 A  
HETATM   25  C   UNL     1     -11.448  14.208  68.495  1.00  0.00    -0.300 A  
HETATM   26 CL   UNL     1     -12.391  14.431  67.030  1.00  0.00    -0.286 Cl 
HETATM   27  C   UNL     1     -11.845  13.199  69.425  1.00  0.00    -0.326 A  
BRANCH  24  28
HETATM   28  N   UNL     1      -9.948  16.139  67.912  1.00  0.00    -0.236 NA 
HETATM   29  C   UNL     1     -10.503  16.833  66.789  1.00  0.00    -0.258 C  
HETATM   30  C   UNL     1      -9.197  16.577  66.024  1.00  0.00    -0.260 C  
HETATM   31  C   UNL     1      -8.620  16.101  67.363  1.00  0.00    -0.180 C  
HETATM   32  O   UNL     1      -9.261  15.597  64.958  1.00  0.00     0.046 OA 
HETATM   33  H   UNL     1      -8.453  15.438  64.484  1.00  0.00     0.000 HD 
ENDBRANCH  24  28
ENDBRANCH   6  12
TORSDOF 2
ENDMDL
MODEL      162
REMARK 921   NORMALIZED FREE ENERGY PREDICTED BY IDOCK:   54.14 KCAL/MOL
REMARK 922        TOTAL FREE ENERGY PREDICTED BY IDOCK:   59.63 KCAL/MOL
REMARK 923 INTER-LIGAND FREE ENERGY PREDICTED BY IDOCK:   59.32 KCAL/MOL
REMARK 924 INTRA-LIGAND FREE ENERGY PREDICTED BY IDOCK:    0.30 KCAL/MOL
REMARK 927      BINDING AFFINITY PREDICTED BY RF-SCORE:    0.00 PKD
ROOT
HETATM    1  N   UNL     1     -14.122   9.022  67.155  1.00  0.00    21.488 NA 
HETATM    2  H1  UNL     1     -14.287   8.219  66.548  1.00  0.00     0.000 HD 
HETATM    3  C   UNL     1     -12.935   9.728  66.947  1.00  0.00    12.947 A  
HETATM    4  H2  UNL     1     -14.915   9.660  67.103  1.00  0.00     0.000 HD 
HETATM    5  N   UNL     1     -12.717  10.791  67.752  1.00  0.00     2.677 NA 
HETATM    6  C   UNL     1     -11.518  11.438  67.692  1.00  0.00    -0.273 A  
HETATM    7  F   UNL     1     -12.283   8.274  65.179  1.00  0.00     9.549 F  
HETATM    8  C   UNL     1     -10.582  11.062  66.701  1.00  0.00    -0.262 A  
HETATM    9  C   UNL     1     -12.039   9.340  65.954  1.00  0.00     8.770 A  
HETATM   10  F   UNL     1      -9.373  11.635  66.607  1.00  0.00    -0.174 F  
HETATM   11  C   UNL     1     -10.853  10.029  65.812  1.00  0.00     0.408 A  
ENDROOT
BRANCH   6  12
HETATM   12  N   UNL     1     -11.217  12.471  68.673  1.00  0.00    -0.258 NA 
HETATM   13  C   UNL     1     -10.372  14.778  68.925  1.00  0.00    -0.243 C  
HETATM   14  C   UNL     1      -9.578  15.867  68.324  1.00  0.00    -0.205 C  
HETATM   15  C   UNL     1     -11.018  14.880  70.234  1.00  0.00    -0.153 C  
HETATM   16  C   UNL     1     -10.548  13.631  68.252  1.00  0.00    -0.253 C  
HETATM   17  O   UNL     1      -9.084  15.800  67.203  1.00  0.00    -0.200 OA 
HETATM   18  O   UNL     1     -10.901  15.905  70.901  1.00  0.00    -0.251 OA 
HETATM   19  C   UNL     1     -11.789  13.719  70.723  1.00  0.00    -0.215 A  
HETATM   20  O   UNL     1      -9.403  16.949  69.116  1.00  0.00    -0.228 OA 
HETATM   21  C   UNL     1     -12.443  13.866  71.946  1.00  0.00    -0.249 A  
HETATM   22  C   UNL     1     -13.151  12.800  72.474  1.00  0.00    -0.007 A  
HETATM   23  F   UNL     1     -13.793  13.009  73.633  1.00  0.00     1.799 F  
HETATM   24  C   UNL     1     -13.149  11.532  71.872  1.00  0.00    -0.387 A  
HETATM   25  C   UNL     1     -12.345  11.380  70.705  1.00  0.00    -0.373 A  
HETATM   26 CL   UNL     1     -11.695   9.779  70.388  1.00  0.00    -0.313 Cl 
HETATM   27  C   UNL     1     -11.793  12.500  70.011  1.00  0.00    -0.289 A  
BRANCH  24  28
HETATM   28  N   UNL     1     -13.901  10.481  72.464  1.00  0.00     0.321 NA 
HETATM   29  C   UNL     1     -13.863   9.927  73.784  1.00  0.00     4.856 C  
HETATM   30  C   UNL     1     -14.086   8.537  73.174  1.00  0.00     0.625 C  
HETATM   31  C   UNL     1     -14.375   9.268  71.857  1.00  0.00    -0.052 C  
HETATM   32  O   UNL     1     -12.946   7.642  73.185  1.00  0.00     0.268 OA 
HETATM   33  H   UNL     1     -13.085   6.781  72.807  1.00  0.00     0.000 HD 
ENDBRANCH  24  28
ENDBRANCH   6  12
TORSDOF 2
ENDMDL
MODEL      163
REMARK 921   NORMALIZED FREE ENERGY PREDICTED BY IDOCK:   55.24 KCAL/MOL
REMARK 922        TOTAL FREE ENERGY PREDICTED BY IDOCK:   60.85 KCAL/MOL
REMARK 923 INTER-LIGAND FREE ENERGY PREDICTED BY IDOCK:   60.87 KCAL/MOL
REMARK 924 INTRA-LIGAND FREE ENERGY PREDICTED BY IDOCK:   -0.01 KCAL/MOL
REMARK 927      BINDING AFFINITY PREDICTED BY RF-SCORE:    0.00 PKD
ROOT
HETATM    1  N   UNL     1      -6.961  15.155  65.363  1.00  0.00     6.676 NA 
HETATM    2  H1  UNL     1      -6.768  15.717  64.535  1.00  0.00     0.000 HD 
HETATM    3  C   UNL     1      -6.872  13.769  65.209  1.00  0.00    11.519 A  
HETATM    4  H2  UNL     1      -6.359  15.454  66.130  1.00  0.00     0.000 HD 
HETATM    5  N   UNL     1      -7.128  13.023  66.307  1.00  0.00     1.560 NA 
HETATM    6  C   UNL     1      -7.193  11.666  66.190  1.00  0.00     0.356 A  
HETATM    7  F   UNL     1      -6.292  13.978  62.910  1.00  0.00    12.038 F  
HETATM    8  C   UNL     1      -6.862  11.065  64.954  1.00  0.00     0.600 A  
HETATM    9  C   UNL     1      -6.533  13.207  63.981  1.00  0.00    15.926 A  
HETATM   10  F   UNL     1      -6.935   9.740  64.762  1.00  0.00    -0.098 F  
HETATM   11  C   UNL     1      -6.505  11.835  63.853  1.00  0.00     3.702 A  
ENDROOT
BRANCH   6  12
HETATM   12  N   UNL     1      -7.635  10.875  67.329  1.00  0.00    -0.100 NA 
HETATM   13  C   UNL     1      -7.037   8.951  68.758  1.00  0.00    -0.067 C  
HETATM   14  C   UNL     1      -6.258   7.702  68.874  1.00  0.00    -0.035 C  
HETATM   15  C   UNL     1      -7.913   9.454  69.816  1.00  0.00    -0.119 C  
HETATM   16  C   UNL     1      -6.941   9.697  67.647  1.00  0.00    -0.087 C  
HETATM   17  O   UNL     1      -5.482   7.311  68.008  1.00  0.00    -0.023 OA 
HETATM   18  O   UNL     1      -8.044   8.822  70.862  1.00  0.00    -0.118 OA 
HETATM   19  C   UNL     1      -8.637  10.719  69.579  1.00  0.00     0.114 A  
HETATM   20  O   UNL     1      -6.485   6.992  70.001  1.00  0.00    -0.035 OA 
HETATM   21  C   UNL     1      -9.419  11.206  70.627  1.00  0.00     3.699 A  
HETATM   22  C   UNL     1     -10.149  12.368  70.452  1.00  0.00     3.934 A  
HETATM   23  F   UNL     1     -10.851  12.812  71.505  1.00  0.00     3.190 F  
HETATM   24  C   UNL     1     -10.217  13.026  69.213  1.00  0.00     0.408 A  
HETATM   25  C   UNL     1      -9.529  12.415  68.125  1.00  0.00    -0.214 A  
HETATM   26 CL   UNL     1     -10.173  12.694  66.516  1.00  0.00    -0.247 Cl 
HETATM   27  C   UNL     1      -8.589  11.357  68.319  1.00  0.00    -0.156 A  
BRANCH  24  28
HETATM   28  N   UNL     1     -10.983  14.218  69.102  1.00  0.00    -0.259 NA 
HETATM   29  C   UNL     1     -10.584  15.593  69.084  1.00  0.00    -0.237 C  
HETATM   30  C   UNL     1     -11.830  15.935  69.912  1.00  0.00    -0.300 C  
HETATM   31  C   UNL     1     -12.288  14.498  69.635  1.00  0.00    -0.241 C  
HETATM   32  O   UNL     1     -11.600  16.288  71.299  1.00  0.00    -0.518 OA 
HETATM   33  H   UNL     1     -12.372  16.499  71.812  1.00  0.00     0.000 HD 
ENDBRANCH  24  28
ENDBRANCH   6  12
TORSDOF 2
ENDMDL
MODEL      164
REMARK 921   NORMALIZED FREE ENERGY PREDICTED BY IDOCK:   55.33 KCAL/MOL
REMARK 922        TOTAL FREE ENERGY PREDICTED BY IDOCK:   60.96 KCAL/MOL
REMARK 923 INTER-LIGAND FREE ENERGY PREDICTED BY IDOCK:   61.74 KCAL/MOL
REMARK 924 INTRA-LIGAND FREE ENERGY PREDICTED BY IDOCK:   -0.78 KCAL/MOL
REMARK 927      BINDING AFFINITY PREDICTED BY RF-SCORE:    0.00 PKD
ROOT
HETATM    1  N   UNL     1      -8.009  11.889  68.491  1.00  0.00    -0.173 NA 
HETATM    2  H1  UNL     1      -8.083  10.906  68.756  1.00  0.00     0.000 HD 
HETATM    3  C   UNL     1      -8.793  12.790  69.215  1.00  0.00     0.988 A  
HETATM    4  H2  UNL     1      -7.032  12.180  68.523  1.00  0.00     0.000 HD 
HETATM    5  N   UNL     1      -8.696  14.091  68.863  1.00  0.00    -0.015 NA 
HETATM    6  C   UNL     1      -9.535  15.001  69.437  1.00  0.00    -0.127 A  
HETATM    7  F   UNL     1      -9.702  11.048  70.558  1.00  0.00     0.858 F  
HETATM    8  C   UNL     1     -10.397  14.583  70.477  1.00  0.00     0.825 A  
HETATM    9  C   UNL     1      -9.624  12.348  70.242  1.00  0.00     4.381 A  
HETATM   10  F   UNL     1     -11.268  15.418  71.061  1.00  0.00    -0.309 F  
HETATM   11  C   UNL     1     -10.423  13.259  70.900  1.00  0.00     4.319 A  
ENDROOT
BRANCH   6  12
HETATM   12  N   UNL     1      -9.548  16.368  68.938  1.00  0.00    -0.243 NA 
HETATM   13  C   UNL     1     -10.681  17.890  67.357  1.00  0.00    -0.306 C  
HETATM   14  C   UNL     1     -11.499  18.003  66.133  1.00  0.00     1.650 C  
HETATM   15  C   UNL     1     -10.211  19.047  68.120  1.00  0.00    -0.396 C  
HETATM   16  C   UNL     1     -10.355  16.679  67.832  1.00  0.00    -0.310 C  
HETATM   17  O   UNL     1     -11.939  17.032  65.526  1.00  0.00     1.622 OA 
HETATM   18  O   UNL     1     -10.478  20.185  67.743  1.00  0.00    -0.351 OA 
HETATM   19  C   UNL     1      -9.401  18.801  69.331  1.00  0.00     0.163 A  
HETATM   20  O   UNL     1     -11.708  19.267  65.702  1.00  0.00     1.100 OA 
HETATM   21  C   UNL     1      -9.017  19.918  70.071  1.00  0.00     0.990 A  
HETATM   22  C   UNL     1      -8.227  19.753  71.195  1.00  0.00     2.469 A  
HETATM   23  F   UNL     1      -7.920  20.858  71.892  1.00  0.00     0.745 F  
HETATM   24  C   UNL     1      -7.705  18.503  71.563  1.00  0.00     6.820 A  
HETATM   25  C   UNL     1      -7.994  17.409  70.696  1.00  0.00     4.512 A  
HETATM   26 CL   UNL     1      -6.818  16.106  70.638  1.00  0.00     1.066 Cl 
HETATM   27  C   UNL     1      -8.982  17.495  69.669  1.00  0.00     0.906 A  
BRANCH  24  28
HETATM   28  N   UNL     1      -6.903  18.402  72.732  1.00  0.00     4.621 NA 
HETATM   29  C   UNL     1      -5.596  17.852  72.930  1.00  0.00     3.641 C  
HETATM   30  C   UNL     1      -6.062  17.312  74.289  1.00  0.00     9.537 C  
HETATM   31  C   UNL     1      -7.320  18.165  74.087  1.00  0.00    10.244 C  
HETATM   32  O   UNL     1      -6.257  15.878  74.376  1.00  0.00     2.515 OA 
HETATM   33  H   UNL     1      -6.546  15.543  75.217  1.00  0.00     0.000 HD 
ENDBRANCH  24  28
ENDBRANCH   6  12
TORSDOF 2
ENDMDL
MODEL      165
REMARK 921   NORMALIZED FREE ENERGY PREDICTED BY IDOCK:   67.95 KCAL/MOL
REMARK 922        TOTAL FREE ENERGY PREDICTED BY IDOCK:   75.06 KCAL/MOL
REMARK 923 INTER-LIGAND FREE ENERGY PREDICTED BY IDOCK:   73.17 KCAL/MOL
REMARK 924 INTRA-LIGAND FREE ENERGY PREDICTED BY IDOCK:    1.89 KCAL/MOL
REMARK 927      BINDING AFFINITY PREDICTED BY RF-SCORE:    0.00 PKD
ROOT
HETATM    1  N   UNL     1     -10.095  14.684  65.577  1.00  0.00    -0.358 NA 
HETATM    2  H1  UNL     1     -10.549  14.514  64.679  1.00  0.00     0.000 HD 
HETATM    3  C   UNL     1     -10.693  15.637  66.406  1.00  0.00    -0.291 A  
HETATM    4  H2  UNL     1      -9.994  13.805  66.083  1.00  0.00     0.000 HD 
HETATM    5  N   UNL     1     -10.091  15.863  67.595  1.00  0.00    -0.239 NA 
HETATM    6  C   UNL     1     -10.544  16.876  68.389  1.00  0.00    -0.365 A  
HETATM    7  F   UNL     1     -12.413  16.062  64.817  1.00  0.00     0.253 F  
HETATM    8  C   UNL     1     -11.710  17.580  68.009  1.00  0.00     1.255 A  
HETATM    9  C   UNL     1     -11.848  16.306  66.008  1.00  0.00     1.326 A  
HETATM   10  F   UNL     1     -12.190  18.606  68.726  1.00  0.00     3.323 F  
HETATM   11  C   UNL     1     -12.380  17.277  66.829  1.00  0.00     4.304 A  
ENDROOT
BRANCH   6  12
HETATM   12  N   UNL     1      -9.795  17.230  69.585  1.00  0.00     0.163 NA 
HETATM   13  C   UNL     1      -9.983  18.333  71.787  1.00  0.00     5.688 C  
HETATM   14  C   UNL     1     -10.732  19.296  72.619  1.00  0.00     3.920 C  
HETATM   15  C   UNL     1      -8.800  17.612  72.259  1.00  0.00    15.222 C  
HETATM   16  C   UNL     1     -10.396  18.066  70.540  1.00  0.00     1.888 C  
HETATM   17  O   UNL     1     -11.755  19.857  72.241  1.00  0.00     8.918 OA 
HETATM   18  O   UNL     1      -8.370  17.806  73.393  1.00  0.00    12.461 OA 
HETATM   19  C   UNL     1      -8.141  16.671  71.330  1.00  0.00     7.673 A  
HETATM   20  O   UNL     1     -10.188  19.546  73.831  1.00  0.00     2.594 OA 
HETATM   21  C   UNL     1      -7.052  15.954  71.825  1.00  0.00     4.515 A  
HETATM   22  C   UNL     1      -6.372  15.084  70.991  1.00  0.00     0.331 A  
HETATM   23  F   UNL     1      -5.357  14.391  71.530  1.00  0.00    -0.125 F  
HETATM   24  C   UNL     1      -6.672  14.973  69.625  1.00  0.00    -0.177 A  
HETATM   25  C   UNL     1      -7.691  15.834  69.122  1.00  0.00    -0.220 A  
HETATM   26 CL   UNL     1      -7.576  16.303  67.433  1.00  0.00    -0.166 Cl 
HETATM   27  C   UNL     1      -8.560  16.568  69.985  1.00  0.00     1.403 A  
BRANCH  24  28
HETATM   28  N   UNL     1      -5.937  14.057  68.824  1.00  0.00    -0.081 NA 
HETATM   29  C   UNL     1      -5.990  13.784  67.419  1.00  0.00     0.213 C  
HETATM   30  C   UNL     1      -5.778  12.296  67.731  1.00  0.00    -0.097 C  
HETATM   31  C   UNL     1      -5.471  12.741  69.167  1.00  0.00    -0.070 C  
HETATM   32  O   UNL     1      -6.928  11.433  67.550  1.00  0.00    -0.088 OA 
HETATM   33  H   UNL     1      -6.796  10.512  67.743  1.00  0.00     0.000 HD 
ENDBRANCH  24  28
ENDBRANCH   6  12
TORSDOF 2
ENDMDL
MODEL      166
REMARK 921   NORMALIZED FREE ENERGY PREDICTED BY IDOCK:   73.77 KCAL/MOL
REMARK 922        TOTAL FREE ENERGY PREDICTED BY IDOCK:   81.55 KCAL/MOL
REMARK 923 INTER-LIGAND FREE ENERGY PREDICTED BY IDOCK:   82.02 KCAL/MOL
REMARK 924 INTRA-LIGAND FREE ENERGY PREDICTED BY IDOCK:   -0.47 KCAL/MOL
REMARK 927      BINDING AFFINITY PREDICTED BY RF-SCORE:    0.00 PKD
ROOT
HETATM    1  N   UNL     1      -6.355  16.061  65.730  1.00  0.00     2.301 NA 
HETATM    2  H1  UNL     1      -5.866  16.532  64.969  1.00  0.00     0.000 HD 
HETATM    3  C   UNL     1      -6.564  14.688  65.580  1.00  0.00     9.082 A  
HETATM    4  H2  UNL     1      -5.874  16.241  66.611  1.00  0.00     0.000 HD 
HETATM    5  N   UNL     1      -7.213  14.064  66.589  1.00  0.00     0.833 NA 
HETATM    6  C   UNL     1      -7.569  12.756  66.443  1.00  0.00     1.071 A  
HETATM    7  F   UNL     1      -5.484  14.670  63.460  1.00  0.00    13.834 F  
HETATM    8  C   UNL     1      -7.138  12.048  65.297  1.00  0.00     3.029 A  
HETATM    9  C   UNL     1      -6.117  14.017  64.445  1.00  0.00    21.828 A  
HETATM   10  F   UNL     1      -7.479  10.770  65.077  1.00  0.00    -0.102 F  
HETATM   11  C   UNL     1      -6.387  12.672  64.308  1.00  0.00    10.221 A  
ENDROOT
BRANCH   6  12
HETATM   12  N   UNL     1      -8.414  12.132  67.451  1.00  0.00    -0.165 NA 
HETATM   13  C   UNL     1      -8.475  10.349  69.158  1.00  0.00    -0.168 C  
HETATM   14  C   UNL     1      -7.898   9.071  69.621  1.00  0.00    -0.088 C  
HETATM   15  C   UNL     1      -9.575  11.029  69.842  1.00  0.00     0.868 C  
HETATM   16  C   UNL     1      -7.971  10.954  68.073  1.00  0.00    -0.109 C  
HETATM   17  O   UNL     1      -6.938   8.531  69.079  1.00  0.00    -0.061 OA 
HETATM   18  O   UNL     1     -10.080  10.531  70.845  1.00  0.00     0.798 OA 
HETATM   19  C   UNL     1     -10.062  12.305  69.280  1.00  0.00     0.404 A  
HETATM   20  O   UNL     1      -8.526   8.512  70.679  1.00  0.00    -0.126 OA 
HETATM   21  C   UNL     1     -11.072  12.961  69.984  1.00  0.00     0.396 A  
HETATM   22  C   UNL     1     -11.593  14.142  69.488  1.00  0.00    -0.295 A  
HETATM   23  F   UNL     1     -12.534  14.751  70.226  1.00  0.00    -0.340 F  
HETATM   24  C   UNL     1     -11.216  14.657  68.238  1.00  0.00    -0.285 A  
HETATM   25  C   UNL     1     -10.295  13.879  67.478  1.00  0.00    -0.245 A  
HETATM   26 CL   UNL     1     -10.388  14.016  65.729  1.00  0.00    -0.315 Cl 
HETATM   27  C   UNL     1      -9.570  12.789  68.047  1.00  0.00    -0.217 A  
BRANCH  24  28
HETATM   28  N   UNL     1     -11.788  15.878  67.788  1.00  0.00     0.080 NA 
HETATM   29  C   UNL     1     -11.279  17.217  67.807  1.00  0.00     0.090 C  
HETATM   30  C   UNL     1     -12.692  17.717  68.139  1.00  0.00     5.402 C  
HETATM   31  C   UNL     1     -13.164  16.291  67.828  1.00  0.00     4.750 C  
HETATM   32  O   UNL     1     -12.902  18.191  69.493  1.00  0.00     9.548 OA 
HETATM   33  H   UNL     1     -13.777  18.500  69.698  1.00  0.00     0.000 HD 
ENDBRANCH  24  28
ENDBRANCH   6  12
TORSDOF 2
ENDMDL
MODEL      167
REMARK 921   NORMALIZED FREE ENERGY PREDICTED BY IDOCK:   83.29 KCAL/MOL
REMARK 922        TOTAL FREE ENERGY PREDICTED BY IDOCK:   92.19 KCAL/MOL
REMARK 923 INTER-LIGAND FREE ENERGY PREDICTED BY IDOCK:   86.10 KCAL/MOL
REMARK 924 INTRA-LIGAND FREE ENERGY PREDICTED BY IDOCK:    6.09 KCAL/MOL
REMARK 927      BINDING AFFINITY PREDICTED BY RF-SCORE:    0.00 PKD
ROOT
HETATM    1  N   UNL     1      -9.822  18.084  65.251  1.00  0.00     0.360 NA 
HETATM    2  H1  UNL     1      -9.400  18.207  64.330  1.00  0.00     0.000 HD 
HETATM    3  C   UNL     1      -9.163  17.220  66.128  1.00  0.00    -0.162 A  
HETATM    4  H2  UNL     1      -9.948  18.994  65.694  1.00  0.00     0.000 HD 
HETATM    5  N   UNL     1      -9.722  17.057  67.348  1.00  0.00    -0.247 NA 
HETATM    6  C   UNL     1      -9.206  16.125  68.198  1.00  0.00    -0.193 A  
HETATM    7  F   UNL     1      -7.468  16.751  64.524  1.00  0.00     4.093 F  
HETATM    8  C   UNL     1      -8.021  15.443  67.836  1.00  0.00    -0.135 A  
HETATM    9  C   UNL     1      -7.991  16.572  65.746  1.00  0.00     0.669 A  
HETATM   10  F   UNL     1      -7.479  14.493  68.612  1.00  0.00    -0.103 F  
HETATM   11  C   UNL     1      -7.397  15.686  66.619  1.00  0.00     0.200 A  
ENDROOT
BRANCH   6  12
HETATM   12  N   UNL     1      -9.908  15.829  69.439  1.00  0.00    -0.270 NA 
HETATM   13  C   UNL     1     -12.003  16.244  70.678  1.00  0.00    -0.004 C  
HETATM   14  C   UNL     1     -13.172  17.129  70.854  1.00  0.00     8.535 C  
HETATM   15  C   UNL     1     -11.773  15.045  71.485  1.00  0.00    -0.370 C  
HETATM   16  C   UNL     1     -11.101  16.512  69.724  1.00  0.00    -0.245 C  
HETATM   17  O   UNL     1     -13.392  18.102  70.139  1.00  0.00    16.003 OA 
HETATM   18  O   UNL     1     -12.564  14.739  72.375  1.00  0.00    -0.324 OA 
HETATM   19  C   UNL     1     -10.566  14.240  71.210  1.00  0.00     2.151 A  
HETATM   20  O   UNL     1     -13.979  16.809  71.890  1.00  0.00     2.344 OA 
HETATM   21  C   UNL     1     -10.402  13.072  71.953  1.00  0.00    10.452 A  
HETATM   22  C   UNL     1      -9.273  12.295  71.765  1.00  0.00    18.306 A  
HETATM   23  F   UNL     1      -9.186  11.162  72.478  1.00  0.00    10.365 F  
HETATM   24  C   UNL     1      -8.225  12.696  70.922  1.00  0.00     8.375 A  
HETATM   25  C   UNL     1      -8.359  13.969  70.295  1.00  0.00     2.281 A  
HETATM   26 CL   UNL     1      -6.876  14.830  69.913  1.00  0.00    -0.176 Cl 
HETATM   27  C   UNL     1      -9.595  14.684  70.284  1.00  0.00     0.999 A  
BRANCH  24  28
HETATM   28  N   UNL     1      -7.093  11.849  70.770  1.00  0.00     1.829 NA 
HETATM   29  C   UNL     1      -6.878  10.711  69.927  1.00  0.00    -0.149 C  
HETATM   30  C   UNL     1      -6.098  10.049  71.071  1.00  0.00    -0.031 C  
HETATM   31  C   UNL     1      -6.160  11.412  71.772  1.00  0.00     1.674 C  
HETATM   32  O   UNL     1      -6.756   8.944  71.739  1.00  0.00    -0.129 OA 
HETATM   33  H   UNL     1      -6.274   8.534  72.448  1.00  0.00     0.000 HD 
ENDBRANCH  24  28
ENDBRANCH   6  12
TORSDOF 2
ENDMDL
